MODEL 1
REMARK VINA RESULT:    -6.282      0.000      0.000
REMARK INTER + INTRA:          -7.948
REMARK INTER:                  -7.567
REMARK INTRA:                  -0.381
REMARK UNBOUND:                -0.381
REMARK SMILES Oc1cc(O)c2c(c1)O[C@@H](c1ccc(O)c(O)c1)[C@@H](O)C2
REMARK SMILES IDX 21 1 19 2 10 3 9 4 7 5 8 6 2 7 3 8 4 9 6 10 20 11 11 13
REMARK SMILES IDX 18 14 12 15 16 16 13 17 14 18 17 19 15 21 5 23 1 25
REMARK H PARENT 20 12 17 20 15 22 5 24 1 26
REMARK Flexibility Score: inf
ROOT
ATOM      1  C   UNL     1      71.998  48.774   9.140  1.00  0.00     0.079 C 
ATOM      2  C   UNL     1      70.524  48.503   9.505  1.00  0.00     0.164 C 
ATOM      3  C   UNL     1      69.593  49.011   8.386  1.00  0.00     0.232 C 
ATOM      4  O   UNL     1      69.960  48.425   7.137  1.00  0.00    -0.482 OA
ATOM      5  C   UNL     1      71.295  48.236   6.767  1.00  0.00     0.131 A 
ATOM      6  C   UNL     1      71.588  47.862   5.453  1.00  0.00     0.093 A 
ATOM      7  C   UNL     1      72.911  47.678   5.049  1.00  0.00     0.122 A 
ATOM      8  C   UNL     1      73.951  47.879   5.964  1.00  0.00     0.092 A 
ATOM      9  C   UNL     1      73.677  48.251   7.285  1.00  0.00     0.126 A 
ATOM     10  C   UNL     1      72.335  48.399   7.710  1.00  0.00     0.039 A 
ENDROOT
BRANCH   2  11
ATOM     11  O   UNL     1      70.316  47.136   9.777  1.00  0.00    -0.389 OA
ATOM     12  H   UNL     1      69.447  47.045  10.246  1.00  0.00     0.211 HD
ENDBRANCH   2  11
BRANCH   3  13
ATOM     13  C   UNL     1      68.142  48.730   8.699  1.00  0.00    -0.001 A 
ATOM     14  C   UNL     1      67.401  47.807   7.939  1.00  0.00     0.057 A 
ATOM     15  C   UNL     1      67.533  49.350   9.804  1.00  0.00     0.012 A 
ATOM     16  C   UNL     1      66.068  47.527   8.259  1.00  0.00     0.157 A 
ATOM     17  C   UNL     1      66.202  49.074  10.125  1.00  0.00     0.050 A 
ATOM     18  C   UNL     1      65.463  48.166   9.356  1.00  0.00     0.157 A 
BRANCH  16  19
ATOM     19  O   UNL     1      65.361  46.613   7.479  1.00  0.00    -0.504 OA
ATOM     20  H   UNL     1      65.261  46.725   6.478  1.00  0.00     0.293 HD
ENDBRANCH  16  19
BRANCH  18  21
ATOM     21  O   UNL     1      64.135  47.892   9.678  1.00  0.00    -0.504 OA
ATOM     22  H   UNL     1      63.369  48.245   9.113  1.00  0.00     0.293 HD
ENDBRANCH  18  21
ENDBRANCH   3  13
BRANCH   9  23
ATOM     23  O   UNL     1      74.759  48.476   8.141  1.00  0.00    -0.507 OA
ATOM     24  H   UNL     1      75.149  49.393   8.313  1.00  0.00     0.293 HD
ENDBRANCH   9  23
BRANCH   7  25
ATOM     25  O   UNL     1      73.183  47.305   3.735  1.00  0.00    -0.508 OA
ATOM     26  H   UNL     1      72.542  46.727   3.205  1.00  0.00     0.293 HD
ENDBRANCH   7  25
TORSDOF 6
ENDMDL
MODEL 2
REMARK VINA RESULT:    -6.000      1.301      2.605
REMARK INTER + INTRA:          -7.609
REMARK INTER:                  -7.347
REMARK INTRA:                  -0.263
REMARK UNBOUND:                -0.381
REMARK SMILES Oc1cc(O)c2c(c1)O[C@@H](c1ccc(O)c(O)c1)[C@@H](O)C2
REMARK SMILES IDX 21 1 19 2 10 3 9 4 7 5 8 6 2 7 3 8 4 9 6 10 20 11 11 13
REMARK SMILES IDX 18 14 12 15 16 16 13 17 14 18 17 19 15 21 5 23 1 25
REMARK H PARENT 20 12 17 20 15 22 5 24 1 26
REMARK Flexibility Score: inf
ROOT
ATOM      1  C   UNL     1      71.206  48.106   5.958  1.00  0.00     0.079 C 
ATOM      2  C   UNL     1      69.797  48.402   6.513  1.00  0.00     0.164 C 
ATOM      3  C   UNL     1      69.421  47.369   7.595  1.00  0.00     0.232 C 
ATOM      4  O   UNL     1      70.414  47.344   8.619  1.00  0.00    -0.482 OA
ATOM      5  C   UNL     1      71.779  47.443   8.335  1.00  0.00     0.131 A 
ATOM      6  C   UNL     1      72.704  47.196   9.352  1.00  0.00     0.093 A 
ATOM      7  C   UNL     1      74.073  47.275   9.097  1.00  0.00     0.122 A 
ATOM      8  C   UNL     1      74.524  47.594   7.811  1.00  0.00     0.092 A 
ATOM      9  C   UNL     1      73.612  47.848   6.779  1.00  0.00     0.126 A 
ATOM     10  C   UNL     1      72.223  47.810   7.043  1.00  0.00     0.039 A 
ENDROOT
BRANCH   2  11
ATOM     11  O   UNL     1      69.715  49.721   7.000  1.00  0.00    -0.389 OA
ATOM     12  H   UNL     1      70.637  50.078   7.078  1.00  0.00     0.211 HD
ENDBRANCH   2  11
BRANCH   3  13
ATOM     13  C   UNL     1      68.057  47.651   8.182  1.00  0.00    -0.001 A 
ATOM     14  C   UNL     1      66.890  47.148   7.580  1.00  0.00     0.057 A 
ATOM     15  C   UNL     1      67.949  48.374   9.382  1.00  0.00     0.012 A 
ATOM     16  C   UNL     1      65.634  47.384   8.151  1.00  0.00     0.157 A 
ATOM     17  C   UNL     1      66.697  48.613   9.953  1.00  0.00     0.050 A 
ATOM     18  C   UNL     1      65.536  48.124   9.343  1.00  0.00     0.157 A 
BRANCH  16  19
ATOM     19  O   UNL     1      64.497  46.877   7.522  1.00  0.00    -0.504 OA
ATOM     20  H   UNL     1      64.510  46.006   7.007  1.00  0.00     0.293 HD
ENDBRANCH  16  19
BRANCH  18  21
ATOM     21  O   UNL     1      64.288  48.365   9.914  1.00  0.00    -0.504 OA
ATOM     22  H   UNL     1      64.197  48.726  10.858  1.00  0.00     0.293 HD
ENDBRANCH  18  21
ENDBRANCH   3  13
BRANCH   9  23
ATOM     23  O   UNL     1      74.122  48.122   5.507  1.00  0.00    -0.507 OA
ATOM     24  H   UNL     1      74.458  47.406   4.878  1.00  0.00     0.293 HD
ENDBRANCH   9  23
BRANCH   7  25
ATOM     25  O   UNL     1      74.979  47.025  10.125  1.00  0.00    -0.508 OA
ATOM     26  H   UNL     1      75.726  46.348  10.021  1.00  0.00     0.293 HD
ENDBRANCH   7  25
TORSDOF 6
ENDMDL
MODEL 3
REMARK VINA RESULT:    -5.719      1.773      6.857
REMARK INTER + INTRA:          -7.271
REMARK INTER:                  -6.901
REMARK INTRA:                  -0.370
REMARK UNBOUND:                -0.381
REMARK SMILES Oc1cc(O)c2c(c1)O[C@@H](c1ccc(O)c(O)c1)[C@@H](O)C2
REMARK SMILES IDX 21 1 19 2 10 3 9 4 7 5 8 6 2 7 3 8 4 9 6 10 20 11 11 13
REMARK SMILES IDX 18 14 12 15 16 16 13 17 14 18 17 19 15 21 5 23 1 25
REMARK H PARENT 20 12 17 20 15 22 5 24 1 26
REMARK Flexibility Score: inf
ROOT
ATOM      1  C   UNL     1      66.808  48.405   9.917  1.00  0.00     0.079 C 
ATOM      2  C   UNL     1      68.281  48.690   9.558  1.00  0.00     0.164 C 
ATOM      3  C   UNL     1      69.116  47.398   9.656  1.00  0.00     0.232 C 
ATOM      4  O   UNL     1      68.545  46.379   8.836  1.00  0.00    -0.482 OA
ATOM      5  C   UNL     1      67.162  46.194   8.733  1.00  0.00     0.131 A 
ATOM      6  C   UNL     1      66.676  45.053   8.091  1.00  0.00     0.093 A 
ATOM      7  C   UNL     1      65.303  44.833   7.984  1.00  0.00     0.122 A 
ATOM      8  C   UNL     1      64.406  45.757   8.531  1.00  0.00     0.092 A 
ATOM      9  C   UNL     1      64.873  46.908   9.177  1.00  0.00     0.126 A 
ATOM     10  C   UNL     1      66.265  47.156   9.251  1.00  0.00     0.039 A 
ENDROOT
BRANCH   2  11
ATOM     11  O   UNL     1      68.383  49.283   8.285  1.00  0.00    -0.389 OA
ATOM     12  H   UNL     1      67.687  48.882   7.703  1.00  0.00     0.211 HD
ENDBRANCH   2  11
BRANCH   3  13
ATOM     13  C   UNL     1      70.560  47.638   9.278  1.00  0.00    -0.001 A 
ATOM     14  C   UNL     1      71.086  47.137   8.074  1.00  0.00     0.057 A 
ATOM     15  C   UNL     1      71.377  48.425  10.107  1.00  0.00     0.012 A 
ATOM     16  C   UNL     1      72.414  47.395   7.716  1.00  0.00     0.157 A 
ATOM     17  C   UNL     1      72.703  48.682   9.753  1.00  0.00     0.050 A 
ATOM     18  C   UNL     1      73.230  48.169   8.560  1.00  0.00     0.157 A 
BRANCH  16  19
ATOM     19  O   UNL     1      72.906  46.876   6.518  1.00  0.00    -0.504 OA
ATOM     20  H   UNL     1      73.166  47.469   5.741  1.00  0.00     0.293 HD
ENDBRANCH  16  19
BRANCH  18  21
ATOM     21  O   UNL     1      74.553  48.427   8.209  1.00  0.00    -0.504 OA
ATOM     22  H   UNL     1      74.799  49.195   7.594  1.00  0.00     0.293 HD
ENDBRANCH  18  21
ENDBRANCH   3  13
BRANCH   9  23
ATOM     23  O   UNL     1      63.932  47.774   9.739  1.00  0.00    -0.507 OA
ATOM     24  H   UNL     1      63.311  47.506  10.491  1.00  0.00     0.293 HD
ENDBRANCH   9  23
BRANCH   7  25
ATOM     25  O   UNL     1      64.838  43.689   7.339  1.00  0.00    -0.508 OA
ATOM     26  H   UNL     1      63.924  43.661   6.902  1.00  0.00     0.293 HD
ENDBRANCH   7  25
TORSDOF 6
ENDMDL
MODEL 4
REMARK VINA RESULT:    -5.544      2.516      7.169
REMARK INTER + INTRA:          -7.059
REMARK INTER:                  -6.884
REMARK INTRA:                  -0.175
REMARK UNBOUND:                -0.381
REMARK SMILES Oc1cc(O)c2c(c1)O[C@@H](c1ccc(O)c(O)c1)[C@@H](O)C2
REMARK SMILES IDX 21 1 19 2 10 3 9 4 7 5 8 6 2 7 3 8 4 9 6 10 20 11 11 13
REMARK SMILES IDX 18 14 12 15 16 16 13 17 14 18 17 19 15 21 5 23 1 25
REMARK H PARENT 20 12 17 20 15 22 5 24 1 26
REMARK Flexibility Score: inf
ROOT
ATOM      1  C   UNL     1      65.937  47.731   7.851  1.00  0.00     0.079 C 
ATOM      2  C   UNL     1      67.433  48.107   7.861  1.00  0.00     0.164 C 
ATOM      3  C   UNL     1      68.056  47.785   9.235  1.00  0.00     0.232 C 
ATOM      4  O   UNL     1      67.838  46.414   9.566  1.00  0.00    -0.482 OA
ATOM      5  C   UNL     1      66.631  45.764   9.287  1.00  0.00     0.131 A 
ATOM      6  C   UNL     1      66.404  44.496   9.827  1.00  0.00     0.093 A 
ATOM      7  C   UNL     1      65.206  43.826   9.578  1.00  0.00     0.122 A 
ATOM      8  C   UNL     1      64.221  44.433   8.791  1.00  0.00     0.092 A 
ATOM      9  C   UNL     1      64.431  45.703   8.239  1.00  0.00     0.126 A 
ATOM     10  C   UNL     1      65.662  46.368   8.455  1.00  0.00     0.039 A 
ENDROOT
BRANCH   2  11
ATOM     11  O   UNL     1      68.121  47.464   6.813  1.00  0.00    -0.389 OA
ATOM     12  H   UNL     1      67.606  47.603   5.977  1.00  0.00     0.211 HD
ENDBRANCH   2  11
BRANCH   3  13
ATOM     13  C   UNL     1      69.531  48.112   9.267  1.00  0.00    -0.001 A 
ATOM     14  C   UNL     1      70.045  49.215   8.561  1.00  0.00     0.057 A 
ATOM     15  C   UNL     1      70.400  47.345  10.060  1.00  0.00     0.012 A 
ATOM     16  C   UNL     1      71.406  49.531   8.625  1.00  0.00     0.157 A 
ATOM     17  C   UNL     1      71.760  47.656  10.125  1.00  0.00     0.050 A 
ATOM     18  C   UNL     1      72.271  48.746   9.409  1.00  0.00     0.157 A 
BRANCH  16  19
ATOM     19  O   UNL     1      71.883  50.627   7.906  1.00  0.00    -0.504 OA
ATOM     20  H   UNL     1      72.009  51.536   8.333  1.00  0.00     0.293 HD
ENDBRANCH  16  19
BRANCH  18  21
ATOM     21  O   UNL     1      73.628  49.055   9.474  1.00  0.00    -0.504 OA
ATOM     22  H   UNL     1      74.198  49.122   8.638  1.00  0.00     0.293 HD
ENDBRANCH  18  21
ENDBRANCH   3  13
BRANCH   9  23
ATOM     23  O   UNL     1      63.396  46.275   7.496  1.00  0.00    -0.507 OA
ATOM     24  H   UNL     1      63.551  46.881   6.701  1.00  0.00     0.293 HD
ENDBRANCH   9  23
BRANCH   7  25
ATOM     25  O   UNL     1      64.998  42.562  10.125  1.00  0.00    -0.508 OA
ATOM     26  H   UNL     1      64.268  41.949   9.781  1.00  0.00     0.293 HD
ENDBRANCH   7  25
TORSDOF 6
ENDMDL
MODEL 5
REMARK VINA RESULT:    -5.499      1.270      1.958
REMARK INTER + INTRA:          -7.005
REMARK INTER:                  -6.623
REMARK INTRA:                  -0.382
REMARK UNBOUND:                -0.381
REMARK SMILES Oc1cc(O)c2c(c1)O[C@@H](c1ccc(O)c(O)c1)[C@@H](O)C2
REMARK SMILES IDX 21 1 19 2 10 3 9 4 7 5 8 6 2 7 3 8 4 9 6 10 20 11 11 13
REMARK SMILES IDX 18 14 12 15 16 16 13 17 14 18 17 19 15 21 5 23 1 25
REMARK H PARENT 20 12 17 20 15 22 5 24 1 26
REMARK Flexibility Score: inf
ROOT
ATOM      1  C   UNL     1      70.799  49.071   9.203  1.00  0.00     0.079 C 
ATOM      2  C   UNL     1      69.483  48.301   9.435  1.00  0.00     0.164 C 
ATOM      3  C   UNL     1      68.761  48.060   8.094  1.00  0.00     0.232 C 
ATOM      4  O   UNL     1      69.629  47.388   7.181  1.00  0.00    -0.482 OA
ATOM      5  C   UNL     1      70.989  47.698   7.083  1.00  0.00     0.131 A 
ATOM      6  C   UNL     1      71.732  47.163   6.028  1.00  0.00     0.093 A 
ATOM      7  C   UNL     1      73.088  47.463   5.894  1.00  0.00     0.122 A 
ATOM      8  C   UNL     1      73.705  48.314   6.818  1.00  0.00     0.092 A 
ATOM      9  C   UNL     1      72.978  48.859   7.883  1.00  0.00     0.126 A 
ATOM     10  C   UNL     1      71.613  48.524   8.046  1.00  0.00     0.039 A 
ENDROOT
BRANCH   2  11
ATOM     11  O   UNL     1      69.720  47.097  10.125  1.00  0.00    -0.389 OA
ATOM     12  H   UNL     1      69.470  46.345   9.527  1.00  0.00     0.211 HD
ENDBRANCH   2  11
BRANCH   3  13
ATOM     13  C   UNL     1      67.481  47.278   8.284  1.00  0.00    -0.001 A 
ATOM     14  C   UNL     1      66.379  47.842   8.951  1.00  0.00     0.057 A 
ATOM     15  C   UNL     1      67.361  45.990   7.736  1.00  0.00     0.012 A 
ATOM     16  C   UNL     1      65.187  47.124   9.092  1.00  0.00     0.157 A 
ATOM     17  C   UNL     1      66.173  45.270   7.876  1.00  0.00     0.050 A 
ATOM     18  C   UNL     1      65.082  45.829   8.554  1.00  0.00     0.157 A 
BRANCH  16  19
ATOM     19  O   UNL     1      64.117  47.712   9.766  1.00  0.00    -0.504 OA
ATOM     20  H   UNL     1      63.278  48.012   9.286  1.00  0.00     0.293 HD
ENDBRANCH  16  19
BRANCH  18  21
ATOM     21  O   UNL     1      63.898  45.108   8.693  1.00  0.00    -0.504 OA
ATOM     22  H   UNL     1      63.240  45.308   9.439  1.00  0.00     0.293 HD
ENDBRANCH  18  21
ENDBRANCH   3  13
BRANCH   9  23
ATOM     23  O   UNL     1      73.639  49.733   8.749  1.00  0.00    -0.507 OA
ATOM     24  H   UNL     1      73.262  50.021   9.642  1.00  0.00     0.293 HD
ENDBRANCH   9  23
BRANCH   7  25
ATOM     25  O   UNL     1      73.812  46.919   4.836  1.00  0.00    -0.508 OA
ATOM     26  H   UNL     1      73.436  46.893   3.895  1.00  0.00     0.293 HD
ENDBRANCH   7  25
TORSDOF 6
ENDMDL
MODEL 6
REMARK VINA RESULT:    -5.495      1.482      6.823
REMARK INTER + INTRA:          -7.000
REMARK INTER:                  -6.736
REMARK INTRA:                  -0.265
REMARK UNBOUND:                -0.381
REMARK SMILES Oc1cc(O)c2c(c1)O[C@@H](c1ccc(O)c(O)c1)[C@@H](O)C2
REMARK SMILES IDX 21 1 19 2 10 3 9 4 7 5 8 6 2 7 3 8 4 9 6 10 20 11 11 13
REMARK SMILES IDX 18 14 12 15 16 16 13 17 14 18 17 19 15 21 5 23 1 25
REMARK H PARENT 20 12 17 20 15 22 5 24 1 26
REMARK Flexibility Score: inf
ROOT
ATOM      1  C   UNL     1      68.362  49.061   8.881  1.00  0.00     0.079 C 
ATOM      2  C   UNL     1      69.615  49.109   7.983  1.00  0.00     0.164 C 
ATOM      3  C   UNL     1      70.259  47.711   7.889  1.00  0.00     0.232 C 
ATOM      4  O   UNL     1      69.301  46.756   7.434  1.00  0.00    -0.482 OA
ATOM      5  C   UNL     1      67.970  46.775   7.863  1.00  0.00     0.131 A 
ATOM      6  C   UNL     1      67.143  45.693   7.553  1.00  0.00     0.093 A 
ATOM      7  C   UNL     1      65.813  45.676   7.978  1.00  0.00     0.122 A 
ATOM      8  C   UNL     1      65.309  46.745   8.727  1.00  0.00     0.092 A 
ATOM      9  C   UNL     1      66.122  47.840   9.045  1.00  0.00     0.126 A 
ATOM     10  C   UNL     1      67.459  47.880   8.581  1.00  0.00     0.039 A 
ENDROOT
BRANCH   2  11
ATOM     11  O   UNL     1      69.302  49.626   6.711  1.00  0.00    -0.389 OA
ATOM     12  H   UNL     1      68.392  49.314   6.467  1.00  0.00     0.211 HD
ENDBRANCH   2  11
BRANCH   3  13
ATOM     13  C   UNL     1      71.473  47.718   6.987  1.00  0.00    -0.001 A 
ATOM     14  C   UNL     1      71.370  47.362   5.631  1.00  0.00     0.057 A 
ATOM     15  C   UNL     1      72.713  48.145   7.490  1.00  0.00     0.012 A 
ATOM     16  C   UNL     1      72.492  47.406   4.795  1.00  0.00     0.157 A 
ATOM     17  C   UNL     1      73.836  48.188   6.659  1.00  0.00     0.050 A 
ATOM     18  C   UNL     1      73.733  47.818   5.312  1.00  0.00     0.157 A 
BRANCH  16  19
ATOM     19  O   UNL     1      72.355  47.038   3.457  1.00  0.00    -0.504 OA
ATOM     20  H   UNL     1      71.537  46.552   3.114  1.00  0.00     0.293 HD
ENDBRANCH  16  19
BRANCH  18  21
ATOM     21  O   UNL     1      74.854  47.861   4.485  1.00  0.00    -0.504 OA
ATOM     22  H   UNL     1      75.678  47.302   4.679  1.00  0.00     0.293 HD
ENDBRANCH  18  21
ENDBRANCH   3  13
BRANCH   9  23
ATOM     23  O   UNL     1      65.575  48.858   9.829  1.00  0.00    -0.507 OA
ATOM     24  H   UNL     1      66.125  49.603  10.236  1.00  0.00     0.293 HD
ENDBRANCH   9  23
BRANCH   7  25
ATOM     25  O   UNL     1      65.004  44.589   7.659  1.00  0.00    -0.508 OA
ATOM     26  H   UNL     1      64.334  44.631   6.899  1.00  0.00     0.293 HD
ENDBRANCH   7  25
TORSDOF 6
ENDMDL
MODEL 7
REMARK VINA RESULT:    -5.468      1.652      6.732
REMARK INTER + INTRA:          -6.968
REMARK INTER:                  -6.930
REMARK INTRA:                  -0.038
REMARK UNBOUND:                -0.381
REMARK SMILES Oc1cc(O)c2c(c1)O[C@@H](c1ccc(O)c(O)c1)[C@@H](O)C2
REMARK SMILES IDX 21 1 19 2 10 3 9 4 7 5 8 6 2 7 3 8 4 9 6 10 20 11 11 13
REMARK SMILES IDX 18 14 12 15 16 16 13 17 14 18 17 19 15 21 5 23 1 25
REMARK H PARENT 20 12 17 20 15 22 5 24 1 26
REMARK Flexibility Score: inf
ROOT
ATOM      1  C   UNL     1      69.920  49.544   9.071  1.00  0.00     0.079 C 
ATOM      2  C   UNL     1      71.017  49.012   8.126  1.00  0.00     0.164 C 
ATOM      3  C   UNL     1      70.939  47.475   8.027  1.00  0.00     0.232 C 
ATOM      4  O   UNL     1      69.631  47.073   7.621  1.00  0.00    -0.482 OA
ATOM      5  C   UNL     1      68.477  47.703   8.099  1.00  0.00     0.131 A 
ATOM      6  C   UNL     1      67.232  47.127   7.836  1.00  0.00     0.093 A 
ATOM      7  C   UNL     1      66.063  47.724   8.309  1.00  0.00     0.122 A 
ATOM      8  C   UNL     1      66.139  48.901   9.062  1.00  0.00     0.092 A 
ATOM      9  C   UNL     1      67.378  49.495   9.335  1.00  0.00     0.126 A 
ATOM     10  C   UNL     1      68.563  48.915   8.821  1.00  0.00     0.039 A 
ENDROOT
BRANCH   2  11
ATOM     11  O   UNL     1      70.928  49.622   6.859  1.00  0.00    -0.389 OA
ATOM     12  H   UNL     1      70.513  50.515   6.976  1.00  0.00     0.211 HD
ENDBRANCH   2  11
BRANCH   3  13
ATOM     13  C   UNL     1      71.982  46.926   7.081  1.00  0.00    -0.001 A 
ATOM     14  C   UNL     1      71.808  47.001   5.687  1.00  0.00     0.057 A 
ATOM     15  C   UNL     1      73.174  46.386   7.592  1.00  0.00     0.012 A 
ATOM     16  C   UNL     1      72.795  46.522   4.819  1.00  0.00     0.157 A 
ATOM     17  C   UNL     1      74.160  45.905   6.728  1.00  0.00     0.050 A 
ATOM     18  C   UNL     1      73.977  45.967   5.341  1.00  0.00     0.157 A 
BRANCH  16  19
ATOM     19  O   UNL     1      72.586  46.605   3.442  1.00  0.00    -0.504 OA
ATOM     20  H   UNL     1      73.168  46.110   2.779  1.00  0.00     0.293 HD
ENDBRANCH  16  19
BRANCH  18  21
ATOM     21  O   UNL     1      74.962  45.486   4.481  1.00  0.00    -0.504 OA
ATOM     22  H   UNL     1      75.134  45.915   3.578  1.00  0.00     0.293 HD
ENDBRANCH  18  21
ENDBRANCH   3  13
BRANCH   9  23
ATOM     23  O   UNL     1      67.394  50.646  10.125  1.00  0.00    -0.507 OA
ATOM     24  H   UNL     1      68.172  51.292  10.151  1.00  0.00     0.293 HD
ENDBRANCH   9  23
BRANCH   7  25
ATOM     25  O   UNL     1      64.831  47.135   8.036  1.00  0.00    -0.508 OA
ATOM     26  H   UNL     1      64.741  46.380   7.366  1.00  0.00     0.293 HD
ENDBRANCH   7  25
TORSDOF 6
ENDMDL
MODEL 8
REMARK VINA RESULT:    -5.457      3.726      6.292
REMARK INTER + INTRA:          -6.955
REMARK INTER:                  -6.672
REMARK INTRA:                  -0.283
REMARK UNBOUND:                -0.381
REMARK SMILES Oc1cc(O)c2c(c1)O[C@@H](c1ccc(O)c(O)c1)[C@@H](O)C2
REMARK SMILES IDX 21 1 19 2 10 3 9 4 7 5 8 6 2 7 3 8 4 9 6 10 20 11 11 13
REMARK SMILES IDX 18 14 12 15 16 16 13 17 14 18 17 19 15 21 5 23 1 25
REMARK H PARENT 20 12 17 20 15 22 5 24 1 26
REMARK Flexibility Score: inf
ROOT
ATOM      1  C   UNL     1      72.967  47.601   7.033  1.00  0.00     0.079 C 
ATOM      2  C   UNL     1      72.650  46.322   6.230  1.00  0.00     0.164 C 
ATOM      3  C   UNL     1      71.816  45.347   7.085  1.00  0.00     0.232 C 
ATOM      4  O   UNL     1      70.637  45.994   7.563  1.00  0.00    -0.482 OA
ATOM      5  C   UNL     1      70.644  47.322   8.002  1.00  0.00     0.131 A 
ATOM      6  C   UNL     1      69.516  47.826   8.655  1.00  0.00     0.093 A 
ATOM      7  C   UNL     1      69.496  49.142   9.117  1.00  0.00     0.122 A 
ATOM      8  C   UNL     1      70.616  49.961   8.932  1.00  0.00     0.092 A 
ATOM      9  C   UNL     1      71.754  49.475   8.277  1.00  0.00     0.126 A 
ATOM     10  C   UNL     1      71.764  48.153   7.771  1.00  0.00     0.039 A 
ENDROOT
BRANCH   2  11
ATOM     11  O   UNL     1      72.005  46.636   5.018  1.00  0.00    -0.389 OA
ATOM     12  H   UNL     1      71.593  47.533   5.112  1.00  0.00     0.211 HD
ENDBRANCH   2  11
BRANCH   3  13
ATOM     13  C   UNL     1      71.461  44.096   6.315  1.00  0.00    -0.001 A 
ATOM     14  C   UNL     1      72.424  43.423   5.542  1.00  0.00     0.057 A 
ATOM     15  C   UNL     1      70.168  43.556   6.417  1.00  0.00     0.012 A 
ATOM     16  C   UNL     1      72.095  42.245   4.861  1.00  0.00     0.157 A 
ATOM     17  C   UNL     1      69.836  42.382   5.737  1.00  0.00     0.050 A 
ATOM     18  C   UNL     1      70.793  41.723   4.955  1.00  0.00     0.157 A 
BRANCH  16  19
ATOM     19  O   UNL     1      73.073  41.608   4.097  1.00  0.00    -0.504 OA
ATOM     20  H   UNL     1      74.061  41.765   4.249  1.00  0.00     0.293 HD
ENDBRANCH  16  19
BRANCH  18  21
ATOM     21  O   UNL     1      70.459  40.552   4.277  1.00  0.00    -0.504 OA
ATOM     22  H   UNL     1      70.549  39.642   4.715  1.00  0.00     0.293 HD
ENDBRANCH  18  21
ENDBRANCH   3  13
BRANCH   9  23
ATOM     23  O   UNL     1      72.856  50.326   8.159  1.00  0.00    -0.507 OA
ATOM     24  H   UNL     1      73.808  50.028   8.323  1.00  0.00     0.293 HD
ENDBRANCH   9  23
BRANCH   7  25
ATOM     25  O   UNL     1      68.362  49.626   9.765  1.00  0.00    -0.508 OA
ATOM     26  H   UNL     1      67.580  50.011   9.249  1.00  0.00     0.293 HD
ENDBRANCH   7  25
TORSDOF 6
ENDMDL
MODEL 9
REMARK VINA RESULT:    -5.357      2.986      6.939
REMARK INTER + INTRA:          -6.835
REMARK INTER:                  -6.531
REMARK INTRA:                  -0.304
REMARK UNBOUND:                -0.381
REMARK SMILES Oc1cc(O)c2c(c1)O[C@@H](c1ccc(O)c(O)c1)[C@@H](O)C2
REMARK SMILES IDX 21 1 19 2 10 3 9 4 7 5 8 6 2 7 3 8 4 9 6 10 20 11 11 13
REMARK SMILES IDX 18 14 12 15 16 16 13 17 14 18 17 19 15 21 5 23 1 25
REMARK H PARENT 20 12 17 20 15 22 5 24 1 26
REMARK Flexibility Score: inf
ROOT
ATOM      1  C   UNL     1      70.026  48.164   8.107  1.00  0.00     0.079 C 
ATOM      2  C   UNL     1      70.934  47.271   7.235  1.00  0.00     0.164 C 
ATOM      3  C   UNL     1      70.590  45.784   7.454  1.00  0.00     0.232 C 
ATOM      4  O   UNL     1      69.204  45.557   7.203  1.00  0.00    -0.482 OA
ATOM      5  C   UNL     1      68.217  46.465   7.601  1.00  0.00     0.131 A 
ATOM      6  C   UNL     1      66.875  46.086   7.522  1.00  0.00     0.093 A 
ATOM      7  C   UNL     1      65.868  46.965   7.923  1.00  0.00     0.122 A 
ATOM      8  C   UNL     1      66.205  48.230   8.416  1.00  0.00     0.092 A 
ATOM      9  C   UNL     1      67.545  48.629   8.501  1.00  0.00     0.126 A 
ATOM     10  C   UNL     1      68.567  47.757   8.057  1.00  0.00     0.039 A 
ENDROOT
BRANCH   2  11
ATOM     11  O   UNL     1      70.843  47.634   5.878  1.00  0.00    -0.389 OA
ATOM     12  H   UNL     1      70.495  46.854   5.373  1.00  0.00     0.211 HD
ENDBRANCH   2  11
BRANCH   3  13
ATOM     13  C   UNL     1      71.441  44.884   6.588  1.00  0.00    -0.001 A 
ATOM     14  C   UNL     1      70.860  43.872   5.803  1.00  0.00     0.057 A 
ATOM     15  C   UNL     1      72.828  45.095   6.513  1.00  0.00     0.012 A 
ATOM     16  C   UNL     1      71.652  43.066   4.977  1.00  0.00     0.157 A 
ATOM     17  C   UNL     1      73.622  44.291   5.691  1.00  0.00     0.050 A 
ATOM     18  C   UNL     1      73.042  43.274   4.922  1.00  0.00     0.157 A 
BRANCH  16  19
ATOM     19  O   UNL     1      71.043  42.066   4.219  1.00  0.00    -0.504 OA
ATOM     20  H   UNL     1      70.992  41.107   4.537  1.00  0.00     0.293 HD
ENDBRANCH  16  19
BRANCH  18  21
ATOM     21  O   UNL     1      73.836  42.473   4.104  1.00  0.00    -0.504 OA
ATOM     22  H   UNL     1      73.428  41.854   3.412  1.00  0.00     0.293 HD
ENDBRANCH  18  21
ENDBRANCH   3  13
BRANCH   9  23
ATOM     23  O   UNL     1      67.821  49.888   9.040  1.00  0.00    -0.507 OA
ATOM     24  H   UNL     1      67.384  50.240   9.881  1.00  0.00     0.293 HD
ENDBRANCH   9  23
BRANCH   7  25
ATOM     25  O   UNL     1      64.535  46.569   7.835  1.00  0.00    -0.508 OA
ATOM     26  H   UNL     1      64.235  45.858   7.178  1.00  0.00     0.293 HD
ENDBRANCH   7  25
TORSDOF 6
ENDMDL
