MODEL 1
REMARK VINA RESULT:    -5.756      0.000      0.000
REMARK INTER + INTRA:          -5.756
REMARK INTER:                  -5.756
REMARK INTRA:                   0.000
REMARK UNBOUND:                 0.000
REMARK SMILES CC1=CC(=O)[C@@H]2C[C@H]1C2(C)C
REMARK SMILES IDX 1 1 2 2 3 3 4 4 5 5 6 6 7 7 8 8 9 9 10 10 11 11
REMARK H PARENT
REMARK Flexibility Score: inf
ROOT
ATOM      1  C   UNL     1     -13.981 -15.535  31.218  1.00  0.00     0.040 C 
ATOM      2  C   UNL     1     -12.939 -16.269  30.434  1.00  0.00    -0.066 C 
ATOM      3  C   UNL     1     -12.212 -17.289  30.969  1.00  0.00     0.047 C 
ATOM      4  C   UNL     1     -11.207 -17.932  30.061  1.00  0.00     0.159 C 
ATOM      5  O   UNL     1     -10.504 -18.911  30.423  1.00  0.00    -0.295 OA
ATOM      6  C   UNL     1     -11.094 -17.314  28.668  1.00  0.00     0.067 C 
ATOM      7  C   UNL     1     -11.061 -15.792  28.931  1.00  0.00     0.021 C 
ATOM      8  C   UNL     1     -12.604 -15.857  28.986  1.00  0.00     0.022 C 
ATOM      9  C   UNL     1     -12.526 -17.128  28.091  1.00  0.00    -0.019 C 
ATOM     10  C   UNL     1     -12.514 -16.784  26.580  1.00  0.00     0.012 C 
ATOM     11  C   UNL     1     -13.569 -18.256  28.327  1.00  0.00     0.012 C 
ENDROOT
TORSDOF 0
ENDMDL
MODEL 2
REMARK VINA RESULT:    -5.558      1.621      2.556
REMARK INTER + INTRA:          -5.558
REMARK INTER:                  -5.558
REMARK INTRA:                   0.000
REMARK UNBOUND:                 0.000
REMARK SMILES CC1=CC(=O)[C@@H]2C[C@H]1C2(C)C
REMARK SMILES IDX 1 1 2 2 3 3 4 4 5 5 6 6 7 7 8 8 9 9 10 10 11 11
REMARK H PARENT
REMARK Flexibility Score: inf
ROOT
ATOM      1  C   UNL     1     -11.880 -19.451  30.265  1.00  0.00     0.040 C 
ATOM      2  C   UNL     1     -11.821 -18.068  29.698  1.00  0.00    -0.066 C 
ATOM      3  C   UNL     1     -10.741 -17.256  29.874  1.00  0.00     0.047 C 
ATOM      4  C   UNL     1     -10.825 -15.898  29.245  1.00  0.00     0.159 C 
ATOM      5  O   UNL     1      -9.876 -15.073  29.299  1.00  0.00    -0.295 OA
ATOM      6  C   UNL     1     -12.143 -15.586  28.536  1.00  0.00     0.067 C 
ATOM      7  C   UNL     1     -13.227 -16.066  29.526  1.00  0.00     0.021 C 
ATOM      8  C   UNL     1     -13.020 -17.477  28.930  1.00  0.00     0.022 C 
ATOM      9  C   UNL     1     -12.514 -16.792  27.628  1.00  0.00    -0.019 C 
ATOM     10  C   UNL     1     -13.670 -16.460  26.650  1.00  0.00     0.012 C 
ATOM     11  C   UNL     1     -11.380 -17.489  26.825  1.00  0.00     0.012 C 
ENDROOT
TORSDOF 0
ENDMDL
MODEL 3
REMARK VINA RESULT:    -5.533      1.872      3.488
REMARK INTER + INTRA:          -5.533
REMARK INTER:                  -5.533
REMARK INTRA:                   0.000
REMARK UNBOUND:                 0.000
REMARK SMILES CC1=CC(=O)[C@@H]2C[C@H]1C2(C)C
REMARK SMILES IDX 1 1 2 2 3 3 4 4 5 5 6 6 7 7 8 8 9 9 10 10 11 11
REMARK H PARENT
REMARK Flexibility Score: inf
ROOT
ATOM      1  C   UNL     1     -11.400 -17.337  25.974  1.00  0.00     0.040 C 
ATOM      2  C   UNL     1     -11.587 -16.970  27.412  1.00  0.00    -0.066 C 
ATOM      3  C   UNL     1     -12.690 -16.303  27.855  1.00  0.00     0.047 C 
ATOM      4  C   UNL     1     -12.739 -16.006  29.323  1.00  0.00     0.159 C 
ATOM      5  O   UNL     1     -13.723 -15.434  29.860  1.00  0.00    -0.295 OA
ATOM      6  C   UNL     1     -11.511 -16.446  30.121  1.00  0.00     0.067 C 
ATOM      7  C   UNL     1     -10.316 -15.980  29.261  1.00  0.00     0.021 C 
ATOM      8  C   UNL     1     -10.498 -17.287  28.456  1.00  0.00     0.022 C 
ATOM      9  C   UNL     1     -11.159 -17.907  29.722  1.00  0.00    -0.019 C 
ATOM     10  C   UNL     1     -10.118 -18.544  30.677  1.00  0.00     0.012 C 
ATOM     11  C   UNL     1     -12.322 -18.918  29.522  1.00  0.00     0.012 C 
ENDROOT
TORSDOF 0
ENDMDL
MODEL 4
REMARK VINA RESULT:    -5.489      1.490      3.342
REMARK INTER + INTRA:          -5.489
REMARK INTER:                  -5.489
REMARK INTRA:                   0.000
REMARK UNBOUND:                 0.000
REMARK SMILES CC1=CC(=O)[C@@H]2C[C@H]1C2(C)C
REMARK SMILES IDX 1 1 2 2 3 3 4 4 5 5 6 6 7 7 8 8 9 9 10 10 11 11
REMARK H PARENT
REMARK Flexibility Score: inf
ROOT
ATOM      1  C   UNL     1     -11.373 -17.375  25.975  1.00  0.00     0.040 C 
ATOM      2  C   UNL     1     -11.759 -17.324  27.420  1.00  0.00    -0.066 C 
ATOM      3  C   UNL     1     -12.501 -18.304  28.008  1.00  0.00     0.047 C 
ATOM      4  C   UNL     1     -12.808 -18.117  29.464  1.00  0.00     0.159 C 
ATOM      5  O   UNL     1     -13.448 -18.972  30.130  1.00  0.00    -0.295 OA
ATOM      6  C   UNL     1     -12.291 -16.817  30.080  1.00  0.00     0.067 C 
ATOM      7  C   UNL     1     -12.671 -15.733  29.047  1.00  0.00     0.021 C 
ATOM      8  C   UNL     1     -11.375 -16.117  28.298  1.00  0.00     0.022 C 
ATOM      9  C   UNL     1     -10.807 -16.624  29.655  1.00  0.00    -0.019 C 
ATOM     10  C   UNL     1     -10.106 -15.499  30.458  1.00  0.00     0.012 C 
ATOM     11  C   UNL     1      -9.875 -17.868  29.643  1.00  0.00     0.012 C 
ENDROOT
TORSDOF 0
ENDMDL
MODEL 5
REMARK VINA RESULT:    -5.477      1.619      2.943
REMARK INTER + INTRA:          -5.477
REMARK INTER:                  -5.477
REMARK INTRA:                   0.000
REMARK UNBOUND:                 0.000
REMARK SMILES CC1=CC(=O)[C@@H]2C[C@H]1C2(C)C
REMARK SMILES IDX 1 1 2 2 3 3 4 4 5 5 6 6 7 7 8 8 9 9 10 10 11 11
REMARK H PARENT
REMARK Flexibility Score: inf
ROOT
ATOM      1  C   UNL     1      -9.896 -18.523  30.456  1.00  0.00     0.040 C 
ATOM      2  C   UNL     1     -11.135 -18.349  29.635  1.00  0.00    -0.066 C 
ATOM      3  C   UNL     1     -12.096 -19.312  29.556  1.00  0.00     0.047 C 
ATOM      4  C   UNL     1     -13.283 -18.994  28.697  1.00  0.00     0.159 C 
ATOM      5  O   UNL     1     -14.256 -19.783  28.578  1.00  0.00    -0.295 OA
ATOM      6  C   UNL     1     -13.226 -17.647  27.976  1.00  0.00     0.067 C 
ATOM      7  C   UNL     1     -11.794 -17.588  27.399  1.00  0.00     0.021 C 
ATOM      8  C   UNL     1     -11.349 -17.078  28.788  1.00  0.00     0.022 C 
ATOM      9  C   UNL     1     -12.800 -16.555  28.998  1.00  0.00    -0.019 C 
ATOM     10  C   UNL     1     -12.995 -15.121  28.444  1.00  0.00     0.012 C 
ATOM     11  C   UNL     1     -13.401 -16.611  30.431  1.00  0.00     0.012 C 
ENDROOT
TORSDOF 0
ENDMDL
MODEL 6
REMARK VINA RESULT:    -5.437      1.723      3.519
REMARK INTER + INTRA:          -5.437
REMARK INTER:                  -5.437
REMARK INTRA:                   0.000
REMARK UNBOUND:                 0.000
REMARK SMILES CC1=CC(=O)[C@@H]2C[C@H]1C2(C)C
REMARK SMILES IDX 1 1 2 2 3 3 4 4 5 5 6 6 7 7 8 8 9 9 10 10 11 11
REMARK H PARENT
REMARK Flexibility Score: inf
ROOT
ATOM      1  C   UNL     1     -12.971 -15.516  28.426  1.00  0.00     0.040 C 
ATOM      2  C   UNL     1     -12.917 -16.437  29.604  1.00  0.00    -0.066 C 
ATOM      3  C   UNL     1     -13.150 -17.775  29.492  1.00  0.00     0.047 C 
ATOM      4  C   UNL     1     -13.057 -18.570  30.760  1.00  0.00     0.159 C 
ATOM      5  O   UNL     1     -13.209 -19.820  30.781  1.00  0.00    -0.295 OA
ATOM      6  C   UNL     1     -12.769 -17.759  32.022  1.00  0.00     0.067 C 
ATOM      7  C   UNL     1     -13.721 -16.547  31.918  1.00  0.00     0.021 C 
ATOM      8  C   UNL     1     -12.647 -15.891  31.021  1.00  0.00     0.022 C 
ATOM      9  C   UNL     1     -11.590 -16.788  31.728  1.00  0.00    -0.019 C 
ATOM     10  C   UNL     1     -11.030 -16.133  33.017  1.00  0.00     0.012 C 
ATOM     11  C   UNL     1     -10.393 -17.314  30.888  1.00  0.00     0.012 C 
ENDROOT
TORSDOF 0
ENDMDL
MODEL 7
REMARK VINA RESULT:    -5.380      2.167      3.482
REMARK INTER + INTRA:          -5.380
REMARK INTER:                  -5.380
REMARK INTRA:                   0.000
REMARK UNBOUND:                 0.000
REMARK SMILES CC1=CC(=O)[C@@H]2C[C@H]1C2(C)C
REMARK SMILES IDX 1 1 2 2 3 3 4 4 5 5 6 6 7 7 8 8 9 9 10 10 11 11
REMARK H PARENT
REMARK Flexibility Score: inf
ROOT
ATOM      1  C   UNL     1     -12.458 -19.880  31.638  1.00  0.00     0.040 C 
ATOM      2  C   UNL     1     -12.708 -18.450  31.278  1.00  0.00    -0.066 C 
ATOM      3  C   UNL     1     -13.543 -17.653  32.002  1.00  0.00     0.047 C 
ATOM      4  C   UNL     1     -13.693 -16.241  31.521  1.00  0.00     0.159 C 
ATOM      5  O   UNL     1     -14.402 -15.396  32.129  1.00  0.00    -0.295 OA
ATOM      6  C   UNL     1     -12.929 -15.901  30.242  1.00  0.00     0.067 C 
ATOM      7  C   UNL     1     -13.219 -17.091  29.301  1.00  0.00     0.021 C 
ATOM      8  C   UNL     1     -12.067 -17.828  30.021  1.00  0.00     0.022 C 
ATOM      9  C   UNL     1     -11.474 -16.434  30.378  1.00  0.00    -0.019 C 
ATOM     10  C   UNL     1     -10.540 -15.889  29.268  1.00  0.00     0.012 C 
ATOM     11  C   UNL     1     -10.754 -16.271  31.746  1.00  0.00     0.012 C 
ENDROOT
TORSDOF 0
ENDMDL
MODEL 8
REMARK VINA RESULT:    -5.374      1.668      2.151
REMARK INTER + INTRA:          -5.374
REMARK INTER:                  -5.374
REMARK INTRA:                   0.000
REMARK UNBOUND:                 0.000
REMARK SMILES CC1=CC(=O)[C@@H]2C[C@H]1C2(C)C
REMARK SMILES IDX 1 1 2 2 3 3 4 4 5 5 6 6 7 7 8 8 9 9 10 10 11 11
REMARK H PARENT
REMARK Flexibility Score: inf
ROOT
ATOM      1  C   UNL     1     -14.440 -15.268  32.127  1.00  0.00     0.040 C 
ATOM      2  C   UNL     1     -13.243 -16.041  31.670  1.00  0.00    -0.066 C 
ATOM      3  C   UNL     1     -12.151 -16.226  32.464  1.00  0.00     0.047 C 
ATOM      4  C   UNL     1     -11.030 -17.025  31.871  1.00  0.00     0.159 C 
ATOM      5  O   UNL     1      -9.986 -17.301  32.519  1.00  0.00    -0.295 OA
ATOM      6  C   UNL     1     -11.242 -17.479  30.427  1.00  0.00     0.067 C 
ATOM      7  C   UNL     1     -11.779 -16.220  29.711  1.00  0.00     0.021 C 
ATOM      8  C   UNL     1     -13.174 -16.620  30.243  1.00  0.00     0.022 C 
ATOM      9  C   UNL     1     -12.667 -18.090  30.305  1.00  0.00    -0.019 C 
ATOM     10  C   UNL     1     -12.873 -18.841  28.965  1.00  0.00     0.012 C 
ATOM     11  C   UNL     1     -13.182 -18.997  31.458  1.00  0.00     0.012 C 
ENDROOT
TORSDOF 0
ENDMDL
MODEL 9
REMARK VINA RESULT:    -5.260      1.510      1.902
REMARK INTER + INTRA:          -5.260
REMARK INTER:                  -5.260
REMARK INTRA:                   0.000
REMARK UNBOUND:                 0.000
REMARK SMILES CC1=CC(=O)[C@@H]2C[C@H]1C2(C)C
REMARK SMILES IDX 1 1 2 2 3 3 4 4 5 5 6 6 7 7 8 8 9 9 10 10 11 11
REMARK H PARENT
REMARK Flexibility Score: inf
ROOT
ATOM      1  C   UNL     1     -13.987 -15.731  31.710  1.00  0.00     0.040 C 
ATOM      2  C   UNL     1     -13.120 -16.883  31.310  1.00  0.00    -0.066 C 
ATOM      3  C   UNL     1     -13.340 -18.150  31.760  1.00  0.00     0.047 C 
ATOM      4  C   UNL     1     -12.390 -19.201  31.270  1.00  0.00     0.159 C 
ATOM      5  O   UNL     1     -12.513 -20.414  31.580  1.00  0.00    -0.295 OA
ATOM      6  C   UNL     1     -11.261 -18.695  30.372  1.00  0.00     0.067 C 
ATOM      7  C   UNL     1     -10.740 -17.433  31.095  1.00  0.00     0.021 C 
ATOM      8  C   UNL     1     -11.891 -16.668  30.404  1.00  0.00     0.022 C 
ATOM      9  C   UNL     1     -11.871 -17.757  29.292  1.00  0.00    -0.019 C 
ATOM     10  C   UNL     1     -10.864 -17.426  28.161  1.00  0.00     0.012 C 
ATOM     11  C   UNL     1     -13.222 -18.164  28.639  1.00  0.00     0.012 C 
ENDROOT
TORSDOF 0
ENDMDL
