MODEL 1
REMARK VINA RESULT:    -5.862      0.000      0.000
REMARK INTER + INTRA:         -11.836
REMARK INTER:                 -11.002
REMARK INTRA:                  -0.834
REMARK UNBOUND:                -0.834
REMARK SMILES CCCCCCCCC=CCCCCCCCC(=O)[O-]
REMARK SMILES IDX 10 1 9 2 11 3 12 4 13 5 14 6 15 7 16 8 17 9 18 10 19 11
REMARK SMILES IDX 20 12 8 13 7 14 6 15 5 16 4 17 3 18 2 19 1 20
REMARK H PARENT
REMARK Flexibility Score: inf
ROOT
ATOM      1  C   UNL     1      21.383 -13.521  20.485  1.00  0.00    -0.031 C 
ATOM      2  C   UNL     1      22.498 -14.264  20.549  1.00  0.00    -0.031 C 
ENDROOT
BRANCH   1   3
ATOM      3  C   UNL     1      21.067 -12.519  21.561  1.00  0.00     0.027 C 
BRANCH   3   4
ATOM      4  C   UNL     1      22.239 -11.557  21.784  1.00  0.00     0.004 C 
BRANCH   4   5
ATOM      5  C   UNL     1      21.856 -10.441  22.766  1.00  0.00     0.000 C 
BRANCH   5   6
ATOM      6  C   UNL     1      20.763 -10.868  23.762  1.00  0.00     0.000 C 
BRANCH   6   7
ATOM      7  C   UNL     1      20.582  -9.936  24.976  1.00  0.00     0.000 C 
BRANCH   7   8
ATOM      8  C   UNL     1      21.031  -8.477  24.761  1.00  0.00     0.006 C 
BRANCH   8   9
ATOM      9  C   UNL     1      20.632  -7.524  25.903  1.00  0.00     0.053 C 
BRANCH   9  10
ATOM     10  C   UNL     1      21.814  -7.013  26.669  1.00  0.00     0.041 C 
ATOM     11  O   UNL     1      21.655  -6.486  27.801  1.00  0.00    -0.550 OA
ATOM     12  O   UNL     1      23.095  -7.153  26.150  1.00  0.00    -0.550 OA
ENDBRANCH   9  10
ENDBRANCH   8   9
ENDBRANCH   7   8
ENDBRANCH   6   7
ENDBRANCH   5   6
ENDBRANCH   4   5
ENDBRANCH   3   4
ENDBRANCH   1   3
BRANCH   2  13
ATOM     13  C   UNL     1      22.838 -15.272  19.485  1.00  0.00     0.027 C 
BRANCH  13  14
ATOM     14  C   UNL     1      23.133 -16.663  20.068  1.00  0.00     0.004 C 
BRANCH  14  15
ATOM     15  C   UNL     1      23.352 -17.716  18.968  1.00  0.00     0.000 C 
BRANCH  15  16
ATOM     16  C   UNL     1      23.014 -17.184  17.566  1.00  0.00     0.000 C 
BRANCH  16  17
ATOM     17  C   UNL     1      22.946 -18.300  16.509  1.00  0.00    -0.000 C 
BRANCH  17  18
ATOM     18  C   UNL     1      22.515 -19.650  17.105  1.00  0.00    -0.000 C 
BRANCH  18  19
ATOM     19  C   UNL     1      21.168 -20.137  16.551  1.00  0.00    -0.003 C 
ATOM     20  C   UNL     1      20.262 -20.638  17.671  1.00  0.00     0.004 C 
ENDBRANCH  18  19
ENDBRANCH  17  18
ENDBRANCH  16  17
ENDBRANCH  15  16
ENDBRANCH  14  15
ENDBRANCH  13  14
ENDBRANCH   2  13
TORSDOF 15
ENDMDL
MODEL 2
REMARK VINA RESULT:    -5.730      5.566     11.675
REMARK INTER + INTRA:         -11.589
REMARK INTER:                 -10.752
REMARK INTRA:                  -0.837
REMARK UNBOUND:                -0.834
REMARK SMILES CCCCCCCCC=CCCCCCCCC(=O)[O-]
REMARK SMILES IDX 10 1 9 2 11 3 12 4 13 5 14 6 15 7 16 8 17 9 18 10 19 11
REMARK SMILES IDX 20 12 8 13 7 14 6 15 5 16 4 17 3 18 2 19 1 20
REMARK H PARENT
REMARK Flexibility Score: inf
ROOT
ATOM      1  C   UNL     1      22.614 -14.557  20.650  1.00  0.00    -0.031 C 
ATOM      2  C   UNL     1      21.567 -13.762  20.387  1.00  0.00    -0.031 C 
ENDROOT
BRANCH   1   3
ATOM      3  C   UNL     1      22.960 -15.699  19.733  1.00  0.00     0.027 C 
BRANCH   3   4
ATOM      4  C   UNL     1      22.632 -15.357  18.275  1.00  0.00     0.004 C 
BRANCH   4   5
ATOM      5  C   UNL     1      22.914 -16.552  17.354  1.00  0.00     0.000 C 
BRANCH   5   6
ATOM      6  C   UNL     1      23.234 -17.844  18.127  1.00  0.00     0.000 C 
BRANCH   6   7
ATOM      7  C   UNL     1      23.061 -19.148  17.325  1.00  0.00     0.000 C 
BRANCH   7   8
ATOM      8  C   UNL     1      21.807 -19.975  17.672  1.00  0.00     0.006 C 
BRANCH   8   9
ATOM      9  C   UNL     1      20.953 -20.358  16.449  1.00  0.00     0.053 C 
BRANCH   9  10
ATOM     10  C   UNL     1      19.654 -21.002  16.831  1.00  0.00     0.041 C 
ATOM     11  O   UNL     1      19.501 -21.483  17.985  1.00  0.00    -0.550 OA
ATOM     12  O   UNL     1      18.601 -21.038  15.927  1.00  0.00    -0.550 OA
ENDBRANCH   9  10
ENDBRANCH   8   9
ENDBRANCH   7   8
ENDBRANCH   6   7
ENDBRANCH   5   6
ENDBRANCH   4   5
ENDBRANCH   3   4
ENDBRANCH   1   3
BRANCH   2  13
ATOM     13  C   UNL     1      21.201 -12.612  21.286  1.00  0.00     0.027 C 
BRANCH  13  14
ATOM     14  C   UNL     1      22.422 -11.769  21.686  1.00  0.00     0.004 C 
BRANCH  14  15
ATOM     15  C   UNL     1      22.022 -10.514  22.481  1.00  0.00     0.000 C 
BRANCH  15  16
ATOM     16  C   UNL     1      20.968 -10.811  23.560  1.00  0.00     0.000 C 
BRANCH  16  17
ATOM     17  C   UNL     1      20.805  -9.655  24.563  1.00  0.00    -0.000 C 
BRANCH  17  18
ATOM     18  C   UNL     1      21.611  -8.409  24.163  1.00  0.00    -0.000 C 
BRANCH  18  19
ATOM     19  C   UNL     1      22.046  -7.572  25.374  1.00  0.00    -0.003 C 
ATOM     20  C   UNL     1      20.877  -7.332  26.324  1.00  0.00     0.004 C 
ENDBRANCH  18  19
ENDBRANCH  17  18
ENDBRANCH  16  17
ENDBRANCH  15  16
ENDBRANCH  14  15
ENDBRANCH  13  14
ENDBRANCH   2  13
TORSDOF 15
ENDMDL
MODEL 3
REMARK VINA RESULT:    -5.728      1.915      2.706
REMARK INTER + INTRA:         -11.585
REMARK INTER:                 -10.713
REMARK INTRA:                  -0.872
REMARK UNBOUND:                -0.834
REMARK SMILES CCCCCCCCC=CCCCCCCCC(=O)[O-]
REMARK SMILES IDX 10 1 9 2 11 3 12 4 13 5 14 6 15 7 16 8 17 9 18 10 19 11
REMARK SMILES IDX 20 12 8 13 7 14 6 15 5 16 4 17 3 18 2 19 1 20
REMARK H PARENT
REMARK Flexibility Score: inf
ROOT
ATOM      1  C   UNL     1      22.226 -12.092  21.830  1.00  0.00    -0.031 C 
ATOM      2  C   UNL     1      21.239 -12.697  21.153  1.00  0.00    -0.031 C 
ENDROOT
BRANCH   1   3
ATOM      3  C   UNL     1      21.929 -10.941  22.753  1.00  0.00     0.027 C 
BRANCH   3   4
ATOM      4  C   UNL     1      20.600 -11.148  23.486  1.00  0.00     0.004 C 
BRANCH   4   5
ATOM      5  C   UNL     1      20.559 -10.338  24.789  1.00  0.00     0.000 C 
BRANCH   5   6
ATOM      6  C   UNL     1      20.693  -8.822  24.558  1.00  0.00     0.000 C 
BRANCH   6   7
ATOM      7  C   UNL     1      21.085  -8.001  25.802  1.00  0.00     0.000 C 
BRANCH   7   8
ATOM      8  C   UNL     1      20.539  -6.561  25.841  1.00  0.00     0.006 C 
BRANCH   8   9
ATOM      9  C   UNL     1      19.394  -6.298  24.846  1.00  0.00     0.053 C 
BRANCH   9  10
ATOM     10  C   UNL     1      19.688  -5.164  23.912  1.00  0.00     0.041 C 
ATOM     11  O   UNL     1      20.845  -4.670  23.860  1.00  0.00    -0.550 OA
ATOM     12  O   UNL     1      18.696  -4.678  23.071  1.00  0.00    -0.550 OA
ENDBRANCH   9  10
ENDBRANCH   8   9
ENDBRANCH   7   8
ENDBRANCH   6   7
ENDBRANCH   5   6
ENDBRANCH   4   5
ENDBRANCH   3   4
ENDBRANCH   1   3
BRANCH   2  13
ATOM     13  C   UNL     1      21.508 -13.851  20.225  1.00  0.00     0.027 C 
BRANCH  13  14
ATOM     14  C   UNL     1      22.838 -14.554  20.535  1.00  0.00     0.004 C 
BRANCH  14  15
ATOM     15  C   UNL     1      22.982 -15.883  19.772  1.00  0.00     0.000 C 
BRANCH  15  16
ATOM     16  C   UNL     1      22.820 -15.710  18.253  1.00  0.00     0.000 C 
BRANCH  16  17
ATOM     17  C   UNL     1      23.134 -17.000  17.474  1.00  0.00    -0.000 C 
BRANCH  17  18
ATOM     18  C   UNL     1      23.112 -18.249  18.369  1.00  0.00    -0.000 C 
BRANCH  18  19
ATOM     19  C   UNL     1      22.145 -19.326  17.856  1.00  0.00    -0.003 C 
ATOM     20  C   UNL     1      22.048 -19.297  16.334  1.00  0.00     0.004 C 
ENDBRANCH  18  19
ENDBRANCH  17  18
ENDBRANCH  16  17
ENDBRANCH  15  16
ENDBRANCH  14  15
ENDBRANCH  13  14
ENDBRANCH   2  13
TORSDOF 15
ENDMDL
MODEL 4
REMARK VINA RESULT:    -5.690      5.929     11.699
REMARK INTER + INTRA:         -11.513
REMARK INTER:                 -10.572
REMARK INTRA:                  -0.941
REMARK UNBOUND:                -0.834
REMARK SMILES CCCCCCCCC=CCCCCCCCC(=O)[O-]
REMARK SMILES IDX 10 1 9 2 11 3 12 4 13 5 14 6 15 7 16 8 17 9 18 10 19 11
REMARK SMILES IDX 20 12 8 13 7 14 6 15 5 16 4 17 3 18 2 19 1 20
REMARK H PARENT
REMARK Flexibility Score: inf
ROOT
ATOM      1  C   UNL     1      23.048 -16.564  20.095  1.00  0.00    -0.031 C 
ATOM      2  C   UNL     1      22.929 -15.276  19.742  1.00  0.00    -0.031 C 
ENDROOT
BRANCH   1   3
ATOM      3  C   UNL     1      23.293 -17.625  19.056  1.00  0.00     0.027 C 
BRANCH   3   4
ATOM      4  C   UNL     1      23.051 -17.082  17.643  1.00  0.00     0.004 C 
BRANCH   4   5
ATOM      5  C   UNL     1      22.669 -18.214  16.678  1.00  0.00     0.000 C 
BRANCH   5   6
ATOM      6  C   UNL     1      23.258 -19.575  17.087  1.00  0.00     0.000 C 
BRANCH   6   7
ATOM      7  C   UNL     1      22.233 -20.718  17.226  1.00  0.00     0.000 C 
BRANCH   7   8
ATOM      8  C   UNL     1      20.833 -20.422  16.653  1.00  0.00     0.006 C 
BRANCH   8   9
ATOM      9  C   UNL     1      19.678 -20.792  17.602  1.00  0.00     0.053 C 
BRANCH   9  10
ATOM     10  C   UNL     1      19.224 -22.210  17.434  1.00  0.00     0.041 C 
ATOM     11  O   UNL     1      19.392 -22.804  16.337  1.00  0.00    -0.550 OA
ATOM     12  O   UNL     1      18.650 -22.890  18.501  1.00  0.00    -0.550 OA
ENDBRANCH   9  10
ENDBRANCH   8   9
ENDBRANCH   7   8
ENDBRANCH   6   7
ENDBRANCH   5   6
ENDBRANCH   4   5
ENDBRANCH   3   4
ENDBRANCH   1   3
BRANCH   2  13
ATOM     13  C   UNL     1      22.685 -14.196  20.761  1.00  0.00     0.027 C 
BRANCH  13  14
ATOM     14  C   UNL     1      21.356 -13.462  20.531  1.00  0.00     0.004 C 
BRANCH  14  15
ATOM     15  C   UNL     1      21.072 -12.421  21.628  1.00  0.00     0.000 C 
BRANCH  15  16
ATOM     16  C   UNL     1      22.280 -11.511  21.903  1.00  0.00     0.000 C 
BRANCH  16  17
ATOM     17  C   UNL     1      21.907 -10.265  22.726  1.00  0.00    -0.000 C 
BRANCH  17  18
ATOM     18  C   UNL     1      20.881 -10.572  23.828  1.00  0.00    -0.000 C 
BRANCH  18  19
ATOM     19  C   UNL     1      20.687  -9.398  24.799  1.00  0.00    -0.003 C 
ATOM     20  C   UNL     1      21.561  -8.211  24.406  1.00  0.00     0.004 C 
ENDBRANCH  18  19
ENDBRANCH  17  18
ENDBRANCH  16  17
ENDBRANCH  15  16
ENDBRANCH  14  15
ENDBRANCH  13  14
ENDBRANCH   2  13
TORSDOF 15
ENDMDL
MODEL 5
REMARK VINA RESULT:    -5.660      5.339     11.656
REMARK INTER + INTRA:         -11.458
REMARK INTER:                 -10.580
REMARK INTRA:                  -0.878
REMARK UNBOUND:                -0.834
REMARK SMILES CCCCCCCCC=CCCCCCCCC(=O)[O-]
REMARK SMILES IDX 10 1 9 2 11 3 12 4 13 5 14 6 15 7 16 8 17 9 18 10 19 11
REMARK SMILES IDX 20 12 8 13 7 14 6 15 5 16 4 17 3 18 2 19 1 20
REMARK H PARENT
REMARK Flexibility Score: inf
ROOT
ATOM      1  C   UNL     1      21.170 -12.583  21.255  1.00  0.00    -0.031 C 
ATOM      2  C   UNL     1      22.239 -11.898  21.687  1.00  0.00    -0.031 C 
ENDROOT
BRANCH   1   3
ATOM      3  C   UNL     1      21.332 -13.737  20.303  1.00  0.00     0.027 C 
BRANCH   3   4
ATOM      4  C   UNL     1      22.701 -14.405  20.470  1.00  0.00     0.004 C 
BRANCH   4   5
ATOM      5  C   UNL     1      22.965 -15.408  19.338  1.00  0.00     0.000 C 
BRANCH   5   6
ATOM      6  C   UNL     1      23.042 -16.864  19.832  1.00  0.00     0.000 C 
BRANCH   6   7
ATOM      7  C   UNL     1      23.448 -17.898  18.764  1.00  0.00     0.000 C 
BRANCH   7   8
ATOM      8  C   UNL     1      22.944 -17.606  17.337  1.00  0.00     0.006 C 
BRANCH   8   9
ATOM      9  C   UNL     1      23.068 -18.799  16.372  1.00  0.00     0.053 C 
BRANCH   9  10
ATOM     10  C   UNL     1      22.378 -20.028  16.882  1.00  0.00     0.041 C 
ATOM     11  O   UNL     1      23.052 -21.023  17.257  1.00  0.00    -0.550 OA
ATOM     12  O   UNL     1      20.993 -20.061  16.979  1.00  0.00    -0.550 OA
ENDBRANCH   9  10
ENDBRANCH   8   9
ENDBRANCH   7   8
ENDBRANCH   6   7
ENDBRANCH   5   6
ENDBRANCH   4   5
ENDBRANCH   3   4
ENDBRANCH   1   3
BRANCH   2  13
ATOM     13  C   UNL     1      22.105 -10.742  22.641  1.00  0.00     0.027 C 
BRANCH  13  14
ATOM     14  C   UNL     1      20.935 -10.923  23.620  1.00  0.00     0.004 C 
BRANCH  14  15
ATOM     15  C   UNL     1      20.721  -9.680  24.501  1.00  0.00     0.000 C 
BRANCH  15  16
ATOM     16  C   UNL     1      21.587  -8.489  24.061  1.00  0.00     0.000 C 
BRANCH  16  17
ATOM     17  C   UNL     1      21.522  -7.311  25.049  1.00  0.00    -0.000 C 
BRANCH  17  18
ATOM     18  C   UNL     1      20.104  -7.076  25.593  1.00  0.00    -0.000 C 
BRANCH  18  19
ATOM     19  C   UNL     1      19.251  -6.203  24.662  1.00  0.00    -0.003 C 
ATOM     20  C   UNL     1      20.091  -5.106  24.015  1.00  0.00     0.004 C 
ENDBRANCH  18  19
ENDBRANCH  17  18
ENDBRANCH  16  17
ENDBRANCH  15  16
ENDBRANCH  14  15
ENDBRANCH  13  14
ENDBRANCH   2  13
TORSDOF 15
ENDMDL
MODEL 6
REMARK VINA RESULT:    -5.564      1.100      2.030
REMARK INTER + INTRA:         -11.277
REMARK INTER:                 -10.550
REMARK INTRA:                  -0.726
REMARK UNBOUND:                -0.834
REMARK SMILES CCCCCCCCC=CCCCCCCCC(=O)[O-]
REMARK SMILES IDX 10 1 9 2 11 3 12 4 13 5 14 6 15 7 16 8 17 9 18 10 19 11
REMARK SMILES IDX 20 12 8 13 7 14 6 15 5 16 4 17 3 18 2 19 1 20
REMARK H PARENT
REMARK Flexibility Score: inf
ROOT
ATOM      1  C   UNL     1      22.978 -15.280  19.879  1.00  0.00    -0.031 C 
ATOM      2  C   UNL     1      22.602 -14.950  18.635  1.00  0.00    -0.031 C 
ENDROOT
BRANCH   1   3
ATOM      3  C   UNL     1      22.853 -14.291  21.006  1.00  0.00     0.027 C 
BRANCH   3   4
ATOM      4  C   UNL     1      21.653 -13.361  20.796  1.00  0.00     0.004 C 
BRANCH   4   5
ATOM      5  C   UNL     1      21.745 -12.131  21.710  1.00  0.00     0.000 C 
BRANCH   5   6
ATOM      6  C   UNL     1      20.439 -11.856  22.478  1.00  0.00     0.000 C 
BRANCH   6   7
ATOM      7  C   UNL     1      20.611 -11.128  23.825  1.00  0.00     0.000 C 
BRANCH   7   8
ATOM      8  C   UNL     1      21.256  -9.731  23.743  1.00  0.00     0.006 C 
BRANCH   8   9
ATOM      9  C   UNL     1      20.602  -8.685  24.664  1.00  0.00     0.053 C 
BRANCH   9  10
ATOM     10  C   UNL     1      21.609  -7.851  25.397  1.00  0.00     0.041 C 
ATOM     11  O   UNL     1      21.384  -7.479  26.579  1.00  0.00    -0.550 OA
ATOM     12  O   UNL     1      22.811  -7.515  24.789  1.00  0.00    -0.550 OA
ENDBRANCH   9  10
ENDBRANCH   8   9
ENDBRANCH   7   8
ENDBRANCH   6   7
ENDBRANCH   5   6
ENDBRANCH   4   5
ENDBRANCH   3   4
ENDBRANCH   1   3
BRANCH   2  13
ATOM     13  C   UNL     1      22.714 -15.922  17.491  1.00  0.00     0.027 C 
BRANCH  13  14
ATOM     14  C   UNL     1      23.301 -17.273  17.925  1.00  0.00     0.004 C 
BRANCH  14  15
ATOM     15  C   UNL     1      23.515 -18.221  16.732  1.00  0.00     0.000 C 
BRANCH  15  16
ATOM     16  C   UNL     1      22.270 -19.068  16.422  1.00  0.00     0.000 C 
BRANCH  16  17
ATOM     17  C   UNL     1      21.781 -19.871  17.640  1.00  0.00    -0.000 C 
BRANCH  17  18
ATOM     18  C   UNL     1      20.396 -20.498  17.415  1.00  0.00    -0.000 C 
BRANCH  18  19
ATOM     19  C   UNL     1      20.158 -20.893  15.950  1.00  0.00    -0.003 C 
ATOM     20  C   UNL     1      18.727 -21.378  15.738  1.00  0.00     0.004 C 
ENDBRANCH  18  19
ENDBRANCH  17  18
ENDBRANCH  16  17
ENDBRANCH  15  16
ENDBRANCH  14  15
ENDBRANCH  13  14
ENDBRANCH   2  13
TORSDOF 15
ENDMDL
MODEL 7
REMARK VINA RESULT:    -5.494      5.028     11.615
REMARK INTER + INTRA:         -11.146
REMARK INTER:                 -10.159
REMARK INTRA:                  -0.987
REMARK UNBOUND:                -0.834
REMARK SMILES CCCCCCCCC=CCCCCCCCC(=O)[O-]
REMARK SMILES IDX 10 1 9 2 11 3 12 4 13 5 14 6 15 7 16 8 17 9 18 10 19 11
REMARK SMILES IDX 20 12 8 13 7 14 6 15 5 16 4 17 3 18 2 19 1 20
REMARK H PARENT
REMARK Flexibility Score: inf
ROOT
ATOM      1  C   UNL     1      22.054 -10.983  22.494  1.00  0.00    -0.031 C 
ATOM      2  C   UNL     1      21.140 -10.993  23.475  1.00  0.00    -0.031 C 
ENDROOT
BRANCH   1   3
ATOM      3  C   UNL     1      22.324 -12.222  21.684  1.00  0.00     0.027 C 
BRANCH   3   4
ATOM      4  C   UNL     1      21.021 -12.830  21.152  1.00  0.00     0.004 C 
BRANCH   4   5
ATOM      5  C   UNL     1      21.302 -13.820  20.014  1.00  0.00     0.000 C 
BRANCH   5   6
ATOM      6  C   UNL     1      22.611 -14.605  20.210  1.00  0.00     0.000 C 
BRANCH   6   7
ATOM      7  C   UNL     1      22.912 -15.661  19.128  1.00  0.00     0.000 C 
BRANCH   7   8
ATOM      8  C   UNL     1      23.088 -17.102  19.644  1.00  0.00     0.006 C 
BRANCH   8   9
ATOM      9  C   UNL     1      23.628 -18.083  18.588  1.00  0.00     0.053 C 
BRANCH   9  10
ATOM     10  C   UNL     1      22.547 -18.644  17.714  1.00  0.00     0.041 C 
ATOM     11  O   UNL     1      21.704 -19.450  18.188  1.00  0.00    -0.550 OA
ATOM     12  O   UNL     1      22.448 -18.248  16.386  1.00  0.00    -0.550 OA
ENDBRANCH   9  10
ENDBRANCH   8   9
ENDBRANCH   7   8
ENDBRANCH   6   7
ENDBRANCH   5   6
ENDBRANCH   4   5
ENDBRANCH   3   4
ENDBRANCH   1   3
BRANCH   2  13
ATOM     13  C   UNL     1      20.850  -9.767  24.298  1.00  0.00     0.027 C 
BRANCH  13  14
ATOM     14  C   UNL     1      21.752  -8.582  23.922  1.00  0.00     0.004 C 
BRANCH  14  15
ATOM     15  C   UNL     1      21.543  -7.378  24.857  1.00  0.00     0.000 C 
BRANCH  15  16
ATOM     16  C   UNL     1      20.187  -7.420  25.580  1.00  0.00     0.000 C 
BRANCH  16  17
ATOM     17  C   UNL     1      19.271  -6.246  25.189  1.00  0.00    -0.000 C 
BRANCH  17  18
ATOM     18  C   UNL     1      19.438  -5.833  23.718  1.00  0.00    -0.000 C 
BRANCH  18  19
ATOM     19  C   UNL     1      19.556  -4.312  23.543  1.00  0.00    -0.003 C 
ATOM     20  C   UNL     1      20.569  -3.723  24.520  1.00  0.00     0.004 C 
ENDBRANCH  18  19
ENDBRANCH  17  18
ENDBRANCH  16  17
ENDBRANCH  15  16
ENDBRANCH  14  15
ENDBRANCH  13  14
ENDBRANCH   2  13
TORSDOF 15
ENDMDL
MODEL 8
REMARK VINA RESULT:    -5.407      4.196      8.104
REMARK INTER + INTRA:         -10.983
REMARK INTER:                  -9.906
REMARK INTRA:                  -1.078
REMARK UNBOUND:                -0.834
REMARK SMILES CCCCCCCCC=CCCCCCCCC(=O)[O-]
REMARK SMILES IDX 10 1 9 2 11 3 12 4 13 5 14 6 15 7 16 8 17 9 18 10 19 11
REMARK SMILES IDX 20 12 8 13 7 14 6 15 5 16 4 17 3 18 2 19 1 20
REMARK H PARENT
REMARK Flexibility Score: inf
ROOT
ATOM      1  C   UNL     1      21.344 -20.386  16.782  1.00  0.00    -0.031 C 
ATOM      2  C   UNL     1      20.106 -20.485  17.288  1.00  0.00    -0.031 C 
ENDROOT
BRANCH   1   3
ATOM      3  C   UNL     1      22.393 -19.559  17.476  1.00  0.00     0.027 C 
BRANCH   3   4
ATOM      4  C   UNL     1      22.682 -18.269  16.701  1.00  0.00     0.004 C 
BRANCH   4   5
ATOM      5  C   UNL     1      23.085 -17.135  17.654  1.00  0.00     0.000 C 
BRANCH   5   6
ATOM      6  C   UNL     1      23.409 -17.631  19.074  1.00  0.00     0.000 C 
BRANCH   6   7
ATOM      7  C   UNL     1      23.167 -16.605  20.198  1.00  0.00     0.000 C 
BRANCH   7   8
ATOM      8  C   UNL     1      22.715 -15.208  19.730  1.00  0.00     0.006 C 
BRANCH   8   9
ATOM      9  C   UNL     1      22.742 -14.137  20.837  1.00  0.00     0.053 C 
BRANCH   9  10
ATOM     10  C   UNL     1      21.540 -13.243  20.806  1.00  0.00     0.041 C 
ATOM     11  O   UNL     1      20.656 -13.400  19.924  1.00  0.00    -0.550 OA
ATOM     12  O   UNL     1      21.377 -12.261  21.775  1.00  0.00    -0.550 OA
ENDBRANCH   9  10
ENDBRANCH   8   9
ENDBRANCH   7   8
ENDBRANCH   6   7
ENDBRANCH   5   6
ENDBRANCH   4   5
ENDBRANCH   3   4
ENDBRANCH   1   3
BRANCH   2  13
ATOM     13  C   UNL     1      19.040 -21.306  16.615  1.00  0.00     0.027 C 
BRANCH  13  14
ATOM     14  C   UNL     1      19.609 -22.224  15.523  1.00  0.00     0.004 C 
BRANCH  14  15
ATOM     15  C   UNL     1      18.643 -22.379  14.336  1.00  0.00     0.000 C 
BRANCH  15  16
ATOM     16  C   UNL     1      17.360 -21.549  14.507  1.00  0.00     0.000 C 
BRANCH  16  17
ATOM     17  C   UNL     1      16.749 -21.119  13.162  1.00  0.00    -0.000 C 
BRANCH  17  18
ATOM     18  C   UNL     1      17.133 -22.062  12.011  1.00  0.00    -0.000 C 
BRANCH  18  19
ATOM     19  C   UNL     1      17.700 -21.312  10.797  1.00  0.00    -0.003 C 
ATOM     20  C   UNL     1      19.022 -20.631  11.140  1.00  0.00     0.004 C 
ENDBRANCH  18  19
ENDBRANCH  17  18
ENDBRANCH  16  17
ENDBRANCH  15  16
ENDBRANCH  14  15
ENDBRANCH  13  14
ENDBRANCH   2  13
TORSDOF 15
ENDMDL
MODEL 9
REMARK VINA RESULT:    -5.361      1.838      3.548
REMARK INTER + INTRA:         -10.896
REMARK INTER:                  -9.895
REMARK INTRA:                  -1.001
REMARK UNBOUND:                -0.834
REMARK SMILES CCCCCCCCC=CCCCCCCCC(=O)[O-]
REMARK SMILES IDX 10 1 9 2 11 3 12 4 13 5 14 6 15 7 16 8 17 9 18 10 19 11
REMARK SMILES IDX 20 12 8 13 7 14 6 15 5 16 4 17 3 18 2 19 1 20
REMARK H PARENT
REMARK Flexibility Score: inf
ROOT
ATOM      1  C   UNL     1      23.216 -16.611  19.396  1.00  0.00    -0.031 C 
ATOM      2  C   UNL     1      22.814 -16.023  18.260  1.00  0.00    -0.031 C 
ENDROOT
BRANCH   1   3
ATOM      3  C   UNL     1      23.067 -15.907  20.718  1.00  0.00     0.027 C 
BRANCH   3   4
ATOM      4  C   UNL     1      22.663 -14.442  20.522  1.00  0.00     0.004 C 
BRANCH   4   5
ATOM      5  C   UNL     1      23.406 -13.531  21.509  1.00  0.00     0.000 C 
BRANCH   5   6
ATOM      6  C   UNL     1      22.686 -12.192  21.748  1.00  0.00     0.000 C 
BRANCH   6   7
ATOM      7  C   UNL     1      21.153 -12.235  21.597  1.00  0.00     0.000 C 
BRANCH   7   8
ATOM      8  C   UNL     1      20.356 -11.633  22.771  1.00  0.00     0.006 C 
BRANCH   8   9
ATOM      9  C   UNL     1      21.234 -10.960  23.842  1.00  0.00     0.053 C 
BRANCH   9  10
ATOM     10  C   UNL     1      21.152  -9.464  23.800  1.00  0.00     0.041 C 
ATOM     11  O   UNL     1      21.628  -8.831  22.821  1.00  0.00    -0.550 OA
ATOM     12  O   UNL     1      20.517  -8.771  24.823  1.00  0.00    -0.550 OA
ENDBRANCH   9  10
ENDBRANCH   8   9
ENDBRANCH   7   8
ENDBRANCH   6   7
ENDBRANCH   5   6
ENDBRANCH   4   5
ENDBRANCH   3   4
ENDBRANCH   1   3
BRANCH   2  13
ATOM     13  C   UNL     1      22.950 -16.706  16.925  1.00  0.00     0.027 C 
BRANCH  13  14
ATOM     14  C   UNL     1      23.318 -18.191  17.062  1.00  0.00     0.004 C 
BRANCH  14  15
ATOM     15  C   UNL     1      22.220 -19.113  16.501  1.00  0.00     0.000 C 
BRANCH  15  16
ATOM     16  C   UNL     1      21.516 -19.926  17.599  1.00  0.00     0.000 C 
BRANCH  16  17
ATOM     17  C   UNL     1      21.658 -21.444  17.395  1.00  0.00    -0.000 C 
BRANCH  17  18
ATOM     18  C   UNL     1      20.325 -22.117  17.031  1.00  0.00    -0.000 C 
BRANCH  18  19
ATOM     19  C   UNL     1      19.203 -21.102  16.768  1.00  0.00    -0.003 C 
ATOM     20  C   UNL     1      18.173 -21.662  15.793  1.00  0.00     0.004 C 
ENDBRANCH  18  19
ENDBRANCH  17  18
ENDBRANCH  16  17
ENDBRANCH  15  16
ENDBRANCH  14  15
ENDBRANCH  13  14
ENDBRANCH   2  13
TORSDOF 15
ENDMDL
