MODEL 1
REMARK VINA RESULT:    -4.859      0.000      0.000
REMARK INTER + INTRA:          -5.490
REMARK INTER:                  -5.285
REMARK INTRA:                  -0.205
REMARK UNBOUND:                -0.205
REMARK SMILES O=C([O-])c1ccccc1O
REMARK SMILES IDX 4 1 9 2 5 3 8 4 6 5 7 6 2 7 1 8 3 9 10 10
REMARK H PARENT 10 11
REMARK Flexibility Score: inf
ROOT
ATOM      1  C   UNL     1      -1.342 -36.089  21.634  1.00  0.00     0.039 A 
ATOM      2  C   UNL     1      -1.548 -37.433  21.226  1.00  0.00     0.124 A 
ATOM      3  C   UNL     1      -0.079 -35.502  21.425  1.00  0.00     0.014 A 
ATOM      4  C   UNL     1      -0.521 -38.125  20.572  1.00  0.00     0.047 A 
ATOM      5  C   UNL     1       0.941 -36.213  20.790  1.00  0.00     0.001 A 
ATOM      6  C   UNL     1       0.717 -37.519  20.355  1.00  0.00     0.004 A 
ENDROOT
BRANCH   1   7
ATOM      7  C   UNL     1      -2.408 -35.262  22.242  1.00  0.00     0.075 C 
ATOM      8  O   UNL     1      -2.149 -34.129  22.727  1.00  0.00    -0.545 OA
ATOM      9  O   UNL     1      -3.701 -35.760  22.345  1.00  0.00    -0.545 OA
ENDBRANCH   1   7
BRANCH   2  10
ATOM     10  O   UNL     1      -2.736 -38.123  21.479  1.00  0.00    -0.507 OA
ATOM     11  H   UNL     1      -2.782 -39.120  21.635  1.00  0.00     0.293 HD
ENDBRANCH   2  10
TORSDOF 2
ENDMDL
MODEL 2
REMARK VINA RESULT:    -4.831      2.140      3.389
REMARK INTER + INTRA:          -5.459
REMARK INTER:                  -5.212
REMARK INTRA:                  -0.248
REMARK UNBOUND:                -0.205
REMARK SMILES O=C([O-])c1ccccc1O
REMARK SMILES IDX 4 1 9 2 5 3 8 4 6 5 7 6 2 7 1 8 3 9 10 10
REMARK H PARENT 10 11
REMARK Flexibility Score: inf
ROOT
ATOM      1  C   UNL     1      -0.893 -35.817  21.428  1.00  0.00     0.039 A 
ATOM      2  C   UNL     1      -1.583 -36.955  20.935  1.00  0.00     0.124 A 
ATOM      3  C   UNL     1      -1.590 -34.897  22.234  1.00  0.00     0.014 A 
ATOM      4  C   UNL     1      -2.915 -37.174  21.308  1.00  0.00     0.047 A 
ATOM      5  C   UNL     1      -2.924 -35.120  22.580  1.00  0.00     0.001 A 
ATOM      6  C   UNL     1      -3.583 -36.261  22.126  1.00  0.00     0.004 A 
ENDROOT
BRANCH   1   7
ATOM      7  C   UNL     1       0.541 -35.567  21.158  1.00  0.00     0.075 C 
ATOM      8  O   UNL     1       1.007 -35.670  19.993  1.00  0.00    -0.545 OA
ATOM      9  O   UNL     1       1.406 -35.283  22.208  1.00  0.00    -0.545 OA
ENDBRANCH   1   7
BRANCH   2  10
ATOM     10  O   UNL     1      -0.998 -37.867  20.053  1.00  0.00    -0.507 OA
ATOM     11  H   UNL     1      -0.425 -38.644  20.350  1.00  0.00     0.293 HD
ENDBRANCH   2  10
TORSDOF 2
ENDMDL
MODEL 3
REMARK VINA RESULT:    -4.827      1.965      3.584
REMARK INTER + INTRA:          -5.456
REMARK INTER:                  -5.207
REMARK INTRA:                  -0.249
REMARK UNBOUND:                -0.205
REMARK SMILES O=C([O-])c1ccccc1O
REMARK SMILES IDX 4 1 9 2 5 3 8 4 6 5 7 6 2 7 1 8 3 9 10 10
REMARK H PARENT 10 11
REMARK Flexibility Score: inf
ROOT
ATOM      1  C   UNL     1      -1.015 -36.086  21.454  1.00  0.00     0.039 A 
ATOM      2  C   UNL     1      -2.008 -35.360  22.162  1.00  0.00     0.124 A 
ATOM      3  C   UNL     1      -1.365 -37.313  20.858  1.00  0.00     0.014 A 
ATOM      4  C   UNL     1      -3.323 -35.842  22.201  1.00  0.00     0.047 A 
ATOM      5  C   UNL     1      -2.676 -37.789  20.926  1.00  0.00     0.001 A 
ATOM      6  C   UNL     1      -3.655 -37.050  21.587  1.00  0.00     0.004 A 
ENDROOT
BRANCH   1   7
ATOM      7  C   UNL     1       0.371 -35.595  21.284  1.00  0.00     0.075 C 
ATOM      8  O   UNL     1       1.013 -35.120  22.257  1.00  0.00    -0.545 OA
ATOM      9  O   UNL     1       0.957 -35.589  20.024  1.00  0.00    -0.545 OA
ENDBRANCH   1   7
BRANCH   2  10
ATOM     10  O   UNL     1      -1.727 -34.184  22.861  1.00  0.00    -0.507 OA
ATOM     11  H   UNL     1      -1.735 -33.266  22.439  1.00  0.00     0.293 HD
ENDBRANCH   2  10
TORSDOF 2
ENDMDL
MODEL 4
REMARK VINA RESULT:    -4.683      4.432      5.585
REMARK INTER + INTRA:          -5.299
REMARK INTER:                  -5.061
REMARK INTRA:                  -0.238
REMARK UNBOUND:                -0.205
REMARK SMILES O=C([O-])c1ccccc1O
REMARK SMILES IDX 4 1 9 2 5 3 8 4 6 5 7 6 2 7 1 8 3 9 10 10
REMARK H PARENT 10 11
REMARK Flexibility Score: inf
ROOT
ATOM      1  C   UNL     1       3.620 -35.789  22.078  1.00  0.00     0.039 A 
ATOM      2  C   UNL     1       4.695 -36.014  22.977  1.00  0.00     0.124 A 
ATOM      3  C   UNL     1       3.737 -36.245  20.751  1.00  0.00     0.014 A 
ATOM      4  C   UNL     1       5.817 -36.735  22.549  1.00  0.00     0.047 A 
ATOM      5  C   UNL     1       4.872 -36.943  20.335  1.00  0.00     0.001 A 
ATOM      6  C   UNL     1       5.906 -37.196  21.235  1.00  0.00     0.004 A 
ENDROOT
BRANCH   1   7
ATOM      7  C   UNL     1       2.361 -35.123  22.482  1.00  0.00     0.075 C 
ATOM      8  O   UNL     1       2.351 -34.259  23.397  1.00  0.00    -0.545 OA
ATOM      9  O   UNL     1       1.157 -35.499  21.897  1.00  0.00    -0.545 OA
ENDBRANCH   1   7
BRANCH   2  10
ATOM     10  O   UNL     1       4.703 -35.516  24.282  1.00  0.00    -0.507 OA
ATOM     11  H   UNL     1       4.898 -34.551  24.511  1.00  0.00     0.293 HD
ENDBRANCH   2  10
TORSDOF 2
ENDMDL
MODEL 5
REMARK VINA RESULT:    -4.494     20.723     22.079
REMARK INTER + INTRA:          -5.093
REMARK INTER:                  -4.844
REMARK INTRA:                  -0.249
REMARK UNBOUND:                -0.205
REMARK SMILES O=C([O-])c1ccccc1O
REMARK SMILES IDX 4 1 9 2 5 3 8 4 6 5 7 6 2 7 1 8 3 9 10 10
REMARK H PARENT 10 11
REMARK Flexibility Score: inf
ROOT
ATOM      1  C   UNL     1      -9.473 -18.528  31.785  1.00  0.00     0.039 A 
ATOM      2  C   UNL     1      -8.390 -18.914  30.953  1.00  0.00     0.124 A 
ATOM      3  C   UNL     1     -10.696 -18.170  31.186  1.00  0.00     0.014 A 
ATOM      4  C   UNL     1      -8.574 -18.993  29.567  1.00  0.00     0.047 A 
ATOM      5  C   UNL     1     -10.856 -18.234  29.801  1.00  0.00     0.001 A 
ATOM      6  C   UNL     1      -9.800 -18.654  28.993  1.00  0.00     0.004 A 
ENDROOT
BRANCH   1   7
ATOM      7  C   UNL     1      -9.386 -18.515  33.263  1.00  0.00     0.075 C 
ATOM      8  O   UNL     1      -8.387 -18.019  33.848  1.00  0.00    -0.545 OA
ATOM      9  O   UNL     1     -10.382 -19.116  34.023  1.00  0.00    -0.545 OA
ENDBRANCH   1   7
BRANCH   2  10
ATOM     10  O   UNL     1      -7.117 -19.193  31.456  1.00  0.00    -0.507 OA
ATOM     11  H   UNL     1      -6.495 -18.489  31.826  1.00  0.00     0.293 HD
ENDBRANCH   2  10
TORSDOF 2
ENDMDL
MODEL 6
REMARK VINA RESULT:    -4.436     20.151     21.548
REMARK INTER + INTRA:          -5.030
REMARK INTER:                  -4.810
REMARK INTRA:                  -0.220
REMARK UNBOUND:                -0.205
REMARK SMILES O=C([O-])c1ccccc1O
REMARK SMILES IDX 4 1 9 2 5 3 8 4 6 5 7 6 2 7 1 8 3 9 10 10
REMARK H PARENT 10 11
REMARK Flexibility Score: inf
ROOT
ATOM      1  C   UNL     1     -10.500 -20.090  31.100  1.00  0.00     0.039 A 
ATOM      2  C   UNL     1      -9.663 -20.048  32.245  1.00  0.00     0.124 A 
ATOM      3  C   UNL     1     -11.893 -20.187  31.280  1.00  0.00     0.014 A 
ATOM      4  C   UNL     1     -10.236 -20.040  33.523  1.00  0.00     0.047 A 
ATOM      5  C   UNL     1     -12.447 -20.199  32.562  1.00  0.00     0.001 A 
ATOM      6  C   UNL     1     -11.620 -20.116  33.681  1.00  0.00     0.004 A 
ENDROOT
BRANCH   1   7
ATOM      7  C   UNL     1      -9.977 -20.003  29.718  1.00  0.00     0.075 C 
ATOM      8  O   UNL     1     -10.214 -20.911  28.878  1.00  0.00    -0.545 OA
ATOM      9  O   UNL     1      -9.154 -18.945  29.352  1.00  0.00    -0.545 OA
ENDBRANCH   1   7
BRANCH   2  10
ATOM     10  O   UNL     1      -8.269 -20.047  32.159  1.00  0.00    -0.507 OA
ATOM     11  H   UNL     1      -7.678 -20.708  32.643  1.00  0.00     0.293 HD
ENDBRANCH   2  10
TORSDOF 2
ENDMDL
MODEL 7
REMARK VINA RESULT:    -4.373      3.577      4.505
REMARK INTER + INTRA:          -4.962
REMARK INTER:                  -4.729
REMARK INTRA:                  -0.233
REMARK UNBOUND:                -0.205
REMARK SMILES O=C([O-])c1ccccc1O
REMARK SMILES IDX 4 1 9 2 5 3 8 4 6 5 7 6 2 7 1 8 3 9 10 10
REMARK H PARENT 10 11
REMARK Flexibility Score: inf
ROOT
ATOM      1  C   UNL     1       2.880 -36.223  20.795  1.00  0.00     0.039 A 
ATOM      2  C   UNL     1       1.836 -37.184  20.811  1.00  0.00     0.124 A 
ATOM      3  C   UNL     1       3.466 -35.876  19.563  1.00  0.00     0.014 A 
ATOM      4  C   UNL     1       1.368 -37.719  19.604  1.00  0.00     0.047 A 
ATOM      5  C   UNL     1       3.001 -36.435  18.371  1.00  0.00     0.001 A 
ATOM      6  C   UNL     1       1.947 -37.347  18.390  1.00  0.00     0.004 A 
ENDROOT
BRANCH   1   7
ATOM      7  C   UNL     1       3.362 -35.541  22.017  1.00  0.00     0.075 C 
ATOM      8  O   UNL     1       4.583 -35.554  22.326  1.00  0.00    -0.545 OA
ATOM      9  O   UNL     1       2.456 -34.933  22.878  1.00  0.00    -0.545 OA
ENDBRANCH   1   7
BRANCH   2  10
ATOM     10  O   UNL     1       1.264 -37.656  21.994  1.00  0.00    -0.507 OA
ATOM     11  H   UNL     1       0.843 -37.056  22.690  1.00  0.00     0.293 HD
ENDBRANCH   2  10
TORSDOF 2
ENDMDL
MODEL 8
REMARK VINA RESULT:    -4.373     19.972     21.460
REMARK INTER + INTRA:          -4.962
REMARK INTER:                  -4.755
REMARK INTRA:                  -0.207
REMARK UNBOUND:                -0.205
REMARK SMILES O=C([O-])c1ccccc1O
REMARK SMILES IDX 4 1 9 2 5 3 8 4 6 5 7 6 2 7 1 8 3 9 10 10
REMARK H PARENT 10 11
REMARK Flexibility Score: inf
ROOT
ATOM      1  C   UNL     1      -9.502 -19.120  30.081  1.00  0.00     0.039 A 
ATOM      2  C   UNL     1     -10.441 -18.985  31.136  1.00  0.00     0.124 A 
ATOM      3  C   UNL     1      -8.186 -18.661  30.280  1.00  0.00     0.014 A 
ATOM      4  C   UNL     1     -10.030 -18.459  32.368  1.00  0.00     0.047 A 
ATOM      5  C   UNL     1      -7.798 -18.119  31.507  1.00  0.00     0.001 A 
ATOM      6  C   UNL     1      -8.716 -18.028  32.552  1.00  0.00     0.004 A 
ENDROOT
BRANCH   1   7
ATOM      7  C   UNL     1      -9.834 -19.755  28.786  1.00  0.00     0.075 C 
ATOM      8  O   UNL     1     -10.260 -20.938  28.736  1.00  0.00    -0.545 OA
ATOM      9  O   UNL     1      -9.611 -19.069  27.598  1.00  0.00    -0.545 OA
ENDBRANCH   1   7
BRANCH   2  10
ATOM     10  O   UNL     1     -11.788 -19.326  30.994  1.00  0.00    -0.507 OA
ATOM     11  H   UNL     1     -12.107 -20.249  30.733  1.00  0.00     0.293 HD
ENDBRANCH   2  10
TORSDOF 2
ENDMDL
MODEL 9
REMARK VINA RESULT:    -4.368     21.458     22.395
REMARK INTER + INTRA:          -4.956
REMARK INTER:                  -4.705
REMARK INTRA:                  -0.251
REMARK UNBOUND:                -0.205
REMARK SMILES O=C([O-])c1ccccc1O
REMARK SMILES IDX 4 1 9 2 5 3 8 4 6 5 7 6 2 7 1 8 3 9 10 10
REMARK H PARENT 10 11
REMARK Flexibility Score: inf
ROOT
ATOM      1  C   UNL     1      -9.410 -18.441  31.779  1.00  0.00     0.039 A 
ATOM      2  C   UNL     1     -10.699 -18.178  31.246  1.00  0.00     0.124 A 
ATOM      3  C   UNL     1      -8.380 -18.834  30.903  1.00  0.00     0.014 A 
ATOM      4  C   UNL     1     -10.905 -18.252  29.863  1.00  0.00     0.047 A 
ATOM      5  C   UNL     1      -8.609 -18.924  29.528  1.00  0.00     0.001 A 
ATOM      6  C   UNL     1      -9.867 -18.623  29.008  1.00  0.00     0.004 A 
ENDROOT
BRANCH   1   7
ATOM      7  C   UNL     1      -9.088 -18.290  33.215  1.00  0.00     0.075 C 
ATOM      8  O   UNL     1      -7.958 -17.875  33.585  1.00  0.00    -0.545 OA
ATOM      9  O   UNL     1     -10.013 -18.672  34.179  1.00  0.00    -0.545 OA
ENDBRANCH   1   7
BRANCH   2  10
ATOM     10  O   UNL     1     -11.799 -17.875  32.051  1.00  0.00    -0.507 OA
ATOM     11  H   UNL     1     -11.732 -17.366  32.921  1.00  0.00     0.293 HD
ENDBRANCH   2  10
TORSDOF 2
ENDMDL
