MODEL 1
REMARK VINA RESULT:    -4.882      0.000      0.000
REMARK INTER + INTRA:          -8.351
REMARK INTER:                  -6.452
REMARK INTRA:                  -1.899
REMARK UNBOUND:                -1.899
REMARK SMILES CC[C@H](C=C[C@@H](C)[C@H]1CC[C@@H]2[C@@H]3CC=C4C[C@H](O)CC[C@]4(C)[C@@H]3CC[C@]21C)C(C)C
REMARK SMILES IDX 6 1 7 2 5 3 4 4 3 5 2 6 1 7 28 8 29 9 30 10 8 11 9 12 26 13
REMARK SMILES IDX 10 14 11 15 25 16 27 17 12 18 24 19 23 20 13 21 21 22 14 23
REMARK SMILES IDX 15 24 20 25 22 26 16 27 19 28 17 29 18 30
REMARK H PARENT 18 31
REMARK Flexibility Score: inf
ROOT
ATOM      1  C   UNL     1       7.170   1.169   0.429  1.00  0.00     0.012 C 
ATOM      2  C   UNL     1       7.832   0.992   1.820  1.00  0.00     0.012 C 
ENDROOT
BRANCH   1   3
ATOM      3  C   UNL     1       6.785  -0.204  -0.097  1.00  0.00    -0.028 C 
ATOM      4  C   UNL     1       5.624  -0.436  -0.739  1.00  0.00    -0.027 C 
BRANCH   4   5
ATOM      5  C   UNL     1       5.181  -1.814  -1.195  1.00  0.00     0.014 C 
BRANCH   5   6
ATOM      6  C   UNL     1       3.693  -2.094  -0.838  1.00  0.00     0.004 C 
ATOM      7  C   UNL     1       3.070  -3.322  -1.514  1.00  0.00     0.004 C 
ENDBRANCH   5   6
BRANCH   5   8
ATOM      8  C   UNL     1       5.585  -2.093  -2.679  1.00  0.00    -0.011 C 
ATOM      9  C   UNL     1       7.087  -2.392  -2.833  1.00  0.00     0.008 C 
ATOM     10  C   UNL     1       5.226  -0.891  -3.572  1.00  0.00     0.008 C 
ENDBRANCH   5   8
ENDBRANCH   4   5
ENDBRANCH   1   3
BRANCH   1  11
ATOM     11  C   UNL     1       8.073   1.937  -0.605  1.00  0.00     0.002 C 
ATOM     12  C   UNL     1       8.887   0.961  -1.520  1.00  0.00     0.005 C 
ATOM     13  C   UNL     1       7.358   2.884  -1.639  1.00  0.00    -0.026 C 
ATOM     14  C   UNL     1       8.391   1.117  -2.963  1.00  0.00     0.005 C 
ATOM     15  C   UNL     1       7.124   1.940  -2.826  1.00  0.00    -0.001 C 
ATOM     16  C   UNL     1       5.978   3.469  -1.268  1.00  0.00     0.007 C 
ATOM     17  C   UNL     1       8.340   4.058  -1.935  1.00  0.00     0.012 C 
ATOM     18  C   UNL     1       6.509   2.575  -4.099  1.00  0.00     0.000 C 
ATOM     19  C   UNL     1       5.310   4.200  -2.458  1.00  0.00     0.005 C 
ATOM     20  C   UNL     1       5.178   3.326  -3.751  1.00  0.00     0.003 C 
ATOM     21  C   UNL     1       7.501   3.374  -4.992  1.00  0.00     0.031 C 
ATOM     22  C   UNL     1       4.621   4.108  -5.007  1.00  0.00    -0.008 C 
ATOM     23  C   UNL     1       6.999   4.700  -5.497  1.00  0.00    -0.027 C 
ATOM     24  C   UNL     1       5.696   5.049  -5.545  1.00  0.00    -0.065 C 
ATOM     25  C   UNL     1       3.329   4.912  -4.639  1.00  0.00     0.014 C 
ATOM     26  C   UNL     1       4.259   3.098  -6.131  1.00  0.00     0.016 C 
ATOM     27  C   UNL     1       5.311   6.220  -6.430  1.00  0.00     0.063 C 
ATOM     28  C   UNL     1       2.907   5.928  -5.710  1.00  0.00     0.033 C 
ATOM     29  C   UNL     1       4.030   6.932  -5.978  1.00  0.00     0.118 C 
BRANCH  29  30
ATOM     30  O   UNL     1       4.273   7.696  -4.822  1.00  0.00    -0.393 OA
ATOM     31  H   UNL     1       4.166   7.085  -4.045  1.00  0.00     0.210 HD
ENDBRANCH  29  30
ENDBRANCH   1  11
TORSDOF 6
ENDMDL
MODEL 2
REMARK VINA RESULT:    -4.542      6.889     10.318
REMARK INTER + INTRA:          -7.901
REMARK INTER:                  -6.611
REMARK INTRA:                  -1.290
REMARK UNBOUND:                -1.899
REMARK SMILES CC[C@H](C=C[C@@H](C)[C@H]1CC[C@@H]2[C@@H]3CC=C4C[C@H](O)CC[C@]4(C)[C@@H]3CC[C@]21C)C(C)C
REMARK SMILES IDX 6 1 7 2 5 3 4 4 3 5 2 6 1 7 28 8 29 9 30 10 8 11 9 12 26 13
REMARK SMILES IDX 10 14 11 15 25 16 27 17 12 18 24 19 23 20 13 21 21 22 14 23
REMARK SMILES IDX 15 24 20 25 22 26 16 27 19 28 17 29 18 30
REMARK H PARENT 18 31
REMARK Flexibility Score: inf
ROOT
ATOM      1  C   UNL     1       3.706  -6.643  -4.734  1.00  0.00     0.012 C 
ATOM      2  C   UNL     1       4.998  -7.492  -4.611  1.00  0.00     0.012 C 
ENDROOT
BRANCH   1   3
ATOM      3  C   UNL     1       3.231  -6.288  -3.334  1.00  0.00    -0.028 C 
ATOM      4  C   UNL     1       2.900  -5.032  -2.978  1.00  0.00    -0.027 C 
BRANCH   4   5
ATOM      5  C   UNL     1       2.507  -4.640  -1.565  1.00  0.00     0.014 C 
BRANCH   5   6
ATOM      6  C   UNL     1       3.388  -5.351  -0.499  1.00  0.00     0.004 C 
ATOM      7  C   UNL     1       2.655  -6.354   0.402  1.00  0.00     0.004 C 
ENDBRANCH   5   6
BRANCH   5   8
ATOM      8  C   UNL     1       2.372  -3.090  -1.408  1.00  0.00    -0.011 C 
ATOM      9  C   UNL     1       3.714  -2.415  -1.076  1.00  0.00     0.008 C 
ATOM     10  C   UNL     1       1.357  -2.745  -0.304  1.00  0.00     0.008 C 
ENDBRANCH   5   8
ENDBRANCH   4   5
ENDBRANCH   1   3
BRANCH   1  11
ATOM     11  C   UNL     1       2.565  -7.349  -5.555  1.00  0.00     0.002 C 
ATOM     12  C   UNL     1       1.768  -8.384  -4.692  1.00  0.00     0.005 C 
ATOM     13  C   UNL     1       1.432  -6.442  -6.163  1.00  0.00    -0.026 C 
ATOM     14  C   UNL     1       0.326  -7.883  -4.538  1.00  0.00     0.005 C 
ATOM     15  C   UNL     1       0.380  -6.455  -5.045  1.00  0.00    -0.001 C 
ATOM     16  C   UNL     1       1.751  -4.957  -6.444  1.00  0.00     0.007 C 
ATOM     17  C   UNL     1       0.970  -7.119  -7.488  1.00  0.00     0.012 C 
ATOM     18  C   UNL     1      -0.951  -5.722  -5.345  1.00  0.00     0.000 C 
ATOM     19  C   UNL     1       0.490  -4.149  -6.835  1.00  0.00     0.005 C 
ATOM     20  C   UNL     1      -0.677  -4.246  -5.795  1.00  0.00     0.003 C 
ATOM     21  C   UNL     1      -1.958  -6.504  -6.236  1.00  0.00     0.031 C 
ATOM     22  C   UNL     1      -2.013  -3.533  -6.254  1.00  0.00    -0.008 C 
ATOM     23  C   UNL     1      -2.620  -5.707  -7.327  1.00  0.00    -0.027 C 
ATOM     24  C   UNL     1      -2.687  -4.359  -7.346  1.00  0.00    -0.065 C 
ATOM     25  C   UNL     1      -1.727  -2.083  -6.766  1.00  0.00     0.014 C 
ATOM     26  C   UNL     1      -2.990  -3.437  -5.049  1.00  0.00     0.016 C 
ATOM     27  C   UNL     1      -3.708  -3.716  -8.266  1.00  0.00     0.063 C 
ATOM     28  C   UNL     1      -2.910  -1.442  -7.505  1.00  0.00     0.033 C 
ATOM     29  C   UNL     1      -3.326  -2.297  -8.705  1.00  0.00     0.118 C 
BRANCH  29  30
ATOM     30  O   UNL     1      -2.283  -2.335  -9.647  1.00  0.00    -0.393 OA
ATOM     31  H   UNL     1      -2.556  -1.752 -10.404  1.00  0.00     0.210 HD
ENDBRANCH  29  30
ENDBRANCH   1  11
TORSDOF 6
ENDMDL
MODEL 3
REMARK VINA RESULT:    -4.524      3.476      6.711
REMARK INTER + INTRA:          -7.877
REMARK INTER:                  -6.477
REMARK INTRA:                  -1.400
REMARK UNBOUND:                -1.899
REMARK SMILES CC[C@H](C=C[C@@H](C)[C@H]1CC[C@@H]2[C@@H]3CC=C4C[C@H](O)CC[C@]4(C)[C@@H]3CC[C@]21C)C(C)C
REMARK SMILES IDX 6 1 7 2 5 3 4 4 3 5 2 6 1 7 28 8 29 9 30 10 8 11 9 12 26 13
REMARK SMILES IDX 10 14 11 15 25 16 27 17 12 18 24 19 23 20 13 21 21 22 14 23
REMARK SMILES IDX 15 24 20 25 22 26 16 27 19 28 17 29 18 30
REMARK H PARENT 18 31
REMARK Flexibility Score: inf
ROOT
ATOM      1  C   UNL     1       2.943  -4.580  -2.487  1.00  0.00     0.012 C 
ATOM      2  C   UNL     1       2.700  -5.707  -1.450  1.00  0.00     0.012 C 
ENDROOT
BRANCH   1   3
ATOM      3  C   UNL     1       2.119  -4.882  -3.727  1.00  0.00    -0.028 C 
ATOM      4  C   UNL     1       1.095  -4.102  -4.125  1.00  0.00    -0.027 C 
BRANCH   4   5
ATOM      5  C   UNL     1       0.204  -4.432  -5.309  1.00  0.00     0.014 C 
BRANCH   5   6
ATOM      6  C   UNL     1       0.834  -3.975  -6.655  1.00  0.00     0.004 C 
ATOM      7  C   UNL     1       1.622  -2.659  -6.603  1.00  0.00     0.004 C 
ENDBRANCH   5   6
BRANCH   5   8
ATOM      8  C   UNL     1      -0.298  -5.912  -5.265  1.00  0.00    -0.011 C 
ATOM      9  C   UNL     1       0.278  -6.763  -6.410  1.00  0.00     0.008 C 
ATOM     10  C   UNL     1      -1.835  -5.964  -5.334  1.00  0.00     0.008 C 
ENDBRANCH   5   8
ENDBRANCH   4   5
ENDBRANCH   1   3
BRANCH   1  11
ATOM     11  C   UNL     1       4.460  -4.378  -2.853  1.00  0.00     0.002 C 
ATOM     12  C   UNL     1       4.691  -4.302  -4.400  1.00  0.00     0.005 C 
ATOM     13  C   UNL     1       5.175  -3.082  -2.320  1.00  0.00    -0.026 C 
ATOM     14  C   UNL     1       5.187  -2.894  -4.750  1.00  0.00     0.005 C 
ATOM     15  C   UNL     1       4.957  -2.099  -3.479  1.00  0.00    -0.001 C 
ATOM     16  C   UNL     1       4.611  -2.398  -1.056  1.00  0.00     0.007 C 
ATOM     17  C   UNL     1       6.667  -3.457  -2.068  1.00  0.00     0.012 C 
ATOM     18  C   UNL     1       5.630  -0.711  -3.339  1.00  0.00     0.000 C 
ATOM     19  C   UNL     1       5.280  -1.029  -0.780  1.00  0.00     0.005 C 
ATOM     20  C   UNL     1       5.217  -0.033  -1.987  1.00  0.00     0.003 C 
ATOM     21  C   UNL     1       7.152  -0.671  -3.655  1.00  0.00     0.031 C 
ATOM     22  C   UNL     1       6.015   1.313  -1.758  1.00  0.00    -0.008 C 
ATOM     23  C   UNL     1       7.999   0.113  -2.689  1.00  0.00    -0.027 C 
ATOM     24  C   UNL     1       7.514   1.042  -1.838  1.00  0.00    -0.065 C 
ATOM     25  C   UNL     1       5.650   1.952  -0.377  1.00  0.00     0.014 C 
ATOM     26  C   UNL     1       5.648   2.331  -2.873  1.00  0.00     0.016 C 
ATOM     27  C   UNL     1       8.499   2.020  -1.225  1.00  0.00     0.063 C 
ATOM     28  C   UNL     1       6.596   3.084   0.051  1.00  0.00     0.033 C 
ATOM     29  C   UNL     1       8.040   2.584   0.125  1.00  0.00     0.118 C 
BRANCH  29  30
ATOM     30  O   UNL     1       8.156   1.609   1.132  1.00  0.00    -0.393 OA
ATOM     31  H   UNL     1       7.715   0.787   0.789  1.00  0.00     0.210 HD
ENDBRANCH  29  30
ENDBRANCH   1  11
TORSDOF 6
ENDMDL
MODEL 4
REMARK VINA RESULT:    -4.408      7.762     11.912
REMARK INTER + INTRA:          -7.724
REMARK INTER:                  -6.401
REMARK INTRA:                  -1.323
REMARK UNBOUND:                -1.899
REMARK SMILES CC[C@H](C=C[C@@H](C)[C@H]1CC[C@@H]2[C@@H]3CC=C4C[C@H](O)CC[C@]4(C)[C@@H]3CC[C@]21C)C(C)C
REMARK SMILES IDX 6 1 7 2 5 3 4 4 3 5 2 6 1 7 28 8 29 9 30 10 8 11 9 12 26 13
REMARK SMILES IDX 10 14 11 15 25 16 27 17 12 18 24 19 23 20 13 21 21 22 14 23
REMARK SMILES IDX 15 24 20 25 22 26 16 27 19 28 17 29 18 30
REMARK H PARENT 18 31
REMARK Flexibility Score: inf
ROOT
ATOM      1  C   UNL     1      -4.299   1.467  -5.840  1.00  0.00     0.012 C 
ATOM      2  C   UNL     1      -5.741   2.015  -5.996  1.00  0.00     0.012 C 
ENDROOT
BRANCH   1   3
ATOM      3  C   UNL     1      -3.424   2.575  -5.277  1.00  0.00    -0.028 C 
ATOM      4  C   UNL     1      -2.767   2.456  -4.107  1.00  0.00    -0.027 C 
BRANCH   4   5
ATOM      5  C   UNL     1      -1.958   3.580  -3.484  1.00  0.00     0.014 C 
BRANCH   5   6
ATOM      6  C   UNL     1      -1.579   4.669  -4.527  1.00  0.00     0.004 C 
ATOM      7  C   UNL     1      -0.080   4.805  -4.825  1.00  0.00     0.004 C 
ENDBRANCH   5   6
BRANCH   5   8
ATOM      8  C   UNL     1      -2.613   4.104  -2.164  1.00  0.00    -0.011 C 
ATOM      9  C   UNL     1      -3.433   5.387  -2.385  1.00  0.00     0.008 C 
ATOM     10  C   UNL     1      -1.536   4.382  -1.100  1.00  0.00     0.008 C 
ENDBRANCH   5   8
ENDBRANCH   4   5
ENDBRANCH   1   3
BRANCH   1  11
ATOM     11  C   UNL     1      -3.695   0.894  -7.175  1.00  0.00     0.002 C 
ATOM     12  C   UNL     1      -2.377   1.630  -7.592  1.00  0.00     0.005 C 
ATOM     13  C   UNL     1      -3.281  -0.624  -7.198  1.00  0.00    -0.026 C 
ATOM     14  C   UNL     1      -1.215   0.632  -7.510  1.00  0.00     0.005 C 
ATOM     15  C   UNL     1      -1.806  -0.557  -6.778  1.00  0.00    -0.001 C 
ATOM     16  C   UNL     1      -3.972  -1.590  -6.212  1.00  0.00     0.007 C 
ATOM     17  C   UNL     1      -3.512  -1.135  -8.653  1.00  0.00     0.012 C 
ATOM     18  C   UNL     1      -1.028  -1.897  -6.786  1.00  0.00     0.000 C 
ATOM     19  C   UNL     1      -3.316  -2.992  -6.205  1.00  0.00     0.005 C 
ATOM     20  C   UNL     1      -1.775  -2.973  -5.925  1.00  0.00     0.003 C 
ATOM     21  C   UNL     1      -0.557  -2.388  -8.186  1.00  0.00     0.031 C 
ATOM     22  C   UNL     1      -1.078  -4.387  -6.050  1.00  0.00    -0.008 C 
ATOM     23  C   UNL     1      -0.773  -3.849  -8.471  1.00  0.00    -0.027 C 
ATOM     24  C   UNL     1      -0.980  -4.784  -7.520  1.00  0.00    -0.065 C 
ATOM     25  C   UNL     1      -1.865  -5.473  -5.243  1.00  0.00     0.014 C 
ATOM     26  C   UNL     1       0.364  -4.308  -5.475  1.00  0.00     0.016 C 
ATOM     27  C   UNL     1      -0.781  -6.239  -7.904  1.00  0.00     0.063 C 
ATOM     28  C   UNL     1      -1.432  -6.912  -5.558  1.00  0.00     0.033 C 
ATOM     29  C   UNL     1      -1.599  -7.214  -7.049  1.00  0.00     0.118 C 
BRANCH  29  30
ATOM     30  O   UNL     1      -2.960  -7.155  -7.398  1.00  0.00    -0.393 OA
ATOM     31  H   UNL     1      -3.029  -7.464  -8.340  1.00  0.00     0.210 HD
ENDBRANCH  29  30
ENDBRANCH   1  11
TORSDOF 6
ENDMDL
MODEL 5
REMARK VINA RESULT:    -4.373      3.242      7.573
REMARK INTER + INTRA:          -7.678
REMARK INTER:                  -6.476
REMARK INTRA:                  -1.202
REMARK UNBOUND:                -1.899
REMARK SMILES CC[C@H](C=C[C@@H](C)[C@H]1CC[C@@H]2[C@@H]3CC=C4C[C@H](O)CC[C@]4(C)[C@@H]3CC[C@]21C)C(C)C
REMARK SMILES IDX 6 1 7 2 5 3 4 4 3 5 2 6 1 7 28 8 29 9 30 10 8 11 9 12 26 13
REMARK SMILES IDX 10 14 11 15 25 16 27 17 12 18 24 19 23 20 13 21 21 22 14 23
REMARK SMILES IDX 15 24 20 25 22 26 16 27 19 28 17 29 18 30
REMARK H PARENT 18 31
REMARK Flexibility Score: inf
ROOT
ATOM      1  C   UNL     1       1.975   3.798  -6.081  1.00  0.00     0.012 C 
ATOM      2  C   UNL     1       1.352   3.501  -7.469  1.00  0.00     0.012 C 
ENDROOT
BRANCH   1   3
ATOM      3  C   UNL     1       1.052   4.749  -5.335  1.00  0.00    -0.028 C 
ATOM      4  C   UNL     1       0.127   4.320  -4.455  1.00  0.00    -0.027 C 
BRANCH   4   5
ATOM      5  C   UNL     1      -0.862   5.242  -3.765  1.00  0.00     0.014 C 
BRANCH   5   6
ATOM      6  C   UNL     1      -1.433   6.312  -4.738  1.00  0.00     0.004 C 
ATOM      7  C   UNL     1      -2.224   7.450  -4.080  1.00  0.00     0.004 C 
ENDBRANCH   5   6
BRANCH   5   8
ATOM      8  C   UNL     1      -1.922   4.444  -2.938  1.00  0.00    -0.011 C 
ATOM      9  C   UNL     1      -1.446   4.145  -1.506  1.00  0.00     0.008 C 
ATOM     10  C   UNL     1      -2.261   3.114  -3.635  1.00  0.00     0.008 C 
ENDBRANCH   5   8
ENDBRANCH   4   5
ENDBRANCH   1   3
BRANCH   1  11
ATOM     11  C   UNL     1       3.437   4.375  -6.156  1.00  0.00     0.002 C 
ATOM     12  C   UNL     1       3.492   5.899  -5.803  1.00  0.00     0.005 C 
ATOM     13  C   UNL     1       4.521   3.747  -5.203  1.00  0.00    -0.026 C 
ATOM     14  C   UNL     1       4.288   6.070  -4.503  1.00  0.00     0.005 C 
ATOM     15  C   UNL     1       4.425   4.657  -3.971  1.00  0.00    -0.001 C 
ATOM     16  C   UNL     1       4.308   2.304  -4.698  1.00  0.00     0.007 C 
ATOM     17  C   UNL     1       5.885   3.824  -5.954  1.00  0.00     0.012 C 
ATOM     18  C   UNL     1       5.445   4.386  -2.836  1.00  0.00     0.000 C 
ATOM     19  C   UNL     1       5.335   1.905  -3.611  1.00  0.00     0.005 C 
ATOM     20  C   UNL     1       5.386   2.885  -2.390  1.00  0.00     0.003 C 
ATOM     21  C   UNL     1       6.877   4.944  -3.077  1.00  0.00     0.031 C 
ATOM     22  C   UNL     1       6.525   2.557  -1.344  1.00  0.00    -0.008 C 
ATOM     23  C   UNL     1       8.006   4.011  -2.735  1.00  0.00    -0.027 C 
ATOM     24  C   UNL     1       7.883   2.938  -1.926  1.00  0.00    -0.065 C 
ATOM     25  C   UNL     1       6.506   1.041  -0.951  1.00  0.00     0.014 C 
ATOM     26  C   UNL     1       6.302   3.393  -0.053  1.00  0.00     0.016 C 
ATOM     27  C   UNL     1       9.154   2.335  -1.354  1.00  0.00     0.063 C 
ATOM     28  C   UNL     1       7.756   0.585  -0.185  1.00  0.00     0.033 C 
ATOM     29  C   UNL     1       9.021   0.848  -1.005  1.00  0.00     0.118 C 
BRANCH  29  30
ATOM     30  O   UNL     1       9.002   0.067  -2.175  1.00  0.00    -0.393 OA
ATOM     31  H   UNL     1       8.567   0.615  -2.880  1.00  0.00     0.210 HD
ENDBRANCH  29  30
ENDBRANCH   1  11
TORSDOF 6
ENDMDL
MODEL 6
REMARK VINA RESULT:    -4.236      4.192      7.633
REMARK INTER + INTRA:          -7.497
REMARK INTER:                  -5.820
REMARK INTRA:                  -1.678
REMARK UNBOUND:                -1.899
REMARK SMILES CC[C@H](C=C[C@@H](C)[C@H]1CC[C@@H]2[C@@H]3CC=C4C[C@H](O)CC[C@]4(C)[C@@H]3CC[C@]21C)C(C)C
REMARK SMILES IDX 6 1 7 2 5 3 4 4 3 5 2 6 1 7 28 8 29 9 30 10 8 11 9 12 26 13
REMARK SMILES IDX 10 14 11 15 25 16 27 17 12 18 24 19 23 20 13 21 21 22 14 23
REMARK SMILES IDX 15 24 20 25 22 26 16 27 19 28 17 29 18 30
REMARK H PARENT 18 31
REMARK Flexibility Score: inf
ROOT
ATOM      1  C   UNL     1       6.470   2.009   0.161  1.00  0.00     0.012 C 
ATOM      2  C   UNL     1       6.072   3.508   0.173  1.00  0.00     0.012 C 
ENDROOT
BRANCH   1   3
ATOM      3  C   UNL     1       7.708   1.834   1.025  1.00  0.00    -0.028 C 
ATOM      4  C   UNL     1       7.763   0.955   2.044  1.00  0.00    -0.027 C 
BRANCH   4   5
ATOM      5  C   UNL     1       8.956   0.826   2.973  1.00  0.00     0.014 C 
BRANCH   5   6
ATOM      6  C   UNL     1       8.597   1.212   4.436  1.00  0.00     0.004 C 
ATOM      7  C   UNL     1       7.763   2.490   4.597  1.00  0.00     0.004 C 
ENDBRANCH   5   6
BRANCH   5   8
ATOM      8  C   UNL     1       9.686  -0.545   2.795  1.00  0.00    -0.011 C 
ATOM      9  C   UNL     1       8.843  -1.562   2.006  1.00  0.00     0.008 C 
ATOM     10  C   UNL     1      10.040  -1.152   4.165  1.00  0.00     0.008 C 
ENDBRANCH   5   8
ENDBRANCH   4   5
ENDBRANCH   1   3
BRANCH   1  11
ATOM     11  C   UNL     1       6.704   1.431  -1.284  1.00  0.00     0.002 C 
ATOM     12  C   UNL     1       8.222   1.200  -1.591  1.00  0.00     0.005 C 
ATOM     13  C   UNL     1       6.053   0.041  -1.630  1.00  0.00    -0.026 C 
ATOM     14  C   UNL     1       8.463  -0.305  -1.755  1.00  0.00     0.005 C 
ATOM     15  C   UNL     1       7.176  -0.937  -1.259  1.00  0.00    -0.001 C 
ATOM     16  C   UNL     1       4.806  -0.405  -0.837  1.00  0.00     0.007 C 
ATOM     17  C   UNL     1       5.702   0.070  -3.149  1.00  0.00     0.012 C 
ATOM     18  C   UNL     1       6.915  -2.433  -1.568  1.00  0.00     0.000 C 
ATOM     19  C   UNL     1       4.411  -1.871  -1.138  1.00  0.00     0.005 C 
ATOM     20  C   UNL     1       5.569  -2.902  -0.916  1.00  0.00     0.003 C 
ATOM     21  C   UNL     1       7.107  -2.851  -3.054  1.00  0.00     0.031 C 
ATOM     22  C   UNL     1       5.212  -4.380  -1.351  1.00  0.00    -0.008 C 
ATOM     23  C   UNL     1       6.040  -3.746  -3.622  1.00  0.00    -0.027 C 
ATOM     24  C   UNL     1       5.185  -4.476  -2.874  1.00  0.00    -0.065 C 
ATOM     25  C   UNL     1       3.834  -4.822  -0.754  1.00  0.00     0.014 C 
ATOM     26  C   UNL     1       6.302  -5.355  -0.825  1.00  0.00     0.016 C 
ATOM     27  C   UNL     1       4.449  -5.616  -3.553  1.00  0.00     0.063 C 
ATOM     28  C   UNL     1       3.278  -6.113  -1.370  1.00  0.00     0.033 C 
ATOM     29  C   UNL     1       3.114  -5.964  -2.884  1.00  0.00     0.118 C 
BRANCH  29  30
ATOM     30  O   UNL     1       2.149  -4.980  -3.164  1.00  0.00    -0.393 OA
ATOM     31  H   UNL     1       1.446  -5.414  -3.716  1.00  0.00     0.210 HD
ENDBRANCH  29  30
ENDBRANCH   1  11
TORSDOF 6
ENDMDL
MODEL 7
REMARK VINA RESULT:    -4.227      2.679      7.189
REMARK INTER + INTRA:          -7.485
REMARK INTER:                  -6.085
REMARK INTRA:                  -1.400
REMARK UNBOUND:                -1.899
REMARK SMILES CC[C@H](C=C[C@@H](C)[C@H]1CC[C@@H]2[C@@H]3CC=C4C[C@H](O)CC[C@]4(C)[C@@H]3CC[C@]21C)C(C)C
REMARK SMILES IDX 6 1 7 2 5 3 4 4 3 5 2 6 1 7 28 8 29 9 30 10 8 11 9 12 26 13
REMARK SMILES IDX 10 14 11 15 25 16 27 17 12 18 24 19 23 20 13 21 21 22 14 23
REMARK SMILES IDX 15 24 20 25 22 26 16 27 19 28 17 29 18 30
REMARK H PARENT 18 31
REMARK Flexibility Score: inf
ROOT
ATOM      1  C   UNL     1       6.450   4.298  -6.010  1.00  0.00     0.012 C 
ATOM      2  C   UNL     1       7.235   4.928  -7.190  1.00  0.00     0.012 C 
ENDROOT
BRANCH   1   3
ATOM      3  C   UNL     1       4.968   4.552  -6.230  1.00  0.00    -0.028 C 
ATOM      4  C   UNL     1       4.024   3.640  -5.930  1.00  0.00    -0.027 C 
BRANCH   4   5
ATOM      5  C   UNL     1       2.547   3.838  -6.222  1.00  0.00     0.014 C 
BRANCH   5   6
ATOM      6  C   UNL     1       1.768   2.492  -6.211  1.00  0.00     0.004 C 
ATOM      7  C   UNL     1       2.593   1.247  -6.562  1.00  0.00     0.004 C 
ENDBRANCH   5   6
BRANCH   5   8
ATOM      8  C   UNL     1       1.932   4.984  -5.354  1.00  0.00    -0.011 C 
ATOM      9  C   UNL     1       0.558   4.607  -4.772  1.00  0.00     0.008 C 
ATOM     10  C   UNL     1       1.781   6.270  -6.186  1.00  0.00     0.008 C 
ENDBRANCH   5   8
ENDBRANCH   4   5
ENDBRANCH   1   3
BRANCH   1  11
ATOM     11  C   UNL     1       6.909   4.820  -4.598  1.00  0.00     0.002 C 
ATOM     12  C   UNL     1       5.838   5.748  -3.933  1.00  0.00     0.005 C 
ATOM     13  C   UNL     1       7.199   3.750  -3.482  1.00  0.00    -0.026 C 
ATOM     14  C   UNL     1       5.302   5.051  -2.677  1.00  0.00     0.005 C 
ATOM     15  C   UNL     1       5.834   3.636  -2.789  1.00  0.00    -0.001 C 
ATOM     16  C   UNL     1       7.588   2.320  -3.916  1.00  0.00     0.007 C 
ATOM     17  C   UNL     1       8.330   4.329  -2.580  1.00  0.00     0.012 C 
ATOM     18  C   UNL     1       5.769   2.716  -1.544  1.00  0.00     0.000 C 
ATOM     19  C   UNL     1       7.632   1.335  -2.724  1.00  0.00     0.005 C 
ATOM     20  C   UNL     1       6.308   1.285  -1.888  1.00  0.00     0.003 C 
ATOM     21  C   UNL     1       6.330   3.331  -0.230  1.00  0.00     0.031 C 
ATOM     22  C   UNL     1       6.395   0.383  -0.592  1.00  0.00    -0.008 C 
ATOM     23  C   UNL     1       7.212   2.428   0.588  1.00  0.00    -0.027 C 
ATOM     24  C   UNL     1       7.240   1.084   0.467  1.00  0.00    -0.065 C 
ATOM     25  C   UNL     1       6.996  -1.023  -0.927  1.00  0.00     0.014 C 
ATOM     26  C   UNL     1       4.969   0.172  -0.010  1.00  0.00     0.016 C 
ATOM     27  C   UNL     1       7.856   0.285   1.601  1.00  0.00     0.063 C 
ATOM     28  C   UNL     1       7.393  -1.838   0.312  1.00  0.00     0.033 C 
ATOM     29  C   UNL     1       8.413  -1.074   1.160  1.00  0.00     0.118 C 
BRANCH  29  30
ATOM     30  O   UNL     1       9.606  -0.906   0.434  1.00  0.00    -0.393 OA
ATOM     31  H   UNL     1       9.357  -0.883  -0.528  1.00  0.00     0.210 HD
ENDBRANCH  29  30
ENDBRANCH   1  11
TORSDOF 6
ENDMDL
MODEL 8
REMARK VINA RESULT:    -4.208      8.124     10.206
REMARK INTER + INTRA:          -7.460
REMARK INTER:                  -5.967
REMARK INTRA:                  -1.494
REMARK UNBOUND:                -1.899
REMARK SMILES CC[C@H](C=C[C@@H](C)[C@H]1CC[C@@H]2[C@@H]3CC=C4C[C@H](O)CC[C@]4(C)[C@@H]3CC[C@]21C)C(C)C
REMARK SMILES IDX 6 1 7 2 5 3 4 4 3 5 2 6 1 7 28 8 29 9 30 10 8 11 9 12 26 13
REMARK SMILES IDX 10 14 11 15 25 16 27 17 12 18 24 19 23 20 13 21 21 22 14 23
REMARK SMILES IDX 15 24 20 25 22 26 16 27 19 28 17 29 18 30
REMARK H PARENT 18 31
REMARK Flexibility Score: inf
ROOT
ATOM      1  C   UNL     1      -1.557   0.427  -7.085  1.00  0.00     0.012 C 
ATOM      2  C   UNL     1      -0.459   0.120  -8.136  1.00  0.00     0.012 C 
ENDROOT
BRANCH   1   3
ATOM      3  C   UNL     1      -2.442  -0.800  -6.943  1.00  0.00    -0.028 C 
ATOM      4  C   UNL     1      -2.666  -1.400  -5.758  1.00  0.00    -0.027 C 
BRANCH   4   5
ATOM      5  C   UNL     1      -3.475  -2.675  -5.606  1.00  0.00     0.014 C 
BRANCH   5   6
ATOM      6  C   UNL     1      -4.607  -2.775  -6.668  1.00  0.00     0.004 C 
ATOM      7  C   UNL     1      -5.886  -1.991  -6.347  1.00  0.00     0.004 C 
ENDBRANCH   5   6
BRANCH   5   8
ATOM      8  C   UNL     1      -2.557  -3.934  -5.475  1.00  0.00    -0.011 C 
ATOM      9  C   UNL     1      -1.126  -3.574  -5.039  1.00  0.00     0.008 C 
ATOM     10  C   UNL     1      -2.491  -4.696  -6.810  1.00  0.00     0.008 C 
ENDBRANCH   5   8
ENDBRANCH   4   5
ENDBRANCH   1   3
BRANCH   1  11
ATOM     11  C   UNL     1      -2.412   1.704  -7.423  1.00  0.00     0.002 C 
ATOM     12  C   UNL     1      -3.928   1.367  -7.617  1.00  0.00     0.005 C 
ATOM     13  C   UNL     1      -2.437   2.869  -6.364  1.00  0.00    -0.026 C 
ATOM     14  C   UNL     1      -4.726   2.042  -6.494  1.00  0.00     0.005 C 
ATOM     15  C   UNL     1      -3.662   2.501  -5.516  1.00  0.00    -0.001 C 
ATOM     16  C   UNL     1      -1.251   2.997  -5.385  1.00  0.00     0.007 C 
ATOM     17  C   UNL     1      -2.582   4.202  -7.159  1.00  0.00     0.012 C 
ATOM     18  C   UNL     1      -4.057   3.508  -4.406  1.00  0.00     0.000 C 
ATOM     19  C   UNL     1      -1.514   4.045  -4.276  1.00  0.00     0.005 C 
ATOM     20  C   UNL     1      -2.835   3.802  -3.470  1.00  0.00     0.003 C 
ATOM     21  C   UNL     1      -4.831   4.767  -4.891  1.00  0.00     0.031 C 
ATOM     22  C   UNL     1      -3.177   4.943  -2.429  1.00  0.00    -0.008 C 
ATOM     23  C   UNL     1      -4.380   6.076  -4.303  1.00  0.00    -0.027 C 
ATOM     24  C   UNL     1      -3.655   6.188  -3.170  1.00  0.00    -0.065 C 
ATOM     25  C   UNL     1      -1.934   5.281  -1.541  1.00  0.00     0.014 C 
ATOM     26  C   UNL     1      -4.324   4.467  -1.495  1.00  0.00     0.016 C 
ATOM     27  C   UNL     1      -3.617   7.543  -2.487  1.00  0.00     0.063 C 
ATOM     28  C   UNL     1      -2.090   6.572  -0.724  1.00  0.00     0.033 C 
ATOM     29  C   UNL     1      -2.357   7.766  -1.643  1.00  0.00     0.118 C 
BRANCH  29  30
ATOM     30  O   UNL     1      -1.242   7.989  -2.471  1.00  0.00    -0.393 OA
ATOM     31  H   UNL     1      -0.931   8.915  -2.292  1.00  0.00     0.210 HD
ENDBRANCH  29  30
ENDBRANCH   1  11
TORSDOF 6
ENDMDL
MODEL 9
REMARK VINA RESULT:    -4.181      3.006      5.968
REMARK INTER + INTRA:          -7.424
REMARK INTER:                  -5.772
REMARK INTRA:                  -1.652
REMARK UNBOUND:                -1.899
REMARK SMILES CC[C@H](C=C[C@@H](C)[C@H]1CC[C@@H]2[C@@H]3CC=C4C[C@H](O)CC[C@]4(C)[C@@H]3CC[C@]21C)C(C)C
REMARK SMILES IDX 6 1 7 2 5 3 4 4 3 5 2 6 1 7 28 8 29 9 30 10 8 11 9 12 26 13
REMARK SMILES IDX 10 14 11 15 25 16 27 17 12 18 24 19 23 20 13 21 21 22 14 23
REMARK SMILES IDX 15 24 20 25 22 26 16 27 19 28 17 29 18 30
REMARK H PARENT 18 31
REMARK Flexibility Score: inf
ROOT
ATOM      1  C   UNL     1       3.062  -4.544  -1.284  1.00  0.00     0.012 C 
ATOM      2  C   UNL     1       2.445  -5.502  -0.233  1.00  0.00     0.012 C 
ENDROOT
BRANCH   1   3
ATOM      3  C   UNL     1       2.597  -4.982  -2.663  1.00  0.00    -0.028 C 
ATOM      4  C   UNL     1       2.066  -4.124  -3.556  1.00  0.00    -0.027 C 
BRANCH   4   5
ATOM      5  C   UNL     1       1.515  -4.554  -4.904  1.00  0.00     0.014 C 
BRANCH   5   6
ATOM      6  C   UNL     1      -0.025  -4.757  -4.863  1.00  0.00     0.004 C 
ATOM      7  C   UNL     1      -0.516  -6.170  -5.207  1.00  0.00     0.004 C 
ENDBRANCH   5   6
BRANCH   5   8
ATOM      8  C   UNL     1       2.049  -3.652  -6.064  1.00  0.00    -0.011 C 
ATOM      9  C   UNL     1       3.360  -2.936  -5.696  1.00  0.00     0.008 C 
ATOM     10  C   UNL     1       1.000  -2.595  -6.454  1.00  0.00     0.008 C 
ENDBRANCH   5   8
ENDBRANCH   4   5
ENDBRANCH   1   3
BRANCH   1  11
ATOM     11  C   UNL     1       4.632  -4.463  -1.217  1.00  0.00     0.002 C 
ATOM     12  C   UNL     1       5.315  -5.212  -2.411  1.00  0.00     0.005 C 
ATOM     13  C   UNL     1       5.293  -3.036  -1.265  1.00  0.00    -0.026 C 
ATOM     14  C   UNL     1       6.040  -4.180  -3.283  1.00  0.00     0.005 C 
ATOM     15  C   UNL     1       5.533  -2.847  -2.770  1.00  0.00    -0.001 C 
ATOM     16  C   UNL     1       4.459  -1.823  -0.801  1.00  0.00     0.007 C 
ATOM     17  C   UNL     1       6.595  -3.109  -0.411  1.00  0.00     0.012 C 
ATOM     18  C   UNL     1       6.279  -1.555  -3.190  1.00  0.00     0.000 C 
ATOM     19  C   UNL     1       5.159  -0.476  -1.104  1.00  0.00     0.005 C 
ATOM     20  C   UNL     1       5.562  -0.290  -2.606  1.00  0.00     0.003 C 
ATOM     21  C   UNL     1       7.823  -1.583  -2.996  1.00  0.00     0.031 C 
ATOM     22  C   UNL     1       6.396   1.022  -2.895  1.00  0.00    -0.008 C 
ATOM     23  C   UNL     1       8.426  -0.346  -2.389  1.00  0.00    -0.027 C 
ATOM     24  C   UNL     1       7.815   0.857  -2.356  1.00  0.00    -0.065 C 
ATOM     25  C   UNL     1       5.712   2.274  -2.253  1.00  0.00     0.014 C 
ATOM     26  C   UNL     1       6.487   1.253  -4.429  1.00  0.00     0.016 C 
ATOM     27  C   UNL     1       8.675   2.079  -2.090  1.00  0.00     0.063 C 
ATOM     28  C   UNL     1       6.605   3.522  -2.226  1.00  0.00     0.033 C 
ATOM     29  C   UNL     1       7.902   3.245  -1.461  1.00  0.00     0.118 C 
BRANCH  29  30
ATOM     30  O   UNL     1       7.610   2.973  -0.112  1.00  0.00    -0.393 OA
ATOM     31  H   UNL     1       8.366   2.434   0.243  1.00  0.00     0.210 HD
ENDBRANCH  29  30
ENDBRANCH   1  11
TORSDOF 6
ENDMDL
