MODEL 1
REMARK VINA RESULT:    -5.215      0.000      0.000
REMARK INTER + INTRA:          -6.206
REMARK INTER:                  -6.129
REMARK INTRA:                  -0.076
REMARK UNBOUND:                -0.076
REMARK SMILES O=c1c(O)c(-c2ccc(O)cc2)oc2cc(O)cc(O)c12
REMARK SMILES IDX 5 1 3 2 2 3 1 4 21 5 19 6 18 7 16 8 15 9 14 10 13 11 6 12
REMARK SMILES IDX 7 13 8 14 9 15 12 16 11 17 10 18 4 20 20 22 17 24
REMARK H PARENT 10 19 4 21 20 23 17 25
REMARK Flexibility Score: inf
ROOT
ATOM      1  C   UNL     1     -33.892  10.131 -36.422  1.00  0.00     0.180 A 
ATOM      2  C   UNL     1     -32.620   9.533 -36.361  1.00  0.00     0.208 A 
ATOM      3  C   UNL     1     -31.900   9.587 -35.158  1.00  0.00     0.238 A 
ATOM      4  O   UNL     1     -30.734   9.116 -35.132  1.00  0.00    -0.285 OA
ATOM      5  C   UNL     1     -32.481  10.187 -34.013  1.00  0.00     0.111 A 
ATOM      6  C   UNL     1     -31.860  10.258 -32.730  1.00  0.00     0.134 A 
ATOM      7  C   UNL     1     -32.486  10.970 -31.699  1.00  0.00     0.093 A 
ATOM      8  C   UNL     1     -33.736  11.559 -31.885  1.00  0.00     0.123 A 
ATOM      9  C   UNL     1     -34.376  11.449 -33.119  1.00  0.00     0.094 A 
ATOM     10  C   UNL     1     -33.761  10.777 -34.179  1.00  0.00     0.146 A 
ATOM     11  O   UNL     1     -34.396  10.715 -35.343  1.00  0.00    -0.452 OA
ENDROOT
BRANCH   1  12
ATOM     12  C   UNL     1     -34.705  10.128 -37.659  1.00  0.00     0.021 A 
ATOM     13  C   UNL     1     -35.125  11.327 -38.265  1.00  0.00     0.016 A 
ATOM     14  C   UNL     1     -35.914  11.298 -39.419  1.00  0.00     0.047 A 
ATOM     15  C   UNL     1     -36.304  10.075 -39.974  1.00  0.00     0.115 A 
ATOM     16  C   UNL     1     -35.120   8.905 -38.210  1.00  0.00     0.016 A 
ATOM     17  C   UNL     1     -35.908   8.878 -39.365  1.00  0.00     0.047 A 
BRANCH  15  18
ATOM     18  O   UNL     1     -37.088  10.061 -41.125  1.00  0.00    -0.508 OA
ATOM     19  H   UNL     1     -36.863   9.464 -41.912  1.00  0.00     0.293 HD
ENDBRANCH  15  18
ENDBRANCH   1  12
BRANCH   2  20
ATOM     20  O   UNL     1     -32.097   8.878 -37.480  1.00  0.00    -0.502 OA
ATOM     21  H   UNL     1     -32.609   8.794 -38.349  1.00  0.00     0.293 HD
ENDBRANCH   2  20
BRANCH   6  22
ATOM     22  O   UNL     1     -30.653   9.630 -32.408  1.00  0.00    -0.507 OA
ATOM     23  H   UNL     1     -30.354   9.394 -31.474  1.00  0.00     0.293 HD
ENDBRANCH   6  22
BRANCH   8  24
ATOM     24  O   UNL     1     -34.336  12.245 -30.831  1.00  0.00    -0.508 OA
ATOM     25  H   UNL     1     -35.117  11.852 -30.320  1.00  0.00     0.293 HD
ENDBRANCH   8  24
TORSDOF 5
ENDMDL
MODEL 2
REMARK VINA RESULT:    -4.594      1.403      6.572
REMARK INTER + INTRA:          -5.476
REMARK INTER:                  -6.030
REMARK INTRA:                   0.554
REMARK UNBOUND:                -0.076
REMARK SMILES O=c1c(O)c(-c2ccc(O)cc2)oc2cc(O)cc(O)c12
REMARK SMILES IDX 5 1 3 2 2 3 1 4 21 5 19 6 18 7 16 8 15 9 14 10 13 11 6 12
REMARK SMILES IDX 7 13 8 14 9 15 12 16 11 17 10 18 4 20 20 22 17 24
REMARK H PARENT 10 19 4 21 20 23 17 25
REMARK Flexibility Score: inf
ROOT
ATOM      1  C   UNL     1     -33.021  10.916 -33.782  1.00  0.00     0.180 A 
ATOM      2  C   UNL     1     -31.940  10.126 -34.211  1.00  0.00     0.208 A 
ATOM      3  C   UNL     1     -31.932   9.642 -35.529  1.00  0.00     0.238 A 
ATOM      4  O   UNL     1     -31.000   8.875 -35.883  1.00  0.00    -0.285 OA
ATOM      5  C   UNL     1     -32.974  10.001 -36.419  1.00  0.00     0.111 A 
ATOM      6  C   UNL     1     -33.044   9.605 -37.789  1.00  0.00     0.134 A 
ATOM      7  C   UNL     1     -34.177   9.931 -38.545  1.00  0.00     0.093 A 
ATOM      8  C   UNL     1     -35.212  10.691 -38.001  1.00  0.00     0.123 A 
ATOM      9  C   UNL     1     -35.129  11.129 -36.679  1.00  0.00     0.094 A 
ATOM     10  C   UNL     1     -34.028  10.788 -35.888  1.00  0.00     0.146 A 
ATOM     11  O   UNL     1     -34.000  11.207 -34.629  1.00  0.00    -0.452 OA
ENDROOT
BRANCH   1  12
ATOM     12  C   UNL     1     -33.109  11.450 -32.404  1.00  0.00     0.021 A 
ATOM     13  C   UNL     1     -34.263  12.110 -31.943  1.00  0.00     0.016 A 
ATOM     14  C   UNL     1     -34.311  12.627 -30.645  1.00  0.00     0.047 A 
ATOM     15  C   UNL     1     -33.207  12.505 -29.797  1.00  0.00     0.115 A 
ATOM     16  C   UNL     1     -31.995  11.351 -31.553  1.00  0.00     0.016 A 
ATOM     17  C   UNL     1     -32.046  11.867 -30.255  1.00  0.00     0.047 A 
BRANCH  15  18
ATOM     18  O   UNL     1     -33.269  13.023 -28.506  1.00  0.00    -0.508 OA
ATOM     19  H   UNL     1     -32.536  13.617 -28.138  1.00  0.00     0.293 HD
ENDBRANCH  15  18
ENDBRANCH   1  12
BRANCH   2  20
ATOM     20  O   UNL     1     -30.883   9.847 -33.340  1.00  0.00    -0.502 OA
ATOM     21  H   UNL     1     -30.032  10.395 -33.326  1.00  0.00     0.293 HD
ENDBRANCH   2  20
BRANCH   6  22
ATOM     22  O   UNL     1     -32.026   8.920 -38.459  1.00  0.00    -0.507 OA
ATOM     23  H   UNL     1     -31.128   8.687 -38.065  1.00  0.00     0.293 HD
ENDBRANCH   6  22
BRANCH   8  24
ATOM     24  O   UNL     1     -36.316  11.011 -38.788  1.00  0.00    -0.508 OA
ATOM     25  H   UNL     1     -37.182  11.337 -38.377  1.00  0.00     0.293 HD
ENDBRANCH   8  24
TORSDOF 5
ENDMDL
MODEL 3
REMARK VINA RESULT:    -4.286      1.388      6.517
REMARK INTER + INTRA:          -5.114
REMARK INTER:                  -5.217
REMARK INTRA:                   0.103
REMARK UNBOUND:                -0.076
REMARK SMILES O=c1c(O)c(-c2ccc(O)cc2)oc2cc(O)cc(O)c12
REMARK SMILES IDX 5 1 3 2 2 3 1 4 21 5 19 6 18 7 16 8 15 9 14 10 13 11 6 12
REMARK SMILES IDX 7 13 8 14 9 15 12 16 11 17 10 18 4 20 20 22 17 24
REMARK H PARENT 10 19 4 21 20 23 17 25
REMARK Flexibility Score: inf
ROOT
ATOM      1  C   UNL     1     -33.666  10.138 -36.032  1.00  0.00     0.180 A 
ATOM      2  C   UNL     1     -32.683   9.630 -36.900  1.00  0.00     0.208 A 
ATOM      3  C   UNL     1     -33.017   9.399 -38.244  1.00  0.00     0.238 A 
ATOM      4  O   UNL     1     -32.156   8.875 -38.997  1.00  0.00    -0.285 OA
ATOM      5  C   UNL     1     -34.309   9.733 -38.718  1.00  0.00     0.111 A 
ATOM      6  C   UNL     1     -34.742   9.583 -40.071  1.00  0.00     0.134 A 
ATOM      7  C   UNL     1     -36.077   9.846 -40.401  1.00  0.00     0.093 A 
ATOM      8  C   UNL     1     -36.978  10.312 -39.445  1.00  0.00     0.123 A 
ATOM      9  C   UNL     1     -36.552  10.513 -38.132  1.00  0.00     0.094 A 
ATOM     10  C   UNL     1     -35.236  10.224 -37.763  1.00  0.00     0.146 A 
ATOM     11  O   UNL     1     -34.879  10.409 -36.498  1.00  0.00    -0.452 OA
ENDROOT
BRANCH   1  12
ATOM     12  C   UNL     1     -33.395  10.393 -34.599  1.00  0.00     0.021 A 
ATOM     13  C   UNL     1     -33.729  11.619 -33.995  1.00  0.00     0.016 A 
ATOM     14  C   UNL     1     -33.440  11.845 -32.645  1.00  0.00     0.047 A 
ATOM     15  C   UNL     1     -32.803  10.858 -31.887  1.00  0.00     0.115 A 
ATOM     16  C   UNL     1     -32.735   9.415 -33.836  1.00  0.00     0.016 A 
ATOM     17  C   UNL     1     -32.448   9.643 -32.487  1.00  0.00     0.047 A 
BRANCH  15  18
ATOM     18  O   UNL     1     -32.522  11.096 -30.544  1.00  0.00    -0.508 OA
ATOM     19  H   UNL     1     -31.594  10.953 -30.164  1.00  0.00     0.293 HD
ENDBRANCH  15  18
ENDBRANCH   1  12
BRANCH   2  20
ATOM     20  O   UNL     1     -31.391   9.380 -36.430  1.00  0.00    -0.502 OA
ATOM     21  H   UNL     1     -31.097   9.623 -35.492  1.00  0.00     0.293 HD
ENDBRANCH   2  20
BRANCH   6  22
ATOM     22  O   UNL     1     -33.903   9.209 -41.125  1.00  0.00    -0.507 OA
ATOM     23  H   UNL     1     -34.215   8.924 -42.040  1.00  0.00     0.293 HD
ENDBRANCH   6  22
BRANCH   8  24
ATOM     24  O   UNL     1     -38.295  10.579 -39.814  1.00  0.00    -0.508 OA
ATOM     25  H   UNL     1     -38.866  11.238 -39.298  1.00  0.00     0.293 HD
ENDBRANCH   8  24
TORSDOF 5
ENDMDL
MODEL 4
REMARK VINA RESULT:    -2.312     21.983     23.356
REMARK INTER + INTRA:          -2.794
REMARK INTER:                  -3.377
REMARK INTRA:                   0.583
REMARK UNBOUND:                -0.076
REMARK SMILES O=c1c(O)c(-c2ccc(O)cc2)oc2cc(O)cc(O)c12
REMARK SMILES IDX 5 1 3 2 2 3 1 4 21 5 19 6 18 7 16 8 15 9 14 10 13 11 6 12
REMARK SMILES IDX 7 13 8 14 9 15 12 16 11 17 10 18 4 20 20 22 17 24
REMARK H PARENT 10 19 4 21 20 23 17 25
REMARK Flexibility Score: inf
ROOT
ATOM      1  C   UNL     1     -23.781  29.094 -26.734  1.00  0.00     0.180 A 
ATOM      2  C   UNL     1     -22.674  29.067 -25.867  1.00  0.00     0.208 A 
ATOM      3  C   UNL     1     -22.896  29.053 -24.482  1.00  0.00     0.238 A 
ATOM      4  O   UNL     1     -21.903  29.105 -23.711  1.00  0.00    -0.285 OA
ATOM      5  C   UNL     1     -24.220  29.008 -23.979  1.00  0.00     0.111 A 
ATOM      6  C   UNL     1     -24.561  28.946 -22.594  1.00  0.00     0.134 A 
ATOM      7  C   UNL     1     -25.907  29.013 -22.211  1.00  0.00     0.093 A 
ATOM      8  C   UNL     1     -26.925  29.077 -23.162  1.00  0.00     0.123 A 
ATOM      9  C   UNL     1     -26.604  29.083 -24.520  1.00  0.00     0.094 A 
ATOM     10  C   UNL     1     -25.270  29.055 -24.932  1.00  0.00     0.146 A 
ATOM     11  O   UNL     1     -25.009  29.085 -26.234  1.00  0.00    -0.452 OA
ENDROOT
BRANCH   1  12
ATOM     12  C   UNL     1     -23.627  29.125 -28.207  1.00  0.00     0.021 A 
ATOM     13  C   UNL     1     -24.744  29.121 -29.062  1.00  0.00     0.016 A 
ATOM     14  C   UNL     1     -24.572  29.125 -30.451  1.00  0.00     0.047 A 
ATOM     15  C   UNL     1     -23.286  29.119 -31.000  1.00  0.00     0.115 A 
ATOM     16  C   UNL     1     -22.339  29.096 -28.767  1.00  0.00     0.016 A 
ATOM     17  C   UNL     1     -22.170  29.101 -30.155  1.00  0.00     0.047 A 
BRANCH  15  18
ATOM     18  O   UNL     1     -23.130  29.125 -32.384  1.00  0.00    -0.508 OA
ATOM     19  H   UNL     1     -23.907  28.937 -33.006  1.00  0.00     0.293 HD
ENDBRANCH  15  18
ENDBRANCH   1  12
BRANCH   2  20
ATOM     20  O   UNL     1     -21.376  29.035 -26.384  1.00  0.00    -0.502 OA
ATOM     21  H   UNL     1     -21.117  28.446 -27.166  1.00  0.00     0.293 HD
ENDBRANCH   2  20
BRANCH   6  22
ATOM     22  O   UNL     1     -23.629  28.792 -21.564  1.00  0.00    -0.507 OA
ATOM     23  H   UNL     1     -23.234  27.913 -21.267  1.00  0.00     0.293 HD
ENDBRANCH   6  22
BRANCH   8  24
ATOM     24  O   UNL     1     -28.253  29.125 -22.744  1.00  0.00    -0.508 OA
ATOM     25  H   UNL     1     -28.785  29.987 -22.770  1.00  0.00     0.293 HD
ENDBRANCH   8  24
TORSDOF 5
ENDMDL
