MODEL 1
REMARK VINA RESULT:    -4.109      0.000      0.000
REMARK INTER + INTRA:         -12.185
REMARK INTER:                  -8.914
REMARK INTRA:                  -3.271
REMARK UNBOUND:                -3.271
REMARK SMILES CCCCCCCCCCCCCCCCCCCCCC(=O)[O-]
REMARK SMILES IDX 12 1 11 2 10 3 9 4 8 5 7 6 6 7 5 8 4 9 3 10 2 11 1 12 13 13
REMARK SMILES IDX 14 14 15 15 16 16 17 17 18 18 19 19 20 20 21 21 22 22 23 23
REMARK SMILES IDX 24 24
REMARK H PARENT
REMARK Flexibility Score: inf
ROOT
ATOM      1  C   UNL     1      97.532   3.336 -25.432  1.00  0.00     0.000 C 
ENDROOT
BRANCH   1   2
ATOM      2  C   UNL     1      96.475   2.781 -26.405  1.00  0.00     0.000 C 
BRANCH   2   3
ATOM      3  C   UNL     1      95.370   3.794 -26.772  1.00  0.00     0.000 C 
BRANCH   3   4
ATOM      4  C   UNL     1      93.988   3.135 -26.932  1.00  0.00    -0.000 C 
BRANCH   4   5
ATOM      5  C   UNL     1      92.837   4.134 -26.686  1.00  0.00    -0.000 C 
BRANCH   5   6
ATOM      6  C   UNL     1      93.298   5.471 -26.081  1.00  0.00    -0.000 C 
BRANCH   6   7
ATOM      7  C   UNL     1      92.601   5.793 -24.749  1.00  0.00    -0.000 C 
BRANCH   7   8
ATOM      8  C   UNL     1      92.235   4.531 -23.945  1.00  0.00    -0.000 C 
BRANCH   8   9
ATOM      9  C   UNL     1      93.209   4.170 -22.804  1.00  0.00    -0.000 C 
BRANCH   9  10
ATOM     10  C   UNL     1      94.380   3.258 -23.209  1.00  0.00    -0.000 C 
BRANCH  10  11
ATOM     11  C   UNL     1      94.150   1.789 -22.828  1.00  0.00    -0.003 C 
ATOM     12  C   UNL     1      94.675   0.852 -23.912  1.00  0.00     0.004 C 
ENDBRANCH  10  11
ENDBRANCH   9  10
ENDBRANCH   8   9
ENDBRANCH   7   8
ENDBRANCH   6   7
ENDBRANCH   5   6
ENDBRANCH   4   5
ENDBRANCH   3   4
ENDBRANCH   2   3
ENDBRANCH   1   2
BRANCH   1  13
ATOM     13  C   UNL     1      98.818   3.859 -26.099  1.00  0.00     0.000 C 
BRANCH  13  14
ATOM     14  C   UNL     1      98.604   4.928 -27.191  1.00  0.00     0.000 C 
BRANCH  14  15
ATOM     15  C   UNL     1      99.787   5.127 -28.156  1.00  0.00     0.000 C 
BRANCH  15  16
ATOM     16  C   UNL     1     100.125   3.860 -28.959  1.00  0.00     0.000 C 
BRANCH  16  17
ATOM     17  C   UNL     1      98.898   3.272 -29.675  1.00  0.00     0.000 C 
BRANCH  17  18
ATOM     18  C   UNL     1      98.940   1.736 -29.762  1.00  0.00     0.000 C 
BRANCH  18  19
ATOM     19  C   UNL     1      99.829   1.110 -28.676  1.00  0.00     0.000 C 
BRANCH  19  20
ATOM     20  C   UNL     1      99.014   0.392 -27.586  1.00  0.00     0.006 C 
BRANCH  20  21
ATOM     21  C   UNL     1      99.741   0.376 -26.235  1.00  0.00     0.053 C 
BRANCH  21  22
ATOM     22  C   UNL     1      99.049  -0.512 -25.245  1.00  0.00     0.041 C 
ATOM     23  O   UNL     1      97.825  -0.356 -25.001  1.00  0.00    -0.550 OA
ATOM     24  O   UNL     1      99.753  -1.533 -24.619  1.00  0.00    -0.550 OA
ENDBRANCH  21  22
ENDBRANCH  20  21
ENDBRANCH  19  20
ENDBRANCH  18  19
ENDBRANCH  17  18
ENDBRANCH  16  17
ENDBRANCH  15  16
ENDBRANCH  14  15
ENDBRANCH  13  14
ENDBRANCH   1  13
TORSDOF 20
ENDMDL
MODEL 2
REMARK VINA RESULT:    -3.999      1.692      3.490
REMARK INTER + INTRA:         -11.945
REMARK INTER:                  -9.135
REMARK INTRA:                  -2.810
REMARK UNBOUND:                -3.271
REMARK SMILES CCCCCCCCCCCCCCCCCCCCCC(=O)[O-]
REMARK SMILES IDX 12 1 11 2 10 3 9 4 8 5 7 6 6 7 5 8 4 9 3 10 2 11 1 12 13 13
REMARK SMILES IDX 14 14 15 15 16 16 17 17 18 18 19 19 20 20 21 21 22 22 23 23
REMARK SMILES IDX 24 24
REMARK H PARENT
REMARK Flexibility Score: inf
ROOT
ATOM      1  C   UNL     1      98.856   4.373 -26.864  1.00  0.00     0.000 C 
ENDROOT
BRANCH   1   2
ATOM      2  C   UNL     1      97.708   3.772 -26.029  1.00  0.00     0.000 C 
BRANCH   2   3
ATOM      3  C   UNL     1      96.539   3.227 -26.876  1.00  0.00     0.000 C 
BRANCH   3   4
ATOM      4  C   UNL     1      95.380   2.692 -26.016  1.00  0.00    -0.000 C 
BRANCH   4   5
ATOM      5  C   UNL     1      95.500   3.133 -24.541  1.00  0.00    -0.000 C 
BRANCH   5   6
ATOM      6  C   UNL     1      94.144   3.305 -23.836  1.00  0.00    -0.000 C 
BRANCH   6   7
ATOM      7  C   UNL     1      93.043   3.813 -24.782  1.00  0.00    -0.000 C 
BRANCH   7   8
ATOM      8  C   UNL     1      92.962   5.350 -24.835  1.00  0.00    -0.000 C 
BRANCH   8   9
ATOM      9  C   UNL     1      93.237   5.979 -26.217  1.00  0.00    -0.000 C 
BRANCH   9  10
ATOM     10  C   UNL     1      91.994   6.505 -26.955  1.00  0.00    -0.000 C 
BRANCH  10  11
ATOM     11  C   UNL     1      91.737   5.778 -28.282  1.00  0.00    -0.003 C 
ATOM     12  C   UNL     1      90.806   6.587 -29.181  1.00  0.00     0.004 C 
ENDBRANCH  10  11
ENDBRANCH   9  10
ENDBRANCH   8   9
ENDBRANCH   7   8
ENDBRANCH   6   7
ENDBRANCH   5   6
ENDBRANCH   4   5
ENDBRANCH   3   4
ENDBRANCH   2   3
ENDBRANCH   1   2
BRANCH   1  13
ATOM     13  C   UNL     1      98.411   5.160 -28.110  1.00  0.00     0.000 C 
BRANCH  13  14
ATOM     14  C   UNL     1      98.779   4.514 -29.462  1.00  0.00     0.000 C 
BRANCH  14  15
ATOM     15  C   UNL     1      99.463   3.138 -29.366  1.00  0.00     0.000 C 
BRANCH  15  16
ATOM     16  C   UNL     1      98.537   1.979 -29.774  1.00  0.00     0.000 C 
BRANCH  16  17
ATOM     17  C   UNL     1      98.904   0.660 -29.076  1.00  0.00     0.000 C 
BRANCH  17  18
ATOM     18  C   UNL     1      99.579   0.878 -27.710  1.00  0.00     0.000 C 
BRANCH  18  19
ATOM     19  C   UNL     1      98.967   0.004 -26.605  1.00  0.00     0.000 C 
BRANCH  19  20
ATOM     20  C   UNL     1      99.228   0.563 -25.195  1.00  0.00     0.006 C 
BRANCH  20  21
ATOM     21  C   UNL     1      98.005   0.423 -24.280  1.00  0.00     0.053 C 
BRANCH  21  22
ATOM     22  C   UNL     1      98.403   0.160 -22.860  1.00  0.00     0.041 C 
ATOM     23  O   UNL     1      97.552  -0.249 -22.028  1.00  0.00    -0.550 OA
ATOM     24  O   UNL     1      99.724   0.335 -22.466  1.00  0.00    -0.550 OA
ENDBRANCH  21  22
ENDBRANCH  20  21
ENDBRANCH  19  20
ENDBRANCH  18  19
ENDBRANCH  17  18
ENDBRANCH  16  17
ENDBRANCH  15  16
ENDBRANCH  14  15
ENDBRANCH  13  14
ENDBRANCH   1  13
TORSDOF 20
ENDMDL
MODEL 3
REMARK VINA RESULT:    -3.993      2.836      5.972
REMARK INTER + INTRA:         -11.933
REMARK INTER:                  -8.792
REMARK INTRA:                  -3.140
REMARK UNBOUND:                -3.271
REMARK SMILES CCCCCCCCCCCCCCCCCCCCCC(=O)[O-]
REMARK SMILES IDX 12 1 11 2 10 3 9 4 8 5 7 6 6 7 5 8 4 9 3 10 2 11 1 12 13 13
REMARK SMILES IDX 14 14 15 15 16 16 17 17 18 18 19 19 20 20 21 21 22 22 23 23
REMARK SMILES IDX 24 24
REMARK H PARENT
REMARK Flexibility Score: inf
ROOT
ATOM      1  C   UNL     1      99.877   1.116 -27.910  1.00  0.00     0.000 C 
ENDROOT
BRANCH   1   2
ATOM      2  C   UNL     1      99.350   0.382 -26.662  1.00  0.00     0.000 C 
BRANCH   2   3
ATOM      3  C   UNL     1     100.075   0.770 -25.356  1.00  0.00     0.000 C 
BRANCH   3   4
ATOM      4  C   UNL     1      99.639  -0.089 -24.156  1.00  0.00    -0.000 C 
BRANCH   4   5
ATOM      5  C   UNL     1      98.333   0.428 -23.515  1.00  0.00    -0.000 C 
BRANCH   5   6
ATOM      6  C   UNL     1      97.112  -0.463 -23.800  1.00  0.00    -0.000 C 
BRANCH   6   7
ATOM      7  C   UNL     1      97.499  -1.840 -24.363  1.00  0.00    -0.000 C 
BRANCH   7   8
ATOM      8  C   UNL     1      96.533  -2.958 -23.927  1.00  0.00    -0.000 C 
BRANCH   8   9
ATOM      9  C   UNL     1      97.174  -4.109 -23.124  1.00  0.00    -0.000 C 
BRANCH   9  10
ATOM     10  C   UNL     1      98.478  -3.749 -22.394  1.00  0.00    -0.000 C 
BRANCH  10  11
ATOM     11  C   UNL     1      98.237  -3.187 -20.986  1.00  0.00    -0.003 C 
ATOM     12  C   UNL     1      99.043  -1.910 -20.758  1.00  0.00     0.004 C 
ENDBRANCH  10  11
ENDBRANCH   9  10
ENDBRANCH   8   9
ENDBRANCH   7   8
ENDBRANCH   6   7
ENDBRANCH   5   6
ENDBRANCH   4   5
ENDBRANCH   3   4
ENDBRANCH   2   3
ENDBRANCH   1   2
BRANCH   1  13
ATOM     13  C   UNL     1      99.006   0.963 -29.171  1.00  0.00     0.000 C 
BRANCH  13  14
ATOM     14  C   UNL     1      99.170   2.080 -30.222  1.00  0.00     0.000 C 
BRANCH  14  15
ATOM     15  C   UNL     1      99.884   3.350 -29.725  1.00  0.00     0.000 C 
BRANCH  15  16
ATOM     16  C   UNL     1      98.910   4.495 -29.398  1.00  0.00     0.000 C 
BRANCH  16  17
ATOM     17  C   UNL     1      99.294   5.244 -28.111  1.00  0.00     0.000 C 
BRANCH  17  18
ATOM     18  C   UNL     1      98.989   4.433 -26.839  1.00  0.00     0.000 C 
BRANCH  18  19
ATOM     19  C   UNL     1      97.565   3.855 -26.837  1.00  0.00     0.000 C 
BRANCH  19  20
ATOM     20  C   UNL     1      97.156   3.297 -25.463  1.00  0.00     0.006 C 
BRANCH  20  21
ATOM     21  C   UNL     1      95.846   2.502 -25.528  1.00  0.00     0.053 C 
BRANCH  21  22
ATOM     22  C   UNL     1      94.705   3.266 -24.927  1.00  0.00     0.041 C 
ATOM     23  O   UNL     1      94.370   3.069 -23.730  1.00  0.00    -0.550 OA
ATOM     24  O   UNL     1      94.036   4.221 -25.682  1.00  0.00    -0.550 OA
ENDBRANCH  21  22
ENDBRANCH  20  21
ENDBRANCH  19  20
ENDBRANCH  18  19
ENDBRANCH  17  18
ENDBRANCH  16  17
ENDBRANCH  15  16
ENDBRANCH  14  15
ENDBRANCH  13  14
ENDBRANCH   1  13
TORSDOF 20
ENDMDL
MODEL 4
REMARK VINA RESULT:    -3.992      2.649      6.155
REMARK INTER + INTRA:         -11.930
REMARK INTER:                  -8.758
REMARK INTRA:                  -3.172
REMARK UNBOUND:                -3.271
REMARK SMILES CCCCCCCCCCCCCCCCCCCCCC(=O)[O-]
REMARK SMILES IDX 12 1 11 2 10 3 9 4 8 5 7 6 6 7 5 8 4 9 3 10 2 11 1 12 13 13
REMARK SMILES IDX 14 14 15 15 16 16 17 17 18 18 19 19 20 20 21 21 22 22 23 23
REMARK SMILES IDX 24 24
REMARK H PARENT
REMARK Flexibility Score: inf
ROOT
ATOM      1  C   UNL     1      99.002   0.764 -28.217  1.00  0.00     0.000 C 
ENDROOT
BRANCH   1   2
ATOM      2  C   UNL     1      99.461   0.875 -29.684  1.00  0.00     0.000 C 
BRANCH   2   3
ATOM      3  C   UNL     1      99.757   2.321 -30.138  1.00  0.00     0.000 C 
BRANCH   3   4
ATOM      4  C   UNL     1      98.617   3.297 -29.798  1.00  0.00    -0.000 C 
BRANCH   4   5
ATOM      5  C   UNL     1      99.131   4.563 -29.080  1.00  0.00    -0.000 C 
BRANCH   5   6
ATOM      6  C   UNL     1      98.278   4.975 -27.869  1.00  0.00    -0.000 C 
BRANCH   6   7
ATOM      7  C   UNL     1      98.773   4.349 -26.554  1.00  0.00    -0.000 C 
BRANCH   7   8
ATOM      8  C   UNL     1      97.676   3.557 -25.818  1.00  0.00    -0.000 C 
BRANCH   8   9
ATOM      9  C   UNL     1      96.557   2.990 -26.716  1.00  0.00    -0.000 C 
BRANCH   9  10
ATOM     10  C   UNL     1      95.154   2.982 -26.085  1.00  0.00    -0.000 C 
BRANCH  10  11
ATOM     11  C   UNL     1      94.150   3.852 -26.855  1.00  0.00    -0.003 C 
ATOM     12  C   UNL     1      93.655   5.011 -25.995  1.00  0.00     0.004 C 
ENDBRANCH  10  11
ENDBRANCH   9  10
ENDBRANCH   8   9
ENDBRANCH   7   8
ENDBRANCH   6   7
ENDBRANCH   5   6
ENDBRANCH   4   5
ENDBRANCH   3   4
ENDBRANCH   2   3
ENDBRANCH   1   2
BRANCH   1  13
ATOM     13  C   UNL     1     100.097   1.048 -27.171  1.00  0.00     0.000 C 
BRANCH  13  14
ATOM     14  C   UNL     1      99.824   0.476 -25.764  1.00  0.00     0.000 C 
BRANCH  14  15
ATOM     15  C   UNL     1      98.961  -0.799 -25.729  1.00  0.00     0.000 C 
BRANCH  15  16
ATOM     16  C   UNL     1      98.097  -0.902 -24.461  1.00  0.00     0.000 C 
BRANCH  16  17
ATOM     17  C   UNL     1      97.294   0.380 -24.190  1.00  0.00     0.000 C 
BRANCH  17  18
ATOM     18  C   UNL     1      95.814   0.098 -23.875  1.00  0.00     0.000 C 
BRANCH  18  19
ATOM     19  C   UNL     1      95.349   0.777 -22.577  1.00  0.00     0.000 C 
BRANCH  19  20
ATOM     20  C   UNL     1      94.163   1.730 -22.800  1.00  0.00     0.006 C 
BRANCH  20  21
ATOM     21  C   UNL     1      94.534   3.193 -22.522  1.00  0.00     0.053 C 
BRANCH  21  22
ATOM     22  C   UNL     1      93.354   3.982 -22.044  1.00  0.00     0.041 C 
ATOM     23  O   UNL     1      92.352   4.140 -22.789  1.00  0.00    -0.550 OA
ATOM     24  O   UNL     1      93.349   4.514 -20.760  1.00  0.00    -0.550 OA
ENDBRANCH  21  22
ENDBRANCH  20  21
ENDBRANCH  19  20
ENDBRANCH  18  19
ENDBRANCH  17  18
ENDBRANCH  16  17
ENDBRANCH  15  16
ENDBRANCH  14  15
ENDBRANCH  13  14
ENDBRANCH   1  13
TORSDOF 20
ENDMDL
MODEL 5
REMARK VINA RESULT:    -3.956      3.379      7.608
REMARK INTER + INTRA:         -11.852
REMARK INTER:                  -9.702
REMARK INTRA:                  -2.151
REMARK UNBOUND:                -3.271
REMARK SMILES CCCCCCCCCCCCCCCCCCCCCC(=O)[O-]
REMARK SMILES IDX 12 1 11 2 10 3 9 4 8 5 7 6 6 7 5 8 4 9 3 10 2 11 1 12 13 13
REMARK SMILES IDX 14 14 15 15 16 16 17 17 18 18 19 19 20 20 21 21 22 22 23 23
REMARK SMILES IDX 24 24
REMARK H PARENT
REMARK Flexibility Score: inf
ROOT
ATOM      1  C   UNL     1      98.122   3.811 -25.798  1.00  0.00     0.000 C 
ENDROOT
BRANCH   1   2
ATOM      2  C   UNL     1      98.992   4.537 -26.841  1.00  0.00     0.000 C 
BRANCH   2   3
ATOM      3  C   UNL     1      98.229   4.941 -28.120  1.00  0.00     0.000 C 
BRANCH   3   4
ATOM      4  C   UNL     1      98.803   4.283 -29.388  1.00  0.00    -0.000 C 
BRANCH   4   5
ATOM      5  C   UNL     1      99.912   3.260 -29.061  1.00  0.00    -0.000 C 
BRANCH   5   6
ATOM      6  C   UNL     1      99.401   1.816 -28.931  1.00  0.00    -0.000 C 
BRANCH   6   7
ATOM      7  C   UNL     1      99.968   1.093 -27.698  1.00  0.00    -0.000 C 
BRANCH   7   8
ATOM      8  C   UNL     1      98.983   0.074 -27.095  1.00  0.00    -0.000 C 
BRANCH   8   9
ATOM      9  C   UNL     1      99.019  -0.050 -25.558  1.00  0.00    -0.000 C 
BRANCH   9  10
ATOM     10  C   UNL     1      98.477  -1.375 -24.996  1.00  0.00    -0.000 C 
BRANCH  10  11
ATOM     11  C   UNL     1      97.104  -1.221 -24.327  1.00  0.00    -0.003 C 
ATOM     12  C   UNL     1      96.554  -2.574 -23.883  1.00  0.00     0.004 C 
ENDBRANCH  10  11
ENDBRANCH   9  10
ENDBRANCH   8   9
ENDBRANCH   7   8
ENDBRANCH   6   7
ENDBRANCH   5   6
ENDBRANCH   4   5
ENDBRANCH   3   4
ENDBRANCH   2   3
ENDBRANCH   1   2
BRANCH   1  13
ATOM     13  C   UNL     1      96.963   2.981 -26.382  1.00  0.00     0.000 C 
BRANCH  13  14
ATOM     14  C   UNL     1      95.550   3.444 -25.967  1.00  0.00     0.000 C 
BRANCH  14  15
ATOM     15  C   UNL     1      94.885   2.609 -24.858  1.00  0.00     0.000 C 
BRANCH  15  16
ATOM     16  C   UNL     1      94.095   3.466 -23.855  1.00  0.00     0.000 C 
BRANCH  16  17
ATOM     17  C   UNL     1      92.734   3.916 -24.409  1.00  0.00     0.000 C 
BRANCH  17  18
ATOM     18  C   UNL     1      92.538   5.441 -24.337  1.00  0.00     0.000 C 
BRANCH  18  19
ATOM     19  C   UNL     1      92.915   6.145 -25.649  1.00  0.00     0.000 C 
BRANCH  19  20
ATOM     20  C   UNL     1      92.420   5.385 -26.892  1.00  0.00     0.006 C 
BRANCH  20  21
ATOM     21  C   UNL     1      91.505   6.246 -27.771  1.00  0.00     0.053 C 
BRANCH  21  22
ATOM     22  C   UNL     1      90.107   5.707 -27.810  1.00  0.00     0.041 C 
ATOM     23  O   UNL     1      89.255   6.209 -28.588  1.00  0.00    -0.550 OA
ATOM     24  O   UNL     1      89.758   4.626 -27.010  1.00  0.00    -0.550 OA
ENDBRANCH  21  22
ENDBRANCH  20  21
ENDBRANCH  19  20
ENDBRANCH  18  19
ENDBRANCH  17  18
ENDBRANCH  16  17
ENDBRANCH  15  16
ENDBRANCH  14  15
ENDBRANCH  13  14
ENDBRANCH   1  13
TORSDOF 20
ENDMDL
MODEL 6
REMARK VINA RESULT:    -3.944      2.995      6.628
REMARK INTER + INTRA:         -11.827
REMARK INTER:                  -8.725
REMARK INTRA:                  -3.101
REMARK UNBOUND:                -3.271
REMARK SMILES CCCCCCCCCCCCCCCCCCCCCC(=O)[O-]
REMARK SMILES IDX 12 1 11 2 10 3 9 4 8 5 7 6 6 7 5 8 4 9 3 10 2 11 1 12 13 13
REMARK SMILES IDX 14 14 15 15 16 16 17 17 18 18 19 19 20 20 21 21 22 22 23 23
REMARK SMILES IDX 24 24
REMARK H PARENT
REMARK Flexibility Score: inf
ROOT
ATOM      1  C   UNL     1      98.658   4.098 -28.851  1.00  0.00     0.000 C 
ENDROOT
BRANCH   1   2
ATOM      2  C   UNL     1      99.457   2.794 -28.658  1.00  0.00     0.000 C 
BRANCH   2   3
ATOM      3  C   UNL     1      98.617   1.513 -28.846  1.00  0.00     0.000 C 
BRANCH   3   4
ATOM      4  C   UNL     1      99.019   0.390 -27.873  1.00  0.00    -0.000 C 
BRANCH   4   5
ATOM      5  C   UNL     1     100.057   0.866 -26.834  1.00  0.00    -0.000 C 
BRANCH   5   6
ATOM      6  C   UNL     1      99.894   0.209 -25.453  1.00  0.00    -0.000 C 
BRANCH   6   7
ATOM      7  C   UNL     1      98.800  -0.871 -25.435  1.00  0.00    -0.000 C 
BRANCH   7   8
ATOM      8  C   UNL     1      97.570  -0.462 -24.603  1.00  0.00    -0.000 C 
BRANCH   8   9
ATOM      9  C   UNL     1      97.874   0.363 -23.336  1.00  0.00    -0.000 C 
BRANCH   9  10
ATOM     10  C   UNL     1      97.591  -0.354 -22.005  1.00  0.00    -0.000 C 
BRANCH  10  11
ATOM     11  C   UNL     1      98.745  -0.226 -21.002  1.00  0.00    -0.003 C 
ATOM     12  C   UNL     1      98.268  -0.493 -19.577  1.00  0.00     0.004 C 
ENDBRANCH  10  11
ENDBRANCH   9  10
ENDBRANCH   8   9
ENDBRANCH   7   8
ENDBRANCH   6   7
ENDBRANCH   5   6
ENDBRANCH   4   5
ENDBRANCH   3   4
ENDBRANCH   2   3
ENDBRANCH   1   2
BRANCH   1  13
ATOM     13  C   UNL     1      98.046   4.681 -27.563  1.00  0.00     0.000 C 
BRANCH  13  14
ATOM     14  C   UNL     1      98.616   4.111 -26.248  1.00  0.00     0.000 C 
BRANCH  14  15
ATOM     15  C   UNL     1      97.600   3.374 -25.357  1.00  0.00     0.000 C 
BRANCH  15  16
ATOM     16  C   UNL     1      96.499   2.665 -26.163  1.00  0.00     0.000 C 
BRANCH  16  17
ATOM     17  C   UNL     1      95.165   2.597 -25.403  1.00  0.00     0.000 C 
BRANCH  17  18
ATOM     18  C   UNL     1      95.292   3.050 -23.938  1.00  0.00     0.000 C 
BRANCH  18  19
ATOM     19  C   UNL     1      93.965   3.577 -23.368  1.00  0.00     0.000 C 
BRANCH  19  20
ATOM     20  C   UNL     1      92.849   3.633 -24.425  1.00  0.00     0.006 C 
BRANCH  20  21
ATOM     21  C   UNL     1      92.354   5.065 -24.670  1.00  0.00     0.053 C 
BRANCH  21  22
ATOM     22  C   UNL     1      92.905   5.631 -25.944  1.00  0.00     0.041 C 
ATOM     23  O   UNL     1      93.066   4.892 -26.949  1.00  0.00    -0.550 OA
ATOM     24  O   UNL     1      93.208   6.984 -26.028  1.00  0.00    -0.550 OA
ENDBRANCH  21  22
ENDBRANCH  20  21
ENDBRANCH  19  20
ENDBRANCH  18  19
ENDBRANCH  17  18
ENDBRANCH  16  17
ENDBRANCH  15  16
ENDBRANCH  14  15
ENDBRANCH  13  14
ENDBRANCH   1  13
TORSDOF 20
ENDMDL
MODEL 7
REMARK VINA RESULT:    -3.881      2.355      5.090
REMARK INTER + INTRA:         -11.690
REMARK INTER:                  -8.729
REMARK INTRA:                  -2.961
REMARK UNBOUND:                -3.271
REMARK SMILES CCCCCCCCCCCCCCCCCCCCCC(=O)[O-]
REMARK SMILES IDX 12 1 11 2 10 3 9 4 8 5 7 6 6 7 5 8 4 9 3 10 2 11 1 12 13 13
REMARK SMILES IDX 14 14 15 15 16 16 17 17 18 18 19 19 20 20 21 21 22 22 23 23
REMARK SMILES IDX 24 24
REMARK H PARENT
REMARK Flexibility Score: inf
ROOT
ATOM      1  C   UNL     1      99.024   0.372 -27.718  1.00  0.00     0.000 C 
ENDROOT
BRANCH   1   2
ATOM      2  C   UNL     1      99.734   0.686 -26.387  1.00  0.00     0.000 C 
BRANCH   2   3
ATOM      3  C   UNL     1      99.736  -0.491 -25.388  1.00  0.00     0.000 C 
BRANCH   3   4
ATOM      4  C   UNL     1      98.354  -1.153 -25.245  1.00  0.00    -0.000 C 
BRANCH   4   5
ATOM      5  C   UNL     1      98.252  -2.013 -23.967  1.00  0.00    -0.000 C 
BRANCH   5   6
ATOM      6  C   UNL     1      96.867  -1.966 -23.300  1.00  0.00    -0.000 C 
BRANCH   6   7
ATOM      7  C   UNL     1      96.025  -0.764 -23.763  1.00  0.00    -0.000 C 
BRANCH   7   8
ATOM      8  C   UNL     1      94.540  -1.117 -23.966  1.00  0.00    -0.000 C 
BRANCH   8   9
ATOM      9  C   UNL     1      93.535  -0.128 -23.340  1.00  0.00    -0.000 C 
BRANCH   9  10
ATOM     10  C   UNL     1      93.609   1.310 -23.882  1.00  0.00    -0.000 C 
BRANCH  10  11
ATOM     11  C   UNL     1      93.127   2.355 -22.866  1.00  0.00    -0.003 C 
ATOM     12  C   UNL     1      94.255   3.310 -22.483  1.00  0.00     0.004 C 
ENDBRANCH  10  11
ENDBRANCH   9  10
ENDBRANCH   8   9
ENDBRANCH   7   8
ENDBRANCH   6   7
ENDBRANCH   5   6
ENDBRANCH   4   5
ENDBRANCH   3   4
ENDBRANCH   2   3
ENDBRANCH   1   2
BRANCH   1  13
ATOM     13  C   UNL     1      99.449   1.257 -28.905  1.00  0.00     0.000 C 
BRANCH  13  14
ATOM     14  C   UNL     1      98.295   1.984 -29.628  1.00  0.00     0.000 C 
BRANCH  14  15
ATOM     15  C   UNL     1      98.310   3.519 -29.509  1.00  0.00     0.000 C 
BRANCH  15  16
ATOM     16  C   UNL     1      99.711   4.084 -29.223  1.00  0.00     0.000 C 
BRANCH  16  17
ATOM     17  C   UNL     1      99.801   4.768 -27.849  1.00  0.00     0.000 C 
BRANCH  17  18
ATOM     18  C   UNL     1      98.472   4.720 -27.074  1.00  0.00     0.000 C 
BRANCH  18  19
ATOM     19  C   UNL     1      98.578   3.907 -25.775  1.00  0.00     0.000 C 
BRANCH  19  20
ATOM     20  C   UNL     1      97.207   3.436 -25.258  1.00  0.00     0.006 C 
BRANCH  20  21
ATOM     21  C   UNL     1      96.437   2.629 -26.311  1.00  0.00     0.053 C 
BRANCH  21  22
ATOM     22  C   UNL     1      95.176   3.323 -26.727  1.00  0.00     0.041 C 
ATOM     23  O   UNL     1      94.690   3.125 -27.871  1.00  0.00    -0.550 OA
ATOM     24  O   UNL     1      94.519   4.162 -25.836  1.00  0.00    -0.550 OA
ENDBRANCH  21  22
ENDBRANCH  20  21
ENDBRANCH  19  20
ENDBRANCH  18  19
ENDBRANCH  17  18
ENDBRANCH  16  17
ENDBRANCH  15  16
ENDBRANCH  14  15
ENDBRANCH  13  14
ENDBRANCH   1  13
TORSDOF 20
ENDMDL
MODEL 8
REMARK VINA RESULT:    -3.826      3.535      8.273
REMARK INTER + INTRA:         -11.570
REMARK INTER:                  -8.895
REMARK INTRA:                  -2.675
REMARK UNBOUND:                -3.271
REMARK SMILES CCCCCCCCCCCCCCCCCCCCCC(=O)[O-]
REMARK SMILES IDX 12 1 11 2 10 3 9 4 8 5 7 6 6 7 5 8 4 9 3 10 2 11 1 12 13 13
REMARK SMILES IDX 14 14 15 15 16 16 17 17 18 18 19 19 20 20 21 21 22 22 23 23
REMARK SMILES IDX 24 24
REMARK H PARENT
REMARK Flexibility Score: inf
ROOT
ATOM      1  C   UNL     1      94.031   4.118 -26.612  1.00  0.00     0.000 C 
ENDROOT
BRANCH   1   2
ATOM      2  C   UNL     1      95.178   3.392 -25.884  1.00  0.00     0.000 C 
BRANCH   2   3
ATOM      3  C   UNL     1      96.368   3.030 -26.798  1.00  0.00     0.000 C 
BRANCH   3   4
ATOM      4  C   UNL     1      97.697   2.923 -26.029  1.00  0.00    -0.000 C 
BRANCH   4   5
ATOM      5  C   UNL     1      98.616   4.137 -26.287  1.00  0.00    -0.000 C 
BRANCH   5   6
ATOM      6  C   UNL     1      98.321   4.864 -27.609  1.00  0.00    -0.000 C 
BRANCH   6   7
ATOM      7  C   UNL     1      99.599   5.238 -28.379  1.00  0.00    -0.000 C 
BRANCH   7   8
ATOM      8  C   UNL     1     100.124   4.090 -29.261  1.00  0.00    -0.000 C 
BRANCH   8   9
ATOM      9  C   UNL     1      99.073   3.035 -29.666  1.00  0.00    -0.000 C 
BRANCH   9  10
ATOM     10  C   UNL     1      99.338   1.614 -29.141  1.00  0.00    -0.000 C 
BRANCH  10  11
ATOM     11  C   UNL     1      98.637   0.531 -29.974  1.00  0.00    -0.003 C 
ATOM     12  C   UNL     1      98.824   0.780 -31.468  1.00  0.00     0.004 C 
ENDBRANCH  10  11
ENDBRANCH   9  10
ENDBRANCH   8   9
ENDBRANCH   7   8
ENDBRANCH   6   7
ENDBRANCH   5   6
ENDBRANCH   4   5
ENDBRANCH   3   4
ENDBRANCH   2   3
ENDBRANCH   1   2
BRANCH   1  13
ATOM     13  C   UNL     1      93.753   5.551 -26.120  1.00  0.00     0.000 C 
BRANCH  13  14
ATOM     14  C   UNL     1      92.466   5.722 -25.287  1.00  0.00     0.000 C 
BRANCH  14  15
ATOM     15  C   UNL     1      92.536   5.171 -23.851  1.00  0.00     0.000 C 
BRANCH  15  16
ATOM     16  C   UNL     1      91.485   4.082 -23.576  1.00  0.00     0.000 C 
BRANCH  16  17
ATOM     17  C   UNL     1      91.978   2.679 -23.964  1.00  0.00     0.000 C 
BRANCH  17  18
ATOM     18  C   UNL     1      91.232   2.103 -25.181  1.00  0.00     0.000 C 
BRANCH  18  19
ATOM     19  C   UNL     1      90.146   3.054 -25.709  1.00  0.00     0.000 C 
BRANCH  19  20
ATOM     20  C   UNL     1      90.309   3.364 -27.207  1.00  0.00     0.006 C 
BRANCH  20  21
ATOM     21  C   UNL     1      89.685   4.711 -27.591  1.00  0.00     0.053 C 
BRANCH  21  22
ATOM     22  C   UNL     1      90.334   5.295 -28.809  1.00  0.00     0.041 C 
ATOM     23  O   UNL     1      89.824   5.117 -29.946  1.00  0.00    -0.550 OA
ATOM     24  O   UNL     1      91.484   6.064 -28.682  1.00  0.00    -0.550 OA
ENDBRANCH  21  22
ENDBRANCH  20  21
ENDBRANCH  19  20
ENDBRANCH  18  19
ENDBRANCH  17  18
ENDBRANCH  16  17
ENDBRANCH  15  16
ENDBRANCH  14  15
ENDBRANCH  13  14
ENDBRANCH   1  13
TORSDOF 20
ENDMDL
MODEL 9
REMARK VINA RESULT:    -3.808      1.625      2.515
REMARK INTER + INTRA:         -11.532
REMARK INTER:                  -8.808
REMARK INTRA:                  -2.724
REMARK UNBOUND:                -3.271
REMARK SMILES CCCCCCCCCCCCCCCCCCCCCC(=O)[O-]
REMARK SMILES IDX 12 1 11 2 10 3 9 4 8 5 7 6 6 7 5 8 4 9 3 10 2 11 1 12 13 13
REMARK SMILES IDX 14 14 15 15 16 16 17 17 18 18 19 19 20 20 21 21 22 22 23 23
REMARK SMILES IDX 24 24
REMARK H PARENT
REMARK Flexibility Score: inf
ROOT
ATOM      1  C   UNL     1      98.770   4.273 -26.484  1.00  0.00     0.000 C 
ENDROOT
BRANCH   1   2
ATOM      2  C   UNL     1      97.837   3.463 -25.565  1.00  0.00     0.000 C 
BRANCH   2   3
ATOM      3  C   UNL     1      96.504   3.056 -26.230  1.00  0.00     0.000 C 
BRANCH   3   4
ATOM      4  C   UNL     1      95.293   3.249 -25.300  1.00  0.00    -0.000 C 
BRANCH   4   5
ATOM      5  C   UNL     1      94.017   3.633 -26.081  1.00  0.00    -0.000 C 
BRANCH   5   6
ATOM      6  C   UNL     1      93.795   5.151 -26.192  1.00  0.00    -0.000 C 
BRANCH   6   7
ATOM      7  C   UNL     1      92.470   5.606 -25.558  1.00  0.00    -0.000 C 
BRANCH   7   8
ATOM      8  C   UNL     1      92.491   5.545 -24.019  1.00  0.00    -0.000 C 
BRANCH   8   9
ATOM      9  C   UNL     1      91.430   4.626 -23.380  1.00  0.00    -0.000 C 
BRANCH   9  10
ATOM     10  C   UNL     1      91.893   3.186 -23.104  1.00  0.00    -0.000 C 
BRANCH  10  11
ATOM     11  C   UNL     1      90.917   2.131 -23.644  1.00  0.00    -0.003 C 
ATOM     12  C   UNL     1      90.728   2.278 -25.151  1.00  0.00     0.004 C 
ENDBRANCH  10  11
ENDBRANCH   9  10
ENDBRANCH   8   9
ENDBRANCH   7   8
ENDBRANCH   6   7
ENDBRANCH   5   6
ENDBRANCH   4   5
ENDBRANCH   3   4
ENDBRANCH   2   3
ENDBRANCH   1   2
BRANCH   1  13
ATOM     13  C   UNL     1      98.103   4.841 -27.751  1.00  0.00     0.000 C 
BRANCH  13  14
ATOM     14  C   UNL     1      98.586   4.226 -29.081  1.00  0.00     0.000 C 
BRANCH  14  15
ATOM     15  C   UNL     1      99.857   3.363 -28.981  1.00  0.00     0.000 C 
BRANCH  15  16
ATOM     16  C   UNL     1      99.559   1.854 -28.992  1.00  0.00     0.000 C 
BRANCH  16  17
ATOM     17  C   UNL     1     100.113   1.136 -27.750  1.00  0.00     0.000 C 
BRANCH  17  18
ATOM     18  C   UNL     1      99.079   0.204 -27.093  1.00  0.00     0.000 C 
BRANCH  18  19
ATOM     19  C   UNL     1      99.461  -0.175 -25.654  1.00  0.00     0.000 C 
BRANCH  19  20
ATOM     20  C   UNL     1      98.336  -0.929 -24.923  1.00  0.00     0.006 C 
BRANCH  20  21
ATOM     21  C   UNL     1      97.292   0.024 -24.328  1.00  0.00     0.053 C 
BRANCH  21  22
ATOM     22  C   UNL     1      97.426   0.133 -22.839  1.00  0.00     0.041 C 
ATOM     23  O   UNL     1      96.413   0.347 -22.125  1.00  0.00    -0.550 OA
ATOM     24  O   UNL     1      98.668  -0.037 -22.240  1.00  0.00    -0.550 OA
ENDBRANCH  21  22
ENDBRANCH  20  21
ENDBRANCH  19  20
ENDBRANCH  18  19
ENDBRANCH  17  18
ENDBRANCH  16  17
ENDBRANCH  15  16
ENDBRANCH  14  15
ENDBRANCH  13  14
ENDBRANCH   1  13
TORSDOF 20
ENDMDL
