MODEL 1
REMARK VINA RESULT:    -3.222      0.000      0.000
REMARK INTER + INTRA:          -3.432
REMARK INTER:                  -3.410
REMARK INTRA:                  -0.022
REMARK UNBOUND:                -0.022
REMARK SMILES O=C([O-])c1cccnc1
REMARK SMILES IDX 4 1 5 2 9 3 6 4 8 5 7 6 2 7 1 8 3 9
REMARK H PARENT
REMARK Flexibility Score: inf
ROOT
ATOM      1  C   UNL     1      -5.874  35.804  21.994  1.00  0.00     0.016 A 
ATOM      2  C   UNL     1      -5.899  34.545  22.617  1.00  0.00     0.013 A 
ATOM      3  C   UNL     1      -5.978  36.950  22.801  1.00  0.00     0.120 A 
ATOM      4  C   UNL     1      -6.023  34.450  24.004  1.00  0.00     0.021 A 
ATOM      5  N   UNL     1      -6.098  36.831  24.151  1.00  0.00    -0.264 NA
ATOM      6  C   UNL     1      -6.122  35.618  24.763  1.00  0.00     0.111 A 
ENDROOT
BRANCH   1   7
ATOM      7  C   UNL     1      -5.744  35.926  20.527  1.00  0.00     0.073 C 
ATOM      8  O   UNL     1      -6.125  34.992  19.770  1.00  0.00    -0.545 OA
ATOM      9  O   UNL     1      -5.198  37.072  19.960  1.00  0.00    -0.545 OA
ENDBRANCH   1   7
TORSDOF 1
ENDMDL
MODEL 2
REMARK VINA RESULT:    -3.135      1.059      1.662
REMARK INTER + INTRA:          -3.340
REMARK INTER:                  -3.318
REMARK INTRA:                  -0.023
REMARK UNBOUND:                -0.022
REMARK SMILES O=C([O-])c1cccnc1
REMARK SMILES IDX 4 1 5 2 9 3 6 4 8 5 7 6 2 7 1 8 3 9
REMARK H PARENT
REMARK Flexibility Score: inf
ROOT
ATOM      1  C   UNL     1      -5.881  35.803  22.373  1.00  0.00     0.016 A 
ATOM      2  C   UNL     1      -6.003  36.822  23.334  1.00  0.00     0.013 A 
ATOM      3  C   UNL     1      -5.886  34.468  22.813  1.00  0.00     0.120 A 
ATOM      4  C   UNL     1      -6.125  36.500  24.687  1.00  0.00     0.021 A 
ATOM      5  N   UNL     1      -6.005  34.181  24.137  1.00  0.00    -0.264 NA
ATOM      6  C   UNL     1      -6.124  35.159  25.073  1.00  0.00     0.111 A 
ENDROOT
BRANCH   1   7
ATOM      7  C   UNL     1      -5.752  36.123  20.936  1.00  0.00     0.073 C 
ATOM      8  O   UNL     1      -5.998  35.250  20.060  1.00  0.00    -0.545 OA
ATOM      9  O   UNL     1      -5.356  37.392  20.529  1.00  0.00    -0.545 OA
ENDBRANCH   1   7
TORSDOF 1
ENDMDL
MODEL 3
REMARK VINA RESULT:    -2.954      2.537      3.531
REMARK INTER + INTRA:          -3.149
REMARK INTER:                  -3.125
REMARK INTRA:                  -0.024
REMARK UNBOUND:                -0.022
REMARK SMILES O=C([O-])c1cccnc1
REMARK SMILES IDX 4 1 5 2 9 3 6 4 8 5 7 6 2 7 1 8 3 9
REMARK H PARENT
REMARK Flexibility Score: inf
ROOT
ATOM      1  C   UNL     1      -5.773  35.998  22.319  1.00  0.00     0.016 A 
ATOM      2  C   UNL     1      -5.513  35.272  21.144  1.00  0.00     0.013 A 
ATOM      3  C   UNL     1      -5.798  37.401  22.244  1.00  0.00     0.120 A 
ATOM      4  C   UNL     1      -5.287  35.942  19.940  1.00  0.00     0.021 A 
ATOM      5  N   UNL     1      -5.574  38.031  21.059  1.00  0.00    -0.264 NA
ATOM      6  C   UNL     1      -5.322  37.337  19.917  1.00  0.00     0.111 A 
ENDROOT
BRANCH   1   7
ATOM      7  C   UNL     1      -6.015  35.307  23.603  1.00  0.00     0.073 C 
ATOM      8  O   UNL     1      -6.125  34.052  23.644  1.00  0.00    -0.545 OA
ATOM      9  O   UNL     1      -6.124  36.032  24.784  1.00  0.00    -0.545 OA
ENDBRANCH   1   7
TORSDOF 1
ENDMDL
MODEL 4
REMARK VINA RESULT:    -2.840      2.100      3.094
REMARK INTER + INTRA:          -3.028
REMARK INTER:                  -3.008
REMARK INTRA:                  -0.020
REMARK UNBOUND:                -0.022
REMARK SMILES O=C([O-])c1cccnc1
REMARK SMILES IDX 4 1 5 2 9 3 6 4 8 5 7 6 2 7 1 8 3 9
REMARK H PARENT
REMARK Flexibility Score: inf
ROOT
ATOM      1  C   UNL     1      -5.429  35.817  19.967  1.00  0.00     0.016 A 
ATOM      2  C   UNL     1      -5.153  37.190  19.841  1.00  0.00     0.013 A 
ATOM      3  C   UNL     1      -5.922  35.346  21.195  1.00  0.00     0.120 A 
ATOM      4  C   UNL     1      -5.367  38.051  20.919  1.00  0.00     0.021 A 
ATOM      5  N   UNL     1      -6.122  36.206  22.231  1.00  0.00    -0.264 NA
ATOM      6  C   UNL     1      -5.858  37.534  22.119  1.00  0.00     0.111 A 
ENDROOT
BRANCH   1   7
ATOM      7  C   UNL     1      -5.209  34.890  18.837  1.00  0.00     0.073 C 
ATOM      8  O   UNL     1      -4.189  35.003  18.105  1.00  0.00    -0.545 OA
ATOM      9  O   UNL     1      -6.123  33.878  18.567  1.00  0.00    -0.545 OA
ENDBRANCH   1   7
TORSDOF 1
ENDMDL
MODEL 5
REMARK VINA RESULT:    -2.839      2.196      2.698
REMARK INTER + INTRA:          -3.027
REMARK INTER:                  -3.006
REMARK INTRA:                  -0.021
REMARK UNBOUND:                -0.022
REMARK SMILES O=C([O-])c1cccnc1
REMARK SMILES IDX 4 1 5 2 9 3 6 4 8 5 7 6 2 7 1 8 3 9
REMARK H PARENT
REMARK Flexibility Score: inf
ROOT
ATOM      1  C   UNL     1      -5.481  35.762  19.899  1.00  0.00     0.016 A 
ATOM      2  C   UNL     1      -5.940  35.320  21.152  1.00  0.00     0.013 A 
ATOM      3  C   UNL     1      -5.201  37.129  19.736  1.00  0.00     0.120 A 
ATOM      4  C   UNL     1      -6.108  36.229  22.198  1.00  0.00     0.021 A 
ATOM      5  N   UNL     1      -5.374  37.995  20.771  1.00  0.00    -0.264 NA
ATOM      6  C   UNL     1      -5.816  37.577  21.986  1.00  0.00     0.111 A 
ENDROOT
BRANCH   1   7
ATOM      7  C   UNL     1      -5.296  34.815  18.779  1.00  0.00     0.073 C 
ATOM      8  O   UNL     1      -6.119  33.880  18.588  1.00  0.00    -0.545 OA
ATOM      9  O   UNL     1      -4.210  34.943  17.920  1.00  0.00    -0.545 OA
ENDBRANCH   1   7
TORSDOF 1
ENDMDL
MODEL 6
REMARK VINA RESULT:    -2.832      2.989      3.739
REMARK INTER + INTRA:          -3.020
REMARK INTER:                  -3.000
REMARK INTRA:                  -0.021
REMARK UNBOUND:                -0.022
REMARK SMILES O=C([O-])c1cccnc1
REMARK SMILES IDX 4 1 5 2 9 3 6 4 8 5 7 6 2 7 1 8 3 9
REMARK H PARENT
REMARK Flexibility Score: inf
ROOT
ATOM      1  C   UNL     1      -5.741  37.924  21.550  1.00  0.00     0.016 A 
ATOM      2  C   UNL     1      -6.095  36.807  22.326  1.00  0.00     0.013 A 
ATOM      3  C   UNL     1      -5.367  37.714  20.212  1.00  0.00     0.120 A 
ATOM      4  C   UNL     1      -6.072  35.528  21.768  1.00  0.00     0.021 A 
ATOM      5  N   UNL     1      -5.352  36.457  19.691  1.00  0.00    -0.264 NA
ATOM      6  C   UNL     1      -5.694  35.371  20.434  1.00  0.00     0.111 A 
ENDROOT
BRANCH   1   7
ATOM      7  C   UNL     1      -5.759  39.287  22.122  1.00  0.00     0.073 C 
ATOM      8  O   UNL     1      -6.125  40.270  21.424  1.00  0.00    -0.545 OA
ATOM      9  O   UNL     1      -5.372  39.503  23.440  1.00  0.00    -0.545 OA
ENDBRANCH   1   7
TORSDOF 1
ENDMDL
MODEL 7
REMARK VINA RESULT:    -2.784      2.777      3.854
REMARK INTER + INTRA:          -2.969
REMARK INTER:                  -2.946
REMARK INTRA:                  -0.023
REMARK UNBOUND:                -0.022
REMARK SMILES O=C([O-])c1cccnc1
REMARK SMILES IDX 4 1 5 2 9 3 6 4 8 5 7 6 2 7 1 8 3 9
REMARK H PARENT
REMARK Flexibility Score: inf
ROOT
ATOM      1  C   UNL     1      -5.756  36.077  22.319  1.00  0.00     0.016 A 
ATOM      2  C   UNL     1      -5.773  37.481  22.260  1.00  0.00     0.013 A 
ATOM      3  C   UNL     1      -5.504  35.364  21.135  1.00  0.00     0.120 A 
ATOM      4  C   UNL     1      -5.543  38.136  21.049  1.00  0.00     0.021 A 
ATOM      5  N   UNL     1      -5.283  36.025  19.967  1.00  0.00    -0.264 NA
ATOM      6  C   UNL     1      -5.297  37.383  19.900  1.00  0.00     0.111 A 
ENDROOT
BRANCH   1   7
ATOM      7  C   UNL     1      -5.997  35.365  23.591  1.00  0.00     0.073 C 
ATOM      8  O   UNL     1      -6.125  34.112  23.610  1.00  0.00    -0.545 OA
ATOM      9  O   UNL     1      -6.086  36.069  24.787  1.00  0.00    -0.545 OA
ENDBRANCH   1   7
TORSDOF 1
ENDMDL
MODEL 8
REMARK VINA RESULT:    -2.421      1.539      2.207
REMARK INTER + INTRA:          -2.585
REMARK INTER:                  -2.561
REMARK INTRA:                  -0.023
REMARK UNBOUND:                -0.022
REMARK SMILES O=C([O-])c1cccnc1
REMARK SMILES IDX 4 1 5 2 9 3 6 4 8 5 7 6 2 7 1 8 3 9
REMARK H PARENT
REMARK Flexibility Score: inf
ROOT
ATOM      1  C   UNL     1      -5.787  36.964  22.002  1.00  0.00     0.016 A 
ATOM      2  C   UNL     1      -5.954  37.326  23.350  1.00  0.00     0.013 A 
ATOM      3  C   UNL     1      -5.794  35.598  21.673  1.00  0.00     0.120 A 
ATOM      4  C   UNL     1      -6.123  36.341  24.326  1.00  0.00     0.021 A 
ATOM      5  N   UNL     1      -5.959  34.658  22.642  1.00  0.00    -0.264 NA
ATOM      6  C   UNL     1      -6.123  34.998  23.948  1.00  0.00     0.111 A 
ENDROOT
BRANCH   1   7
ATOM      7  C   UNL     1      -5.607  37.991  20.955  1.00  0.00     0.073 C 
ATOM      8  O   UNL     1      -5.345  37.657  19.768  1.00  0.00    -0.545 OA
ATOM      9  O   UNL     1      -5.725  39.341  21.264  1.00  0.00    -0.545 OA
ENDBRANCH   1   7
TORSDOF 1
ENDMDL
MODEL 9
REMARK VINA RESULT:    -1.530      2.340      3.342
REMARK INTER + INTRA:          -1.642
REMARK INTER:                  -1.618
REMARK INTRA:                  -0.024
REMARK UNBOUND:                -0.022
REMARK SMILES O=C([O-])c1cccnc1
REMARK SMILES IDX 4 1 5 2 9 3 6 4 8 5 7 6 2 7 1 8 3 9
REMARK H PARENT
REMARK Flexibility Score: inf
ROOT
ATOM      1  C   UNL     1      -5.676  37.193  21.392  1.00  0.00     0.016 A 
ATOM      2  C   UNL     1      -5.793  37.725  22.687  1.00  0.00     0.013 A 
ATOM      3  C   UNL     1      -5.650  38.083  20.305  1.00  0.00     0.120 A 
ATOM      4  C   UNL     1      -5.880  39.106  22.874  1.00  0.00     0.021 A 
ATOM      5  N   UNL     1      -5.736  39.425  20.514  1.00  0.00    -0.264 NA
ATOM      6  C   UNL     1      -5.849  39.949  21.763  1.00  0.00     0.111 A 
ENDROOT
BRANCH   1   7
ATOM      7  C   UNL     1      -5.583  35.734  21.173  1.00  0.00     0.073 C 
ATOM      8  O   UNL     1      -5.794  34.929  22.121  1.00  0.00    -0.545 OA
ATOM      9  O   UNL     1      -5.262  35.228  19.919  1.00  0.00    -0.545 OA
ENDBRANCH   1   7
TORSDOF 1
ENDMDL
