MODEL 1
REMARK VINA RESULT:    -3.605      0.000      0.000
REMARK INTER + INTRA:          -4.578
REMARK INTER:                  -4.448
REMARK INTRA:                  -0.130
REMARK UNBOUND:                -0.130
REMARK SMILES CCCCCC(=O)[O-]
REMARK SMILES IDX 4 1 5 2 6 3 7 4 8 5 3 6 2 7 1 8
REMARK H PARENT
REMARK Flexibility Score: inf
ROOT
ATOM      1  C   UNL     1      13.795  43.062  20.252  1.00  0.00     0.006 C 
ENDROOT
BRANCH   1   2
ATOM      2  C   UNL     1      13.709  41.601  19.777  1.00  0.00     0.053 C 
BRANCH   2   3
ATOM      3  C   UNL     1      13.386  40.649  20.888  1.00  0.00     0.041 C 
ATOM      4  O   UNL     1      12.421  39.847  20.778  1.00  0.00    -0.550 OA
ATOM      5  O   UNL     1      14.171  40.625  22.035  1.00  0.00    -0.550 OA
ENDBRANCH   2   3
ENDBRANCH   1   2
BRANCH   1   6
ATOM      6  C   UNL     1      15.235  43.589  20.399  1.00  0.00     0.000 C 
BRANCH   6   7
ATOM      7  C   UNL     1      15.831  44.088  19.076  1.00  0.00    -0.003 C 
ATOM      8  C   UNL     1      14.822  44.930  18.300  1.00  0.00     0.004 C 
ENDBRANCH   6   7
ENDBRANCH   1   6
TORSDOF 4
ENDMDL
MODEL 2
REMARK VINA RESULT:    -3.520      0.936      1.313
REMARK INTER + INTRA:          -4.474
REMARK INTER:                  -4.360
REMARK INTRA:                  -0.114
REMARK UNBOUND:                -0.130
REMARK SMILES CCCCCC(=O)[O-]
REMARK SMILES IDX 4 1 5 2 6 3 7 4 8 5 3 6 2 7 1 8
REMARK H PARENT
REMARK Flexibility Score: inf
ROOT
ATOM      1  C   UNL     1      15.105  43.468  20.705  1.00  0.00     0.006 C 
ENDROOT
BRANCH   1   2
ATOM      2  C   UNL     1      13.675  42.939  20.499  1.00  0.00     0.053 C 
BRANCH   2   3
ATOM      3  C   UNL     1      13.612  41.443  20.450  1.00  0.00     0.041 C 
ATOM      4  O   UNL     1      13.460  40.848  19.350  1.00  0.00    -0.550 OA
ATOM      5  O   UNL     1      13.752  40.702  21.617  1.00  0.00    -0.550 OA
ENDBRANCH   2   3
ENDBRANCH   1   2
BRANCH   1   6
ATOM      6  C   UNL     1      15.687  44.195  19.478  1.00  0.00     0.000 C 
BRANCH   6   7
ATOM      7  C   UNL     1      14.814  44.051  18.224  1.00  0.00    -0.003 C 
ATOM      8  C   UNL     1      14.131  45.370  17.875  1.00  0.00     0.004 C 
ENDBRANCH   6   7
ENDBRANCH   1   6
TORSDOF 4
ENDMDL
MODEL 3
REMARK VINA RESULT:    -3.283      2.257      4.065
REMARK INTER + INTRA:          -4.181
REMARK INTER:                  -3.975
REMARK INTRA:                  -0.206
REMARK UNBOUND:                -0.130
REMARK SMILES CCCCCC(=O)[O-]
REMARK SMILES IDX 4 1 5 2 6 3 7 4 8 5 3 6 2 7 1 8
REMARK H PARENT
REMARK Flexibility Score: inf
ROOT
ATOM      1  C   UNL     1      13.053  42.798  19.587  1.00  0.00     0.006 C 
ENDROOT
BRANCH   1   2
ATOM      2  C   UNL     1      14.087  43.803  19.049  1.00  0.00     0.053 C 
BRANCH   2   3
ATOM      3  C   UNL     1      15.354  43.815  19.848  1.00  0.00     0.041 C 
ATOM      4  O   UNL     1      16.453  44.082  19.294  1.00  0.00    -0.550 OA
ATOM      5  O   UNL     1      15.318  43.561  21.214  1.00  0.00    -0.550 OA
ENDBRANCH   2   3
ENDBRANCH   1   2
BRANCH   1   6
ATOM      6  C   UNL     1      13.357  41.332  19.224  1.00  0.00     0.000 C 
BRANCH   6   7
ATOM      7  C   UNL     1      13.529  40.431  20.455  1.00  0.00    -0.003 C 
ATOM      8  C   UNL     1      12.507  40.775  21.535  1.00  0.00     0.004 C 
ENDBRANCH   6   7
ENDBRANCH   1   6
TORSDOF 4
ENDMDL
MODEL 4
REMARK VINA RESULT:    -3.011      2.876      4.024
REMARK INTER + INTRA:          -3.845
REMARK INTER:                  -3.601
REMARK INTRA:                  -0.245
REMARK UNBOUND:                -0.130
REMARK SMILES CCCCCC(=O)[O-]
REMARK SMILES IDX 4 1 5 2 6 3 7 4 8 5 3 6 2 7 1 8
REMARK H PARENT
REMARK Flexibility Score: inf
ROOT
ATOM      1  C   UNL     1      13.511  42.799  20.330  1.00  0.00     0.006 C 
ENDROOT
BRANCH   1   2
ATOM      2  C   UNL     1      14.848  43.502  20.624  1.00  0.00     0.053 C 
BRANCH   2   3
ATOM      3  C   UNL     1      15.451  44.134  19.407  1.00  0.00     0.041 C 
ATOM      4  O   UNL     1      16.668  43.959  19.136  1.00  0.00    -0.550 OA
ATOM      5  O   UNL     1      14.659  44.891  18.552  1.00  0.00    -0.550 OA
ENDBRANCH   2   3
ENDBRANCH   1   2
BRANCH   1   6
ATOM      6  C   UNL     1      13.662  41.407  19.691  1.00  0.00     0.000 C 
BRANCH   6   7
ATOM      7  C   UNL     1      13.030  41.313  18.295  1.00  0.00    -0.003 C 
ATOM      8  C   UNL     1      12.146  42.524  18.010  1.00  0.00     0.004 C 
ENDBRANCH   6   7
ENDBRANCH   1   6
TORSDOF 4
ENDMDL
MODEL 5
REMARK VINA RESULT:    -2.880      2.913      4.536
REMARK INTER + INTRA:          -3.683
REMARK INTER:                  -3.575
REMARK INTRA:                  -0.108
REMARK UNBOUND:                -0.130
REMARK SMILES CCCCCC(=O)[O-]
REMARK SMILES IDX 4 1 5 2 6 3 7 4 8 5 3 6 2 7 1 8
REMARK H PARENT
REMARK Flexibility Score: inf
ROOT
ATOM      1  C   UNL     1      13.828  42.593  20.349  1.00  0.00     0.006 C 
ENDROOT
BRANCH   1   2
ATOM      2  C   UNL     1      13.592  43.528  19.149  1.00  0.00     0.053 C 
BRANCH   2   3
ATOM      3  C   UNL     1      14.812  44.314  18.778  1.00  0.00     0.041 C 
ATOM      4  O   UNL     1      14.700  45.416  18.178  1.00  0.00    -0.550 OA
ATOM      5  O   UNL     1      16.073  43.846  19.124  1.00  0.00    -0.550 OA
ENDBRANCH   2   3
ENDBRANCH   1   2
BRANCH   1   6
ATOM      6  C   UNL     1      13.627  41.100  20.029  1.00  0.00     0.000 C 
BRANCH   6   7
ATOM      7  C   UNL     1      12.215  40.598  20.362  1.00  0.00    -0.003 C 
ATOM      8  C   UNL     1      11.946  40.670  21.863  1.00  0.00     0.004 C 
ENDBRANCH   6   7
ENDBRANCH   1   6
TORSDOF 4
ENDMDL
MODEL 6
REMARK VINA RESULT:    -2.705      2.829      4.212
REMARK INTER + INTRA:          -3.468
REMARK INTER:                  -3.414
REMARK INTRA:                  -0.054
REMARK UNBOUND:                -0.130
REMARK SMILES CCCCCC(=O)[O-]
REMARK SMILES IDX 4 1 5 2 6 3 7 4 8 5 3 6 2 7 1 8
REMARK H PARENT
REMARK Flexibility Score: inf
ROOT
ATOM      1  C   UNL     1      14.512  42.963  20.845  1.00  0.00     0.006 C 
ENDROOT
BRANCH   1   2
ATOM      2  C   UNL     1      15.338  43.883  19.928  1.00  0.00     0.053 C 
BRANCH   2   3
ATOM      3  C   UNL     1      14.873  43.852  18.505  1.00  0.00     0.041 C 
ATOM      4  O   UNL     1      14.824  42.762  17.875  1.00  0.00    -0.550 OA
ATOM      5  O   UNL     1      14.461  45.023  17.881  1.00  0.00    -0.550 OA
ENDBRANCH   2   3
ENDBRANCH   1   2
BRANCH   1   6
ATOM      6  C   UNL     1      13.011  42.921  20.502  1.00  0.00     0.000 C 
BRANCH   6   7
ATOM      7  C   UNL     1      12.354  41.576  20.838  1.00  0.00    -0.003 C 
ATOM      8  C   UNL     1      13.389  40.455  20.888  1.00  0.00     0.004 C 
ENDBRANCH   6   7
ENDBRANCH   1   6
TORSDOF 4
ENDMDL
MODEL 7
REMARK VINA RESULT:    -2.440      1.744      2.001
REMARK INTER + INTRA:          -3.140
REMARK INTER:                  -2.958
REMARK INTRA:                  -0.183
REMARK UNBOUND:                -0.130
REMARK SMILES CCCCCC(=O)[O-]
REMARK SMILES IDX 4 1 5 2 6 3 7 4 8 5 3 6 2 7 1 8
REMARK H PARENT
REMARK Flexibility Score: inf
ROOT
ATOM      1  C   UNL     1      14.508  42.229  20.611  1.00  0.00     0.006 C 
ENDROOT
BRANCH   1   2
ATOM      2  C   UNL     1      13.026  41.863  20.409  1.00  0.00     0.053 C 
BRANCH   2   3
ATOM      3  C   UNL     1      12.772  41.178  19.102  1.00  0.00     0.041 C 
ATOM      4  O   UNL     1      11.877  40.296  19.009  1.00  0.00    -0.550 OA
ATOM      5  O   UNL     1      13.501  41.536  17.975  1.00  0.00    -0.550 OA
ENDBRANCH   2   3
ENDBRANCH   1   2
BRANCH   1   6
ATOM      6  C   UNL     1      14.770  43.743  20.715  1.00  0.00     0.000 C 
BRANCH   6   7
ATOM      7  C   UNL     1      14.974  44.414  19.350  1.00  0.00    -0.003 C 
ATOM      8  C   UNL     1      16.350  44.089  18.777  1.00  0.00     0.004 C 
ENDBRANCH   6   7
ENDBRANCH   1   6
TORSDOF 4
ENDMDL
MODEL 8
REMARK VINA RESULT:    -1.434     10.308     11.317
REMARK INTER + INTRA:          -1.899
REMARK INTER:                  -1.672
REMARK INTRA:                  -0.227
REMARK UNBOUND:                -0.130
REMARK SMILES CCCCCC(=O)[O-]
REMARK SMILES IDX 4 1 5 2 6 3 7 4 8 5 3 6 2 7 1 8
REMARK H PARENT
REMARK Flexibility Score: inf
ROOT
ATOM      1  C   UNL     1      22.708  38.688  23.174  1.00  0.00     0.006 C 
ENDROOT
BRANCH   1   2
ATOM      2  C   UNL     1      24.149  39.213  23.303  1.00  0.00     0.053 C 
BRANCH   2   3
ATOM      3  C   UNL     1      24.208  40.690  23.549  1.00  0.00     0.041 C 
ATOM      4  O   UNL     1      23.502  41.213  24.451  1.00  0.00    -0.550 OA
ATOM      5  O   UNL     1      25.068  41.486  22.802  1.00  0.00    -0.550 OA
ENDBRANCH   2   3
ENDBRANCH   1   2
BRANCH   1   6
ATOM      6  C   UNL     1      22.363  37.557  24.161  1.00  0.00     0.000 C 
BRANCH   6   7
ATOM      7  C   UNL     1      23.211  37.596  25.440  1.00  0.00    -0.003 C 
ATOM      8  C   UNL     1      22.530  38.425  26.526  1.00  0.00     0.004 C 
ENDBRANCH   6   7
ENDBRANCH   1   6
TORSDOF 4
ENDMDL
