MODEL 1
REMARK VINA RESULT:    -5.707      0.000      0.000
REMARK INTER + INTRA:         -12.295
REMARK INTER:                 -10.378
REMARK INTRA:                  -1.917
REMARK UNBOUND:                -1.917
REMARK SMILES CCCCCCCCCCCCCCCC(=O)[O-]
REMARK SMILES IDX 9 1 10 2 11 3 12 4 13 5 14 6 15 7 16 8 17 9 18 10 8 11 7 12
REMARK SMILES IDX 6 13 5 14 4 15 3 16 2 17 1 18
REMARK H PARENT
REMARK Flexibility Score: inf
ROOT
ATOM      1  C   UNL     1       9.017 -12.663  -6.797  1.00  0.00     0.000 C 
ENDROOT
BRANCH   1   2
ATOM      2  C   UNL     1      10.238 -12.088  -7.543  1.00  0.00     0.000 C 
BRANCH   2   3
ATOM      3  C   UNL     1      11.601 -12.391  -6.896  1.00  0.00     0.000 C 
BRANCH   3   4
ATOM      4  C   UNL     1      12.114 -11.239  -6.019  1.00  0.00     0.000 C 
BRANCH   4   5
ATOM      5  C   UNL     1      13.166 -11.735  -5.021  1.00  0.00     0.000 C 
BRANCH   5   6
ATOM      6  C   UNL     1      12.693 -13.014  -4.313  1.00  0.00     0.006 C 
BRANCH   6   7
ATOM      7  C   UNL     1      12.326 -12.763  -2.844  1.00  0.00     0.053 C 
BRANCH   7   8
ATOM      8  C   UNL     1      13.361 -13.312  -1.911  1.00  0.00     0.041 C 
ATOM      9  O   UNL     1      13.652 -14.536  -1.936  1.00  0.00    -0.550 OA
ATOM     10  O   UNL     1      14.029 -12.463  -1.037  1.00  0.00    -0.550 OA
ENDBRANCH   7   8
ENDBRANCH   6   7
ENDBRANCH   5   6
ENDBRANCH   4   5
ENDBRANCH   3   4
ENDBRANCH   2   3
ENDBRANCH   1   2
BRANCH   1  11
ATOM     11  C   UNL     1       9.334 -13.746  -5.751  1.00  0.00     0.000 C 
BRANCH  11  12
ATOM     12  C   UNL     1       8.938 -13.332  -4.324  1.00  0.00    -0.000 C 
BRANCH  12  13
ATOM     13  C   UNL     1       8.948 -11.806  -4.119  1.00  0.00    -0.000 C 
BRANCH  13  14
ATOM     14  C   UNL     1       7.609 -11.194  -3.659  1.00  0.00    -0.000 C 
BRANCH  14  15
ATOM     15  C   UNL     1       7.634 -10.546  -2.263  1.00  0.00    -0.000 C 
BRANCH  15  16
ATOM     16  C   UNL     1       6.527 -11.081  -1.339  1.00  0.00    -0.000 C 
BRANCH  16  17
ATOM     17  C   UNL     1       6.404 -12.611  -1.396  1.00  0.00    -0.003 C 
ATOM     18  C   UNL     1       7.530 -13.322  -0.644  1.00  0.00     0.004 C 
ENDBRANCH  16  17
ENDBRANCH  15  16
ENDBRANCH  14  15
ENDBRANCH  13  14
ENDBRANCH  12  13
ENDBRANCH  11  12
ENDBRANCH   1  11
TORSDOF 14
ENDMDL
MODEL 2
REMARK VINA RESULT:    -5.639      2.309      5.649
REMARK INTER + INTRA:         -12.172
REMARK INTER:                 -10.777
REMARK INTRA:                  -1.395
REMARK UNBOUND:                -1.917
REMARK SMILES CCCCCCCCCCCCCCCC(=O)[O-]
REMARK SMILES IDX 9 1 10 2 11 3 12 4 13 5 14 6 15 7 16 8 17 9 18 10 8 11 7 12
REMARK SMILES IDX 6 13 5 14 4 15 3 16 2 17 1 18
REMARK H PARENT
REMARK Flexibility Score: inf
ROOT
ATOM      1  C   UNL     1       8.723 -11.968  -4.642  1.00  0.00     0.000 C 
ENDROOT
BRANCH   1   2
ATOM      2  C   UNL     1       7.642 -11.197  -3.856  1.00  0.00     0.000 C 
BRANCH   2   3
ATOM      3  C   UNL     1       7.879 -11.105  -2.338  1.00  0.00     0.000 C 
BRANCH   3   4
ATOM      4  C   UNL     1       6.591 -11.281  -1.522  1.00  0.00     0.000 C 
BRANCH   4   5
ATOM      5  C   UNL     1       6.438 -12.729  -1.043  1.00  0.00     0.000 C 
BRANCH   5   6
ATOM      6  C   UNL     1       7.781 -13.472  -1.097  1.00  0.00     0.006 C 
BRANCH   6   7
ATOM      7  C   UNL     1       7.948 -14.455   0.070  1.00  0.00     0.053 C 
BRANCH   7   8
ATOM      8  C   UNL     1       8.306 -13.751   1.343  1.00  0.00     0.041 C 
ATOM      9  O   UNL     1       7.577 -13.876   2.362  1.00  0.00    -0.550 OA
ATOM     10  O   UNL     1       9.462 -12.984   1.413  1.00  0.00    -0.550 OA
ENDBRANCH   7   8
ENDBRANCH   6   7
ENDBRANCH   5   6
ENDBRANCH   4   5
ENDBRANCH   3   4
ENDBRANCH   2   3
ENDBRANCH   1   2
BRANCH   1  11
ATOM     11  C   UNL     1       8.375 -12.277  -6.109  1.00  0.00     0.000 C 
BRANCH  11  12
ATOM     12  C   UNL     1       9.498 -13.028  -6.844  1.00  0.00    -0.000 C 
BRANCH  12  13
ATOM     13  C   UNL     1      10.483 -12.083  -7.558  1.00  0.00    -0.000 C 
BRANCH  13  14
ATOM     14  C   UNL     1      11.933 -12.122  -7.032  1.00  0.00    -0.000 C 
BRANCH  14  15
ATOM     15  C   UNL     1      12.170 -11.356  -5.719  1.00  0.00    -0.000 C 
BRANCH  15  16
ATOM     16  C   UNL     1      12.927 -12.191  -4.671  1.00  0.00    -0.000 C 
BRANCH  16  17
ATOM     17  C   UNL     1      11.992 -13.098  -3.858  1.00  0.00    -0.003 C 
ATOM     18  C   UNL     1      12.044 -14.557  -4.312  1.00  0.00     0.004 C 
ENDBRANCH  16  17
ENDBRANCH  15  16
ENDBRANCH  14  15
ENDBRANCH  13  14
ENDBRANCH  12  13
ENDBRANCH  11  12
ENDBRANCH   1  11
TORSDOF 14
ENDMDL
MODEL 3
REMARK VINA RESULT:    -5.572      2.095      3.777
REMARK INTER + INTRA:         -12.049
REMARK INTER:                  -9.902
REMARK INTRA:                  -2.147
REMARK UNBOUND:                -1.917
REMARK SMILES CCCCCCCCCCCCCCCC(=O)[O-]
REMARK SMILES IDX 9 1 10 2 11 3 12 4 13 5 14 6 15 7 16 8 17 9 18 10 8 11 7 12
REMARK SMILES IDX 6 13 5 14 4 15 3 16 2 17 1 18
REMARK H PARENT
REMARK Flexibility Score: inf
ROOT
ATOM      1  C   UNL     1      12.074 -11.306  -6.099  1.00  0.00     0.000 C 
ENDROOT
BRANCH   1   2
ATOM      2  C   UNL     1      12.907 -11.742  -4.875  1.00  0.00     0.000 C 
BRANCH   2   3
ATOM      3  C   UNL     1      12.541 -13.120  -4.294  1.00  0.00     0.000 C 
BRANCH   3   4
ATOM      4  C   UNL     1      12.930 -13.265  -2.816  1.00  0.00     0.000 C 
BRANCH   4   5
ATOM      5  C   UNL     1      12.002 -12.436  -1.921  1.00  0.00     0.000 C 
BRANCH   5   6
ATOM      6  C   UNL     1      11.575 -13.235  -0.680  1.00  0.00     0.006 C 
BRANCH   6   7
ATOM      7  C   UNL     1      10.072 -13.544  -0.677  1.00  0.00     0.053 C 
BRANCH   7   8
ATOM      8  C   UNL     1       9.414 -13.099   0.593  1.00  0.00     0.041 C 
ATOM      9  O   UNL     1       8.159 -13.080   0.683  1.00  0.00    -0.550 OA
ATOM     10  O   UNL     1      10.189 -12.738   1.688  1.00  0.00    -0.550 OA
ENDBRANCH   7   8
ENDBRANCH   6   7
ENDBRANCH   5   6
ENDBRANCH   4   5
ENDBRANCH   3   4
ENDBRANCH   2   3
ENDBRANCH   1   2
BRANCH   1  11
ATOM     11  C   UNL     1      11.527 -12.453  -6.966  1.00  0.00     0.000 C 
BRANCH  11  12
ATOM     12  C   UNL     1      10.167 -12.124  -7.603  1.00  0.00    -0.000 C 
BRANCH  12  13
ATOM     13  C   UNL     1       8.978 -12.673  -6.793  1.00  0.00    -0.000 C 
BRANCH  13  14
ATOM     14  C   UNL     1       9.340 -13.719  -5.718  1.00  0.00    -0.000 C 
BRANCH  14  15
ATOM     15  C   UNL     1       8.956 -13.334  -4.279  1.00  0.00    -0.000 C 
BRANCH  15  16
ATOM     16  C   UNL     1       8.997 -11.815  -4.039  1.00  0.00    -0.000 C 
BRANCH  16  17
ATOM     17  C   UNL     1       7.820 -11.324  -3.182  1.00  0.00    -0.003 C 
ATOM     18  C   UNL     1       8.272 -10.498  -1.978  1.00  0.00     0.004 C 
ENDBRANCH  16  17
ENDBRANCH  15  16
ENDBRANCH  14  15
ENDBRANCH  13  14
ENDBRANCH  12  13
ENDBRANCH  11  12
ENDBRANCH   1  11
TORSDOF 14
ENDMDL
MODEL 4
REMARK VINA RESULT:    -5.563      2.054      2.688
REMARK INTER + INTRA:         -12.033
REMARK INTER:                 -10.612
REMARK INTRA:                  -1.421
REMARK UNBOUND:                -1.917
REMARK SMILES CCCCCCCCCCCCCCCC(=O)[O-]
REMARK SMILES IDX 9 1 10 2 11 3 12 4 13 5 14 6 15 7 16 8 17 9 18 10 8 11 7 12
REMARK SMILES IDX 6 13 5 14 4 15 3 16 2 17 1 18
REMARK H PARENT
REMARK Flexibility Score: inf
ROOT
ATOM      1  C   UNL     1      10.261 -12.129  -7.527  1.00  0.00     0.000 C 
ENDROOT
BRANCH   1   2
ATOM      2  C   UNL     1      11.736 -12.148  -7.075  1.00  0.00     0.000 C 
BRANCH   2   3
ATOM      3  C   UNL     1      12.046 -11.314  -5.820  1.00  0.00     0.000 C 
BRANCH   3   4
ATOM      4  C   UNL     1      13.119 -11.956  -4.928  1.00  0.00     0.000 C 
BRANCH   4   5
ATOM      5  C   UNL     1      12.482 -12.673  -3.733  1.00  0.00     0.000 C 
BRANCH   5   6
ATOM      6  C   UNL     1      12.522 -14.197  -3.919  1.00  0.00     0.006 C 
BRANCH   6   7
ATOM      7  C   UNL     1      11.164 -14.766  -4.352  1.00  0.00     0.053 C 
BRANCH   7   8
ATOM      8  C   UNL     1      11.312 -16.070  -5.073  1.00  0.00     0.041 C 
ATOM      9  O   UNL     1      10.424 -16.956  -4.970  1.00  0.00    -0.550 OA
ATOM     10  O   UNL     1      12.416 -16.294  -5.887  1.00  0.00    -0.550 OA
ENDBRANCH   7   8
ENDBRANCH   6   7
ENDBRANCH   5   6
ENDBRANCH   4   5
ENDBRANCH   3   4
ENDBRANCH   2   3
ENDBRANCH   1   2
BRANCH   1  11
ATOM     11  C   UNL     1       9.300 -12.974  -6.673  1.00  0.00     0.000 C 
BRANCH  11  12
ATOM     12  C   UNL     1       8.326 -12.119  -5.846  1.00  0.00    -0.000 C 
BRANCH  12  13
ATOM     13  C   UNL     1       8.698 -12.064  -4.353  1.00  0.00    -0.000 C 
BRANCH  13  14
ATOM     14  C   UNL     1       7.717 -11.280  -3.457  1.00  0.00    -0.000 C 
BRANCH  14  15
ATOM     15  C   UNL     1       7.944 -11.444  -1.944  1.00  0.00    -0.000 C 
BRANCH  15  16
ATOM     16  C   UNL     1       7.344 -12.748  -1.390  1.00  0.00    -0.000 C 
BRANCH  16  17
ATOM     17  C   UNL     1       6.757 -12.572   0.019  1.00  0.00    -0.003 C 
ATOM     18  C   UNL     1       5.655 -11.514   0.071  1.00  0.00     0.004 C 
ENDBRANCH  16  17
ENDBRANCH  15  16
ENDBRANCH  14  15
ENDBRANCH  13  14
ENDBRANCH  12  13
ENDBRANCH  11  12
ENDBRANCH   1  11
TORSDOF 14
ENDMDL
MODEL 5
REMARK VINA RESULT:    -5.547      1.734      5.541
REMARK INTER + INTRA:         -12.005
REMARK INTER:                  -9.957
REMARK INTRA:                  -2.048
REMARK UNBOUND:                -1.917
REMARK SMILES CCCCCCCCCCCCCCCC(=O)[O-]
REMARK SMILES IDX 9 1 10 2 11 3 12 4 13 5 14 6 15 7 16 8 17 9 18 10 8 11 7 12
REMARK SMILES IDX 6 13 5 14 4 15 3 16 2 17 1 18
REMARK H PARENT
REMARK Flexibility Score: inf
ROOT
ATOM      1  C   UNL     1       9.150 -11.621  -3.399  1.00  0.00     0.000 C 
ENDROOT
BRANCH   1   2
ATOM      2  C   UNL     1       7.643 -11.302  -3.307  1.00  0.00     0.000 C 
BRANCH   2   3
ATOM      3  C   UNL     1       7.162 -10.814  -1.929  1.00  0.00     0.000 C 
BRANCH   3   4
ATOM      4  C   UNL     1       6.280 -11.843  -1.207  1.00  0.00     0.000 C 
BRANCH   4   5
ATOM      5  C   UNL     1       7.036 -13.159  -0.993  1.00  0.00     0.000 C 
BRANCH   5   6
ATOM      6  C   UNL     1       7.911 -13.094   0.268  1.00  0.00     0.006 C 
BRANCH   6   7
ATOM      7  C   UNL     1       9.354 -13.540  -0.004  1.00  0.00     0.053 C 
BRANCH   7   8
ATOM      8  C   UNL     1      10.345 -12.493   0.402  1.00  0.00     0.041 C 
ATOM      9  O   UNL     1      10.310 -11.349  -0.123  1.00  0.00    -0.550 OA
ATOM     10  O   UNL     1      11.287 -12.770   1.385  1.00  0.00    -0.550 OA
ENDBRANCH   7   8
ENDBRANCH   6   7
ENDBRANCH   5   6
ENDBRANCH   4   5
ENDBRANCH   3   4
ENDBRANCH   2   3
ENDBRANCH   1   2
BRANCH   1  11
ATOM     11  C   UNL     1       9.494 -13.067  -3.797  1.00  0.00     0.000 C 
BRANCH  11  12
ATOM     12  C   UNL     1      10.919 -13.476  -3.390  1.00  0.00    -0.000 C 
BRANCH  12  13
ATOM     13  C   UNL     1      11.900 -13.490  -4.578  1.00  0.00    -0.000 C 
BRANCH  13  14
ATOM     14  C   UNL     1      12.536 -12.128  -4.925  1.00  0.00    -0.000 C 
BRANCH  14  15
ATOM     15  C   UNL     1      12.050 -11.499  -6.242  1.00  0.00    -0.000 C 
BRANCH  15  16
ATOM     16  C   UNL     1      11.226 -12.475  -7.099  1.00  0.00    -0.000 C 
BRANCH  16  17
ATOM     17  C   UNL     1       9.915 -11.852  -7.601  1.00  0.00    -0.003 C 
ATOM     18  C   UNL     1       8.710 -12.770  -7.397  1.00  0.00     0.004 C 
ENDBRANCH  16  17
ENDBRANCH  15  16
ENDBRANCH  14  15
ENDBRANCH  13  14
ENDBRANCH  12  13
ENDBRANCH  11  12
ENDBRANCH   1  11
TORSDOF 14
ENDMDL
MODEL 6
REMARK VINA RESULT:    -5.493      1.957      5.475
REMARK INTER + INTRA:         -11.905
REMARK INTER:                 -10.181
REMARK INTRA:                  -1.724
REMARK UNBOUND:                -1.917
REMARK SMILES CCCCCCCCCCCCCCCC(=O)[O-]
REMARK SMILES IDX 9 1 10 2 11 3 12 4 13 5 14 6 15 7 16 8 17 9 18 10 8 11 7 12
REMARK SMILES IDX 6 13 5 14 4 15 3 16 2 17 1 18
REMARK H PARENT
REMARK Flexibility Score: inf
ROOT
ATOM      1  C   UNL     1       8.282 -11.011  -2.197  1.00  0.00     0.000 C 
ENDROOT
BRANCH   1   2
ATOM      2  C   UNL     1       6.833 -11.541  -2.187  1.00  0.00     0.000 C 
BRANCH   2   3
ATOM      3  C   UNL     1       6.517 -12.558  -1.076  1.00  0.00     0.000 C 
BRANCH   3   4
ATOM      4  C   UNL     1       7.189 -13.920  -1.306  1.00  0.00     0.000 C 
BRANCH   4   5
ATOM      5  C   UNL     1       8.295 -14.167  -0.275  1.00  0.00     0.000 C 
BRANCH   5   6
ATOM      6  C   UNL     1       9.640 -14.442  -0.964  1.00  0.00     0.006 C 
BRANCH   6   7
ATOM      7  C   UNL     1      10.835 -14.046  -0.086  1.00  0.00     0.053 C 
BRANCH   7   8
ATOM      8  C   UNL     1      10.651 -12.691   0.525  1.00  0.00     0.041 C 
ATOM      9  O   UNL     1      10.946 -11.656  -0.128  1.00  0.00    -0.550 OA
ATOM     10  O   UNL     1      10.122 -12.571   1.804  1.00  0.00    -0.550 OA
ENDBRANCH   7   8
ENDBRANCH   6   7
ENDBRANCH   5   6
ENDBRANCH   4   5
ENDBRANCH   3   4
ENDBRANCH   2   3
ENDBRANCH   1   2
BRANCH   1  11
ATOM     11  C   UNL     1       9.188 -11.590  -3.297  1.00  0.00     0.000 C 
BRANCH  11  12
ATOM     12  C   UNL     1       8.407 -12.018  -4.551  1.00  0.00    -0.000 C 
BRANCH  12  13
ATOM     13  C   UNL     1       9.191 -13.005  -5.436  1.00  0.00    -0.000 C 
BRANCH  13  14
ATOM     14  C   UNL     1       9.783 -12.406  -6.728  1.00  0.00    -0.000 C 
BRANCH  14  15
ATOM     15  C   UNL     1      11.320 -12.400  -6.798  1.00  0.00    -0.000 C 
BRANCH  15  16
ATOM     16  C   UNL     1      11.948 -11.245  -5.999  1.00  0.00    -0.000 C 
BRANCH  16  17
ATOM     17  C   UNL     1      13.121 -11.708  -5.121  1.00  0.00    -0.003 C 
ATOM     18  C   UNL     1      12.702 -12.738  -4.072  1.00  0.00     0.004 C 
ENDBRANCH  16  17
ENDBRANCH  15  16
ENDBRANCH  14  15
ENDBRANCH  13  14
ENDBRANCH  12  13
ENDBRANCH  11  12
ENDBRANCH   1  11
TORSDOF 14
ENDMDL
MODEL 7
REMARK VINA RESULT:    -5.481      1.669      2.875
REMARK INTER + INTRA:         -11.884
REMARK INTER:                  -9.901
REMARK INTRA:                  -1.983
REMARK UNBOUND:                -1.917
REMARK SMILES CCCCCCCCCCCCCCCC(=O)[O-]
REMARK SMILES IDX 9 1 10 2 11 3 12 4 13 5 14 6 15 7 16 8 17 9 18 10 8 11 7 12
REMARK SMILES IDX 6 13 5 14 4 15 3 16 2 17 1 18
REMARK H PARENT
REMARK Flexibility Score: inf
ROOT
ATOM      1  C   UNL     1      11.424 -12.414  -6.932  1.00  0.00     0.000 C 
ENDROOT
BRANCH   1   2
ATOM      2  C   UNL     1      12.131 -11.216  -6.267  1.00  0.00     0.000 C 
BRANCH   2   3
ATOM      3  C   UNL     1      12.992 -11.564  -5.040  1.00  0.00     0.000 C 
BRANCH   3   4
ATOM      4  C   UNL     1      12.756 -12.995  -4.533  1.00  0.00     0.000 C 
BRANCH   4   5
ATOM      5  C   UNL     1      12.645 -13.025  -3.005  1.00  0.00     0.000 C 
BRANCH   5   6
ATOM      6  C   UNL     1      12.202 -14.410  -2.512  1.00  0.00     0.006 C 
BRANCH   6   7
ATOM      7  C   UNL     1      12.221 -15.459  -3.632  1.00  0.00     0.053 C 
BRANCH   7   8
ATOM      8  C   UNL     1      13.020 -16.667  -3.250  1.00  0.00     0.041 C 
ATOM      9  O   UNL     1      12.464 -17.639  -2.675  1.00  0.00    -0.550 OA
ATOM     10  O   UNL     1      14.373 -16.732  -3.559  1.00  0.00    -0.550 OA
ENDBRANCH   7   8
ENDBRANCH   6   7
ENDBRANCH   5   6
ENDBRANCH   4   5
ENDBRANCH   3   4
ENDBRANCH   2   3
ENDBRANCH   1   2
BRANCH   1  11
ATOM     11  C   UNL     1      10.053 -12.106  -7.558  1.00  0.00     0.000 C 
BRANCH  11  12
ATOM     12  C   UNL     1       8.885 -12.732  -6.778  1.00  0.00    -0.000 C 
BRANCH  12  13
ATOM     13  C   UNL     1       9.350 -13.753  -5.723  1.00  0.00    -0.000 C 
BRANCH  13  14
ATOM     14  C   UNL     1       9.101 -13.346  -4.256  1.00  0.00    -0.000 C 
BRANCH  14  15
ATOM     15  C   UNL     1       9.095 -11.829  -3.994  1.00  0.00    -0.000 C 
BRANCH  15  16
ATOM     16  C   UNL     1       7.733 -11.317  -3.494  1.00  0.00    -0.000 C 
BRANCH  16  17
ATOM     17  C   UNL     1       7.837 -10.598  -2.141  1.00  0.00    -0.003 C 
ATOM     18  C   UNL     1       6.478 -10.417  -1.463  1.00  0.00     0.004 C 
ENDBRANCH  16  17
ENDBRANCH  15  16
ENDBRANCH  14  15
ENDBRANCH  13  14
ENDBRANCH  12  13
ENDBRANCH  11  12
ENDBRANCH   1  11
TORSDOF 14
ENDMDL
MODEL 8
REMARK VINA RESULT:    -5.410      2.727      5.166
REMARK INTER + INTRA:         -11.755
REMARK INTER:                 -10.380
REMARK INTRA:                  -1.375
REMARK UNBOUND:                -1.917
REMARK SMILES CCCCCCCCCCCCCCCC(=O)[O-]
REMARK SMILES IDX 9 1 10 2 11 3 12 4 13 5 14 6 15 7 16 8 17 9 18 10 8 11 7 12
REMARK SMILES IDX 6 13 5 14 4 15 3 16 2 17 1 18
REMARK H PARENT
REMARK Flexibility Score: inf
ROOT
ATOM      1  C   UNL     1      10.083 -12.052  -7.748  1.00  0.00     0.000 C 
ENDROOT
BRANCH   1   2
ATOM      2  C   UNL     1       8.721 -12.412  -7.121  1.00  0.00     0.000 C 
BRANCH   2   3
ATOM      3  C   UNL     1       8.772 -12.818  -5.637  1.00  0.00     0.000 C 
BRANCH   3   4
ATOM      4  C   UNL     1       8.326 -11.691  -4.695  1.00  0.00     0.000 C 
BRANCH   4   5
ATOM      5  C   UNL     1       8.796 -11.955  -3.261  1.00  0.00     0.000 C 
BRANCH   5   6
ATOM      6  C   UNL     1       8.034 -11.075  -2.259  1.00  0.00     0.006 C 
BRANCH   6   7
ATOM      7  C   UNL     1       6.771 -11.764  -1.724  1.00  0.00     0.053 C 
BRANCH   7   8
ATOM      8  C   UNL     1       6.763 -11.824  -0.227  1.00  0.00     0.041 C 
ATOM      9  O   UNL     1       5.946 -11.127   0.430  1.00  0.00    -0.550 OA
ATOM     10  O   UNL     1       7.635 -12.675   0.440  1.00  0.00    -0.550 OA
ENDBRANCH   7   8
ENDBRANCH   6   7
ENDBRANCH   5   6
ENDBRANCH   4   5
ENDBRANCH   3   4
ENDBRANCH   2   3
ENDBRANCH   1   2
BRANCH   1  11
ATOM     11  C   UNL     1      11.317 -12.495  -6.943  1.00  0.00     0.000 C 
BRANCH  11  12
ATOM     12  C   UNL     1      12.094 -11.313  -6.341  1.00  0.00    -0.000 C 
BRANCH  12  13
ATOM     13  C   UNL     1      12.853 -11.688  -5.054  1.00  0.00    -0.000 C 
BRANCH  13  14
ATOM     14  C   UNL     1      12.303 -12.916  -4.299  1.00  0.00    -0.000 C 
BRANCH  14  15
ATOM     15  C   UNL     1      12.907 -13.146  -2.902  1.00  0.00    -0.000 C 
BRANCH  15  16
ATOM     16  C   UNL     1      12.067 -12.515  -1.779  1.00  0.00    -0.000 C 
BRANCH  16  17
ATOM     17  C   UNL     1      12.747 -12.621  -0.406  1.00  0.00    -0.003 C 
ATOM     18  C   UNL     1      11.747 -12.622   0.749  1.00  0.00     0.004 C 
ENDBRANCH  16  17
ENDBRANCH  15  16
ENDBRANCH  14  15
ENDBRANCH  13  14
ENDBRANCH  12  13
ENDBRANCH  11  12
ENDBRANCH   1  11
TORSDOF 14
ENDMDL
MODEL 9
REMARK VINA RESULT:    -5.391      2.531      5.125
REMARK INTER + INTRA:         -11.720
REMARK INTER:                  -9.759
REMARK INTRA:                  -1.962
REMARK UNBOUND:                -1.917
REMARK SMILES CCCCCCCCCCCCCCCC(=O)[O-]
REMARK SMILES IDX 9 1 10 2 11 3 12 4 13 5 14 6 15 7 16 8 17 9 18 10 8 11 7 12
REMARK SMILES IDX 6 13 5 14 4 15 3 16 2 17 1 18
REMARK H PARENT
REMARK Flexibility Score: inf
ROOT
ATOM      1  C   UNL     1       9.159 -12.901  -6.193  1.00  0.00     0.000 C 
ENDROOT
BRANCH   1   2
ATOM      2  C   UNL     1       8.333 -12.015  -5.238  1.00  0.00     0.000 C 
BRANCH   2   3
ATOM      3  C   UNL     1       9.034 -11.645  -3.919  1.00  0.00     0.000 C 
BRANCH   3   4
ATOM      4  C   UNL     1       8.160 -11.913  -2.684  1.00  0.00     0.000 C 
BRANCH   4   5
ATOM      5  C   UNL     1       8.830 -12.923  -1.747  1.00  0.00     0.000 C 
BRANCH   5   6
ATOM      6  C   UNL     1       7.827 -13.989  -1.278  1.00  0.00     0.006 C 
BRANCH   6   7
ATOM      7  C   UNL     1       8.323 -14.747  -0.040  1.00  0.00     0.053 C 
BRANCH   7   8
ATOM      8  C   UNL     1       8.368 -13.866   1.171  1.00  0.00     0.041 C 
ATOM      9  O   UNL     1       9.466 -13.402   1.576  1.00  0.00    -0.550 OA
ATOM     10  O   UNL     1       7.194 -13.530   1.832  1.00  0.00    -0.550 OA
ENDBRANCH   7   8
ENDBRANCH   6   7
ENDBRANCH   5   6
ENDBRANCH   4   5
ENDBRANCH   3   4
ENDBRANCH   2   3
ENDBRANCH   1   2
BRANCH   1  11
ATOM     11  C   UNL     1       9.947 -12.144  -7.277  1.00  0.00     0.000 C 
BRANCH  11  12
ATOM     12  C   UNL     1      11.470 -12.251  -7.094  1.00  0.00    -0.000 C 
BRANCH  12  13
ATOM     13  C   UNL     1      12.016 -11.274  -6.036  1.00  0.00    -0.000 C 
BRANCH  13  14
ATOM     14  C   UNL     1      13.057 -11.868  -5.065  1.00  0.00    -0.000 C 
BRANCH  14  15
ATOM     15  C   UNL     1      12.471 -12.690  -3.904  1.00  0.00    -0.000 C 
BRANCH  15  16
ATOM     16  C   UNL     1      12.279 -14.174  -4.264  1.00  0.00    -0.000 C 
BRANCH  16  17
ATOM     17  C   UNL     1      11.279 -14.878  -3.334  1.00  0.00    -0.003 C 
ATOM     18  C   UNL     1      10.253 -15.715  -4.097  1.00  0.00     0.004 C 
ENDBRANCH  16  17
ENDBRANCH  15  16
ENDBRANCH  14  15
ENDBRANCH  13  14
ENDBRANCH  12  13
ENDBRANCH  11  12
ENDBRANCH   1  11
TORSDOF 14
ENDMDL
