MODEL 1
REMARK VINA RESULT:     7.068      0.000      0.000
REMARK INTER + INTRA:          11.790
REMARK INTER:                  12.852
REMARK INTRA:                  -1.062
REMARK UNBOUND:                -1.062
REMARK SMILES CCCCCCCCCCCCCCCC(=O)[O-]
REMARK SMILES IDX 9 1 10 2 11 3 12 4 13 5 14 6 15 7 16 8 17 9 18 10 8 11 7 12
REMARK SMILES IDX 6 13 5 14 4 15 3 16 2 17 1 18
REMARK H PARENT
REMARK Flexibility Score: inf
ROOT
ATOM      1  C   UNL     1      17.245 -19.135  24.535  1.00  0.00     0.000 C 
ENDROOT
BRANCH   1   2
ATOM      2  C   UNL     1      18.069 -18.533  25.683  1.00  0.00     0.000 C 
BRANCH   2   3
ATOM      3  C   UNL     1      18.759 -19.605  26.543  1.00  0.00     0.000 C 
BRANCH   3   4
ATOM      4  C   UNL     1      20.290 -19.480  26.530  1.00  0.00     0.000 C 
BRANCH   4   5
ATOM      5  C   UNL     1      20.951 -20.856  26.362  1.00  0.00     0.000 C 
BRANCH   5   6
ATOM      6  C   UNL     1      21.652 -21.017  25.005  1.00  0.00     0.006 C 
BRANCH   6   7
ATOM      7  C   UNL     1      23.181 -21.045  25.127  1.00  0.00     0.053 C 
BRANCH   7   8
ATOM      8  C   UNL     1      23.816 -20.931  23.778  1.00  0.00     0.041 C 
ATOM      9  O   UNL     1      23.709 -19.865  23.115  1.00  0.00    -0.550 OA
ATOM     10  O   UNL     1      24.481 -22.019  23.227  1.00  0.00    -0.550 OA
ENDBRANCH   7   8
ENDBRANCH   6   7
ENDBRANCH   5   6
ENDBRANCH   4   5
ENDBRANCH   3   4
ENDBRANCH   2   3
ENDBRANCH   1   2
BRANCH   1  11
ATOM     11  C   UNL     1      18.122 -19.372  23.297  1.00  0.00     0.000 C 
BRANCH  11  12
ATOM     12  C   UNL     1      17.451 -20.278  22.248  1.00  0.00    -0.000 C 
BRANCH  12  13
ATOM     13  C   UNL     1      16.493 -21.340  22.819  1.00  0.00    -0.000 C 
BRANCH  13  14
ATOM     14  C   UNL     1      16.417 -22.607  21.951  1.00  0.00    -0.000 C 
BRANCH  14  15
ATOM     15  C   UNL     1      17.805 -23.133  21.553  1.00  0.00    -0.000 C 
BRANCH  15  16
ATOM     16  C   UNL     1      17.736 -24.275  20.526  1.00  0.00    -0.000 C 
BRANCH  16  17
ATOM     17  C   UNL     1      18.614 -23.970  19.307  1.00  0.00    -0.003 C 
ATOM     18  C   UNL     1      18.592 -22.482  18.969  1.00  0.00     0.004 C 
ENDBRANCH  16  17
ENDBRANCH  15  16
ENDBRANCH  14  15
ENDBRANCH  13  14
ENDBRANCH  12  13
ENDBRANCH  11  12
ENDBRANCH   1  11
TORSDOF 14
ENDMDL
MODEL 2
REMARK VINA RESULT:     7.590      2.665      6.212
REMARK INTER + INTRA:          12.740
REMARK INTER:                  13.568
REMARK INTRA:                  -0.828
REMARK UNBOUND:                -1.062
REMARK SMILES CCCCCCCCCCCCCCCC(=O)[O-]
REMARK SMILES IDX 9 1 10 2 11 3 12 4 13 5 14 6 15 7 16 8 17 9 18 10 8 11 7 12
REMARK SMILES IDX 6 13 5 14 4 15 3 16 2 17 1 18
REMARK H PARENT
REMARK Flexibility Score: inf
ROOT
ATOM      1  C   UNL     1      17.692 -18.849  25.201  1.00  0.00     0.000 C 
ENDROOT
BRANCH   1   2
ATOM      2  C   UNL     1      18.058 -19.179  23.746  1.00  0.00     0.000 C 
BRANCH   2   3
ATOM      3  C   UNL     1      16.916 -19.877  22.989  1.00  0.00     0.000 C 
BRANCH   3   4
ATOM      4  C   UNL     1      17.381 -21.141  22.251  1.00  0.00     0.000 C 
BRANCH   4   5
ATOM      5  C   UNL     1      16.298 -22.230  22.295  1.00  0.00     0.000 C 
BRANCH   5   6
ATOM      6  C   UNL     1      16.693 -23.492  21.514  1.00  0.00     0.006 C 
BRANCH   6   7
ATOM      7  C   UNL     1      18.170 -23.491  21.095  1.00  0.00     0.053 C 
BRANCH   7   8
ATOM      8  C   UNL     1      18.290 -23.426  19.606  1.00  0.00     0.041 C 
ATOM      9  O   UNL     1      18.238 -24.480  18.919  1.00  0.00    -0.550 OA
ATOM     10  O   UNL     1      18.512 -22.206  18.978  1.00  0.00    -0.550 OA
ENDBRANCH   7   8
ENDBRANCH   6   7
ENDBRANCH   5   6
ENDBRANCH   4   5
ENDBRANCH   3   4
ENDBRANCH   2   3
ENDBRANCH   1   2
BRANCH   1  11
ATOM     11  C   UNL     1      18.954 -18.598  26.040  1.00  0.00     0.000 C 
BRANCH  11  12
ATOM     12  C   UNL     1      19.636 -19.898  26.505  1.00  0.00    -0.000 C 
BRANCH  12  13
ATOM     13  C   UNL     1      21.172 -19.839  26.581  1.00  0.00    -0.000 C 
BRANCH  13  14
ATOM     14  C   UNL     1      21.850 -21.082  25.980  1.00  0.00    -0.000 C 
BRANCH  14  15
ATOM     15  C   UNL     1      22.100 -20.945  24.469  1.00  0.00    -0.000 C 
BRANCH  15  16
ATOM     16  C   UNL     1      23.556 -20.578  24.140  1.00  0.00    -0.000 C 
BRANCH  16  17
ATOM     17  C   UNL     1      24.259 -21.728  23.410  1.00  0.00    -0.003 C 
ATOM     18  C   UNL     1      25.208 -22.475  24.342  1.00  0.00     0.004 C 
ENDBRANCH  16  17
ENDBRANCH  15  16
ENDBRANCH  14  15
ENDBRANCH  13  14
ENDBRANCH  12  13
ENDBRANCH  11  12
ENDBRANCH   1  11
TORSDOF 14
ENDMDL
MODEL 3
REMARK VINA RESULT:     7.823      2.816      6.466
REMARK INTER + INTRA:          13.163
REMARK INTER:                  13.595
REMARK INTRA:                  -0.432
REMARK UNBOUND:                -1.062
REMARK SMILES CCCCCCCCCCCCCCCC(=O)[O-]
REMARK SMILES IDX 9 1 10 2 11 3 12 4 13 5 14 6 15 7 16 8 17 9 18 10 8 11 7 12
REMARK SMILES IDX 6 13 5 14 4 15 3 16 2 17 1 18
REMARK H PARENT
REMARK Flexibility Score: inf
ROOT
ATOM      1  C   UNL     1      18.641 -18.639  25.608  1.00  0.00     0.000 C 
ENDROOT
BRANCH   1   2
ATOM      2  C   UNL     1      17.355 -19.105  24.910  1.00  0.00     0.000 C 
BRANCH   2   3
ATOM      3  C   UNL     1      17.563 -19.394  23.414  1.00  0.00     0.000 C 
BRANCH   3   4
ATOM      4  C   UNL     1      16.754 -20.606  22.927  1.00  0.00     0.000 C 
BRANCH   4   5
ATOM      5  C   UNL     1      17.600 -21.494  22.003  1.00  0.00     0.000 C 
BRANCH   5   6
ATOM      6  C   UNL     1      16.923 -22.836  21.686  1.00  0.00     0.006 C 
BRANCH   6   7
ATOM      7  C   UNL     1      17.909 -23.888  21.159  1.00  0.00     0.053 C 
BRANCH   7   8
ATOM      8  C   UNL     1      18.198 -23.654  19.711  1.00  0.00     0.041 C 
ATOM      9  O   UNL     1      18.611 -22.530  19.321  1.00  0.00    -0.550 OA
ATOM     10  O   UNL     1      17.962 -24.660  18.783  1.00  0.00    -0.550 OA
ENDBRANCH   7   8
ENDBRANCH   6   7
ENDBRANCH   5   6
ENDBRANCH   4   5
ENDBRANCH   3   4
ENDBRANCH   2   3
ENDBRANCH   1   2
BRANCH   1  11
ATOM     11  C   UNL     1      19.331 -19.811  26.323  1.00  0.00     0.000 C 
BRANCH  11  12
ATOM     12  C   UNL     1      20.867 -19.708  26.302  1.00  0.00    -0.000 C 
BRANCH  12  13
ATOM     13  C   UNL     1      21.607 -21.020  25.982  1.00  0.00    -0.000 C 
BRANCH  13  14
ATOM     14  C   UNL     1      22.050 -21.114  24.512  1.00  0.00    -0.000 C 
BRANCH  14  15
ATOM     15  C   UNL     1      23.458 -20.541  24.283  1.00  0.00    -0.000 C 
BRANCH  15  16
ATOM     16  C   UNL     1      24.537 -21.632  24.198  1.00  0.00    -0.000 C 
BRANCH  16  17
ATOM     17  C   UNL     1      25.243 -21.810  25.547  1.00  0.00    -0.003 C 
ATOM     18  C   UNL     1      26.315 -22.893  25.471  1.00  0.00     0.004 C 
ENDBRANCH  16  17
ENDBRANCH  15  16
ENDBRANCH  14  15
ENDBRANCH  13  14
ENDBRANCH  12  13
ENDBRANCH  11  12
ENDBRANCH   1  11
TORSDOF 14
ENDMDL
MODEL 4
REMARK VINA RESULT:     9.829      1.569      2.392
REMARK INTER + INTRA:          16.812
REMARK INTER:                  17.021
REMARK INTRA:                  -0.209
REMARK UNBOUND:                -1.062
REMARK SMILES CCCCCCCCCCCCCCCC(=O)[O-]
REMARK SMILES IDX 9 1 10 2 11 3 12 4 13 5 14 6 15 7 16 8 17 9 18 10 8 11 7 12
REMARK SMILES IDX 6 13 5 14 4 15 3 16 2 17 1 18
REMARK H PARENT
REMARK Flexibility Score: inf
ROOT
ATOM      1  C   UNL     1      18.670 -19.435  25.910  1.00  0.00     0.000 C 
ENDROOT
BRANCH   1   2
ATOM      2  C   UNL     1      19.785 -20.356  25.391  1.00  0.00     0.000 C 
BRANCH   2   3
ATOM      3  C   UNL     1      20.974 -20.453  26.361  1.00  0.00     0.000 C 
BRANCH   3   4
ATOM      4  C   UNL     1      22.313 -20.108  25.692  1.00  0.00     0.000 C 
BRANCH   4   5
ATOM      5  C   UNL     1      22.586 -21.041  24.501  1.00  0.00     0.000 C 
BRANCH   5   6
ATOM      6  C   UNL     1      24.056 -21.016  24.054  1.00  0.00     0.006 C 
BRANCH   6   7
ATOM      7  C   UNL     1      24.806 -22.305  24.415  1.00  0.00     0.053 C 
BRANCH   7   8
ATOM      8  C   UNL     1      25.300 -22.244  25.826  1.00  0.00     0.041 C 
ATOM      9  O   UNL     1      26.524 -22.404  26.075  1.00  0.00    -0.550 OA
ATOM     10  O   UNL     1      24.403 -22.060  26.870  1.00  0.00    -0.550 OA
ENDBRANCH   7   8
ENDBRANCH   6   7
ENDBRANCH   5   6
ENDBRANCH   4   5
ENDBRANCH   3   4
ENDBRANCH   2   3
ENDBRANCH   1   2
BRANCH   1  11
ATOM     11  C   UNL     1      18.065 -18.609  24.764  1.00  0.00     0.000 C 
BRANCH  11  12
ATOM     12  C   UNL     1      17.061 -19.407  23.913  1.00  0.00    -0.000 C 
BRANCH  12  13
ATOM     13  C   UNL     1      17.690 -20.332  22.855  1.00  0.00    -0.000 C 
BRANCH  13  14
ATOM     14  C   UNL     1      16.645 -20.999  21.944  1.00  0.00    -0.000 C 
BRANCH  14  15
ATOM     15  C   UNL     1      16.554 -22.518  22.164  1.00  0.00    -0.000 C 
BRANCH  15  16
ATOM     16  C   UNL     1      17.866 -23.246  21.834  1.00  0.00    -0.000 C 
BRANCH  16  17
ATOM     17  C   UNL     1      17.754 -24.000  20.505  1.00  0.00    -0.003 C 
ATOM     18  C   UNL     1      18.552 -23.305  19.406  1.00  0.00     0.004 C 
ENDBRANCH  16  17
ENDBRANCH  15  16
ENDBRANCH  14  15
ENDBRANCH  13  14
ENDBRANCH  12  13
ENDBRANCH  11  12
ENDBRANCH   1  11
TORSDOF 14
ENDMDL
MODEL 5
REMARK VINA RESULT:     9.853      9.862     12.748
REMARK INTER + INTRA:          16.855
REMARK INTER:                  18.236
REMARK INTRA:                  -1.382
REMARK UNBOUND:                -1.062
REMARK SMILES CCCCCCCCCCCCCCCC(=O)[O-]
REMARK SMILES IDX 9 1 10 2 11 3 12 4 13 5 14 6 15 7 16 8 17 9 18 10 8 11 7 12
REMARK SMILES IDX 6 13 5 14 4 15 3 16 2 17 1 18
REMARK H PARENT
REMARK Flexibility Score: inf
ROOT
ATOM      1  C   UNL     1      28.330 -16.561  18.490  1.00  0.00     0.000 C 
ENDROOT
BRANCH   1   2
ATOM      2  C   UNL     1      28.117 -17.960  17.892  1.00  0.00     0.000 C 
BRANCH   2   3
ATOM      3  C   UNL     1      26.635 -18.274  17.628  1.00  0.00     0.000 C 
BRANCH   3   4
ATOM      4  C   UNL     1      26.393 -18.849  16.225  1.00  0.00     0.000 C 
BRANCH   4   5
ATOM      5  C   UNL     1      24.945 -19.339  16.076  1.00  0.00     0.000 C 
BRANCH   5   6
ATOM      6  C   UNL     1      24.828 -20.581  15.179  1.00  0.00     0.006 C 
BRANCH   6   7
ATOM      7  C   UNL     1      25.882 -21.648  15.505  1.00  0.00     0.053 C 
BRANCH   7   8
ATOM      8  C   UNL     1      25.420 -22.995  15.049  1.00  0.00     0.041 C 
ATOM      9  O   UNL     1      24.193 -23.277  15.047  1.00  0.00    -0.550 OA
ATOM     10  O   UNL     1      26.348 -23.959  14.673  1.00  0.00    -0.550 OA
ENDBRANCH   7   8
ENDBRANCH   6   7
ENDBRANCH   5   6
ENDBRANCH   4   5
ENDBRANCH   3   4
ENDBRANCH   2   3
ENDBRANCH   1   2
BRANCH   1  11
ATOM     11  C   UNL     1      29.349 -15.762  17.663  1.00  0.00     0.000 C 
BRANCH  11  12
ATOM     12  C   UNL     1      28.747 -14.494  17.029  1.00  0.00    -0.000 C 
BRANCH  12  13
ATOM     13  C   UNL     1      28.585 -14.542  15.499  1.00  0.00    -0.000 C 
BRANCH  13  14
ATOM     14  C   UNL     1      27.675 -15.690  15.029  1.00  0.00    -0.000 C 
BRANCH  14  15
ATOM     15  C   UNL     1      28.354 -16.590  13.984  1.00  0.00    -0.000 C 
BRANCH  15  16
ATOM     16  C   UNL     1      29.887 -16.557  14.077  1.00  0.00    -0.000 C 
BRANCH  16  17
ATOM     17  C   UNL     1      30.508 -17.736  13.319  1.00  0.00    -0.003 C 
ATOM     18  C   UNL     1      32.031 -17.708  13.407  1.00  0.00     0.004 C 
ENDBRANCH  16  17
ENDBRANCH  15  16
ENDBRANCH  14  15
ENDBRANCH  13  14
ENDBRANCH  12  13
ENDBRANCH  11  12
ENDBRANCH   1  11
TORSDOF 14
ENDMDL
MODEL 6
REMARK VINA RESULT:    10.064     10.009     12.045
REMARK INTER + INTRA:          17.239
REMARK INTER:                  18.122
REMARK INTRA:                  -0.883
REMARK UNBOUND:                -1.062
REMARK SMILES CCCCCCCCCCCCCCCC(=O)[O-]
REMARK SMILES IDX 9 1 10 2 11 3 12 4 13 5 14 6 15 7 16 8 17 9 18 10 8 11 7 12
REMARK SMILES IDX 6 13 5 14 4 15 3 16 2 17 1 18
REMARK H PARENT
REMARK Flexibility Score: inf
ROOT
ATOM      1  C   UNL     1      27.493 -17.810  13.324  1.00  0.00     0.000 C 
ENDROOT
BRANCH   1   2
ATOM      2  C   UNL     1      28.955 -17.343  13.274  1.00  0.00     0.000 C 
BRANCH   2   3
ATOM      3  C   UNL     1      29.186 -16.033  14.045  1.00  0.00     0.000 C 
BRANCH   3   4
ATOM      4  C   UNL     1      28.091 -15.759  15.088  1.00  0.00     0.000 C 
BRANCH   4   5
ATOM      5  C   UNL     1      28.333 -14.417  15.796  1.00  0.00     0.000 C 
BRANCH   5   6
ATOM      6  C   UNL     1      29.024 -14.582  17.159  1.00  0.00     0.006 C 
BRANCH   6   7
ATOM      7  C   UNL     1      29.421 -16.036  17.450  1.00  0.00     0.053 C 
BRANCH   7   8
ATOM      8  C   UNL     1      28.555 -16.608  18.526  1.00  0.00     0.041 C 
ATOM      9  O   UNL     1      28.216 -17.820  18.489  1.00  0.00    -0.550 OA
ATOM     10  O   UNL     1      28.079 -15.791  19.545  1.00  0.00    -0.550 OA
ENDBRANCH   7   8
ENDBRANCH   6   7
ENDBRANCH   5   6
ENDBRANCH   4   5
ENDBRANCH   3   4
ENDBRANCH   2   3
ENDBRANCH   1   2
BRANCH   1  11
ATOM     11  C   UNL     1      27.379 -19.294  12.941  1.00  0.00     0.000 C 
BRANCH  11  12
ATOM     12  C   UNL     1      26.084 -19.950  13.456  1.00  0.00    -0.000 C 
BRANCH  12  13
ATOM     13  C   UNL     1      25.654 -19.525  14.872  1.00  0.00    -0.000 C 
BRANCH  13  14
ATOM     14  C   UNL     1      24.963 -20.656  15.652  1.00  0.00    -0.000 C 
BRANCH  14  15
ATOM     15  C   UNL     1      25.702 -21.998  15.526  1.00  0.00    -0.000 C 
BRANCH  15  16
ATOM     16  C   UNL     1      24.761 -23.166  15.196  1.00  0.00    -0.000 C 
BRANCH  16  17
ATOM     17  C   UNL     1      25.551 -24.385  14.706  1.00  0.00    -0.003 C 
ATOM     18  C   UNL     1      27.002 -24.020  14.409  1.00  0.00     0.004 C 
ENDBRANCH  16  17
ENDBRANCH  15  16
ENDBRANCH  14  15
ENDBRANCH  13  14
ENDBRANCH  12  13
ENDBRANCH  11  12
ENDBRANCH   1  11
TORSDOF 14
ENDMDL
