MODEL 1
REMARK VINA RESULT:    -6.483      0.000      0.000
REMARK INTER + INTRA:          -8.042
REMARK INTER:                  -7.809
REMARK INTRA:                  -0.233
REMARK UNBOUND:                -0.233
REMARK SMILES O=c1c(O)c(-c2ccc(O)c(O)c2)oc2cc(O)cc(O)c12
REMARK SMILES IDX 5 1 3 2 2 3 1 4 22 5 20 6 19 7 17 8 16 9 15 10 14 11 6 12
REMARK SMILES IDX 7 13 8 14 9 15 13 16 11 17 10 18 12 20 4 22 21 24 18 26
REMARK H PARENT 10 19 12 21 4 23 21 25 18 27
REMARK Flexibility Score: inf
ROOT
ATOM      1  C   UNL     1     132.390 145.827 125.460  1.00  0.00     0.180 A 
ATOM      2  C   UNL     1     133.331 146.826 125.158  1.00  0.00     0.208 A 
ATOM      3  C   UNL     1     134.088 147.385 126.200  1.00  0.00     0.238 A 
ATOM      4  O   UNL     1     134.890 148.318 125.931  1.00  0.00    -0.285 OA
ATOM      5  C   UNL     1     133.908 146.927 127.526  1.00  0.00     0.111 A 
ATOM      6  C   UNL     1     134.649 147.394 128.654  1.00  0.00     0.134 A 
ATOM      7  C   UNL     1     134.297 146.965 129.939  1.00  0.00     0.093 A 
ATOM      8  C   UNL     1     133.271 146.035 130.131  1.00  0.00     0.123 A 
ATOM      9  C   UNL     1     132.582 145.529 129.033  1.00  0.00     0.094 A 
ATOM     10  C   UNL     1     132.887 145.966 127.741  1.00  0.00     0.146 A 
ATOM     11  O   UNL     1     132.197 145.465 126.723  1.00  0.00    -0.452 OA
ENDROOT
BRANCH   1  12
ATOM     12  C   UNL     1     131.572 145.173 124.413  1.00  0.00     0.025 A 
ATOM     13  C   UNL     1     131.792 143.835 124.041  1.00  0.00     0.016 A 
ATOM     14  C   UNL     1     130.991 143.232 123.068  1.00  0.00     0.051 A 
ATOM     15  C   UNL     1     129.952 143.949 122.462  1.00  0.00     0.157 A 
ATOM     16  C   UNL     1     130.515 145.882 123.818  1.00  0.00     0.062 A 
ATOM     17  C   UNL     1     129.712 145.281 122.842  1.00  0.00     0.158 A 
BRANCH  15  18
ATOM     18  O   UNL     1     129.156 143.345 121.491  1.00  0.00    -0.504 OA
ATOM     19  H   UNL     1     129.312 143.505 120.502  1.00  0.00     0.293 HD
ENDBRANCH  15  18
BRANCH  17  20
ATOM     20  O   UNL     1     128.681 146.021 122.264  1.00  0.00    -0.504 OA
ATOM     21  H   UNL     1     128.139 146.694 122.793  1.00  0.00     0.293 HD
ENDBRANCH  17  20
ENDBRANCH   1  12
BRANCH   2  22
ATOM     22  O   UNL     1     133.478 147.280 123.845  1.00  0.00    -0.502 OA
ATOM     23  H   UNL     1     134.152 147.990 123.586  1.00  0.00     0.293 HD
ENDBRANCH   2  22
BRANCH   6  24
ATOM     24  O   UNL     1     135.750 148.252 128.563  1.00  0.00    -0.507 OA
ATOM     25  H   UNL     1     136.605 148.145 129.087  1.00  0.00     0.293 HD
ENDBRANCH   6  24
BRANCH   8  26
ATOM     26  O   UNL     1     132.937 145.601 131.413  1.00  0.00    -0.508 OA
ATOM     27  H   UNL     1     132.727 146.257 132.156  1.00  0.00     0.293 HD
ENDBRANCH   8  26
TORSDOF 6
ENDMDL
MODEL 2
REMARK VINA RESULT:    -6.428      2.313      6.901
REMARK INTER + INTRA:          -7.976
REMARK INTER:                  -7.647
REMARK INTRA:                  -0.329
REMARK UNBOUND:                -0.233
REMARK SMILES O=c1c(O)c(-c2ccc(O)c(O)c2)oc2cc(O)cc(O)c12
REMARK SMILES IDX 5 1 3 2 2 3 1 4 22 5 20 6 19 7 17 8 16 9 15 10 14 11 6 12
REMARK SMILES IDX 7 13 8 14 9 15 13 16 11 17 10 18 12 20 4 22 21 24 18 26
REMARK H PARENT 10 19 12 21 4 23 21 25 18 27
REMARK Flexibility Score: inf
ROOT
ATOM      1  C   UNL     1     130.581 145.645 126.519  1.00  0.00     0.180 A 
ATOM      2  C   UNL     1     131.330 146.481 125.672  1.00  0.00     0.208 A 
ATOM      3  C   UNL     1     131.376 146.193 124.299  1.00  0.00     0.238 A 
ATOM      4  O   UNL     1     132.093 146.912 123.555  1.00  0.00    -0.285 OA
ATOM      5  C   UNL     1     130.660 145.085 123.786  1.00  0.00     0.111 A 
ATOM      6  C   UNL     1     130.604 144.724 122.407  1.00  0.00     0.134 A 
ATOM      7  C   UNL     1     129.973 143.533 122.029  1.00  0.00     0.093 A 
ATOM      8  C   UNL     1     129.339 142.723 122.974  1.00  0.00     0.123 A 
ATOM      9  C   UNL     1     129.337 143.097 124.315  1.00  0.00     0.094 A 
ATOM     10  C   UNL     1     129.991 144.262 124.728  1.00  0.00     0.146 A 
ATOM     11  O   UNL     1     129.973 144.576 126.018  1.00  0.00    -0.452 OA
ENDROOT
BRANCH   1  12
ATOM     12  C   UNL     1     130.464 145.897 127.973  1.00  0.00     0.025 A 
ATOM     13  C   UNL     1     129.416 146.673 128.500  1.00  0.00     0.016 A 
ATOM     14  C   UNL     1     129.312 146.878 129.878  1.00  0.00     0.051 A 
ATOM     15  C   UNL     1     130.243 146.300 130.751  1.00  0.00     0.157 A 
ATOM     16  C   UNL     1     131.382 145.303 128.854  1.00  0.00     0.062 A 
ATOM     17  C   UNL     1     131.282 145.507 130.235  1.00  0.00     0.158 A 
BRANCH  15  18
ATOM     18  O   UNL     1     130.138 146.507 132.125  1.00  0.00    -0.504 OA
ATOM     19  H   UNL     1     129.551 147.239 132.508  1.00  0.00     0.293 HD
ENDBRANCH  15  18
BRANCH  17  20
ATOM     20  O   UNL     1     132.221 144.912 131.078  1.00  0.00    -0.504 OA
ATOM     21  H   UNL     1     132.278 145.136 132.064  1.00  0.00     0.293 HD
ENDBRANCH  17  20
ENDBRANCH   1  12
BRANCH   2  22
ATOM     22  O   UNL     1     132.047 147.556 126.202  1.00  0.00    -0.502 OA
ATOM     23  H   UNL     1     133.056 147.551 126.283  1.00  0.00     0.293 HD
ENDBRANCH   2  22
BRANCH   6  24
ATOM     24  O   UNL     1     131.125 145.510 121.372  1.00  0.00    -0.507 OA
ATOM     25  H   UNL     1     131.521 145.146 120.519  1.00  0.00     0.293 HD
ENDBRANCH   6  24
BRANCH   8  26
ATOM     26  O   UNL     1     128.699 141.547 122.588  1.00  0.00    -0.508 OA
ATOM     27  H   UNL     1     127.800 141.282 122.973  1.00  0.00     0.293 HD
ENDBRANCH   8  26
TORSDOF 6
ENDMDL
MODEL 3
REMARK VINA RESULT:    -6.298      6.042     10.181
REMARK INTER + INTRA:          -7.820
REMARK INTER:                  -7.499
REMARK INTRA:                  -0.321
REMARK UNBOUND:                -0.233
REMARK SMILES O=c1c(O)c(-c2ccc(O)c(O)c2)oc2cc(O)cc(O)c12
REMARK SMILES IDX 5 1 3 2 2 3 1 4 22 5 20 6 19 7 17 8 16 9 15 10 14 11 6 12
REMARK SMILES IDX 7 13 8 14 9 15 13 16 11 17 10 18 12 20 4 22 21 24 18 26
REMARK H PARENT 10 19 12 21 4 23 21 25 18 27
REMARK Flexibility Score: inf
ROOT
ATOM      1  C   UNL     1     140.185 146.931 129.215  1.00  0.00     0.180 A 
ATOM      2  C   UNL     1     140.228 147.410 127.894  1.00  0.00     0.208 A 
ATOM      3  C   UNL     1     139.043 147.867 127.297  1.00  0.00     0.238 A 
ATOM      4  O   UNL     1     139.077 148.243 126.096  1.00  0.00    -0.285 OA
ATOM      5  C   UNL     1     137.834 147.858 128.032  1.00  0.00     0.111 A 
ATOM      6  C   UNL     1     136.582 148.335 127.541  1.00  0.00     0.134 A 
ATOM      7  C   UNL     1     135.424 148.156 128.308  1.00  0.00     0.093 A 
ATOM      8  C   UNL     1     135.484 147.575 129.577  1.00  0.00     0.123 A 
ATOM      9  C   UNL     1     136.711 147.160 130.090  1.00  0.00     0.094 A 
ATOM     10  C   UNL     1     137.877 147.292 129.333  1.00  0.00     0.146 A 
ATOM     11  O   UNL     1     139.024 146.873 129.856  1.00  0.00    -0.452 OA
ENDROOT
BRANCH   1  12
ATOM     12  C   UNL     1     141.397 146.455 129.920  1.00  0.00     0.025 A 
ATOM     13  C   UNL     1     141.831 145.121 129.812  1.00  0.00     0.016 A 
ATOM     14  C   UNL     1     142.991 144.701 130.467  1.00  0.00     0.051 A 
ATOM     15  C   UNL     1     143.742 145.607 131.227  1.00  0.00     0.157 A 
ATOM     16  C   UNL     1     142.166 147.364 130.666  1.00  0.00     0.062 A 
ATOM     17  C   UNL     1     143.328 146.946 131.324  1.00  0.00     0.158 A 
BRANCH  15  18
ATOM     18  O   UNL     1     144.898 145.184 131.880  1.00  0.00    -0.504 OA
ATOM     19  H   UNL     1     145.767 145.035 131.380  1.00  0.00     0.293 HD
ENDBRANCH  15  18
BRANCH  17  20
ATOM     20  O   UNL     1     144.057 147.874 132.067  1.00  0.00    -0.504 OA
ATOM     21  H   UNL     1     143.910 148.873 131.974  1.00  0.00     0.293 HD
ENDBRANCH  17  20
ENDBRANCH   1  12
BRANCH   2  22
ATOM     22  O   UNL     1     141.428 147.391 127.178  1.00  0.00    -0.502 OA
ATOM     23  H   UNL     1     141.476 147.602 126.189  1.00  0.00     0.293 HD
ENDBRANCH   2  22
BRANCH   6  24
ATOM     24  O   UNL     1     136.427 149.013 126.327  1.00  0.00    -0.507 OA
ATOM     25  H   UNL     1     135.941 148.646 125.523  1.00  0.00     0.293 HD
ENDBRANCH   6  24
BRANCH   8  26
ATOM     26  O   UNL     1     134.330 147.414 130.341  1.00  0.00    -0.508 OA
ATOM     27  H   UNL     1     133.481 147.928 130.132  1.00  0.00     0.293 HD
ENDBRANCH   8  26
TORSDOF 6
ENDMDL
MODEL 4
REMARK VINA RESULT:    -6.223      9.210     10.404
REMARK INTER + INTRA:          -7.729
REMARK INTER:                  -7.398
REMARK INTRA:                  -0.331
REMARK UNBOUND:                -0.233
REMARK SMILES O=c1c(O)c(-c2ccc(O)c(O)c2)oc2cc(O)cc(O)c12
REMARK SMILES IDX 5 1 3 2 2 3 1 4 22 5 20 6 19 7 17 8 16 9 15 10 14 11 6 12
REMARK SMILES IDX 7 13 8 14 9 15 13 16 11 17 10 18 12 20 4 22 21 24 18 26
REMARK H PARENT 10 19 12 21 4 23 21 25 18 27
REMARK Flexibility Score: inf
ROOT
ATOM      1  C   UNL     1     137.842 138.671 123.785  1.00  0.00     0.180 A 
ATOM      2  C   UNL     1     138.082 139.221 125.056  1.00  0.00     0.208 A 
ATOM      3  C   UNL     1     138.204 138.361 126.159  1.00  0.00     0.238 A 
ATOM      4  O   UNL     1     138.364 138.863 127.302  1.00  0.00    -0.285 OA
ATOM      5  C   UNL     1     138.102 136.962 125.976  1.00  0.00     0.111 A 
ATOM      6  C   UNL     1     138.249 135.995 127.016  1.00  0.00     0.134 A 
ATOM      7  C   UNL     1     137.998 134.645 126.745  1.00  0.00     0.093 A 
ATOM      8  C   UNL     1     137.668 134.218 125.455  1.00  0.00     0.123 A 
ATOM      9  C   UNL     1     137.580 135.147 124.422  1.00  0.00     0.094 A 
ATOM     10  C   UNL     1     137.789 136.506 124.669  1.00  0.00     0.146 A 
ATOM     11  O   UNL     1     137.685 137.359 123.656  1.00  0.00    -0.452 OA
ENDROOT
BRANCH   1  12
ATOM     12  C   UNL     1     137.725 139.511 122.572  1.00  0.00     0.025 A 
ATOM     13  C   UNL     1     138.861 139.901 121.840  1.00  0.00     0.016 A 
ATOM     14  C   UNL     1     138.725 140.674 120.684  1.00  0.00     0.051 A 
ATOM     15  C   UNL     1     137.455 141.056 120.234  1.00  0.00     0.157 A 
ATOM     16  C   UNL     1     136.453 139.878 122.104  1.00  0.00     0.062 A 
ATOM     17  C   UNL     1     136.313 140.653 120.947  1.00  0.00     0.158 A 
BRANCH  15  18
ATOM     18  O   UNL     1     137.322 141.828 119.081  1.00  0.00    -0.504 OA
ATOM     19  H   UNL     1     137.214 142.834 119.126  1.00  0.00     0.293 HD
ENDBRANCH  15  18
BRANCH  17  20
ATOM     20  O   UNL     1     135.034 141.011 120.522  1.00  0.00    -0.504 OA
ATOM     21  H   UNL     1     134.581 141.862 120.834  1.00  0.00     0.293 HD
ENDBRANCH  17  20
ENDBRANCH   1  12
BRANCH   2  22
ATOM     22  O   UNL     1     138.158 140.607 125.218  1.00  0.00    -0.502 OA
ATOM     23  H   UNL     1     137.426 141.233 124.905  1.00  0.00     0.293 HD
ENDBRANCH   2  22
BRANCH   6  24
ATOM     24  O   UNL     1     138.664 136.304 128.315  1.00  0.00    -0.507 OA
ATOM     25  H   UNL     1     139.613 136.226 128.648  1.00  0.00     0.293 HD
ENDBRANCH   6  24
BRANCH   8  26
ATOM     26  O   UNL     1     137.435 132.870 125.191  1.00  0.00    -0.508 OA
ATOM     27  H   UNL     1     138.093 132.153 125.475  1.00  0.00     0.293 HD
ENDBRANCH   8  26
TORSDOF 6
ENDMDL
MODEL 5
REMARK VINA RESULT:    -6.207      8.756     10.721
REMARK INTER + INTRA:          -7.709
REMARK INTER:                  -7.391
REMARK INTRA:                  -0.318
REMARK UNBOUND:                -0.233
REMARK SMILES O=c1c(O)c(-c2ccc(O)c(O)c2)oc2cc(O)cc(O)c12
REMARK SMILES IDX 5 1 3 2 2 3 1 4 22 5 20 6 19 7 17 8 16 9 15 10 14 11 6 12
REMARK SMILES IDX 7 13 8 14 9 15 13 16 11 17 10 18 12 20 4 22 21 24 18 26
REMARK H PARENT 10 19 12 21 4 23 21 25 18 27
REMARK Flexibility Score: inf
ROOT
ATOM      1  C   UNL     1     138.383 139.966 122.087  1.00  0.00     0.180 A 
ATOM      2  C   UNL     1     138.398 141.108 122.908  1.00  0.00     0.208 A 
ATOM      3  C   UNL     1     138.405 142.377 122.308  1.00  0.00     0.238 A 
ATOM      4  O   UNL     1     138.475 143.394 123.047  1.00  0.00    -0.285 OA
ATOM      5  C   UNL     1     138.380 142.490 120.898  1.00  0.00     0.111 A 
ATOM      6  C   UNL     1     138.344 143.726 120.184  1.00  0.00     0.134 A 
ATOM      7  C   UNL     1     138.453 143.722 118.788  1.00  0.00     0.093 A 
ATOM      8  C   UNL     1     138.531 142.522 118.076  1.00  0.00     0.123 A 
ATOM      9  C   UNL     1     138.507 141.309 118.760  1.00  0.00     0.094 A 
ATOM     10  C   UNL     1     138.436 141.283 120.155  1.00  0.00     0.146 A 
ATOM     11  O   UNL     1     138.425 140.105 120.768  1.00  0.00    -0.452 OA
ENDROOT
BRANCH   1  12
ATOM     12  C   UNL     1     138.350 138.595 122.645  1.00  0.00     0.025 A 
ATOM     13  C   UNL     1     139.531 137.927 123.016  1.00  0.00     0.016 A 
ATOM     14  C   UNL     1     139.473 136.643 123.563  1.00  0.00     0.051 A 
ATOM     15  C   UNL     1     138.238 136.013 123.762  1.00  0.00     0.157 A 
ATOM     16  C   UNL     1     137.113 137.968 122.867  1.00  0.00     0.062 A 
ATOM     17  C   UNL     1     137.051 136.681 123.414  1.00  0.00     0.158 A 
BRANCH  15  18
ATOM     18  O   UNL     1     138.183 134.731 124.307  1.00  0.00    -0.504 OA
ATOM     19  H   UNL     1     139.023 134.187 124.467  1.00  0.00     0.293 HD
ENDBRANCH  15  18
BRANCH  17  20
ATOM     20  O   UNL     1     135.805 136.085 123.605  1.00  0.00    -0.504 OA
ATOM     21  H   UNL     1     135.037 136.575 124.049  1.00  0.00     0.293 HD
ENDBRANCH  17  20
ENDBRANCH   1  12
BRANCH   2  22
ATOM     22  O   UNL     1     138.446 140.973 124.298  1.00  0.00    -0.502 OA
ATOM     23  H   UNL     1     137.652 140.657 124.841  1.00  0.00     0.293 HD
ENDBRANCH   2  22
BRANCH   6  24
ATOM     24  O   UNL     1     138.176 144.974 120.793  1.00  0.00    -0.507 OA
ATOM     25  H   UNL     1     138.923 145.530 121.179  1.00  0.00     0.293 HD
ENDBRANCH   6  24
BRANCH   8  26
ATOM     26  O   UNL     1     138.624 142.526 116.685  1.00  0.00    -0.508 OA
ATOM     27  H   UNL     1     139.202 141.856 116.191  1.00  0.00     0.293 HD
ENDBRANCH   8  26
TORSDOF 6
ENDMDL
MODEL 6
REMARK VINA RESULT:    -6.159      9.891     11.215
REMARK INTER + INTRA:          -7.651
REMARK INTER:                  -7.672
REMARK INTRA:                   0.020
REMARK UNBOUND:                -0.233
REMARK SMILES O=c1c(O)c(-c2ccc(O)c(O)c2)oc2cc(O)cc(O)c12
REMARK SMILES IDX 5 1 3 2 2 3 1 4 22 5 20 6 19 7 17 8 16 9 15 10 14 11 6 12
REMARK SMILES IDX 7 13 8 14 9 15 13 16 11 17 10 18 12 20 4 22 21 24 18 26
REMARK H PARENT 10 19 12 21 4 23 21 25 18 27
REMARK Flexibility Score: inf
ROOT
ATOM      1  C   UNL     1     138.630 139.446 121.972  1.00  0.00     0.180 A 
ATOM      2  C   UNL     1     139.611 140.124 122.716  1.00  0.00     0.208 A 
ATOM      3  C   UNL     1     140.225 141.257 122.160  1.00  0.00     0.238 A 
ATOM      4  O   UNL     1     141.141 141.827 122.808  1.00  0.00    -0.285 OA
ATOM      5  C   UNL     1     139.840 141.709 120.875  1.00  0.00     0.111 A 
ATOM      6  C   UNL     1     140.368 142.868 120.231  1.00  0.00     0.134 A 
ATOM      7  C   UNL     1     140.010 143.147 118.907  1.00  0.00     0.093 A 
ATOM      8  C   UNL     1     139.093 142.343 118.225  1.00  0.00     0.123 A 
ATOM      9  C   UNL     1     138.527 141.243 118.865  1.00  0.00     0.094 A 
ATOM     10  C   UNL     1     138.893 140.919 120.174  1.00  0.00     0.146 A 
ATOM     11  O   UNL     1     138.337 139.856 120.743  1.00  0.00    -0.452 OA
ENDROOT
BRANCH   1  12
ATOM     12  C   UNL     1     137.920 138.260 122.500  1.00  0.00     0.025 A 
ATOM     13  C   UNL     1     136.517 138.170 122.467  1.00  0.00     0.016 A 
ATOM     14  C   UNL     1     135.870 137.029 122.949  1.00  0.00     0.051 A 
ATOM     15  C   UNL     1     136.613 135.956 123.458  1.00  0.00     0.157 A 
ATOM     16  C   UNL     1     138.661 137.172 122.992  1.00  0.00     0.062 A 
ATOM     17  C   UNL     1     138.017 136.028 123.477  1.00  0.00     0.158 A 
BRANCH  15  18
ATOM     18  O   UNL     1     135.966 134.821 123.940  1.00  0.00    -0.504 OA
ATOM     19  H   UNL     1     136.483 134.014 124.269  1.00  0.00     0.293 HD
ENDBRANCH  15  18
BRANCH  17  20
ATOM     20  O   UNL     1     138.786 134.975 123.970  1.00  0.00    -0.504 OA
ATOM     21  H   UNL     1     138.884 134.100 123.470  1.00  0.00     0.293 HD
ENDBRANCH  17  20
ENDBRANCH   1  12
BRANCH   2  22
ATOM     22  O   UNL     1     139.991 139.649 123.974  1.00  0.00    -0.502 OA
ATOM     23  H   UNL     1     140.890 139.864 124.388  1.00  0.00     0.293 HD
ENDBRANCH   2  22
BRANCH   6  24
ATOM     24  O   UNL     1     141.219 143.788 120.854  1.00  0.00    -0.507 OA
ATOM     25  H   UNL     1     142.037 144.194 120.426  1.00  0.00     0.293 HD
ENDBRANCH   6  24
BRANCH   8  26
ATOM     26  O   UNL     1     138.730 142.636 116.911  1.00  0.00    -0.508 OA
ATOM     27  H   UNL     1     138.761 141.932 116.184  1.00  0.00     0.293 HD
ENDBRANCH   8  26
TORSDOF 6
ENDMDL
MODEL 7
REMARK VINA RESULT:    -6.125     11.677     13.385
REMARK INTER + INTRA:          -7.611
REMARK INTER:                  -7.370
REMARK INTRA:                  -0.241
REMARK UNBOUND:                -0.233
REMARK SMILES O=c1c(O)c(-c2ccc(O)c(O)c2)oc2cc(O)cc(O)c12
REMARK SMILES IDX 5 1 3 2 2 3 1 4 22 5 20 6 19 7 17 8 16 9 15 10 14 11 6 12
REMARK SMILES IDX 7 13 8 14 9 15 13 16 11 17 10 18 12 20 4 22 21 24 18 26
REMARK H PARENT 10 19 12 21 4 23 21 25 18 27
REMARK Flexibility Score: inf
ROOT
ATOM      1  C   UNL     1     133.239 133.874 125.782  1.00  0.00     0.180 A 
ATOM      2  C   UNL     1     132.193 133.542 124.904  1.00  0.00     0.208 A 
ATOM      3  C   UNL     1     130.929 133.241 125.433  1.00  0.00     0.238 A 
ATOM      4  O   UNL     1     130.011 132.891 124.645  1.00  0.00    -0.285 OA
ATOM      5  C   UNL     1     130.720 133.292 126.832  1.00  0.00     0.111 A 
ATOM      6  C   UNL     1     129.470 133.045 127.475  1.00  0.00     0.134 A 
ATOM      7  C   UNL     1     129.409 132.994 128.873  1.00  0.00     0.093 A 
ATOM      8  C   UNL     1     130.541 133.246 129.652  1.00  0.00     0.123 A 
ATOM      9  C   UNL     1     131.753 133.546 129.034  1.00  0.00     0.094 A 
ATOM     10  C   UNL     1     131.852 133.568 127.641  1.00  0.00     0.146 A 
ATOM     11  O   UNL     1     133.029 133.849 127.093  1.00  0.00    -0.452 OA
ENDROOT
BRANCH   1  12
ATOM     12  C   UNL     1     134.593 134.227 125.298  1.00  0.00     0.025 A 
ATOM     13  C   UNL     1     134.836 135.434 124.618  1.00  0.00     0.016 A 
ATOM     14  C   UNL     1     136.126 135.757 124.192  1.00  0.00     0.051 A 
ATOM     15  C   UNL     1     137.195 134.889 124.450  1.00  0.00     0.157 A 
ATOM     16  C   UNL     1     135.671 133.370 125.574  1.00  0.00     0.062 A 
ATOM     17  C   UNL     1     136.965 133.690 125.148  1.00  0.00     0.158 A 
BRANCH  15  18
ATOM     18  O   UNL     1     138.481 135.213 124.023  1.00  0.00    -0.504 OA
ATOM     19  H   UNL     1     138.970 136.025 124.380  1.00  0.00     0.293 HD
ENDBRANCH  15  18
BRANCH  17  20
ATOM     20  O   UNL     1     138.008 132.808 125.428  1.00  0.00    -0.504 OA
ATOM     21  H   UNL     1     138.612 132.440 124.701  1.00  0.00     0.293 HD
ENDBRANCH  17  20
ENDBRANCH   1  12
BRANCH   2  22
ATOM     22  O   UNL     1     132.426 133.477 123.527  1.00  0.00    -0.502 OA
ATOM     23  H   UNL     1     133.231 133.909 123.090  1.00  0.00     0.293 HD
ENDBRANCH   2  22
BRANCH   6  24
ATOM     24  O   UNL     1     128.261 132.872 126.792  1.00  0.00    -0.507 OA
ATOM     25  H   UNL     1     128.059 133.251 125.879  1.00  0.00     0.293 HD
ENDBRANCH   6  24
BRANCH   8  26
ATOM     26  O   UNL     1     130.469 133.209 131.043  1.00  0.00    -0.508 OA
ATOM     27  H   UNL     1     129.589 133.323 131.531  1.00  0.00     0.293 HD
ENDBRANCH   8  26
TORSDOF 6
ENDMDL
MODEL 8
REMARK VINA RESULT:    -6.092     11.147     13.000
REMARK INTER + INTRA:          -7.571
REMARK INTER:                  -7.265
REMARK INTRA:                  -0.306
REMARK UNBOUND:                -0.233
REMARK SMILES O=c1c(O)c(-c2ccc(O)c(O)c2)oc2cc(O)cc(O)c12
REMARK SMILES IDX 5 1 3 2 2 3 1 4 22 5 20 6 19 7 17 8 16 9 15 10 14 11 6 12
REMARK SMILES IDX 7 13 8 14 9 15 13 16 11 17 10 18 12 20 4 22 21 24 18 26
REMARK H PARENT 10 19 12 21 4 23 21 25 18 27
REMARK Flexibility Score: inf
ROOT
ATOM      1  C   UNL     1     132.833 133.875 126.396  1.00  0.00     0.180 A 
ATOM      2  C   UNL     1     132.668 135.031 125.613  1.00  0.00     0.208 A 
ATOM      3  C   UNL     1     133.779 135.558 124.936  1.00  0.00     0.238 A 
ATOM      4  O   UNL     1     133.637 136.624 124.282  1.00  0.00    -0.285 OA
ATOM      5  C   UNL     1     135.035 134.915 125.034  1.00  0.00     0.111 A 
ATOM      6  C   UNL     1     136.219 135.339 124.359  1.00  0.00     0.134 A 
ATOM      7  C   UNL     1     137.437 134.704 124.633  1.00  0.00     0.093 A 
ATOM      8  C   UNL     1     137.501 133.618 125.509  1.00  0.00     0.123 A 
ATOM      9  C   UNL     1     136.341 133.159 126.128  1.00  0.00     0.094 A 
ATOM     10  C   UNL     1     135.118 133.795 125.902  1.00  0.00     0.146 A 
ATOM     11  O   UNL     1     134.038 133.332 126.521  1.00  0.00    -0.452 OA
ENDROOT
BRANCH   1  12
ATOM     12  C   UNL     1     131.704 133.246 127.119  1.00  0.00     0.025 A 
ATOM     13  C   UNL     1     130.773 132.427 126.455  1.00  0.00     0.016 A 
ATOM     14  C   UNL     1     129.731 131.825 127.163  1.00  0.00     0.051 A 
ATOM     15  C   UNL     1     129.610 132.018 128.545  1.00  0.00     0.157 A 
ATOM     16  C   UNL     1     131.591 133.419 128.508  1.00  0.00     0.062 A 
ATOM     17  C   UNL     1     130.547 132.818 129.221  1.00  0.00     0.158 A 
BRANCH  15  18
ATOM     18  O   UNL     1     128.568 131.417 129.249  1.00  0.00    -0.504 OA
ATOM     19  H   UNL     1     127.927 131.961 129.815  1.00  0.00     0.293 HD
ENDBRANCH  15  18
BRANCH  17  20
ATOM     20  O   UNL     1     130.459 133.025 130.597  1.00  0.00    -0.504 OA
ATOM     21  H   UNL     1     130.728 132.314 131.267  1.00  0.00     0.293 HD
ENDBRANCH  17  20
ENDBRANCH   1  12
BRANCH   2  22
ATOM     22  O   UNL     1     131.424 135.663 125.547  1.00  0.00    -0.502 OA
ATOM     23  H   UNL     1     130.561 135.192 125.788  1.00  0.00     0.293 HD
ENDBRANCH   2  22
BRANCH   6  24
ATOM     24  O   UNL     1     136.247 136.353 123.396  1.00  0.00    -0.507 OA
ATOM     25  H   UNL     1     137.018 136.987 123.252  1.00  0.00     0.293 HD
ENDBRANCH   6  24
BRANCH   8  26
ATOM     26  O   UNL     1     138.714 132.982 125.764  1.00  0.00    -0.508 OA
ATOM     27  H   UNL     1     138.774 132.188 126.391  1.00  0.00     0.293 HD
ENDBRANCH   8  26
TORSDOF 6
ENDMDL
MODEL 9
REMARK VINA RESULT:    -6.039     10.745     12.737
REMARK INTER + INTRA:          -7.508
REMARK INTER:                  -7.184
REMARK INTRA:                  -0.324
REMARK UNBOUND:                -0.233
REMARK SMILES O=c1c(O)c(-c2ccc(O)c(O)c2)oc2cc(O)cc(O)c12
REMARK SMILES IDX 5 1 3 2 2 3 1 4 22 5 20 6 19 7 17 8 16 9 15 10 14 11 6 12
REMARK SMILES IDX 7 13 8 14 9 15 13 16 11 17 10 18 12 20 4 22 21 24 18 26
REMARK H PARENT 10 19 12 21 4 23 21 25 18 27
REMARK Flexibility Score: inf
ROOT
ATOM      1  C   UNL     1     134.120 134.081 125.834  1.00  0.00     0.180 A 
ATOM      2  C   UNL     1     135.340 133.397 125.975  1.00  0.00     0.208 A 
ATOM      3  C   UNL     1     136.470 133.875 125.293  1.00  0.00     0.238 A 
ATOM      4  O   UNL     1     137.546 133.228 125.379  1.00  0.00    -0.285 OA
ATOM      5  C   UNL     1     136.372 135.039 124.495  1.00  0.00     0.111 A 
ATOM      6  C   UNL     1     137.462 135.635 123.792  1.00  0.00     0.134 A 
ATOM      7  C   UNL     1     137.223 136.710 122.928  1.00  0.00     0.093 A 
ATOM      8  C   UNL     1     135.942 137.252 122.790  1.00  0.00     0.123 A 
ATOM      9  C   UNL     1     134.883 136.715 123.517  1.00  0.00     0.094 A 
ATOM     10  C   UNL     1     135.084 135.619 124.360  1.00  0.00     0.146 A 
ATOM     11  O   UNL     1     134.044 135.132 125.026  1.00  0.00    -0.452 OA
ENDROOT
BRANCH   1  12
ATOM     12  C   UNL     1     132.891 133.652 126.540  1.00  0.00     0.025 A 
ATOM     13  C   UNL     1     132.009 132.716 125.971  1.00  0.00     0.016 A 
ATOM     14  C   UNL     1     130.868 132.308 126.667  1.00  0.00     0.051 A 
ATOM     15  C   UNL     1     130.597 132.817 127.944  1.00  0.00     0.157 A 
ATOM     16  C   UNL     1     132.627 134.143 127.830  1.00  0.00     0.062 A 
ATOM     17  C   UNL     1     131.484 133.737 128.528  1.00  0.00     0.158 A 
BRANCH  15  18
ATOM     18  O   UNL     1     129.458 132.409 128.634  1.00  0.00    -0.504 OA
ATOM     19  H   UNL     1     128.539 132.768 128.401  1.00  0.00     0.293 HD
ENDBRANCH  15  18
BRANCH  17  20
ATOM     20  O   UNL     1     131.248 134.257 129.801  1.00  0.00    -0.504 OA
ATOM     21  H   UNL     1     131.783 135.033 130.173  1.00  0.00     0.293 HD
ENDBRANCH  17  20
ENDBRANCH   1  12
BRANCH   2  22
ATOM     22  O   UNL     1     135.410 132.237 126.751  1.00  0.00    -0.502 OA
ATOM     23  H   UNL     1     135.908 132.201 127.632  1.00  0.00     0.293 HD
ENDBRANCH   2  22
BRANCH   6  24
ATOM     24  O   UNL     1     138.794 135.230 123.930  1.00  0.00    -0.507 OA
ATOM     25  H   UNL     1     139.114 134.517 124.567  1.00  0.00     0.293 HD
ENDBRANCH   6  24
BRANCH   8  26
ATOM     26  O   UNL     1     135.715 138.332 121.939  1.00  0.00    -0.508 OA
ATOM     27  H   UNL     1     134.977 139.003 122.120  1.00  0.00     0.293 HD
ENDBRANCH   8  26
TORSDOF 6
ENDMDL
