MODEL 1
REMARK VINA RESULT:     1.016      0.000      0.000
REMARK INTER + INTRA:           1.307
REMARK INTER:                   1.373
REMARK INTRA:                  -0.066
REMARK UNBOUND:                -0.066
REMARK SMILES [NH3+]CCCC[C@H]([NH3+])C(=O)[O-]
REMARK SMILES IDX 4 1 3 2 2 3 1 4 5 8 6 9 7 10 8 14 9 15 10 16
REMARK H PARENT 1 5 1 6 1 7 7 11 7 12 7 13
REMARK Flexibility Score: inf
ROOT
ATOM      1  C   UNL     1      -0.587   2.625  -4.644  1.00  0.00     0.012 C 
ENDROOT
BRANCH   1   2
ATOM      2  C   UNL     1      -1.836   3.440  -5.019  1.00  0.00     0.061 C 
BRANCH   2   3
ATOM      3  C   UNL     1      -2.502   4.113  -3.808  1.00  0.00     0.258 C 
BRANCH   3   4
ATOM      4  N   UNL     1      -2.638   5.554  -4.021  1.00  0.00    -0.358 N 
ATOM      5  H   UNL     1      -1.708   5.950  -4.284  1.00  0.00     0.344 HD
ATOM      6  H   UNL     1      -2.969   6.018  -3.144  1.00  0.00     0.344 HD
ATOM      7  H   UNL     1      -3.316   5.738  -4.797  1.00  0.00     0.344 HD
ENDBRANCH   3   4
ENDBRANCH   2   3
ENDBRANCH   1   2
BRANCH   1   8
ATOM      8  C   UNL     1       0.048   1.817  -5.794  1.00  0.00     0.072 C 
BRANCH   8   9
ATOM      9  C   UNL     1       1.274   0.967  -5.370  1.00  0.00     0.227 C 
BRANCH   9  10
ATOM     10  N   UNL     1       2.285   1.811  -4.721  1.00  0.00    -0.350 N 
ATOM     11  H   UNL     1       1.827   2.438  -4.019  1.00  0.00     0.345 HD
ATOM     12  H   UNL     1       2.980   1.213  -4.215  1.00  0.00     0.345 HD
ATOM     13  H   UNL     1       2.786   2.397  -5.429  1.00  0.00     0.345 HD
ENDBRANCH   9  10
BRANCH   9  14
ATOM     14  C   UNL     1       1.894   0.254  -6.545  1.00  0.00     0.099 C 
ATOM     15  O   UNL     1       1.268   0.149  -7.634  1.00  0.00    -0.544 OA
ATOM     16  O   UNL     1       3.186  -0.249  -6.448  1.00  0.00    -0.544 OA
ENDBRANCH   9  14
ENDBRANCH   8   9
ENDBRANCH   1   8
TORSDOF 7
ENDMDL
MODEL 2
REMARK VINA RESULT:     2.048      3.639      5.851
REMARK INTER + INTRA:           2.700
REMARK INTER:                   2.763
REMARK INTRA:                  -0.063
REMARK UNBOUND:                -0.066
REMARK SMILES [NH3+]CCCC[C@H]([NH3+])C(=O)[O-]
REMARK SMILES IDX 4 1 3 2 2 3 1 4 5 8 6 9 7 10 8 14 9 15 10 16
REMARK H PARENT 1 5 1 6 1 7 7 11 7 12 7 13
REMARK Flexibility Score: inf
ROOT
ATOM      1  C   UNL     1       0.297   1.712  -5.501  1.00  0.00     0.012 C 
ENDROOT
BRANCH   1   2
ATOM      2  C   UNL     1       1.714   1.203  -5.187  1.00  0.00     0.061 C 
BRANCH   2   3
ATOM      3  C   UNL     1       2.164   0.066  -6.118  1.00  0.00     0.258 C 
BRANCH   3   4
ATOM      4  N   UNL     1       3.623  -0.021  -6.167  1.00  0.00    -0.358 N 
ATOM      5  H   UNL     1       3.945  -0.759  -5.501  1.00  0.00     0.344 HD
ATOM      6  H   UNL     1       4.047   0.894  -5.889  1.00  0.00     0.344 HD
ATOM      7  H   UNL     1       3.935  -0.277  -7.133  1.00  0.00     0.344 HD
ENDBRANCH   3   4
ENDBRANCH   2   3
ENDBRANCH   1   2
BRANCH   1   8
ATOM      8  C   UNL     1      -0.240   2.805  -4.553  1.00  0.00     0.072 C 
BRANCH   8   9
ATOM      9  C   UNL     1      -1.771   3.035  -4.653  1.00  0.00     0.227 C 
BRANCH   9  10
ATOM     10  N   UNL     1      -2.184   3.134  -6.059  1.00  0.00    -0.350 N 
ATOM     11  H   UNL     1      -2.740   2.289  -6.327  1.00  0.00     0.345 HD
ATOM     12  H   UNL     1      -2.792   3.976  -6.195  1.00  0.00     0.345 HD
ATOM     13  H   UNL     1      -1.348   3.209  -6.684  1.00  0.00     0.345 HD
ENDBRANCH   9  10
BRANCH   9  14
ATOM     14  C   UNL     1      -2.200   4.277  -3.914  1.00  0.00     0.099 C 
ATOM     15  O   UNL     1      -1.827   4.477  -2.727  1.00  0.00    -0.544 OA
ATOM     16  O   UNL     1      -2.971   5.236  -4.559  1.00  0.00    -0.544 OA
ENDBRANCH   9  14
ENDBRANCH   8   9
ENDBRANCH   1   8
TORSDOF 7
ENDMDL
MODEL 3
REMARK VINA RESULT:     2.596      1.483      1.864
REMARK INTER + INTRA:           3.440
REMARK INTER:                   3.114
REMARK INTRA:                   0.326
REMARK UNBOUND:                -0.066
REMARK SMILES [NH3+]CCCC[C@H]([NH3+])C(=O)[O-]
REMARK SMILES IDX 4 1 3 2 2 3 1 4 5 8 6 9 7 10 8 14 9 15 10 16
REMARK H PARENT 1 5 1 6 1 7 7 11 7 12 7 13
REMARK Flexibility Score: inf
ROOT
ATOM      1  C   UNL     1       0.222   1.476  -5.752  1.00  0.00     0.012 C 
ENDROOT
BRANCH   1   2
ATOM      2  C   UNL     1      -0.374   2.604  -4.893  1.00  0.00     0.061 C 
BRANCH   2   3
ATOM      3  C   UNL     1      -1.802   2.988  -5.311  1.00  0.00     0.258 C 
BRANCH   3   4
ATOM      4  N   UNL     1      -2.294   4.110  -4.512  1.00  0.00    -0.358 N 
ATOM      5  H   UNL     1      -1.670   4.241  -3.684  1.00  0.00     0.344 HD
ATOM      6  H   UNL     1      -3.266   3.914  -4.177  1.00  0.00     0.344 HD
ATOM      7  H   UNL     1      -2.287   4.987  -5.084  1.00  0.00     0.344 HD
ENDBRANCH   3   4
ENDBRANCH   2   3
ENDBRANCH   1   2
BRANCH   1   8
ATOM      8  C   UNL     1       1.689   1.111  -5.444  1.00  0.00     0.072 C 
BRANCH   8   9
ATOM      9  C   UNL     1       2.256  -0.034  -6.323  1.00  0.00     0.227 C 
BRANCH   9  10
ATOM     10  N   UNL     1       3.721  -0.075  -6.231  1.00  0.00    -0.350 N 
ATOM     11  H   UNL     1       4.138  -0.073  -7.191  1.00  0.00     0.345 HD
ATOM     12  H   UNL     1       4.071   0.772  -5.725  1.00  0.00     0.345 HD
ATOM     13  H   UNL     1       4.034  -0.935  -5.722  1.00  0.00     0.345 HD
ENDBRANCH   9  10
BRANCH   9  14
ATOM     14  C   UNL     1       1.847   0.114  -7.767  1.00  0.00     0.099 C 
ATOM     15  O   UNL     1       0.663  -0.126  -8.125  1.00  0.00    -0.544 OA
ATOM     16  O   UNL     1       2.767   0.566  -8.705  1.00  0.00    -0.544 OA
ENDBRANCH   9  14
ENDBRANCH   8   9
ENDBRANCH   1   8
TORSDOF 7
ENDMDL
MODEL 4
REMARK VINA RESULT:     2.871      3.714      5.856
REMARK INTER + INTRA:           3.812
REMARK INTER:                   3.843
REMARK INTRA:                  -0.030
REMARK UNBOUND:                -0.066
REMARK SMILES [NH3+]CCCC[C@H]([NH3+])C(=O)[O-]
REMARK SMILES IDX 4 1 3 2 2 3 1 4 5 8 6 9 7 10 8 14 9 15 10 16
REMARK H PARENT 1 5 1 6 1 7 7 11 7 12 7 13
REMARK Flexibility Score: inf
ROOT
ATOM      1  C   UNL     1      -1.863   2.917  -4.779  1.00  0.00     0.012 C 
ENDROOT
BRANCH   1   2
ATOM      2  C   UNL     1      -0.917   2.262  -5.799  1.00  0.00     0.061 C 
BRANCH   2   3
ATOM      3  C   UNL     1       0.406   1.789  -5.175  1.00  0.00     0.258 C 
BRANCH   3   4
ATOM      4  N   UNL     1       1.167   0.976  -6.123  1.00  0.00    -0.358 N 
ATOM      5  H   UNL     1       0.820  -0.009  -6.087  1.00  0.00     0.344 HD
ATOM      6  H   UNL     1       2.182   0.986  -5.872  1.00  0.00     0.344 HD
ATOM      7  H   UNL     1       1.039   1.344  -7.095  1.00  0.00     0.344 HD
ENDBRANCH   3   4
ENDBRANCH   2   3
ENDBRANCH   1   2
BRANCH   1   8
ATOM      8  C   UNL     1      -2.244   4.383  -5.072  1.00  0.00     0.072 C 
BRANCH   8   9
ATOM      9  C   UNL     1      -2.802   5.151  -3.845  1.00  0.00     0.227 C 
BRANCH   9  10
ATOM     10  N   UNL     1      -2.429   6.570  -3.915  1.00  0.00    -0.350 N 
ATOM     11  H   UNL     1      -3.286   7.166  -3.851  1.00  0.00     0.345 HD
ATOM     12  H   UNL     1      -1.804   6.816  -3.111  1.00  0.00     0.345 HD
ATOM     13  H   UNL     1      -1.932   6.777  -4.813  1.00  0.00     0.345 HD
ENDBRANCH   9  10
BRANCH   9  14
ATOM     14  C   UNL     1      -2.309   4.565  -2.546  1.00  0.00     0.099 C 
ATOM     15  O   UNL     1      -1.152   4.830  -2.123  1.00  0.00    -0.544 OA
ATOM     16  O   UNL     1      -3.151   3.767  -1.782  1.00  0.00    -0.544 OA
ENDBRANCH   9  14
ENDBRANCH   8   9
ENDBRANCH   1   8
TORSDOF 7
ENDMDL
MODEL 5
REMARK VINA RESULT:     3.392      3.862      5.948
REMARK INTER + INTRA:           4.515
REMARK INTER:                   4.580
REMARK INTRA:                  -0.065
REMARK UNBOUND:                -0.066
REMARK SMILES [NH3+]CCCC[C@H]([NH3+])C(=O)[O-]
REMARK SMILES IDX 4 1 3 2 2 3 1 4 5 8 6 9 7 10 8 14 9 15 10 16
REMARK H PARENT 1 5 1 6 1 7 7 11 7 12 7 13
REMARK Flexibility Score: inf
ROOT
ATOM      1  C   UNL     1      -0.198   2.667  -4.702  1.00  0.00     0.012 C 
ENDROOT
BRANCH   1   2
ATOM      2  C   UNL     1       0.158   1.556  -5.704  1.00  0.00     0.061 C 
BRANCH   2   3
ATOM      3  C   UNL     1       1.572   0.989  -5.496  1.00  0.00     0.258 C 
BRANCH   3   4
ATOM      4  N   UNL     1       1.910   0.033  -6.551  1.00  0.00    -0.358 N 
ATOM      5  H   UNL     1       1.438   0.321  -7.438  1.00  0.00     0.344 HD
ATOM      6  H   UNL     1       1.581  -0.924  -6.287  1.00  0.00     0.344 HD
ATOM      7  H   UNL     1       2.945   0.022  -6.706  1.00  0.00     0.344 HD
ENDBRANCH   3   4
ENDBRANCH   2   3
ENDBRANCH   1   2
BRANCH   1   8
ATOM      8  C   UNL     1      -1.662   3.152  -4.741  1.00  0.00     0.072 C 
BRANCH   8   9
ATOM      9  C   UNL     1      -2.021   4.176  -3.633  1.00  0.00     0.227 C 
BRANCH   9  10
ATOM     10  N   UNL     1      -2.953   3.582  -2.666  1.00  0.00    -0.350 N 
ATOM     11  H   UNL     1      -3.280   4.312  -1.992  1.00  0.00     0.345 HD
ATOM     12  H   UNL     1      -3.792   3.203  -3.165  1.00  0.00     0.345 HD
ATOM     13  H   UNL     1      -2.490   2.808  -2.135  1.00  0.00     0.345 HD
ENDBRANCH   9  10
BRANCH   9  14
ATOM     14  C   UNL     1      -2.625   5.433  -4.206  1.00  0.00     0.099 C 
ATOM     15  O   UNL     1      -3.492   5.367  -5.119  1.00  0.00    -0.544 OA
ATOM     16  O   UNL     1      -2.264   6.672  -3.693  1.00  0.00    -0.544 OA
ENDBRANCH   9  14
ENDBRANCH   8   9
ENDBRANCH   1   8
TORSDOF 7
ENDMDL
MODEL 6
REMARK VINA RESULT:     3.853      1.937      2.507
REMARK INTER + INTRA:           5.138
REMARK INTER:                   5.232
REMARK INTRA:                  -0.094
REMARK UNBOUND:                -0.066
REMARK SMILES [NH3+]CCCC[C@H]([NH3+])C(=O)[O-]
REMARK SMILES IDX 4 1 3 2 2 3 1 4 5 8 6 9 7 10 8 14 9 15 10 16
REMARK H PARENT 1 5 1 6 1 7 7 11 7 12 7 13
REMARK Flexibility Score: inf
ROOT
ATOM      1  C   UNL     1      -2.324   3.351  -4.187  1.00  0.00     0.012 C 
ENDROOT
BRANCH   1   2
ATOM      2  C   UNL     1      -2.659   4.646  -3.428  1.00  0.00     0.061 C 
BRANCH   2   3
ATOM      3  C   UNL     1      -2.711   5.882  -4.340  1.00  0.00     0.258 C 
BRANCH   3   4
ATOM      4  N   UNL     1      -2.285   7.081  -3.618  1.00  0.00    -0.358 N 
ATOM      5  H   UNL     1      -2.074   7.838  -4.307  1.00  0.00     0.344 HD
ATOM      6  H   UNL     1      -1.422   6.878  -3.063  1.00  0.00     0.344 HD
ATOM      7  H   UNL     1      -3.049   7.405  -2.981  1.00  0.00     0.344 HD
ENDBRANCH   3   4
ENDBRANCH   2   3
ENDBRANCH   1   2
BRANCH   1   8
ATOM      8  C   UNL     1      -0.823   3.101  -4.442  1.00  0.00     0.072 C 
BRANCH   8   9
ATOM      9  C   UNL     1      -0.516   2.422  -5.803  1.00  0.00     0.227 C 
BRANCH   9  10
ATOM     10  N   UNL     1      -1.696   1.699  -6.294  1.00  0.00    -0.350 N 
ATOM     11  H   UNL     1      -1.399   0.821  -6.780  1.00  0.00     0.345 HD
ATOM     12  H   UNL     1      -2.311   1.430  -5.490  1.00  0.00     0.345 HD
ATOM     13  H   UNL     1      -2.242   2.293  -6.961  1.00  0.00     0.345 HD
ENDBRANCH   9  10
BRANCH   9  14
ATOM     14  C   UNL     1       0.650   1.472  -5.704  1.00  0.00     0.099 C 
ATOM     15  O   UNL     1       1.443   1.531  -4.726  1.00  0.00    -0.544 OA
ATOM     16  O   UNL     1       0.828   0.490  -6.671  1.00  0.00    -0.544 OA
ENDBRANCH   9  14
ENDBRANCH   8   9
ENDBRANCH   1   8
TORSDOF 7
ENDMDL
