MODEL 1
REMARK VINA RESULT:    -4.561      0.000      0.000
REMARK INTER + INTRA:          -5.311
REMARK INTER:                  -5.094
REMARK INTRA:                  -0.217
REMARK UNBOUND:                -0.217
REMARK SMILES CC(C)c1ccc(C(=O)[O-])cc1
REMARK SMILES IDX 7 1 6 2 11 3 5 4 12 5 4 6 8 7 9 8 10 9 2 10 1 11 3 12
REMARK H PARENT
REMARK Flexibility Score: inf
ROOT
ATOM      1  C   UNL     1     116.840 111.236 122.418  1.00  0.00    -0.003 A 
ATOM      2  C   UNL     1     116.122 112.413 122.148  1.00  0.00     0.010 A 
ATOM      3  C   UNL     1     116.167 110.003 122.378  1.00  0.00     0.010 A 
ATOM      4  C   UNL     1     114.758 112.360 121.845  1.00  0.00     0.004 A 
ATOM      5  C   UNL     1     114.804 109.949 122.075  1.00  0.00     0.004 A 
ATOM      6  C   UNL     1     114.084 111.127 121.805  1.00  0.00    -0.045 A 
ENDROOT
BRANCH   1   7
ATOM      7  C   UNL     1     118.284 111.289 122.738  1.00  0.00     0.071 C 
ATOM      8  O   UNL     1     118.757 112.246 123.407  1.00  0.00    -0.545 OA
ATOM      9  O   UNL     1     119.139 110.281 122.307  1.00  0.00    -0.545 OA
ENDBRANCH   1   7
BRANCH   6  10
ATOM     10  C   UNL     1     112.604 111.083 121.475  1.00  0.00     0.013 C 
ATOM     11  C   UNL     1     111.987 109.739 121.879  1.00  0.00     0.012 C 
ATOM     12  C   UNL     1     111.856 112.251 122.128  1.00  0.00     0.012 C 
ENDBRANCH   6  10
TORSDOF 2
ENDMDL
MODEL 2
REMARK VINA RESULT:    -4.511      4.000      5.678
REMARK INTER + INTRA:          -5.256
REMARK INTER:                  -5.036
REMARK INTRA:                  -0.220
REMARK UNBOUND:                -0.217
REMARK SMILES CC(C)c1ccc(C(=O)[O-])cc1
REMARK SMILES IDX 7 1 6 2 11 3 5 4 12 5 4 6 8 7 9 8 10 9 2 10 1 11 3 12
REMARK H PARENT
REMARK Flexibility Score: inf
ROOT
ATOM      1  C   UNL     1     112.037 111.346 120.558  1.00  0.00    -0.003 A 
ATOM      2  C   UNL     1     112.554 110.123 121.017  1.00  0.00     0.010 A 
ATOM      3  C   UNL     1     112.727 112.532 120.857  1.00  0.00     0.010 A 
ATOM      4  C   UNL     1     113.737 110.086 121.762  1.00  0.00     0.004 A 
ATOM      5  C   UNL     1     113.909 112.497 121.602  1.00  0.00     0.004 A 
ATOM      6  C   UNL     1     114.427 111.273 122.062  1.00  0.00    -0.045 A 
ENDROOT
BRANCH   1   7
ATOM      7  C   UNL     1     110.785 111.388 119.768  1.00  0.00     0.071 C 
ATOM      8  O   UNL     1     110.348 110.349 119.205  1.00  0.00    -0.545 OA
ATOM      9  O   UNL     1     110.074 112.575 119.639  1.00  0.00    -0.545 OA
ENDBRANCH   1   7
BRANCH   6  10
ATOM     10  C   UNL     1     115.709 111.219 122.871  1.00  0.00     0.013 C 
ATOM     11  C   UNL     1     116.485 109.926 122.593  1.00  0.00     0.012 C 
ATOM     12  C   UNL     1     116.582 112.453 122.609  1.00  0.00     0.012 C 
ENDBRANCH   6  10
TORSDOF 2
ENDMDL
MODEL 3
REMARK VINA RESULT:    -4.360      3.213      4.979
REMARK INTER + INTRA:          -5.087
REMARK INTER:                  -4.873
REMARK INTRA:                  -0.214
REMARK UNBOUND:                -0.217
REMARK SMILES CC(C)c1ccc(C(=O)[O-])cc1
REMARK SMILES IDX 7 1 6 2 11 3 5 4 12 5 4 6 8 7 9 8 10 9 2 10 1 11 3 12
REMARK H PARENT
REMARK Flexibility Score: inf
ROOT
ATOM      1  C   UNL     1     113.811 110.478 121.687  1.00  0.00    -0.003 A 
ATOM      2  C   UNL     1     114.147 111.841 121.729  1.00  0.00     0.010 A 
ATOM      3  C   UNL     1     114.803 109.524 121.970  1.00  0.00     0.010 A 
ATOM      4  C   UNL     1     115.448 112.244 122.045  1.00  0.00     0.004 A 
ATOM      5  C   UNL     1     116.104 109.925 122.286  1.00  0.00     0.004 A 
ATOM      6  C   UNL     1     116.441 111.289 122.328  1.00  0.00    -0.045 A 
ENDROOT
BRANCH   1   7
ATOM      7  C   UNL     1     112.434 110.049 121.354  1.00  0.00     0.071 C 
ATOM      8  O   UNL     1     111.732 109.435 122.200  1.00  0.00    -0.545 OA
ATOM      9  O   UNL     1     111.897 110.320 120.101  1.00  0.00    -0.545 OA
ENDBRANCH   1   7
BRANCH   6  10
ATOM     10  C   UNL     1     117.849 111.739 122.669  1.00  0.00     0.013 C 
ATOM     11  C   UNL     1     118.873 110.647 122.341  1.00  0.00     0.012 C 
ATOM     12  C   UNL     1     118.198 113.053 121.960  1.00  0.00     0.012 C 
ENDBRANCH   6  10
TORSDOF 2
ENDMDL
MODEL 4
REMARK VINA RESULT:    -4.355      1.692      2.426
REMARK INTER + INTRA:          -5.082
REMARK INTER:                  -4.864
REMARK INTRA:                  -0.218
REMARK UNBOUND:                -0.217
REMARK SMILES CC(C)c1ccc(C(=O)[O-])cc1
REMARK SMILES IDX 7 1 6 2 11 3 5 4 12 5 4 6 8 7 9 8 10 9 2 10 1 11 3 12
REMARK H PARENT
REMARK Flexibility Score: inf
ROOT
ATOM      1  C   UNL     1     116.045 112.987 121.414  1.00  0.00    -0.003 A 
ATOM      2  C   UNL     1     114.894 113.619 120.916  1.00  0.00     0.010 A 
ATOM      3  C   UNL     1     115.902 111.831 122.200  1.00  0.00     0.010 A 
ATOM      4  C   UNL     1     113.624 113.107 121.200  1.00  0.00     0.004 A 
ATOM      5  C   UNL     1     114.633 111.319 122.483  1.00  0.00     0.004 A 
ATOM      6  C   UNL     1     113.480 111.951 121.986  1.00  0.00    -0.045 A 
ENDROOT
BRANCH   1   7
ATOM      7  C   UNL     1     117.391 113.526 121.115  1.00  0.00     0.071 C 
ATOM      8  O   UNL     1     118.425 112.888 121.449  1.00  0.00    -0.545 OA
ATOM      9  O   UNL     1     117.533 114.744 120.460  1.00  0.00    -0.545 OA
ENDBRANCH   1   7
BRANCH   6  10
ATOM     10  C   UNL     1     112.096 111.406 122.286  1.00  0.00     0.013 C 
ATOM     11  C   UNL     1     111.008 112.275 121.642  1.00  0.00     0.012 C 
ATOM     12  C   UNL     1     111.968 109.944 121.843  1.00  0.00     0.012 C 
ENDBRANCH   6  10
TORSDOF 2
ENDMDL
MODEL 5
REMARK VINA RESULT:    -4.331     11.676     13.720
REMARK INTER + INTRA:          -5.055
REMARK INTER:                  -4.848
REMARK INTRA:                  -0.207
REMARK UNBOUND:                -0.217
REMARK SMILES CC(C)c1ccc(C(=O)[O-])cc1
REMARK SMILES IDX 7 1 6 2 11 3 5 4 12 5 4 6 8 7 9 8 10 9 2 10 1 11 3 12
REMARK H PARENT
REMARK Flexibility Score: inf
ROOT
ATOM      1  C   UNL     1     103.254 110.240 115.882  1.00  0.00    -0.003 A 
ATOM      2  C   UNL     1     102.496 109.178 116.402  1.00  0.00     0.010 A 
ATOM      3  C   UNL     1     104.642 110.255 116.095  1.00  0.00     0.010 A 
ATOM      4  C   UNL     1     103.114 108.151 117.124  1.00  0.00     0.004 A 
ATOM      5  C   UNL     1     105.260 109.229 116.816  1.00  0.00     0.004 A 
ATOM      6  C   UNL     1     104.503 108.166 117.338  1.00  0.00    -0.045 A 
ENDROOT
BRANCH   1   7
ATOM      7  C   UNL     1     102.603 111.328 115.117  1.00  0.00     0.071 C 
ATOM      8  O   UNL     1     103.138 112.466 115.042  1.00  0.00    -0.545 OA
ATOM      9  O   UNL     1     101.394 111.107 114.468  1.00  0.00    -0.545 OA
ENDBRANCH   1   7
BRANCH   6  10
ATOM     10  C   UNL     1     105.160 107.046 118.123  1.00  0.00     0.013 C 
ATOM     11  C   UNL     1     105.889 106.071 117.191  1.00  0.00     0.012 C 
ATOM     12  C   UNL     1     106.110 107.601 119.191  1.00  0.00     0.012 C 
ENDBRANCH   6  10
TORSDOF 2
ENDMDL
MODEL 6
REMARK VINA RESULT:    -4.205      3.248      4.996
REMARK INTER + INTRA:          -4.914
REMARK INTER:                  -4.710
REMARK INTRA:                  -0.204
REMARK UNBOUND:                -0.217
REMARK SMILES CC(C)c1ccc(C(=O)[O-])cc1
REMARK SMILES IDX 7 1 6 2 11 3 5 4 12 5 4 6 8 7 9 8 10 9 2 10 1 11 3 12
REMARK H PARENT
REMARK Flexibility Score: inf
ROOT
ATOM      1  C   UNL     1     113.940 112.536 121.614  1.00  0.00    -0.003 A 
ATOM      2  C   UNL     1     115.101 113.283 121.357  1.00  0.00     0.010 A 
ATOM      3  C   UNL     1     114.068 111.232 122.121  1.00  0.00     0.010 A 
ATOM      4  C   UNL     1     116.366 112.738 121.603  1.00  0.00     0.004 A 
ATOM      5  C   UNL     1     115.331 110.687 122.367  1.00  0.00     0.004 A 
ATOM      6  C   UNL     1     116.494 111.434 122.110  1.00  0.00    -0.045 A 
ENDROOT
BRANCH   1   7
ATOM      7  C   UNL     1     112.600 113.110 121.356  1.00  0.00     0.071 C 
ATOM      8  O   UNL     1     112.211 114.133 121.980  1.00  0.00    -0.545 OA
ATOM      9  O   UNL     1     111.754 112.529 120.419  1.00  0.00    -0.545 OA
ENDBRANCH   1   7
BRANCH   6  10
ATOM     10  C   UNL     1     117.872 110.855 122.372  1.00  0.00     0.013 C 
ATOM     11  C   UNL     1     118.554 110.440 121.062  1.00  0.00     0.012 C 
ATOM     12  C   UNL     1     118.745 111.837 123.161  1.00  0.00     0.012 C 
ENDBRANCH   6  10
TORSDOF 2
ENDMDL
MODEL 7
REMARK VINA RESULT:    -4.192     11.801     13.223
REMARK INTER + INTRA:          -4.900
REMARK INTER:                  -4.690
REMARK INTRA:                  -0.210
REMARK UNBOUND:                -0.217
REMARK SMILES CC(C)c1ccc(C(=O)[O-])cc1
REMARK SMILES IDX 7 1 6 2 11 3 5 4 12 5 4 6 8 7 9 8 10 9 2 10 1 11 3 12
REMARK H PARENT
REMARK Flexibility Score: inf
ROOT
ATOM      1  C   UNL     1     104.602 108.142 117.203  1.00  0.00    -0.003 A 
ATOM      2  C   UNL     1     105.316 109.271 116.769  1.00  0.00     0.010 A 
ATOM      3  C   UNL     1     103.199 108.153 117.128  1.00  0.00     0.010 A 
ATOM      4  C   UNL     1     104.642 110.390 116.270  1.00  0.00     0.004 A 
ATOM      5  C   UNL     1     102.524 109.272 116.630  1.00  0.00     0.004 A 
ATOM      6  C   UNL     1     103.238 110.402 116.195  1.00  0.00    -0.045 A 
ENDROOT
BRANCH   1   7
ATOM      7  C   UNL     1     105.313 106.955 117.730  1.00  0.00     0.071 C 
ATOM      8  O   UNL     1     105.852 106.985 118.869  1.00  0.00    -0.545 OA
ATOM      9  O   UNL     1     105.393 105.790 116.977  1.00  0.00    -0.545 OA
ENDBRANCH   1   7
BRANCH   6  10
ATOM     10  C   UNL     1     102.519 111.623 115.653  1.00  0.00     0.013 C 
ATOM     11  C   UNL     1     103.513 112.729 115.277  1.00  0.00     0.012 C 
ATOM     12  C   UNL     1     101.627 111.257 114.461  1.00  0.00     0.012 C 
ENDBRANCH   6  10
TORSDOF 2
ENDMDL
MODEL 8
REMARK VINA RESULT:    -4.159      3.145      5.237
REMARK INTER + INTRA:          -4.863
REMARK INTER:                  -4.655
REMARK INTRA:                  -0.208
REMARK UNBOUND:                -0.217
REMARK SMILES CC(C)c1ccc(C(=O)[O-])cc1
REMARK SMILES IDX 7 1 6 2 11 3 5 4 12 5 4 6 8 7 9 8 10 9 2 10 1 11 3 12
REMARK H PARENT
REMARK Flexibility Score: inf
ROOT
ATOM      1  C   UNL     1     113.690 111.061 121.838  1.00  0.00    -0.003 A 
ATOM      2  C   UNL     1     114.544 109.959 122.010  1.00  0.00     0.010 A 
ATOM      3  C   UNL     1     114.251 112.341 121.691  1.00  0.00     0.010 A 
ATOM      4  C   UNL     1     115.932 110.133 122.036  1.00  0.00     0.004 A 
ATOM      5  C   UNL     1     115.637 112.515 121.718  1.00  0.00     0.004 A 
ATOM      6  C   UNL     1     116.493 111.413 121.890  1.00  0.00    -0.045 A 
ENDROOT
BRANCH   1   7
ATOM      7  C   UNL     1     112.221 110.881 121.809  1.00  0.00     0.071 C 
ATOM      8  O   UNL     1     111.484 111.494 122.627  1.00  0.00    -0.545 OA
ATOM      9  O   UNL     1     111.634 110.033 120.877  1.00  0.00    -0.545 OA
ENDBRANCH   1   7
BRANCH   6  10
ATOM     10  C   UNL     1     118.000 111.587 121.921  1.00  0.00     0.013 C 
ATOM     11  C   UNL     1     118.454 112.240 123.232  1.00  0.00     0.012 C 
ATOM     12  C   UNL     1     118.717 110.251 121.694  1.00  0.00     0.012 C 
ENDBRANCH   6  10
TORSDOF 2
ENDMDL
