MODEL 1
REMARK VINA RESULT:    -5.655      0.000      0.000
REMARK INTER + INTRA:         -12.429
REMARK INTER:                 -10.613
REMARK INTRA:                  -1.815
REMARK UNBOUND:                -1.815
REMARK SMILES O=C([O-])CCCCCCCCCCCCCCC(=O)[O-]
REMARK SMILES IDX 10 1 9 2 8 3 7 4 6 5 5 6 4 7 2 8 1 9 3 10 11 11 12 12 13 13
REMARK SMILES IDX 14 14 15 15 16 16 17 17 18 18 19 19 20 20
REMARK H PARENT
REMARK Flexibility Score: inf
ROOT
ATOM      1  C   UNL     1      -9.344  -0.891  13.054  1.00  0.00     0.000 C 
ENDROOT
BRANCH   1   2
ATOM      2  C   UNL     1     -10.744  -1.039  12.436  1.00  0.00     0.000 C 
BRANCH   2   3
ATOM      3  C   UNL     1     -11.430  -2.357  12.834  1.00  0.00     0.000 C 
BRANCH   3   4
ATOM      4  C   UNL     1     -12.899  -2.158  13.243  1.00  0.00     0.000 C 
BRANCH   4   5
ATOM      5  C   UNL     1     -13.286  -2.991  14.478  1.00  0.00     0.000 C 
BRANCH   5   6
ATOM      6  C   UNL     1     -12.073  -3.682  15.133  1.00  0.00     0.006 C 
BRANCH   6   7
ATOM      7  C   UNL     1     -11.913  -3.367  16.630  1.00  0.00     0.053 C 
BRANCH   7   8
ATOM      8  C   UNL     1     -10.486  -3.129  17.018  1.00  0.00     0.041 C 
ATOM      9  O   UNL     1     -10.173  -2.107  17.686  1.00  0.00    -0.550 OA
ATOM     10  O   UNL     1      -9.502  -4.032  16.639  1.00  0.00    -0.550 OA
ENDBRANCH   7   8
ENDBRANCH   6   7
ENDBRANCH   5   6
ENDBRANCH   4   5
ENDBRANCH   3   4
ENDBRANCH   2   3
ENDBRANCH   1   2
BRANCH   1  11
ATOM     11  C   UNL     1      -8.874  -2.165  13.772  1.00  0.00     0.000 C 
BRANCH  11  12
ATOM     12  C   UNL     1      -7.409  -2.474  13.437  1.00  0.00     0.000 C 
BRANCH  12  13
ATOM     13  C   UNL     1      -7.291  -3.770  12.626  1.00  0.00     0.000 C 
BRANCH  13  14
ATOM     14  C   UNL     1      -8.417  -4.751  12.987  1.00  0.00     0.000 C 
BRANCH  14  15
ATOM     15  C   UNL     1      -8.804  -5.657  11.799  1.00  0.00     0.000 C 
BRANCH  15  16
ATOM     16  C   UNL     1     -10.312  -5.660  11.492  1.00  0.00     0.006 C 
BRANCH  16  17
ATOM     17  C   UNL     1     -10.617  -5.534   9.996  1.00  0.00     0.053 C 
BRANCH  17  18
ATOM     18  C   UNL     1     -12.093  -5.449   9.771  1.00  0.00     0.041 C 
ATOM     19  O   UNL     1     -12.614  -6.004   8.768  1.00  0.00    -0.550 OA
ATOM     20  O   UNL     1     -12.888  -4.713  10.640  1.00  0.00    -0.550 OA
ENDBRANCH  17  18
ENDBRANCH  16  17
ENDBRANCH  15  16
ENDBRANCH  14  15
ENDBRANCH  13  14
ENDBRANCH  12  13
ENDBRANCH  11  12
ENDBRANCH   1  11
TORSDOF 15
ENDMDL
MODEL 2
REMARK VINA RESULT:    -5.652      2.491      5.776
REMARK INTER + INTRA:         -12.423
REMARK INTER:                 -10.341
REMARK INTRA:                  -2.082
REMARK UNBOUND:                -1.815
REMARK SMILES O=C([O-])CCCCCCCCCCCCCCC(=O)[O-]
REMARK SMILES IDX 10 1 9 2 8 3 7 4 6 5 5 6 4 7 2 8 1 9 3 10 11 11 12 12 13 13
REMARK SMILES IDX 14 14 15 15 16 16 17 17 18 18 19 19 20 20
REMARK H PARENT
REMARK Flexibility Score: inf
ROOT
ATOM      1  C   UNL     1      -9.861  -5.449  11.868  1.00  0.00     0.000 C 
ENDROOT
BRANCH   1   2
ATOM      2  C   UNL     1      -9.900  -5.798  10.372  1.00  0.00     0.000 C 
BRANCH   2   3
ATOM      3  C   UNL     1     -11.119  -5.191   9.655  1.00  0.00     0.000 C 
BRANCH   3   4
ATOM      4  C   UNL     1     -12.452  -5.641  10.274  1.00  0.00     0.000 C 
BRANCH   4   5
ATOM      5  C   UNL     1     -13.349  -4.454  10.668  1.00  0.00     0.000 C 
BRANCH   5   6
ATOM      6  C   UNL     1     -13.345  -4.181  12.186  1.00  0.00     0.006 C 
BRANCH   6   7
ATOM      7  C   UNL     1     -12.376  -3.065  12.613  1.00  0.00     0.053 C 
BRANCH   7   8
ATOM      8  C   UNL     1     -13.054  -1.737  12.751  1.00  0.00     0.041 C 
ATOM      9  O   UNL     1     -13.874  -1.538  13.687  1.00  0.00    -0.550 OA
ATOM     10  O   UNL     1     -12.783  -0.719  11.845  1.00  0.00    -0.550 OA
ENDBRANCH   7   8
ENDBRANCH   6   7
ENDBRANCH   5   6
ENDBRANCH   4   5
ENDBRANCH   3   4
ENDBRANCH   2   3
ENDBRANCH   1   2
BRANCH   1  11
ATOM     11  C   UNL     1      -9.880  -6.693  12.769  1.00  0.00     0.000 C 
BRANCH  11  12
ATOM     12  C   UNL     1     -11.206  -6.798  13.531  1.00  0.00     0.000 C 
BRANCH  12  13
ATOM     13  C   UNL     1     -10.978  -7.277  14.970  1.00  0.00     0.000 C 
BRANCH  13  14
ATOM     14  C   UNL     1     -10.612  -6.104  15.891  1.00  0.00     0.000 C 
BRANCH  14  15
ATOM     15  C   UNL     1     -11.671  -4.983  15.859  1.00  0.00     0.000 C 
BRANCH  15  16
ATOM     16  C   UNL     1     -11.087  -3.576  16.071  1.00  0.00     0.006 C 
BRANCH  16  17
ATOM     17  C   UNL     1      -9.589  -3.498  15.759  1.00  0.00     0.053 C 
BRANCH  17  18
ATOM     18  C   UNL     1      -8.829  -3.040  16.964  1.00  0.00     0.041 C 
ATOM     19  O   UNL     1      -7.570  -3.032  16.953  1.00  0.00    -0.550 OA
ATOM     20  O   UNL     1      -9.509  -2.670  18.116  1.00  0.00    -0.550 OA
ENDBRANCH  17  18
ENDBRANCH  16  17
ENDBRANCH  15  16
ENDBRANCH  14  15
ENDBRANCH  13  14
ENDBRANCH  12  13
ENDBRANCH  11  12
ENDBRANCH   1  11
TORSDOF 15
ENDMDL
MODEL 3
REMARK VINA RESULT:    -5.583      2.701      5.726
REMARK INTER + INTRA:         -12.294
REMARK INTER:                 -10.232
REMARK INTRA:                  -2.062
REMARK UNBOUND:                -1.815
REMARK SMILES O=C([O-])CCCCCCCCCCCCCCC(=O)[O-]
REMARK SMILES IDX 10 1 9 2 8 3 7 4 6 5 5 6 4 7 2 8 1 9 3 10 11 11 12 12 13 13
REMARK SMILES IDX 14 14 15 15 16 16 17 17 18 18 19 19 20 20
REMARK H PARENT
REMARK Flexibility Score: inf
ROOT
ATOM      1  C   UNL     1     -11.921  -5.047  15.883  1.00  0.00     0.000 C 
ENDROOT
BRANCH   1   2
ATOM      2  C   UNL     1     -10.707  -5.964  15.669  1.00  0.00     0.000 C 
BRANCH   2   3
ATOM      3  C   UNL     1     -11.102  -7.352  15.134  1.00  0.00     0.000 C 
BRANCH   3   4
ATOM      4  C   UNL     1     -10.652  -7.575  13.680  1.00  0.00     0.000 C 
BRANCH   4   5
ATOM      5  C   UNL     1     -10.019  -6.316  13.060  1.00  0.00     0.000 C 
BRANCH   5   6
ATOM      6  C   UNL     1     -10.841  -5.754  11.883  1.00  0.00     0.006 C 
BRANCH   6   7
ATOM      7  C   UNL     1     -12.363  -5.852  12.085  1.00  0.00     0.053 C 
BRANCH   7   8
ATOM      8  C   UNL     1     -13.003  -4.515  12.292  1.00  0.00     0.041 C 
ATOM      9  O   UNL     1     -12.410  -3.465  11.927  1.00  0.00    -0.550 OA
ATOM     10  O   UNL     1     -14.253  -4.426  12.891  1.00  0.00    -0.550 OA
ENDBRANCH   7   8
ENDBRANCH   6   7
ENDBRANCH   5   6
ENDBRANCH   4   5
ENDBRANCH   3   4
ENDBRANCH   2   3
ENDBRANCH   1   2
BRANCH   1  11
ATOM     11  C   UNL     1     -11.554  -3.556  15.849  1.00  0.00     0.000 C 
BRANCH  11  12
ATOM     12  C   UNL     1     -11.393  -2.998  17.269  1.00  0.00     0.000 C 
BRANCH  12  13
ATOM     13  C   UNL     1     -10.075  -2.227  17.411  1.00  0.00     0.000 C 
BRANCH  13  14
ATOM     14  C   UNL     1      -8.979  -3.114  18.020  1.00  0.00     0.000 C 
BRANCH  14  15
ATOM     15  C   UNL     1      -7.682  -3.095  17.185  1.00  0.00     0.000 C 
BRANCH  15  16
ATOM     16  C   UNL     1      -7.926  -3.100  15.666  1.00  0.00     0.006 C 
BRANCH  16  17
ATOM     17  C   UNL     1      -7.385  -4.357  14.978  1.00  0.00     0.053 C 
BRANCH  17  18
ATOM     18  C   UNL     1      -7.089  -4.077  13.539  1.00  0.00     0.041 C 
ATOM     19  O   UNL     1      -7.373  -2.956  13.041  1.00  0.00    -0.550 OA
ATOM     20  O   UNL     1      -6.549  -5.071  12.734  1.00  0.00    -0.550 OA
ENDBRANCH  17  18
ENDBRANCH  16  17
ENDBRANCH  15  16
ENDBRANCH  14  15
ENDBRANCH  13  14
ENDBRANCH  12  13
ENDBRANCH  11  12
ENDBRANCH   1  11
TORSDOF 15
ENDMDL
MODEL 4
REMARK VINA RESULT:    -5.577      2.319      5.154
REMARK INTER + INTRA:         -12.284
REMARK INTER:                  -9.751
REMARK INTRA:                  -2.533
REMARK UNBOUND:                -1.815
REMARK SMILES O=C([O-])CCCCCCCCCCCCCCC(=O)[O-]
REMARK SMILES IDX 10 1 9 2 8 3 7 4 6 5 5 6 4 7 2 8 1 9 3 10 11 11 12 12 13 13
REMARK SMILES IDX 14 14 15 15 16 16 17 17 18 18 19 19 20 20
REMARK H PARENT
REMARK Flexibility Score: inf
ROOT
ATOM      1  C   UNL     1      -9.449  -5.968  15.839  1.00  0.00     0.000 C 
ENDROOT
BRANCH   1   2
ATOM      2  C   UNL     1      -9.629  -4.619  16.552  1.00  0.00     0.000 C 
BRANCH   2   3
ATOM      3  C   UNL     1     -10.621  -3.694  15.826  1.00  0.00     0.000 C 
BRANCH   3   4
ATOM      4  C   UNL     1     -11.888  -3.420  16.655  1.00  0.00     0.000 C 
BRANCH   4   5
ATOM      5  C   UNL     1     -13.170  -3.464  15.804  1.00  0.00     0.000 C 
BRANCH   5   6
ATOM      6  C   UNL     1     -12.909  -3.153  14.317  1.00  0.00     0.006 C 
BRANCH   6   7
ATOM      7  C   UNL     1     -14.021  -3.647  13.375  1.00  0.00     0.053 C 
BRANCH   7   8
ATOM      8  C   UNL     1     -13.905  -3.071  11.998  1.00  0.00     0.041 C 
ATOM      9  O   UNL     1     -14.400  -3.680  11.012  1.00  0.00    -0.550 OA
ATOM     10  O   UNL     1     -13.247  -1.864  11.800  1.00  0.00    -0.550 OA
ENDBRANCH   7   8
ENDBRANCH   6   7
ENDBRANCH   5   6
ENDBRANCH   4   5
ENDBRANCH   3   4
ENDBRANCH   2   3
ENDBRANCH   1   2
BRANCH   1  11
ATOM     11  C   UNL     1     -10.786  -6.628  15.467  1.00  0.00     0.000 C 
BRANCH  11  12
ATOM     12  C   UNL     1     -10.718  -7.253  14.068  1.00  0.00     0.000 C 
BRANCH  12  13
ATOM     13  C   UNL     1     -11.575  -6.463  13.071  1.00  0.00     0.000 C 
BRANCH  13  14
ATOM     14  C   UNL     1     -10.731  -5.421  12.322  1.00  0.00     0.000 C 
BRANCH  14  15
ATOM     15  C   UNL     1      -9.377  -5.993  11.854  1.00  0.00     0.000 C 
BRANCH  15  16
ATOM     16  C   UNL     1      -8.162  -5.202  12.368  1.00  0.00     0.006 C 
BRANCH  16  17
ATOM     17  C   UNL     1      -8.535  -3.817  12.907  1.00  0.00     0.053 C 
BRANCH  17  18
ATOM     18  C   UNL     1      -7.426  -3.268  13.747  1.00  0.00     0.041 C 
ATOM     19  O   UNL     1      -6.801  -4.019  14.542  1.00  0.00    -0.550 OA
ATOM     20  O   UNL     1      -7.114  -1.916  13.689  1.00  0.00    -0.550 OA
ENDBRANCH  17  18
ENDBRANCH  16  17
ENDBRANCH  15  16
ENDBRANCH  14  15
ENDBRANCH  13  14
ENDBRANCH  12  13
ENDBRANCH  11  12
ENDBRANCH   1  11
TORSDOF 15
ENDMDL
MODEL 5
REMARK VINA RESULT:    -5.566      2.313      5.222
REMARK INTER + INTRA:         -12.263
REMARK INTER:                 -10.264
REMARK INTRA:                  -1.998
REMARK UNBOUND:                -1.815
REMARK SMILES O=C([O-])CCCCCCCCCCCCCCC(=O)[O-]
REMARK SMILES IDX 10 1 9 2 8 3 7 4 6 5 5 6 4 7 2 8 1 9 3 10 11 11 12 12 13 13
REMARK SMILES IDX 14 14 15 15 16 16 17 17 18 18 19 19 20 20
REMARK H PARENT
REMARK Flexibility Score: inf
ROOT
ATOM      1  C   UNL     1     -12.168  -5.800  11.836  1.00  0.00     0.000 C 
ENDROOT
BRANCH   1   2
ATOM      2  C   UNL     1     -12.490  -6.611  13.101  1.00  0.00     0.000 C 
BRANCH   2   3
ATOM      3  C   UNL     1     -11.286  -6.723  14.053  1.00  0.00     0.000 C 
BRANCH   3   4
ATOM      4  C   UNL     1     -11.585  -6.156  15.451  1.00  0.00     0.000 C 
BRANCH   4   5
ATOM      5  C   UNL     1     -10.641  -5.002  15.833  1.00  0.00     0.000 C 
BRANCH   5   6
ATOM      6  C   UNL     1     -11.399  -3.728  16.259  1.00  0.00     0.006 C 
BRANCH   6   7
ATOM      7  C   UNL     1     -12.911  -3.781  15.977  1.00  0.00     0.053 C 
BRANCH   7   8
ATOM      8  C   UNL     1     -13.281  -3.096  14.699  1.00  0.00     0.041 C 
ATOM      9  O   UNL     1     -14.493  -2.951  14.385  1.00  0.00    -0.550 OA
ATOM     10  O   UNL     1     -12.289  -2.619  13.851  1.00  0.00    -0.550 OA
ENDBRANCH   7   8
ENDBRANCH   6   7
ENDBRANCH   5   6
ENDBRANCH   4   5
ENDBRANCH   3   4
ENDBRANCH   2   3
ENDBRANCH   1   2
BRANCH   1  11
ATOM     11  C   UNL     1     -10.791  -5.120  11.898  1.00  0.00     0.000 C 
BRANCH  11  12
ATOM     12  C   UNL     1      -9.769  -5.875  11.040  1.00  0.00     0.000 C 
BRANCH  12  13
ATOM     13  C   UNL     1      -8.377  -5.838  11.683  1.00  0.00     0.000 C 
BRANCH  13  14
ATOM     14  C   UNL     1      -8.337  -4.846  12.855  1.00  0.00     0.000 C 
BRANCH  14  15
ATOM     15  C   UNL     1      -7.080  -3.951  12.819  1.00  0.00     0.000 C 
BRANCH  15  16
ATOM     16  C   UNL     1      -7.276  -2.585  13.501  1.00  0.00     0.006 C 
BRANCH  16  17
ATOM     17  C   UNL     1      -8.195  -2.655  14.724  1.00  0.00     0.053 C 
BRANCH  17  18
ATOM     18  C   UNL     1      -7.391  -2.841  15.971  1.00  0.00     0.041 C 
ATOM     19  O   UNL     1      -7.964  -3.105  17.061  1.00  0.00    -0.550 OA
ATOM     20  O   UNL     1      -6.013  -2.674  15.942  1.00  0.00    -0.550 OA
ENDBRANCH  17  18
ENDBRANCH  16  17
ENDBRANCH  15  16
ENDBRANCH  14  15
ENDBRANCH  13  14
ENDBRANCH  12  13
ENDBRANCH  11  12
ENDBRANCH   1  11
TORSDOF 15
ENDMDL
MODEL 6
REMARK VINA RESULT:    -5.551      1.025      6.202
REMARK INTER + INTRA:         -12.233
REMARK INTER:                 -10.133
REMARK INTRA:                  -2.100
REMARK UNBOUND:                -1.815
REMARK SMILES O=C([O-])CCCCCCCCCCCCCCC(=O)[O-]
REMARK SMILES IDX 10 1 9 2 8 3 7 4 6 5 5 6 4 7 2 8 1 9 3 10 11 11 12 12 13 13
REMARK SMILES IDX 14 14 15 15 16 16 17 17 18 18 19 19 20 20
REMARK H PARENT
REMARK Flexibility Score: inf
ROOT
ATOM      1  C   UNL     1      -9.546  -0.926  13.240  1.00  0.00     0.000 C 
ENDROOT
BRANCH   1   2
ATOM      2  C   UNL     1      -8.992  -2.327  13.539  1.00  0.00     0.000 C 
BRANCH   2   3
ATOM      3  C   UNL     1      -7.540  -2.503  13.060  1.00  0.00     0.000 C 
BRANCH   3   4
ATOM      4  C   UNL     1      -7.212  -3.960  12.693  1.00  0.00     0.000 C 
BRANCH   4   5
ATOM      5  C   UNL     1      -8.375  -4.921  12.998  1.00  0.00     0.000 C 
BRANCH   5   6
ATOM      6  C   UNL     1      -8.966  -5.564  11.727  1.00  0.00     0.006 C 
BRANCH   6   7
ATOM      7  C   UNL     1     -10.482  -5.811  11.803  1.00  0.00     0.053 C 
BRANCH   7   8
ATOM      8  C   UNL     1     -11.176  -5.526  10.507  1.00  0.00     0.041 C 
ATOM      9  O   UNL     1     -10.526  -5.517   9.428  1.00  0.00    -0.550 OA
ATOM     10  O   UNL     1     -12.541  -5.268  10.490  1.00  0.00    -0.550 OA
ENDBRANCH   7   8
ENDBRANCH   6   7
ENDBRANCH   5   6
ENDBRANCH   4   5
ENDBRANCH   3   4
ENDBRANCH   2   3
ENDBRANCH   1   2
BRANCH   1  11
ATOM     11  C   UNL     1     -10.812  -0.960  12.369  1.00  0.00     0.000 C 
BRANCH  11  12
ATOM     12  C   UNL     1     -11.437  -2.359  12.366  1.00  0.00     0.000 C 
BRANCH  12  13
ATOM     13  C   UNL     1     -12.562  -2.462  13.402  1.00  0.00     0.000 C 
BRANCH  13  14
ATOM     14  C   UNL     1     -12.405  -3.724  14.264  1.00  0.00     0.000 C 
BRANCH  14  15
ATOM     15  C   UNL     1     -12.212  -3.390  15.758  1.00  0.00     0.000 C 
BRANCH  15  16
ATOM     16  C   UNL     1     -10.832  -3.791  16.307  1.00  0.00     0.006 C 
BRANCH  16  17
ATOM     17  C   UNL     1     -10.188  -2.697  17.164  1.00  0.00     0.053 C 
BRANCH  17  18
ATOM     18  C   UNL     1      -8.784  -3.070  17.518  1.00  0.00     0.041 C 
ATOM     19  O   UNL     1      -7.994  -3.480  16.627  1.00  0.00    -0.550 OA
ATOM     20  O   UNL     1      -8.362  -3.015  18.840  1.00  0.00    -0.550 OA
ENDBRANCH  17  18
ENDBRANCH  16  17
ENDBRANCH  15  16
ENDBRANCH  14  15
ENDBRANCH  13  14
ENDBRANCH  12  13
ENDBRANCH  11  12
ENDBRANCH   1  11
TORSDOF 15
ENDMDL
MODEL 7
REMARK VINA RESULT:    -5.542      2.218      5.813
REMARK INTER + INTRA:         -12.217
REMARK INTER:                 -10.047
REMARK INTRA:                  -2.171
REMARK UNBOUND:                -1.815
REMARK SMILES O=C([O-])CCCCCCCCCCCCCCC(=O)[O-]
REMARK SMILES IDX 10 1 9 2 8 3 7 4 6 5 5 6 4 7 2 8 1 9 3 10 11 11 12 12 13 13
REMARK SMILES IDX 14 14 15 15 16 16 17 17 18 18 19 19 20 20
REMARK H PARENT
REMARK Flexibility Score: inf
ROOT
ATOM      1  C   UNL     1     -11.371  -4.680  15.397  1.00  0.00     0.000 C 
ENDROOT
BRANCH   1   2
ATOM      2  C   UNL     1     -11.267  -6.155  15.818  1.00  0.00     0.000 C 
BRANCH   2   3
ATOM      3  C   UNL     1     -10.609  -7.033  14.740  1.00  0.00     0.000 C 
BRANCH   3   4
ATOM      4  C   UNL     1     -10.902  -6.537  13.314  1.00  0.00     0.000 C 
BRANCH   4   5
ATOM      5  C   UNL     1      -9.624  -6.375  12.472  1.00  0.00     0.000 C 
BRANCH   5   6
ATOM      6  C   UNL     1      -9.889  -5.701  11.111  1.00  0.00     0.006 C 
BRANCH   6   7
ATOM      7  C   UNL     1     -11.167  -4.846  11.079  1.00  0.00     0.053 C 
BRANCH   7   8
ATOM      8  C   UNL     1     -12.102  -5.250   9.982  1.00  0.00     0.041 C 
ATOM      9  O   UNL     1     -11.678  -5.920   9.003  1.00  0.00    -0.550 OA
ATOM     10  O   UNL     1     -13.441  -4.886  10.038  1.00  0.00    -0.550 OA
ENDBRANCH   7   8
ENDBRANCH   6   7
ENDBRANCH   5   6
ENDBRANCH   4   5
ENDBRANCH   3   4
ENDBRANCH   2   3
ENDBRANCH   1   2
BRANCH   1  11
ATOM     11  C   UNL     1     -11.639  -3.740  16.582  1.00  0.00     0.000 C 
BRANCH  11  12
ATOM     12  C   UNL     1     -10.434  -2.830  16.845  1.00  0.00     0.000 C 
BRANCH  12  13
ATOM     13  C   UNL     1      -9.174  -3.656  17.136  1.00  0.00     0.000 C 
BRANCH  13  14
ATOM     14  C   UNL     1      -7.981  -3.150  16.311  1.00  0.00     0.000 C 
BRANCH  14  15
ATOM     15  C   UNL     1      -7.738  -4.006  15.050  1.00  0.00     0.000 C 
BRANCH  15  16
ATOM     16  C   UNL     1      -7.722  -3.190  13.745  1.00  0.00     0.006 C 
BRANCH  16  17
ATOM     17  C   UNL     1      -9.115  -2.716  13.319  1.00  0.00     0.053 C 
BRANCH  17  18
ATOM     18  C   UNL     1      -9.130  -1.230  13.150  1.00  0.00     0.041 C 
ATOM     19  O   UNL     1     -10.198  -0.640  12.839  1.00  0.00    -0.550 OA
ATOM     20  O   UNL     1      -7.956  -0.502  13.285  1.00  0.00    -0.550 OA
ENDBRANCH  17  18
ENDBRANCH  16  17
ENDBRANCH  15  16
ENDBRANCH  14  15
ENDBRANCH  13  14
ENDBRANCH  12  13
ENDBRANCH  11  12
ENDBRANCH   1  11
TORSDOF 15
ENDMDL
MODEL 8
REMARK VINA RESULT:    -5.535      2.217      3.818
REMARK INTER + INTRA:         -12.204
REMARK INTER:                  -9.615
REMARK INTRA:                  -2.589
REMARK UNBOUND:                -1.815
REMARK SMILES O=C([O-])CCCCCCCCCCCCCCC(=O)[O-]
REMARK SMILES IDX 10 1 9 2 8 3 7 4 6 5 5 6 4 7 2 8 1 9 3 10 11 11 12 12 13 13
REMARK SMILES IDX 14 14 15 15 16 16 17 17 18 18 19 19 20 20
REMARK H PARENT
REMARK Flexibility Score: inf
ROOT
ATOM      1  C   UNL     1      -7.865  -5.016  12.941  1.00  0.00     0.000 C 
ENDROOT
BRANCH   1   2
ATOM      2  C   UNL     1      -7.126  -3.715  12.591  1.00  0.00     0.000 C 
BRANCH   2   3
ATOM      3  C   UNL     1      -7.736  -2.483  13.282  1.00  0.00     0.000 C 
BRANCH   3   4
ATOM      4  C   UNL     1      -9.274  -2.505  13.277  1.00  0.00     0.000 C 
BRANCH   4   5
ATOM      5  C   UNL     1      -9.872  -2.217  14.665  1.00  0.00     0.000 C 
BRANCH   5   6
ATOM      6  C   UNL     1     -10.348  -3.494  15.386  1.00  0.00     0.006 C 
BRANCH   6   7
ATOM      7  C   UNL     1      -9.267  -4.153  16.261  1.00  0.00     0.053 C 
BRANCH   7   8
ATOM      8  C   UNL     1      -8.558  -3.168  17.138  1.00  0.00     0.041 C 
ATOM      9  O   UNL     1      -7.348  -2.889  16.928  1.00  0.00    -0.550 OA
ATOM     10  O   UNL     1      -9.233  -2.560  18.189  1.00  0.00    -0.550 OA
ENDBRANCH   7   8
ENDBRANCH   6   7
ENDBRANCH   5   6
ENDBRANCH   4   5
ENDBRANCH   3   4
ENDBRANCH   2   3
ENDBRANCH   1   2
BRANCH   1  11
ATOM     11  C   UNL     1      -8.405  -5.746  11.702  1.00  0.00     0.000 C 
BRANCH  11  12
ATOM     12  C   UNL     1      -9.904  -6.033  11.844  1.00  0.00     0.000 C 
BRANCH  12  13
ATOM     13  C   UNL     1     -10.234  -6.558  13.246  1.00  0.00     0.000 C 
BRANCH  13  14
ATOM     14  C   UNL     1     -11.722  -6.363  13.573  1.00  0.00     0.000 C 
BRANCH  14  15
ATOM     15  C   UNL     1     -12.490  -5.690  12.416  1.00  0.00     0.000 C 
BRANCH  15  16
ATOM     16  C   UNL     1     -13.099  -4.327  12.791  1.00  0.00     0.006 C 
BRANCH  16  17
ATOM     17  C   UNL     1     -12.531  -3.172  11.960  1.00  0.00     0.053 C 
BRANCH  17  18
ATOM     18  C   UNL     1     -13.001  -1.860  12.504  1.00  0.00     0.041 C 
ATOM     19  O   UNL     1     -12.763  -0.793  11.878  1.00  0.00    -0.550 OA
ATOM     20  O   UNL     1     -13.657  -1.808  13.726  1.00  0.00    -0.550 OA
ENDBRANCH  17  18
ENDBRANCH  16  17
ENDBRANCH  15  16
ENDBRANCH  14  15
ENDBRANCH  13  14
ENDBRANCH  12  13
ENDBRANCH  11  12
ENDBRANCH   1  11
TORSDOF 15
ENDMDL
MODEL 9
REMARK VINA RESULT:    -5.525      1.865      3.517
REMARK INTER + INTRA:         -12.185
REMARK INTER:                  -9.933
REMARK INTRA:                  -2.252
REMARK UNBOUND:                -1.815
REMARK SMILES O=C([O-])CCCCCCCCCCCCCCC(=O)[O-]
REMARK SMILES IDX 10 1 9 2 8 3 7 4 6 5 5 6 4 7 2 8 1 9 3 10 11 11 12 12 13 13
REMARK SMILES IDX 14 14 15 15 16 16 17 17 18 18 19 19 20 20
REMARK H PARENT
REMARK Flexibility Score: inf
ROOT
ATOM      1  C   UNL     1     -12.927  -3.390  15.850  1.00  0.00     0.000 C 
ENDROOT
BRANCH   1   2
ATOM      2  C   UNL     1     -13.623  -3.410  14.480  1.00  0.00     0.000 C 
BRANCH   2   3
ATOM      3  C   UNL     1     -13.797  -2.002  13.884  1.00  0.00     0.000 C 
BRANCH   3   4
ATOM      4  C   UNL     1     -13.186  -1.875  12.479  1.00  0.00     0.000 C 
BRANCH   4   5
ATOM      5  C   UNL     1     -11.836  -1.137  12.487  1.00  0.00     0.000 C 
BRANCH   5   6
ATOM      6  C   UNL     1     -10.631  -2.098  12.556  1.00  0.00     0.006 C 
BRANCH   6   7
ATOM      7  C   UNL     1      -9.591  -1.716  13.623  1.00  0.00     0.053 C 
BRANCH   7   8
ATOM      8  C   UNL     1      -8.539  -2.766  13.802  1.00  0.00     0.041 C 
ATOM      9  O   UNL     1      -7.703  -2.672  14.740  1.00  0.00    -0.550 OA
ATOM     10  O   UNL     1      -8.479  -3.847  12.932  1.00  0.00    -0.550 OA
ENDBRANCH   7   8
ENDBRANCH   6   7
ENDBRANCH   5   6
ENDBRANCH   4   5
ENDBRANCH   3   4
ENDBRANCH   2   3
ENDBRANCH   1   2
BRANCH   1  11
ATOM     11  C   UNL     1     -11.534  -4.036  15.819  1.00  0.00     0.000 C 
BRANCH  11  12
ATOM     12  C   UNL     1     -11.638  -5.566  15.849  1.00  0.00     0.000 C 
BRANCH  12  13
ATOM     13  C   UNL     1     -10.503  -6.211  15.046  1.00  0.00     0.000 C 
BRANCH  13  14
ATOM     14  C   UNL     1     -11.049  -7.246  14.051  1.00  0.00     0.000 C 
BRANCH  14  15
ATOM     15  C   UNL     1     -12.139  -6.654  13.133  1.00  0.00     0.000 C 
BRANCH  15  16
ATOM     16  C   UNL     1     -11.615  -5.574  12.171  1.00  0.00     0.006 C 
BRANCH  16  17
ATOM     17  C   UNL     1     -12.618  -5.218  11.069  1.00  0.00     0.053 C 
BRANCH  17  18
ATOM     18  C   UNL     1     -12.084  -5.619   9.731  1.00  0.00     0.041 C 
ATOM     19  O   UNL     1     -12.868  -6.025   8.832  1.00  0.00    -0.550 OA
ATOM     20  O   UNL     1     -10.717  -5.592   9.490  1.00  0.00    -0.550 OA
ENDBRANCH  17  18
ENDBRANCH  16  17
ENDBRANCH  15  16
ENDBRANCH  14  15
ENDBRANCH  13  14
ENDBRANCH  12  13
ENDBRANCH  11  12
ENDBRANCH   1  11
TORSDOF 15
ENDMDL
