MODEL 1
REMARK VINA RESULT:    -5.414      0.000      0.000
REMARK INTER + INTRA:          -5.998
REMARK INTER:                  -5.730
REMARK INTRA:                  -0.268
REMARK UNBOUND:                -0.268
REMARK SMILES CC1=C[C@H]2C(=C(C)CC[C@@H]2C(C)C)CC1
REMARK SMILES IDX 1 1 2 2 3 3 4 4 10 5 9 6 8 7 6 8 5 9 14 10 15 11 7 12 11 13
REMARK SMILES IDX 12 14 13 15
REMARK H PARENT
REMARK Flexibility Score: inf
ROOT
ATOM      1  C   UNL     1      33.083  10.530  33.588  1.00  0.00     0.039 C 
ATOM      2  C   UNL     1      32.071  10.572  32.475  1.00  0.00    -0.076 C 
ATOM      3  C   UNL     1      31.492   9.424  32.065  1.00  0.00    -0.020 C 
ATOM      4  C   UNL     1      30.420   9.348  30.982  1.00  0.00     0.041 C 
ATOM      5  C   UNL     1      30.761   8.285  29.894  1.00  0.00     0.003 C 
ATOM      6  C   UNL     1      29.628   8.303  28.848  1.00  0.00     0.009 C 
ATOM      7  C   UNL     1      29.567   9.659  28.148  1.00  0.00     0.031 C 
ATOM      8  C   UNL     1      29.648  10.844  29.090  1.00  0.00    -0.073 C 
ATOM      9  C   UNL     1      30.135  10.718  30.360  1.00  0.00    -0.064 C 
ATOM     10  C   UNL     1      30.321  11.908  31.280  1.00  0.00     0.036 C 
ATOM     11  C   UNL     1      31.752  11.891  31.811  1.00  0.00     0.035 C 
ATOM     12  C   UNL     1      29.305  12.191  28.498  1.00  0.00     0.039 C 
ENDROOT
BRANCH   5  13
ATOM     13  C   UNL     1      31.038   6.846  30.452  1.00  0.00    -0.013 C 
ATOM     14  C   UNL     1      29.853   6.236  31.220  1.00  0.00     0.007 C 
ATOM     15  C   UNL     1      31.509   5.878  29.355  1.00  0.00     0.007 C 
ENDBRANCH   5  13
TORSDOF 1
ENDMDL
MODEL 2
REMARK VINA RESULT:    -5.299      1.009      5.009
REMARK INTER + INTRA:          -5.876
REMARK INTER:                  -5.599
REMARK INTRA:                  -0.277
REMARK UNBOUND:                -0.268
REMARK SMILES CC1=C[C@H]2C(=C(C)CC[C@@H]2C(C)C)CC1
REMARK SMILES IDX 1 1 2 2 3 3 4 4 10 5 9 6 8 7 6 8 5 9 14 10 15 11 7 12 11 13
REMARK SMILES IDX 12 14 13 15
REMARK H PARENT
REMARK Flexibility Score: inf
ROOT
ATOM      1  C   UNL     1      30.053   6.844  27.920  1.00  0.00     0.039 C 
ATOM      2  C   UNL     1      30.318   7.739  29.099  1.00  0.00    -0.076 C 
ATOM      3  C   UNL     1      29.789   8.981  29.118  1.00  0.00    -0.020 C 
ATOM      4  C   UNL     1      29.948   9.959  30.278  1.00  0.00     0.041 C 
ATOM      5  C   UNL     1      30.439  11.358  29.801  1.00  0.00     0.003 C 
ATOM      6  C   UNL     1      30.581  12.257  31.046  1.00  0.00     0.009 C 
ATOM      7  C   UNL     1      31.648  11.704  31.988  1.00  0.00     0.031 C 
ATOM      8  C   UNL     1      31.543  10.210  32.229  1.00  0.00    -0.073 C 
ATOM      9  C   UNL     1      30.845   9.395  31.384  1.00  0.00    -0.064 C 
ATOM     10  C   UNL     1      30.815   7.889  31.550  1.00  0.00     0.036 C 
ATOM     11  C   UNL     1      31.203   7.248  30.220  1.00  0.00     0.035 C 
ATOM     12  C   UNL     1      32.377   9.657  33.361  1.00  0.00     0.039 C 
ENDROOT
BRANCH   5  13
ATOM     13  C   UNL     1      29.554  12.015  28.686  1.00  0.00    -0.013 C 
ATOM     14  C   UNL     1      28.509  13.007  29.224  1.00  0.00     0.007 C 
ATOM     15  C   UNL     1      30.400  12.685  27.590  1.00  0.00     0.007 C 
ENDBRANCH   5  13
TORSDOF 1
ENDMDL
MODEL 3
REMARK VINA RESULT:    -5.219      1.299      4.317
REMARK INTER + INTRA:          -5.792
REMARK INTER:                  -5.518
REMARK INTRA:                  -0.274
REMARK UNBOUND:                -0.268
REMARK SMILES CC1=C[C@H]2C(=C(C)CC[C@@H]2C(C)C)CC1
REMARK SMILES IDX 1 1 2 2 3 3 4 4 10 5 9 6 8 7 6 8 5 9 14 10 15 11 7 12 11 13
REMARK SMILES IDX 12 14 13 15
REMARK H PARENT
REMARK Flexibility Score: inf
ROOT
ATOM      1  C   UNL     1      29.381  12.195  28.372  1.00  0.00     0.039 C 
ATOM      2  C   UNL     1      29.652  10.720  28.479  1.00  0.00    -0.076 C 
ATOM      3  C   UNL     1      29.725  10.148  29.700  1.00  0.00    -0.020 C 
ATOM      4  C   UNL     1      29.946   8.657  29.933  1.00  0.00     0.041 C 
ATOM      5  C   UNL     1      31.103   8.386  30.940  1.00  0.00     0.003 C 
ATOM      6  C   UNL     1      31.250   6.858  31.088  1.00  0.00     0.009 C 
ATOM      7  C   UNL     1      31.656   6.227  29.758  1.00  0.00     0.031 C 
ATOM      8  C   UNL     1      30.857   6.727  28.570  1.00  0.00    -0.073 C 
ATOM      9  C   UNL     1      30.153   7.896  28.620  1.00  0.00    -0.064 C 
ATOM     10  C   UNL     1      29.435   8.464  27.412  1.00  0.00     0.036 C 
ATOM     11  C   UNL     1      29.876   9.912  27.222  1.00  0.00     0.035 C 
ATOM     12  C   UNL     1      31.008   5.942  27.288  1.00  0.00     0.039 C 
ENDROOT
BRANCH   5  13
ATOM     13  C   UNL     1      30.948   9.110  32.323  1.00  0.00    -0.013 C 
ATOM     14  C   UNL     1      30.121   8.319  33.351  1.00  0.00     0.007 C 
ATOM     15  C   UNL     1      32.305   9.503  32.929  1.00  0.00     0.007 C 
ENDBRANCH   5  13
TORSDOF 1
ENDMDL
MODEL 4
REMARK VINA RESULT:    -5.074      1.427      3.800
REMARK INTER + INTRA:          -5.638
REMARK INTER:                  -5.362
REMARK INTRA:                  -0.276
REMARK UNBOUND:                -0.268
REMARK SMILES CC1=C[C@H]2C(=C(C)CC[C@@H]2C(C)C)CC1
REMARK SMILES IDX 1 1 2 2 3 3 4 4 10 5 9 6 8 7 6 8 5 9 14 10 15 11 7 12 11 13
REMARK SMILES IDX 12 14 13 15
REMARK H PARENT
REMARK Flexibility Score: inf
ROOT
ATOM      1  C   UNL     1      27.735  11.840  29.166  1.00  0.00     0.039 C 
ATOM      2  C   UNL     1      28.745  11.006  29.907  1.00  0.00    -0.076 C 
ATOM      3  C   UNL     1      29.375  10.003  29.260  1.00  0.00    -0.020 C 
ATOM      4  C   UNL     1      30.450   9.123  29.892  1.00  0.00     0.041 C 
ATOM      5  C   UNL     1      30.158   7.606  29.691  1.00  0.00     0.003 C 
ATOM      6  C   UNL     1      31.290   6.814  30.377  1.00  0.00     0.009 C 
ATOM      7  C   UNL     1      31.291   7.075  31.881  1.00  0.00     0.031 C 
ATOM      8  C   UNL     1      31.156   8.540  32.253  1.00  0.00    -0.073 C 
ATOM      9  C   UNL     1      30.674   9.462  31.369  1.00  0.00    -0.064 C 
ATOM     10  C   UNL     1      30.434  10.908  31.754  1.00  0.00     0.036 C 
ATOM     11  C   UNL     1      29.005  11.281  31.369  1.00  0.00     0.035 C 
ATOM     12  C   UNL     1      31.439   8.890  33.695  1.00  0.00     0.039 C 
ENDROOT
BRANCH   5  13
ATOM     13  C   UNL     1      29.945   7.175  28.198  1.00  0.00    -0.013 C 
ATOM     14  C   UNL     1      31.250   7.056  27.392  1.00  0.00     0.007 C 
ATOM     15  C   UNL     1      29.132   5.875  28.079  1.00  0.00     0.007 C 
ENDBRANCH   5  13
TORSDOF 1
ENDMDL
MODEL 5
REMARK VINA RESULT:    -5.040      1.217      4.548
REMARK INTER + INTRA:          -5.602
REMARK INTER:                  -5.345
REMARK INTRA:                  -0.257
REMARK UNBOUND:                -0.268
REMARK SMILES CC1=C[C@H]2C(=C(C)CC[C@@H]2C(C)C)CC1
REMARK SMILES IDX 1 1 2 2 3 3 4 4 10 5 9 6 8 7 6 8 5 9 14 10 15 11 7 12 11 13
REMARK SMILES IDX 12 14 13 15
REMARK H PARENT
REMARK Flexibility Score: inf
ROOT
ATOM      1  C   UNL     1      29.689  13.067  27.483  1.00  0.00     0.039 C 
ATOM      2  C   UNL     1      29.734  11.652  27.992  1.00  0.00    -0.076 C 
ATOM      3  C   UNL     1      29.753  11.429  29.324  1.00  0.00    -0.020 C 
ATOM      4  C   UNL     1      29.749  10.041  29.957  1.00  0.00     0.041 C 
ATOM      5  C   UNL     1      30.879   9.877  31.016  1.00  0.00     0.003 C 
ATOM      6  C   UNL     1      30.795   8.443  31.577  1.00  0.00     0.009 C 
ATOM      7  C   UNL     1      31.061   7.421  30.475  1.00  0.00     0.031 C 
ATOM      8  C   UNL     1      30.315   7.697  29.184  1.00  0.00    -0.073 C 
ATOM      9  C   UNL     1      29.800   8.930  28.903  1.00  0.00    -0.064 C 
ATOM     10  C   UNL     1      29.144   9.253  27.576  1.00  0.00     0.036 C 
ATOM     11  C   UNL     1      29.796  10.510  27.006  1.00  0.00     0.035 C 
ATOM     12  C   UNL     1      30.307   6.580  28.166  1.00  0.00     0.039 C 
ENDROOT
BRANCH   5  13
ATOM     13  C   UNL     1      30.876  10.964  32.147  1.00  0.00    -0.013 C 
ATOM     14  C   UNL     1      30.729  10.387  33.565  1.00  0.00     0.007 C 
ATOM     15  C   UNL     1      32.109  11.880  32.077  1.00  0.00     0.007 C 
ENDBRANCH   5  13
TORSDOF 1
ENDMDL
MODEL 6
REMARK VINA RESULT:    -4.972      1.321      1.594
REMARK INTER + INTRA:          -5.531
REMARK INTER:                  -5.271
REMARK INTRA:                  -0.259
REMARK UNBOUND:                -0.268
REMARK SMILES CC1=C[C@H]2C(=C(C)CC[C@@H]2C(C)C)CC1
REMARK SMILES IDX 1 1 2 2 3 3 4 4 10 5 9 6 8 7 6 8 5 9 14 10 15 11 7 12 11 13
REMARK SMILES IDX 12 14 13 15
REMARK H PARENT
REMARK Flexibility Score: inf
ROOT
ATOM      1  C   UNL     1      31.836   9.107  32.983  1.00  0.00     0.039 C 
ATOM      2  C   UNL     1      31.118   9.525  31.728  1.00  0.00    -0.076 C 
ATOM      3  C   UNL     1      30.636   8.577  30.897  1.00  0.00    -0.020 C 
ATOM      4  C   UNL     1      29.851   8.877  29.623  1.00  0.00     0.041 C 
ATOM      5  C   UNL     1      30.425   8.120  28.389  1.00  0.00     0.003 C 
ATOM      6  C   UNL     1      29.574   8.506  27.162  1.00  0.00     0.009 C 
ATOM      7  C   UNL     1      29.700   9.999  26.871  1.00  0.00     0.031 C 
ATOM      8  C   UNL     1      29.572  10.880  28.098  1.00  0.00    -0.073 C 
ATOM      9  C   UNL     1      29.742  10.382  29.359  1.00  0.00    -0.064 C 
ATOM     10  C   UNL     1      29.722  11.265  30.590  1.00  0.00     0.036 C 
ATOM     11  C   UNL     1      30.985  10.994  31.402  1.00  0.00     0.035 C 
ATOM     12  C   UNL     1      29.399  12.359  27.843  1.00  0.00     0.039 C 
ENDROOT
BRANCH   5  13
ATOM     13  C   UNL     1      30.542   6.566  28.572  1.00  0.00    -0.013 C 
ATOM     14  C   UNL     1      29.208   5.877  28.907  1.00  0.00     0.007 C 
ATOM     15  C   UNL     1      31.197   5.885  27.360  1.00  0.00     0.007 C 
ENDBRANCH   5  13
TORSDOF 1
ENDMDL
MODEL 7
REMARK VINA RESULT:    -4.961      3.706      6.015
REMARK INTER + INTRA:          -5.519
REMARK INTER:                  -5.292
REMARK INTRA:                  -0.228
REMARK UNBOUND:                -0.268
REMARK SMILES CC1=C[C@H]2C(=C(C)CC[C@@H]2C(C)C)CC1
REMARK SMILES IDX 1 1 2 2 3 3 4 4 10 5 9 6 8 7 6 8 5 9 14 10 15 11 7 12 11 13
REMARK SMILES IDX 12 14 13 15
REMARK H PARENT
REMARK Flexibility Score: inf
ROOT
ATOM      1  C   UNL     1      29.020  12.032  37.094  1.00  0.00     0.039 C 
ATOM      2  C   UNL     1      29.768  10.782  36.720  1.00  0.00    -0.076 C 
ATOM      3  C   UNL     1      30.434  10.736  35.546  1.00  0.00    -0.020 C 
ATOM      4  C   UNL     1      31.266   9.544  35.083  1.00  0.00     0.041 C 
ATOM      5  C   UNL     1      30.893   9.096  33.638  1.00  0.00     0.003 C 
ATOM      6  C   UNL     1      31.776   7.883  33.279  1.00  0.00     0.009 C 
ATOM      7  C   UNL     1      31.475   6.708  34.206  1.00  0.00     0.031 C 
ATOM      8  C   UNL     1      31.392   7.085  35.673  1.00  0.00    -0.073 C 
ATOM      9  C   UNL     1      31.194   8.376  36.071  1.00  0.00    -0.064 C 
ATOM     10  C   UNL     1      31.004   8.757  37.525  1.00  0.00     0.036 C 
ATOM     11  C   UNL     1      29.730   9.589  37.646  1.00  0.00     0.035 C 
ATOM     12  C   UNL     1      31.386   5.938  36.656  1.00  0.00     0.039 C 
ENDROOT
BRANCH   5  13
ATOM     13  C   UNL     1      30.970  10.233  32.561  1.00  0.00    -0.013 C 
ATOM     14  C   UNL     1      32.314  10.980  32.540  1.00  0.00     0.007 C 
ATOM     15  C   UNL     1      30.628   9.723  31.152  1.00  0.00     0.007 C 
ENDBRANCH   5  13
TORSDOF 1
ENDMDL
MODEL 8
REMARK VINA RESULT:    -4.857      1.578      5.559
REMARK INTER + INTRA:          -5.408
REMARK INTER:                  -5.133
REMARK INTRA:                  -0.276
REMARK UNBOUND:                -0.268
REMARK SMILES CC1=C[C@H]2C(=C(C)CC[C@@H]2C(C)C)CC1
REMARK SMILES IDX 1 1 2 2 3 3 4 4 10 5 9 6 8 7 6 8 5 9 14 10 15 11 7 12 11 13
REMARK SMILES IDX 12 14 13 15
REMARK H PARENT
REMARK Flexibility Score: inf
ROOT
ATOM      1  C   UNL     1      30.437   8.224  24.919  1.00  0.00     0.039 C 
ATOM      2  C   UNL     1      30.338   8.307  26.417  1.00  0.00    -0.076 C 
ATOM      3  C   UNL     1      29.641   9.318  26.978  1.00  0.00    -0.020 C 
ATOM      4  C   UNL     1      29.431   9.479  28.481  1.00  0.00     0.041 C 
ATOM      5  C   UNL     1      29.799  10.911  28.974  1.00  0.00     0.003 C 
ATOM      6  C   UNL     1      29.567  10.958  30.498  1.00  0.00     0.009 C 
ATOM      7  C   UNL     1      30.500   9.984  31.212  1.00  0.00     0.031 C 
ATOM      8  C   UNL     1      30.567   8.611  30.572  1.00  0.00    -0.073 C 
ATOM      9  C   UNL     1      30.169   8.402  29.282  1.00  0.00    -0.064 C 
ATOM     10  C   UNL     1      30.325   7.062  28.591  1.00  0.00     0.036 C 
ATOM     11  C   UNL     1      31.051   7.281  27.267  1.00  0.00     0.035 C 
ATOM     12  C   UNL     1      31.237   7.528  31.384  1.00  0.00     0.039 C 
ENDROOT
BRANCH   5  13
ATOM     13  C   UNL     1      29.060  12.070  28.219  1.00  0.00    -0.013 C 
ATOM     14  C   UNL     1      28.119  12.896  29.113  1.00  0.00     0.007 C 
ATOM     15  C   UNL     1      30.038  13.001  27.484  1.00  0.00     0.007 C 
ENDBRANCH   5  13
TORSDOF 1
ENDMDL
MODEL 9
REMARK VINA RESULT:    -4.792      1.286      4.186
REMARK INTER + INTRA:          -5.339
REMARK INTER:                  -5.112
REMARK INTRA:                  -0.228
REMARK UNBOUND:                -0.268
REMARK SMILES CC1=C[C@H]2C(=C(C)CC[C@@H]2C(C)C)CC1
REMARK SMILES IDX 1 1 2 2 3 3 4 4 10 5 9 6 8 7 6 8 5 9 14 10 15 11 7 12 11 13
REMARK SMILES IDX 12 14 13 15
REMARK H PARENT
REMARK Flexibility Score: inf
ROOT
ATOM      1  C   UNL     1      31.096   6.981  33.503  1.00  0.00     0.039 C 
ATOM      2  C   UNL     1      30.871   7.413  32.079  1.00  0.00    -0.076 C 
ATOM      3  C   UNL     1      30.885   8.729  31.778  1.00  0.00    -0.020 C 
ATOM      4  C   UNL     1      30.718   9.283  30.366  1.00  0.00     0.041 C 
ATOM      5  C   UNL     1      29.629  10.395  30.299  1.00  0.00     0.003 C 
ATOM      6  C   UNL     1      29.531  10.869  28.835  1.00  0.00     0.009 C 
ATOM      7  C   UNL     1      29.065   9.729  27.932  1.00  0.00     0.031 C 
ATOM      8  C   UNL     1      29.779   8.415  28.180  1.00  0.00    -0.073 C 
ATOM      9  C   UNL     1      30.454   8.174  29.343  1.00  0.00    -0.064 C 
ATOM     10  C   UNL     1      31.085   6.831  29.652  1.00  0.00     0.036 C 
ATOM     11  C   UNL     1      30.595   6.370  31.022  1.00  0.00     0.035 C 
ATOM     12  C   UNL     1      29.575   7.338  27.140  1.00  0.00     0.039 C 
ENDROOT
BRANCH   5  13
ATOM     13  C   UNL     1      29.845  11.582  31.300  1.00  0.00    -0.013 C 
ATOM     14  C   UNL     1      31.241  12.222  31.214  1.00  0.00     0.007 C 
ATOM     15  C   UNL     1      28.761  12.663  31.164  1.00  0.00     0.007 C 
ENDBRANCH   5  13
TORSDOF 1
ENDMDL
