MODEL 1
REMARK VINA RESULT:    -0.562      0.000      0.000
REMARK INTER + INTRA:          -1.292
REMARK INTER:                  -0.694
REMARK INTRA:                  -0.598
REMARK UNBOUND:                -0.598
REMARK SMILES CC(C)=CCC[C@@H](C)c1ccc(C)cc1
REMARK SMILES IDX 6 1 7 2 8 3 9 4 13 5 12 6 11 7 14 8 10 9 15 10 5 11 4 12
REMARK SMILES IDX 2 13 1 14 3 15
REMARK H PARENT
REMARK Flexibility Score: inf
ROOT
ATOM      1  C   UNL     1      31.228  22.693  34.127  1.00  0.00     0.012 C 
ENDROOT
BRANCH   1   2
ATOM      2  C   UNL     1      31.368  21.157  33.996  1.00  0.00     0.016 C 
ATOM      3  C   UNL     1      32.125  20.533  35.180  1.00  0.00     0.013 C 
BRANCH   2   4
ATOM      4  C   UNL     1      30.000  20.517  33.846  1.00  0.00    -0.045 A 
ATOM      5  C   UNL     1      26.093  18.728  33.408  1.00  0.00     0.044 C 
ATOM      6  C   UNL     1      27.441  19.357  33.590  1.00  0.00    -0.051 A 
ATOM      7  C   UNL     1      27.650  20.696  33.232  1.00  0.00     0.004 A 
ATOM      8  C   UNL     1      28.521  18.593  34.055  1.00  0.00     0.004 A 
ATOM      9  C   UNL     1      28.916  21.274  33.366  1.00  0.00     0.004 A 
ATOM     10  C   UNL     1      29.787  19.169  34.190  1.00  0.00     0.004 A 
ENDBRANCH   2   4
ENDBRANCH   1   2
BRANCH   1  11
ATOM     11  C   UNL     1      31.604  23.246  35.513  1.00  0.00     0.028 C 
BRANCH  11  12
ATOM     12  C   UNL     1      30.678  24.353  35.962  1.00  0.00    -0.028 C 
ATOM     13  C   UNL     1      30.785  25.016  37.135  1.00  0.00    -0.080 C 
ATOM     14  C   UNL     1      31.908  24.748  38.110  1.00  0.00     0.039 C 
ATOM     15  C   UNL     1      29.759  26.071  37.457  1.00  0.00     0.039 C 
ENDBRANCH  11  12
ENDBRANCH   1  11
TORSDOF 4
ENDMDL
MODEL 2
REMARK VINA RESULT:    -0.059      1.077      5.843
REMARK INTER + INTRA:          -0.671
REMARK INTER:                  -0.569
REMARK INTRA:                  -0.102
REMARK UNBOUND:                -0.598
REMARK SMILES CC(C)=CCC[C@@H](C)c1ccc(C)cc1
REMARK SMILES IDX 6 1 7 2 8 3 9 4 13 5 12 6 11 7 14 8 10 9 15 10 5 11 4 12
REMARK SMILES IDX 2 13 1 14 3 15
REMARK H PARENT
REMARK Flexibility Score: inf
ROOT
ATOM      1  C   UNL     1      32.124  21.015  35.130  1.00  0.00     0.012 C 
ENDROOT
BRANCH   1   2
ATOM      2  C   UNL     1      32.111  22.426  34.492  1.00  0.00     0.016 C 
ATOM      3  C   UNL     1      31.415  22.444  33.122  1.00  0.00     0.013 C 
BRANCH   2   4
ATOM      4  C   UNL     1      31.455  23.420  35.433  1.00  0.00    -0.045 A 
ATOM      5  C   UNL     1      29.558  26.250  38.090  1.00  0.00     0.044 C 
ATOM      6  C   UNL     1      30.228  25.292  37.151  1.00  0.00    -0.051 A 
ATOM      7  C   UNL     1      29.550  24.820  36.019  1.00  0.00     0.004 A 
ATOM      8  C   UNL     1      31.513  24.808  37.435  1.00  0.00     0.004 A 
ATOM      9  C   UNL     1      30.160  23.898  35.163  1.00  0.00     0.004 A 
ATOM     10  C   UNL     1      32.125  23.886  36.579  1.00  0.00     0.004 A 
ENDBRANCH   2   4
ENDBRANCH   1   2
BRANCH   1  11
ATOM     11  C   UNL     1      31.749  19.880  34.162  1.00  0.00     0.028 C 
BRANCH  11  12
ATOM     12  C   UNL     1      30.349  19.361  34.396  1.00  0.00    -0.028 C 
ATOM     13  C   UNL     1      29.281  19.658  33.624  1.00  0.00    -0.080 C 
ATOM     14  C   UNL     1      29.398  20.511  32.382  1.00  0.00     0.039 C 
ATOM     15  C   UNL     1      27.938  19.093  34.011  1.00  0.00     0.039 C 
ENDBRANCH  11  12
ENDBRANCH   1  11
TORSDOF 4
ENDMDL
MODEL 3
REMARK VINA RESULT:     1.028      1.176      5.763
REMARK INTER + INTRA:           0.670
REMARK INTER:                   1.635
REMARK INTRA:                  -0.965
REMARK UNBOUND:                -0.598
REMARK SMILES CC(C)=CCC[C@@H](C)c1ccc(C)cc1
REMARK SMILES IDX 6 1 7 2 8 3 9 4 13 5 12 6 11 7 14 8 10 9 15 10 5 11 4 12
REMARK SMILES IDX 2 13 1 14 3 15
REMARK H PARENT
REMARK Flexibility Score: inf
ROOT
ATOM      1  C   UNL     1      31.193  19.567  33.960  1.00  0.00     0.012 C 
ENDROOT
BRANCH   1   2
ATOM      2  C   UNL     1      31.213  20.956  33.276  1.00  0.00     0.016 C 
ATOM      3  C   UNL     1      30.122  21.097  32.202  1.00  0.00     0.013 C 
BRANCH   2   4
ATOM      4  C   UNL     1      31.078  22.053  34.316  1.00  0.00    -0.045 A 
ATOM      5  C   UNL     1      30.724  25.189  37.266  1.00  0.00     0.044 C 
ATOM      6  C   UNL     1      30.859  24.082  36.265  1.00  0.00    -0.051 A 
ATOM      7  C   UNL     1      32.009  23.986  35.467  1.00  0.00     0.004 A 
ATOM      8  C   UNL     1      29.809  23.174  36.069  1.00  0.00     0.004 A 
ATOM      9  C   UNL     1      32.121  22.977  34.507  1.00  0.00     0.004 A 
ATOM     10  C   UNL     1      29.920  22.163  35.108  1.00  0.00     0.004 A 
ENDBRANCH   2   4
ENDBRANCH   1   2
BRANCH   1  11
ATOM     11  C   UNL     1      30.074  18.634  33.464  1.00  0.00     0.028 C 
BRANCH  11  12
ATOM     12  C   UNL     1      29.024  18.382  34.521  1.00  0.00    -0.028 C 
ATOM     13  C   UNL     1      27.742  18.802  34.445  1.00  0.00    -0.080 C 
ATOM     14  C   UNL     1      27.205  19.531  33.235  1.00  0.00     0.039 C 
ATOM     15  C   UNL     1      26.821  18.505  35.600  1.00  0.00     0.039 C 
ENDBRANCH  11  12
ENDBRANCH   1  11
TORSDOF 4
ENDMDL
MODEL 4
REMARK VINA RESULT:     1.601      9.088     11.276
REMARK INTER + INTRA:           1.377
REMARK INTER:                   0.679
REMARK INTRA:                   0.698
REMARK UNBOUND:                -0.598
REMARK SMILES CC(C)=CCC[C@@H](C)c1ccc(C)cc1
REMARK SMILES IDX 6 1 7 2 8 3 9 4 13 5 12 6 11 7 14 8 10 9 15 10 5 11 4 12
REMARK SMILES IDX 2 13 1 14 3 15
REMARK H PARENT
REMARK Flexibility Score: inf
ROOT
ATOM      1  C   UNL     1      20.534  24.973  37.959  1.00  0.00     0.012 C 
ENDROOT
BRANCH   1   2
ATOM      2  C   UNL     1      19.230  25.525  37.334  1.00  0.00     0.016 C 
ATOM      3  C   UNL     1      18.656  26.712  38.125  1.00  0.00     0.013 C 
BRANCH   2   4
ATOM      4  C   UNL     1      19.469  25.919  35.888  1.00  0.00    -0.045 A 
ATOM      5  C   UNL     1      20.121  27.064  31.773  1.00  0.00     0.044 C 
ATOM      6  C   UNL     1      19.876  26.643  33.191  1.00  0.00    -0.051 A 
ATOM      7  C   UNL     1      18.833  27.221  33.930  1.00  0.00     0.004 A 
ATOM      8  C   UNL     1      20.729  25.719  33.812  1.00  0.00     0.004 A 
ATOM      9  C   UNL     1      18.626  26.857  35.264  1.00  0.00     0.004 A 
ATOM     10  C   UNL     1      20.523  25.354  35.146  1.00  0.00     0.004 A 
ENDBRANCH   2   4
ENDBRANCH   1   2
BRANCH   1  11
ATOM     11  C   UNL     1      21.314  24.009  37.047  1.00  0.00     0.028 C 
BRANCH  11  12
ATOM     12  C   UNL     1      21.624  22.696  37.728  1.00  0.00    -0.028 C 
ATOM     13  C   UNL     1      21.756  21.512  37.090  1.00  0.00    -0.080 C 
ATOM     14  C   UNL     1      21.663  21.395  35.586  1.00  0.00     0.039 C 
ATOM     15  C   UNL     1      22.029  20.281  37.915  1.00  0.00     0.039 C 
ENDBRANCH  11  12
ENDBRANCH   1  11
TORSDOF 4
ENDMDL
MODEL 5
REMARK VINA RESULT:     1.608      9.047     11.293
REMARK INTER + INTRA:           1.385
REMARK INTER:                   1.162
REMARK INTRA:                   0.223
REMARK UNBOUND:                -0.598
REMARK SMILES CC(C)=CCC[C@@H](C)c1ccc(C)cc1
REMARK SMILES IDX 6 1 7 2 8 3 9 4 13 5 12 6 11 7 14 8 10 9 15 10 5 11 4 12
REMARK SMILES IDX 2 13 1 14 3 15
REMARK H PARENT
REMARK Flexibility Score: inf
ROOT
ATOM      1  C   UNL     1      21.123  23.932  33.994  1.00  0.00     0.012 C 
ENDROOT
BRANCH   1   2
ATOM      2  C   UNL     1      20.864  25.458  33.948  1.00  0.00     0.016 C 
ATOM      3  C   UNL     1      20.352  25.925  32.576  1.00  0.00     0.013 C 
BRANCH   2   4
ATOM      4  C   UNL     1      19.889  25.857  35.040  1.00  0.00    -0.045 A 
ATOM      5  C   UNL     1      17.093  27.009  38.125  1.00  0.00     0.044 C 
ATOM      6  C   UNL     1      18.079  26.636  37.060  1.00  0.00    -0.051 A 
ATOM      7  C   UNL     1      17.849  26.997  35.725  1.00  0.00     0.004 A 
ATOM      8  C   UNL     1      19.205  25.864  37.379  1.00  0.00     0.004 A 
ATOM      9  C   UNL     1      18.749  26.618  34.725  1.00  0.00     0.004 A 
ATOM     10  C   UNL     1      20.107  25.484  36.380  1.00  0.00     0.004 A 
ENDBRANCH   2   4
ENDBRANCH   1   2
BRANCH   1  11
ATOM     11  C   UNL     1      21.607  23.413  35.360  1.00  0.00     0.028 C 
BRANCH  11  12
ATOM     12  C   UNL     1      21.985  21.951  35.319  1.00  0.00    -0.028 C 
ATOM     13  C   UNL     1      22.033  21.140  36.399  1.00  0.00    -0.080 C 
ATOM     14  C   UNL     1      21.644  21.616  37.780  1.00  0.00     0.039 C 
ATOM     15  C   UNL     1      22.466  19.710  36.202  1.00  0.00     0.039 C 
ENDBRANCH  11  12
ENDBRANCH   1  11
TORSDOF 4
ENDMDL
MODEL 6
REMARK VINA RESULT:     1.966      2.800      6.559
REMARK INTER + INTRA:           1.827
REMARK INTER:                   1.250
REMARK INTRA:                   0.577
REMARK UNBOUND:                -0.598
REMARK SMILES CC(C)=CCC[C@@H](C)c1ccc(C)cc1
REMARK SMILES IDX 6 1 7 2 8 3 9 4 13 5 12 6 11 7 14 8 10 9 15 10 5 11 4 12
REMARK SMILES IDX 2 13 1 14 3 15
REMARK H PARENT
REMARK Flexibility Score: inf
ROOT
ATOM      1  C   UNL     1      26.302  18.767  35.557  1.00  0.00     0.012 C 
ENDROOT
BRANCH   1   2
ATOM      2  C   UNL     1      26.989  18.576  34.182  1.00  0.00     0.016 C 
ATOM      3  C   UNL     1      26.110  19.055  33.016  1.00  0.00     0.013 C 
BRANCH   2   4
ATOM      4  C   UNL     1      28.329  19.289  34.163  1.00  0.00    -0.045 A 
ATOM      5  C   UNL     1      32.125  21.350  34.099  1.00  0.00     0.044 C 
ATOM      6  C   UNL     1      30.811  20.629  34.090  1.00  0.00    -0.051 A 
ATOM      7  C   UNL     1      29.617  21.337  33.888  1.00  0.00     0.004 A 
ATOM      8  C   UNL     1      30.757  19.253  34.351  1.00  0.00     0.004 A 
ATOM      9  C   UNL     1      28.388  20.672  33.916  1.00  0.00     0.004 A 
ATOM     10  C   UNL     1      29.528  18.586  34.379  1.00  0.00     0.004 A 
ENDBRANCH   2   4
ENDBRANCH   1   2
BRANCH   1  11
ATOM     11  C   UNL     1      26.501  17.594  36.532  1.00  0.00     0.028 C 
BRANCH  11  12
ATOM     12  C   UNL     1      25.281  17.342  37.387  1.00  0.00    -0.028 C 
ATOM     13  C   UNL     1      24.060  17.874  37.158  1.00  0.00    -0.080 C 
ATOM     14  C   UNL     1      23.776  18.747  35.958  1.00  0.00     0.039 C 
ATOM     15  C   UNL     1      22.948  17.558  38.125  1.00  0.00     0.039 C 
ENDBRANCH  11  12
ENDBRANCH   1  11
TORSDOF 4
ENDMDL
MODEL 7
REMARK VINA RESULT:     1.985      2.998      5.139
REMARK INTER + INTRA:           1.851
REMARK INTER:                   2.453
REMARK INTRA:                  -0.601
REMARK UNBOUND:                -0.598
REMARK SMILES CC(C)=CCC[C@@H](C)c1ccc(C)cc1
REMARK SMILES IDX 6 1 7 2 8 3 9 4 13 5 12 6 11 7 14 8 10 9 15 10 5 11 4 12
REMARK SMILES IDX 2 13 1 14 3 15
REMARK H PARENT
REMARK Flexibility Score: inf
ROOT
ATOM      1  C   UNL     1      27.787  19.107  34.422  1.00  0.00     0.012 C 
ENDROOT
BRANCH   1   2
ATOM      2  C   UNL     1      27.647  17.800  35.239  1.00  0.00     0.016 C 
ATOM      3  C   UNL     1      28.822  17.585  36.207  1.00  0.00     0.013 C 
BRANCH   2   4
ATOM      4  C   UNL     1      26.331  17.794  35.995  1.00  0.00    -0.045 A 
ATOM      5  C   UNL     1      22.572  17.802  38.125  1.00  0.00     0.044 C 
ATOM      6  C   UNL     1      23.887  17.822  37.405  1.00  0.00    -0.051 A 
ATOM      7  C   UNL     1      24.069  18.647  36.286  1.00  0.00     0.004 A 
ATOM      8  C   UNL     1      24.924  16.966  37.803  1.00  0.00     0.004 A 
ATOM      9  C   UNL     1      25.282  18.639  35.592  1.00  0.00     0.004 A 
ATOM     10  C   UNL     1      26.138  16.957  37.110  1.00  0.00     0.004 A 
ENDBRANCH   2   4
ENDBRANCH   1   2
BRANCH   1  11
ATOM     11  C   UNL     1      29.178  19.317  33.797  1.00  0.00     0.028 C 
BRANCH  11  12
ATOM     12  C   UNL     1      29.710  20.712  34.031  1.00  0.00    -0.028 C 
ATOM     13  C   UNL     1      30.980  20.999  34.390  1.00  0.00    -0.080 C 
ATOM     14  C   UNL     1      32.036  19.927  34.538  1.00  0.00     0.039 C 
ATOM     15  C   UNL     1      31.350  22.441  34.624  1.00  0.00     0.039 C 
ENDBRANCH  11  12
ENDBRANCH   1  11
TORSDOF 4
ENDMDL
