MODEL 1
REMARK VINA RESULT:    -4.944      0.000      0.000
REMARK INTER + INTRA:          -8.484
REMARK INTER:                  -7.546
REMARK INTRA:                  -0.938
REMARK UNBOUND:                -0.938
REMARK SMILES O=C([O-])CCCCCCCCC(=O)[O-]
REMARK SMILES IDX 7 1 6 2 5 3 4 4 2 5 1 6 3 7 8 8 9 9 10 10 11 11 12 12 13 13
REMARK SMILES IDX 14 14
REMARK H PARENT
REMARK Flexibility Score: inf
ROOT
ATOM      1  C   UNL     1      87.906  77.374  71.512  1.00  0.00     0.000 C 
ENDROOT
BRANCH   1   2
ATOM      2  C   UNL     1      87.443  76.337  70.478  1.00  0.00     0.000 C 
BRANCH   2   3
ATOM      3  C   UNL     1      88.418  76.197  69.295  1.00  0.00     0.006 C 
BRANCH   3   4
ATOM      4  C   UNL     1      89.144  74.844  69.230  1.00  0.00     0.053 C 
BRANCH   4   5
ATOM      5  C   UNL     1      90.460  74.880  69.944  1.00  0.00     0.041 C 
ATOM      6  O   UNL     1      90.978  75.982  70.263  1.00  0.00    -0.550 OA
ATOM      7  O   UNL     1      91.130  73.697  70.227  1.00  0.00    -0.550 OA
ENDBRANCH   4   5
ENDBRANCH   3   4
ENDBRANCH   2   3
ENDBRANCH   1   2
BRANCH   1   8
ATOM      8  C   UNL     1      87.186  77.175  72.851  1.00  0.00     0.000 C 
BRANCH   8   9
ATOM      9  C   UNL     1      86.427  75.843  72.877  1.00  0.00     0.000 C 
BRANCH   9  10
ATOM     10  C   UNL     1      87.079  74.855  73.851  1.00  0.00     0.006 C 
BRANCH  10  11
ATOM     11  C   UNL     1      88.014  73.893  73.113  1.00  0.00     0.053 C 
BRANCH  11  12
ATOM     12  C   UNL     1      89.438  74.147  73.497  1.00  0.00     0.041 C 
ATOM     13  O   UNL     1      90.298  73.235  73.381  1.00  0.00    -0.550 OA
ATOM     14  O   UNL     1      89.804  75.376  74.031  1.00  0.00    -0.550 OA
ENDBRANCH  11  12
ENDBRANCH  10  11
ENDBRANCH   9  10
ENDBRANCH   8   9
ENDBRANCH   1   8
TORSDOF 9
ENDMDL
MODEL 2
REMARK VINA RESULT:    -4.876      0.280      3.738
REMARK INTER + INTRA:          -8.381
REMARK INTER:                  -7.502
REMARK INTRA:                  -0.878
REMARK UNBOUND:                -0.938
REMARK SMILES O=C([O-])CCCCCCCCC(=O)[O-]
REMARK SMILES IDX 7 1 6 2 5 3 4 4 2 5 1 6 3 7 8 8 9 9 10 10 11 11 12 12 13 13
REMARK SMILES IDX 14 14
REMARK H PARENT
REMARK Flexibility Score: inf
ROOT
ATOM      1  C   UNL     1      87.243  77.103  72.908  1.00  0.00     0.000 C 
ENDROOT
BRANCH   1   2
ATOM      2  C   UNL     1      86.424  75.805  72.901  1.00  0.00     0.000 C 
BRANCH   2   3
ATOM      3  C   UNL     1      87.006  74.726  73.832  1.00  0.00     0.006 C 
BRANCH   3   4
ATOM      4  C   UNL     1      88.116  73.874  73.197  1.00  0.00     0.053 C 
BRANCH   4   5
ATOM      5  C   UNL     1      89.443  74.103  73.852  1.00  0.00     0.041 C 
ATOM      6  O   UNL     1      89.621  75.110  74.586  1.00  0.00    -0.550 OA
ATOM      7  O   UNL     1      90.492  73.222  73.625  1.00  0.00    -0.550 OA
ENDBRANCH   4   5
ENDBRANCH   3   4
ENDBRANCH   2   3
ENDBRANCH   1   2
BRANCH   1   8
ATOM      8  C   UNL     1      87.917  77.335  71.550  1.00  0.00     0.000 C 
BRANCH   8   9
ATOM      9  C   UNL     1      87.454  76.298  70.520  1.00  0.00     0.000 C 
BRANCH   9  10
ATOM     10  C   UNL     1      88.384  76.278  69.302  1.00  0.00     0.006 C 
BRANCH  10  11
ATOM     11  C   UNL     1      89.160  74.960  69.224  1.00  0.00     0.053 C 
BRANCH  11  12
ATOM     12  C   UNL     1      90.463  75.074  69.948  1.00  0.00     0.041 C 
ATOM     13  O   UNL     1      91.000  74.053  70.451  1.00  0.00    -0.550 OA
ATOM     14  O   UNL     1      91.060  76.318  70.112  1.00  0.00    -0.550 OA
ENDBRANCH  11  12
ENDBRANCH  10  11
ENDBRANCH   9  10
ENDBRANCH   8   9
ENDBRANCH   1   8
TORSDOF 9
ENDMDL
MODEL 3
REMARK VINA RESULT:    -4.874      1.854      3.427
REMARK INTER + INTRA:          -8.377
REMARK INTER:                  -7.525
REMARK INTRA:                  -0.852
REMARK UNBOUND:                -0.938
REMARK SMILES O=C([O-])CCCCCCCCC(=O)[O-]
REMARK SMILES IDX 7 1 6 2 5 3 4 4 2 5 1 6 3 7 8 8 9 9 10 10 11 11 12 12 13 13
REMARK SMILES IDX 14 14
REMARK H PARENT
REMARK Flexibility Score: inf
ROOT
ATOM      1  C   UNL     1      90.515  75.239  69.623  1.00  0.00     0.000 C 
ENDROOT
BRANCH   1   2
ATOM      2  C   UNL     1      89.125  75.114  68.982  1.00  0.00     0.000 C 
BRANCH   2   3
ATOM      3  C   UNL     1      88.231  76.338  69.253  1.00  0.00     0.006 C 
BRANCH   3   4
ATOM      4  C   UNL     1      87.563  76.341  70.637  1.00  0.00     0.053 C 
BRANCH   4   5
ATOM      5  C   UNL     1      88.232  77.293  71.580  1.00  0.00     0.041 C 
ATOM      6  O   UNL     1      89.376  77.034  72.036  1.00  0.00    -0.550 OA
ATOM      7  O   UNL     1      87.578  78.451  71.978  1.00  0.00    -0.550 OA
ENDBRANCH   4   5
ENDBRANCH   3   4
ENDBRANCH   2   3
ENDBRANCH   1   2
BRANCH   1   8
ATOM      8  C   UNL     1      90.919  73.933  70.318  1.00  0.00     0.000 C 
BRANCH   8   9
ATOM      9  C   UNL     1      89.705  73.250  70.959  1.00  0.00     0.000 C 
BRANCH   9  10
ATOM     10  C   UNL     1      89.642  73.538  72.463  1.00  0.00     0.006 C 
BRANCH  10  11
ATOM     11  C   UNL     1      88.195  73.715  72.929  1.00  0.00     0.053 C 
BRANCH  11  12
ATOM     12  C   UNL     1      88.149  74.035  74.389  1.00  0.00     0.041 C 
ATOM     13  O   UNL     1      87.527  73.283  75.184  1.00  0.00    -0.550 OA
ATOM     14  O   UNL     1      88.751  75.193  74.866  1.00  0.00    -0.550 OA
ENDBRANCH  11  12
ENDBRANCH  10  11
ENDBRANCH   9  10
ENDBRANCH   8   9
ENDBRANCH   1   8
TORSDOF 9
ENDMDL
MODEL 4
REMARK VINA RESULT:    -4.648      2.112      4.412
REMARK INTER + INTRA:          -8.032
REMARK INTER:                  -6.997
REMARK INTRA:                  -1.036
REMARK UNBOUND:                -0.938
REMARK SMILES O=C([O-])CCCCCCCCC(=O)[O-]
REMARK SMILES IDX 7 1 6 2 5 3 4 4 2 5 1 6 3 7 8 8 9 9 10 10 11 11 12 12 13 13
REMARK SMILES IDX 14 14
REMARK H PARENT
REMARK Flexibility Score: inf
ROOT
ATOM      1  C   UNL     1      90.484  74.652  69.923  1.00  0.00     0.000 C 
ENDROOT
BRANCH   1   2
ATOM      2  C   UNL     1      90.220  73.261  70.517  1.00  0.00     0.000 C 
BRANCH   2   3
ATOM      3  C   UNL     1      89.244  73.295  71.707  1.00  0.00     0.006 C 
BRANCH   3   4
ATOM      4  C   UNL     1      89.765  74.067  72.930  1.00  0.00     0.053 C 
BRANCH   4   5
ATOM      5  C   UNL     1      88.714  74.218  73.987  1.00  0.00     0.041 C 
ATOM      6  O   UNL     1      87.612  73.619  73.874  1.00  0.00    -0.550 OA
ATOM      7  O   UNL     1      88.940  75.045  75.078  1.00  0.00    -0.550 OA
ENDBRANCH   4   5
ENDBRANCH   3   4
ENDBRANCH   2   3
ENDBRANCH   1   2
BRANCH   1   8
ATOM      8  C   UNL     1      89.424  75.014  68.876  1.00  0.00     0.000 C 
BRANCH   8   9
ATOM      9  C   UNL     1      88.915  76.446  69.077  1.00  0.00     0.000 C 
BRANCH   9  10
ATOM     10  C   UNL     1      88.911  76.825  70.562  1.00  0.00     0.006 C 
BRANCH  10  11
ATOM     11  C   UNL     1      87.511  76.672  71.165  1.00  0.00     0.053 C 
BRANCH  11  12
ATOM     12  C   UNL     1      87.482  77.199  72.564  1.00  0.00     0.041 C 
ATOM     13  O   UNL     1      88.497  77.762  73.051  1.00  0.00    -0.550 OA
ATOM     14  O   UNL     1      86.350  77.022  73.350  1.00  0.00    -0.550 OA
ENDBRANCH  11  12
ENDBRANCH  10  11
ENDBRANCH   9  10
ENDBRANCH   8   9
ENDBRANCH   1   8
TORSDOF 9
ENDMDL
MODEL 5
REMARK VINA RESULT:    -4.611      2.202      3.491
REMARK INTER + INTRA:          -7.975
REMARK INTER:                  -7.161
REMARK INTRA:                  -0.814
REMARK UNBOUND:                -0.938
REMARK SMILES O=C([O-])CCCCCCCCC(=O)[O-]
REMARK SMILES IDX 7 1 6 2 5 3 4 4 2 5 1 6 3 7 8 8 9 9 10 10 11 11 12 12 13 13
REMARK SMILES IDX 14 14
REMARK H PARENT
REMARK Flexibility Score: inf
ROOT
ATOM      1  C   UNL     1      90.230  73.549  71.007  1.00  0.00     0.000 C 
ENDROOT
BRANCH   1   2
ATOM      2  C   UNL     1      89.073  73.839  70.040  1.00  0.00     0.000 C 
BRANCH   2   3
ATOM      3  C   UNL     1      89.396  74.966  69.043  1.00  0.00     0.006 C 
BRANCH   3   4
ATOM      4  C   UNL     1      89.152  76.382  69.588  1.00  0.00     0.053 C 
BRANCH   4   5
ATOM      5  C   UNL     1      90.269  76.842  70.474  1.00  0.00     0.041 C 
ATOM      6  O   UNL     1      90.061  77.051  71.698  1.00  0.00    -0.550 OA
ATOM      7  O   UNL     1      91.530  77.072  69.940  1.00  0.00    -0.550 OA
ENDBRANCH   4   5
ENDBRANCH   3   4
ENDBRANCH   2   3
ENDBRANCH   1   2
BRANCH   1   8
ATOM      8  C   UNL     1      89.755  73.600  72.464  1.00  0.00     0.000 C 
BRANCH   8   9
ATOM      9  C   UNL     1      88.235  73.789  72.543  1.00  0.00     0.000 C 
BRANCH   9  10
ATOM     10  C   UNL     1      87.866  74.856  73.580  1.00  0.00     0.006 C 
BRANCH  10  11
ATOM     11  C   UNL     1      87.000  75.954  72.955  1.00  0.00     0.053 C 
BRANCH  11  12
ATOM     12  C   UNL     1      85.634  75.955  73.565  1.00  0.00     0.041 C 
ATOM     13  O   UNL     1      85.067  77.043  73.847  1.00  0.00    -0.550 OA
ATOM     14  O   UNL     1      85.008  74.752  73.868  1.00  0.00    -0.550 OA
ENDBRANCH  11  12
ENDBRANCH  10  11
ENDBRANCH   9  10
ENDBRANCH   8   9
ENDBRANCH   1   8
TORSDOF 9
ENDMDL
MODEL 6
REMARK VINA RESULT:    -4.477      1.849      3.688
REMARK INTER + INTRA:          -7.771
REMARK INTER:                  -6.821
REMARK INTRA:                  -0.951
REMARK UNBOUND:                -0.938
REMARK SMILES O=C([O-])CCCCCCCCC(=O)[O-]
REMARK SMILES IDX 7 1 6 2 5 3 4 4 2 5 1 6 3 7 8 8 9 9 10 10 11 11 12 12 13 13
REMARK SMILES IDX 14 14
REMARK H PARENT
REMARK Flexibility Score: inf
ROOT
ATOM      1  C   UNL     1      87.953  74.191  74.018  1.00  0.00     0.000 C 
ENDROOT
BRANCH   1   2
ATOM      2  C   UNL     1      89.485  74.270  73.968  1.00  0.00     0.000 C 
BRANCH   2   3
ATOM      3  C   UNL     1      90.083  73.516  72.767  1.00  0.00     0.006 C 
BRANCH   3   4
ATOM      4  C   UNL     1      89.100  73.292  71.608  1.00  0.00     0.053 C 
BRANCH   4   5
ATOM      5  C   UNL     1      89.798  73.235  70.283  1.00  0.00     0.041 C 
ATOM      6  O   UNL     1      91.016  73.542  70.196  1.00  0.00    -0.550 OA
ATOM      7  O   UNL     1      89.095  72.876  69.141  1.00  0.00    -0.550 OA
ENDBRANCH   4   5
ENDBRANCH   3   4
ENDBRANCH   2   3
ENDBRANCH   1   2
BRANCH   1   8
ATOM      8  C   UNL     1      87.320  75.536  73.639  1.00  0.00     0.000 C 
BRANCH   8   9
ATOM      9  C   UNL     1      88.392  76.616  73.451  1.00  0.00     0.000 C 
BRANCH   9  10
ATOM     10  C   UNL     1      88.254  77.297  72.085  1.00  0.00     0.006 C 
BRANCH  10  11
ATOM     11  C   UNL     1      87.313  76.508  71.170  1.00  0.00     0.053 C 
BRANCH  11  12
ATOM     12  C   UNL     1      87.925  76.327  69.817  1.00  0.00     0.041 C 
ATOM     13  O   UNL     1      87.248  75.840  68.875  1.00  0.00    -0.550 OA
ATOM     14  O   UNL     1      89.261  76.650  69.611  1.00  0.00    -0.550 OA
ENDBRANCH  11  12
ENDBRANCH  10  11
ENDBRANCH   9  10
ENDBRANCH   8   9
ENDBRANCH   1   8
TORSDOF 9
ENDMDL
MODEL 7
REMARK VINA RESULT:    -4.465      1.790      3.250
REMARK INTER + INTRA:          -7.753
REMARK INTER:                  -6.798
REMARK INTRA:                  -0.955
REMARK UNBOUND:                -0.938
REMARK SMILES O=C([O-])CCCCCCCCC(=O)[O-]
REMARK SMILES IDX 7 1 6 2 5 3 4 4 2 5 1 6 3 7 8 8 9 9 10 10 11 11 12 12 13 13
REMARK SMILES IDX 14 14
REMARK H PARENT
REMARK Flexibility Score: inf
ROOT
ATOM      1  C   UNL     1      88.595  74.041  74.429  1.00  0.00     0.000 C 
ENDROOT
BRANCH   1   2
ATOM      2  C   UNL     1      89.707  73.958  73.373  1.00  0.00     0.000 C 
BRANCH   2   3
ATOM      3  C   UNL     1      89.175  73.616  71.970  1.00  0.00     0.006 C 
BRANCH   3   4
ATOM      4  C   UNL     1      90.251  73.594  70.873  1.00  0.00     0.053 C 
BRANCH   4   5
ATOM      5  C   UNL     1      90.104  74.741  69.921  1.00  0.00     0.041 C 
ATOM      6  O   UNL     1      89.235  74.701  69.010  1.00  0.00    -0.550 OA
ATOM      7  O   UNL     1      90.947  75.840  70.020  1.00  0.00    -0.550 OA
ENDBRANCH   4   5
ENDBRANCH   3   4
ENDBRANCH   2   3
ENDBRANCH   1   2
BRANCH   1   8
ATOM      8  C   UNL     1      87.238  73.655  73.828  1.00  0.00     0.000 C 
BRANCH   8   9
ATOM      9  C   UNL     1      86.204  74.768  74.042  1.00  0.00     0.000 C 
BRANCH   9  10
ATOM     10  C   UNL     1      86.155  75.713  72.837  1.00  0.00     0.006 C 
BRANCH  10  11
ATOM     11  C   UNL     1      86.729  77.087  73.192  1.00  0.00     0.053 C 
BRANCH  11  12
ATOM     12  C   UNL     1      88.053  77.291  72.526  1.00  0.00     0.041 C 
ATOM     13  O   UNL     1      89.086  77.491  73.216  1.00  0.00    -0.550 OA
ATOM     14  O   UNL     1      88.137  77.312  71.139  1.00  0.00    -0.550 OA
ENDBRANCH  11  12
ENDBRANCH  10  11
ENDBRANCH   9  10
ENDBRANCH   8   9
ENDBRANCH   1   8
TORSDOF 9
ENDMDL
MODEL 8
REMARK VINA RESULT:    -4.417      2.153      2.699
REMARK INTER + INTRA:          -7.679
REMARK INTER:                  -7.057
REMARK INTRA:                  -0.623
REMARK UNBOUND:                -0.938
REMARK SMILES O=C([O-])CCCCCCCCC(=O)[O-]
REMARK SMILES IDX 7 1 6 2 5 3 4 4 2 5 1 6 3 7 8 8 9 9 10 10 11 11 12 12 13 13
REMARK SMILES IDX 14 14
REMARK H PARENT
REMARK Flexibility Score: inf
ROOT
ATOM      1  C   UNL     1      89.479  77.000  71.729  1.00  0.00     0.000 C 
ENDROOT
BRANCH   1   2
ATOM      2  C   UNL     1      89.982  76.643  70.323  1.00  0.00     0.000 C 
BRANCH   2   3
ATOM      3  C   UNL     1      88.877  76.055  69.426  1.00  0.00     0.006 C 
BRANCH   3   4
ATOM      4  C   UNL     1      89.083  74.578  69.055  1.00  0.00     0.053 C 
BRANCH   4   5
ATOM      5  C   UNL     1      89.633  73.784  70.200  1.00  0.00     0.041 C 
ATOM      6  O   UNL     1      90.811  73.342  70.155  1.00  0.00    -0.550 OA
ATOM      7  O   UNL     1      88.834  73.506  71.301  1.00  0.00    -0.550 OA
ENDBRANCH   4   5
ENDBRANCH   3   4
ENDBRANCH   2   3
ENDBRANCH   1   2
BRANCH   1   8
ATOM      8  C   UNL     1      87.974  77.299  71.716  1.00  0.00     0.000 C 
BRANCH   8   9
ATOM      9  C   UNL     1      87.292  76.753  72.976  1.00  0.00     0.000 C 
BRANCH   9  10
ATOM     10  C   UNL     1      86.125  75.828  72.613  1.00  0.00     0.006 C 
BRANCH  10  11
ATOM     11  C   UNL     1      85.279  75.500  73.847  1.00  0.00     0.053 C 
BRANCH  11  12
ATOM     12  C   UNL     1      85.602  74.131  74.355  1.00  0.00     0.041 C 
ATOM     13  O   UNL     1      86.499  73.443  73.800  1.00  0.00    -0.550 OA
ATOM     14  O   UNL     1      84.876  73.593  75.411  1.00  0.00    -0.550 OA
ENDBRANCH  11  12
ENDBRANCH  10  11
ENDBRANCH   9  10
ENDBRANCH   8   9
ENDBRANCH   1   8
TORSDOF 9
ENDMDL
MODEL 9
REMARK VINA RESULT:    -3.875     13.590     15.060
REMARK INTER + INTRA:          -6.853
REMARK INTER:                  -6.399
REMARK INTRA:                  -0.453
REMARK UNBOUND:                -0.938
REMARK SMILES O=C([O-])CCCCCCCCC(=O)[O-]
REMARK SMILES IDX 7 1 6 2 5 3 4 4 2 5 1 6 3 7 8 8 9 9 10 10 11 11 12 12 13 13
REMARK SMILES IDX 14 14
REMARK H PARENT
REMARK Flexibility Score: inf
ROOT
ATOM      1  C   UNL     1      96.953  84.024  80.523  1.00  0.00     0.000 C 
ENDROOT
BRANCH   1   2
ATOM      2  C   UNL     1      97.319  82.539  80.657  1.00  0.00     0.000 C 
BRANCH   2   3
ATOM      3  C   UNL     1      98.339  82.275  81.779  1.00  0.00     0.006 C 
BRANCH   3   4
ATOM      4  C   UNL     1      99.660  83.046  81.629  1.00  0.00     0.053 C 
BRANCH   4   5
ATOM      5  C   UNL     1     100.032  83.770  82.886  1.00  0.00     0.041 C 
ATOM      6  O   UNL     1      99.136  84.195  83.661  1.00  0.00    -0.550 OA
ATOM      7  O   UNL     1     101.368  84.004  83.183  1.00  0.00    -0.550 OA
ENDBRANCH   4   5
ENDBRANCH   3   4
ENDBRANCH   2   3
ENDBRANCH   1   2
BRANCH   1   8
ATOM      8  C   UNL     1      95.506  84.192  80.042  1.00  0.00     0.000 C 
BRANCH   8   9
ATOM      9  C   UNL     1      94.640  83.001  80.469  1.00  0.00     0.000 C 
BRANCH   9  10
ATOM     10  C   UNL     1      93.168  83.233  80.109  1.00  0.00     0.006 C 
BRANCH  10  11
ATOM     11  C   UNL     1      93.025  84.356  79.078  1.00  0.00     0.053 C 
BRANCH  11  12
ATOM     12  C   UNL     1      91.585  84.569  78.731  1.00  0.00     0.041 C 
ATOM     13  O   UNL     1      91.243  85.553  78.025  1.00  0.00    -0.550 OA
ATOM     14  O   UNL     1      90.616  83.708  79.231  1.00  0.00    -0.550 OA
ENDBRANCH  11  12
ENDBRANCH  10  11
ENDBRANCH   9  10
ENDBRANCH   8   9
ENDBRANCH   1   8
TORSDOF 9
ENDMDL
