MODEL 1
REMARK VINA RESULT:    -3.697      0.000      0.000
REMARK INTER + INTRA:          -7.203
REMARK INTER:                  -5.858
REMARK INTRA:                  -1.345
REMARK UNBOUND:                -1.345
REMARK SMILES CCCCCCCCCCCC(=O)[O-]
REMARK SMILES IDX 7 1 8 2 9 3 10 4 11 5 12 6 13 7 14 8 6 9 5 10 4 11 3 12 2 13
REMARK SMILES IDX 1 14
REMARK H PARENT
REMARK Flexibility Score: inf
ROOT
ATOM      1  C   UNL     1      -7.688   2.934  52.463  1.00  0.00     0.000 C 
ENDROOT
BRANCH   1   2
ATOM      2  C   UNL     1      -6.279   2.839  53.077  1.00  0.00     0.000 C 
BRANCH   2   3
ATOM      3  C   UNL     1      -5.980   3.876  54.175  1.00  0.00     0.000 C 
BRANCH   3   4
ATOM      4  C   UNL     1      -7.222   4.243  55.006  1.00  0.00     0.006 C 
BRANCH   4   5
ATOM      5  C   UNL     1      -7.269   5.739  55.344  1.00  0.00     0.053 C 
BRANCH   5   6
ATOM      6  C   UNL     1      -6.910   5.993  56.777  1.00  0.00     0.041 C 
ATOM      7  O   UNL     1      -5.727   5.830  57.173  1.00  0.00    -0.550 OA
ATOM      8  O   UNL     1      -7.877   6.446  57.665  1.00  0.00    -0.550 OA
ENDBRANCH   5   6
ENDBRANCH   4   5
ENDBRANCH   3   4
ENDBRANCH   2   3
ENDBRANCH   1   2
BRANCH   1   9
ATOM      9  C   UNL     1      -7.678   3.471  51.022  1.00  0.00     0.000 C 
BRANCH   9  10
ATOM     10  C   UNL     1      -7.358   4.973  50.954  1.00  0.00    -0.000 C 
BRANCH  10  11
ATOM     11  C   UNL     1      -8.352   5.824  51.763  1.00  0.00    -0.000 C 
BRANCH  11  12
ATOM     12  C   UNL     1      -9.744   5.882  51.098  1.00  0.00    -0.000 C 
BRANCH  12  13
ATOM     13  C   UNL     1     -10.907   5.845  52.103  1.00  0.00    -0.003 C 
ATOM     14  C   UNL     1     -10.572   5.078  53.380  1.00  0.00     0.004 C 
ENDBRANCH  12  13
ENDBRANCH  11  12
ENDBRANCH  10  11
ENDBRANCH   9  10
ENDBRANCH   1   9
TORSDOF 10
ENDMDL
MODEL 2
REMARK VINA RESULT:    -3.634     10.802     12.234
REMARK INTER + INTRA:          -7.102
REMARK INTER:                  -6.464
REMARK INTRA:                  -0.639
REMARK UNBOUND:                -1.345
REMARK SMILES CCCCCCCCCCCC(=O)[O-]
REMARK SMILES IDX 7 1 8 2 9 3 10 4 11 5 12 6 13 7 14 8 6 9 5 10 4 11 3 12 2 13
REMARK SMILES IDX 1 14
REMARK H PARENT
REMARK Flexibility Score: inf
ROOT
ATOM      1  C   UNL     1       1.236   1.948  56.251  1.00  0.00     0.000 C 
ENDROOT
BRANCH   1   2
ATOM      2  C   UNL     1       1.910   0.742  55.573  1.00  0.00     0.000 C 
BRANCH   2   3
ATOM      3  C   UNL     1       2.603   1.056  54.235  1.00  0.00     0.000 C 
BRANCH   3   4
ATOM      4  C   UNL     1       2.903  -0.205  53.405  1.00  0.00     0.006 C 
BRANCH   4   5
ATOM      5  C   UNL     1       1.832  -1.287  53.590  1.00  0.00     0.053 C 
BRANCH   5   6
ATOM      6  C   UNL     1       2.437  -2.604  53.973  1.00  0.00     0.041 C 
ATOM      7  O   UNL     1       3.645  -2.670  54.322  1.00  0.00    -0.550 OA
ATOM      8  O   UNL     1       1.656  -3.752  53.977  1.00  0.00    -0.550 OA
ENDBRANCH   5   6
ENDBRANCH   4   5
ENDBRANCH   3   4
ENDBRANCH   2   3
ENDBRANCH   1   2
BRANCH   1   9
ATOM      9  C   UNL     1       0.419   1.556  57.495  1.00  0.00     0.000 C 
BRANCH   9  10
ATOM     10  C   UNL     1       1.111   0.473  58.338  1.00  0.00    -0.000 C 
BRANCH  10  11
ATOM     11  C   UNL     1       1.858   1.058  59.549  1.00  0.00    -0.000 C 
BRANCH  11  12
ATOM     12  C   UNL     1       1.238   2.388  60.029  1.00  0.00    -0.000 C 
BRANCH  12  13
ATOM     13  C   UNL     1       0.213   2.214  61.162  1.00  0.00    -0.003 C 
ATOM     14  C   UNL     1      -0.847   3.313  61.183  1.00  0.00     0.004 C 
ENDBRANCH  12  13
ENDBRANCH  11  12
ENDBRANCH  10  11
ENDBRANCH   9  10
ENDBRANCH   1   9
TORSDOF 10
ENDMDL
MODEL 3
REMARK VINA RESULT:    -3.629     10.207     11.664
REMARK INTER + INTRA:          -7.096
REMARK INTER:                  -5.886
REMARK INTRA:                  -1.210
REMARK UNBOUND:                -1.345
REMARK SMILES CCCCCCCCCCCC(=O)[O-]
REMARK SMILES IDX 7 1 8 2 9 3 10 4 11 5 12 6 13 7 14 8 6 9 5 10 4 11 3 12 2 13
REMARK SMILES IDX 1 14
REMARK H PARENT
REMARK Flexibility Score: inf
ROOT
ATOM      1  C   UNL     1       0.778   0.562  56.069  1.00  0.00     0.000 C 
ENDROOT
BRANCH   1   2
ATOM      2  C   UNL     1       1.088  -0.461  57.177  1.00  0.00     0.000 C 
BRANCH   2   3
ATOM      3  C   UNL     1       2.485  -0.326  57.810  1.00  0.00     0.000 C 
BRANCH   3   4
ATOM      4  C   UNL     1       2.439  -0.213  59.344  1.00  0.00     0.006 C 
BRANCH   4   5
ATOM      5  C   UNL     1       1.873   1.135  59.808  1.00  0.00     0.053 C 
BRANCH   5   6
ATOM      6  C   UNL     1       0.559   0.971  60.510  1.00  0.00     0.041 C 
ATOM      7  O   UNL     1       0.347  -0.039  61.230  1.00  0.00    -0.550 OA
ATOM      8  O   UNL     1      -0.416   1.954  60.397  1.00  0.00    -0.550 OA
ENDBRANCH   5   6
ENDBRANCH   4   5
ENDBRANCH   3   4
ENDBRANCH   2   3
ENDBRANCH   1   2
BRANCH   1   9
ATOM      9  C   UNL     1       2.029   1.316  55.585  1.00  0.00     0.000 C 
BRANCH   9  10
ATOM     10  C   UNL     1       2.182   1.283  54.056  1.00  0.00    -0.000 C 
BRANCH  10  11
ATOM     11  C   UNL     1       3.033   0.094  53.574  1.00  0.00    -0.000 C 
BRANCH  11  12
ATOM     12  C   UNL     1       2.168  -1.133  53.216  1.00  0.00    -0.000 C 
BRANCH  12  13
ATOM     13  C   UNL     1       2.507  -2.386  54.040  1.00  0.00    -0.003 C 
ATOM     14  C   UNL     1       3.745  -2.209  54.917  1.00  0.00     0.004 C 
ENDBRANCH  12  13
ENDBRANCH  11  12
ENDBRANCH  10  11
ENDBRANCH   9  10
ENDBRANCH   1   9
TORSDOF 10
ENDMDL
MODEL 4
REMARK VINA RESULT:    -3.601      1.417      2.639
REMARK INTER + INTRA:          -7.050
REMARK INTER:                  -6.060
REMARK INTRA:                  -0.990
REMARK UNBOUND:                -1.345
REMARK SMILES CCCCCCCCCCCC(=O)[O-]
REMARK SMILES IDX 7 1 8 2 9 3 10 4 11 5 12 6 13 7 14 8 6 9 5 10 4 11 3 12 2 13
REMARK SMILES IDX 1 14
REMARK H PARENT
REMARK Flexibility Score: inf
ROOT
ATOM      1  C   UNL     1      -5.947   3.404  54.716  1.00  0.00     0.000 C 
ENDROOT
BRANCH   1   2
ATOM      2  C   UNL     1      -7.230   3.923  55.391  1.00  0.00     0.000 C 
BRANCH   2   3
ATOM      3  C   UNL     1      -7.382   5.455  55.400  1.00  0.00     0.000 C 
BRANCH   3   4
ATOM      4  C   UNL     1      -6.548   6.134  56.501  1.00  0.00     0.006 C 
BRANCH   4   5
ATOM      5  C   UNL     1      -6.681   5.418  57.851  1.00  0.00     0.053 C 
BRANCH   5   6
ATOM      6  C   UNL     1      -5.343   5.159  58.474  1.00  0.00     0.041 C 
ATOM      7  O   UNL     1      -4.878   5.956  59.330  1.00  0.00    -0.550 OA
ATOM      8  O   UNL     1      -4.628   4.018  58.135  1.00  0.00    -0.550 OA
ENDBRANCH   5   6
ENDBRANCH   4   5
ENDBRANCH   3   4
ENDBRANCH   2   3
ENDBRANCH   1   2
BRANCH   1   9
ATOM      9  C   UNL     1      -5.925   3.658  53.199  1.00  0.00     0.000 C 
BRANCH   9  10
ATOM     10  C   UNL     1      -7.185   3.131  52.495  1.00  0.00    -0.000 C 
BRANCH  10  11
ATOM     11  C   UNL     1      -7.464   3.854  51.165  1.00  0.00    -0.000 C 
BRANCH  11  12
ATOM     12  C   UNL     1      -7.570   5.383  51.345  1.00  0.00    -0.000 C 
BRANCH  12  13
ATOM     13  C   UNL     1      -8.901   5.838  51.965  1.00  0.00    -0.003 C 
ATOM     14  C   UNL     1     -10.034   5.937  50.945  1.00  0.00     0.004 C 
ENDBRANCH  12  13
ENDBRANCH  11  12
ENDBRANCH  10  11
ENDBRANCH   9  10
ENDBRANCH   1   9
TORSDOF 10
ENDMDL
MODEL 5
REMARK VINA RESULT:    -3.580      3.191      4.932
REMARK INTER + INTRA:          -7.017
REMARK INTER:                  -5.923
REMARK INTRA:                  -1.095
REMARK UNBOUND:                -1.345
REMARK SMILES CCCCCCCCCCCC(=O)[O-]
REMARK SMILES IDX 7 1 8 2 9 3 10 4 11 5 12 6 13 7 14 8 6 9 5 10 4 11 3 12 2 13
REMARK SMILES IDX 1 14
REMARK H PARENT
REMARK Flexibility Score: inf
ROOT
ATOM      1  C   UNL     1      -6.262   2.783  52.964  1.00  0.00     0.000 C 
ENDROOT
BRANCH   1   2
ATOM      2  C   UNL     1      -7.362   3.302  52.022  1.00  0.00     0.000 C 
BRANCH   2   3
ATOM      3  C   UNL     1      -7.020   4.611  51.286  1.00  0.00     0.000 C 
BRANCH   3   4
ATOM      4  C   UNL     1      -7.941   5.779  51.681  1.00  0.00     0.006 C 
BRANCH   4   5
ATOM      5  C   UNL     1      -9.323   5.296  52.137  1.00  0.00     0.053 C 
BRANCH   5   6
ATOM      6  C   UNL     1     -10.291   5.233  50.995  1.00  0.00     0.041 C 
ATOM      7  O   UNL     1     -10.704   6.292  50.454  1.00  0.00    -0.550 OA
ATOM      8  O   UNL     1     -10.709   4.002  50.506  1.00  0.00    -0.550 OA
ENDBRANCH   5   6
ENDBRANCH   4   5
ENDBRANCH   3   4
ENDBRANCH   2   3
ENDBRANCH   1   2
BRANCH   1   9
ATOM      9  C   UNL     1      -5.659   3.890  53.847  1.00  0.00     0.000 C 
BRANCH   9  10
ATOM     10  C   UNL     1      -5.848   3.616  55.347  1.00  0.00    -0.000 C 
BRANCH  10  11
ATOM     11  C   UNL     1      -6.316   4.863  56.119  1.00  0.00    -0.000 C 
BRANCH  11  12
ATOM     12  C   UNL     1      -7.389   5.658  55.345  1.00  0.00    -0.000 C 
BRANCH  12  13
ATOM     13  C   UNL     1      -8.339   6.454  56.255  1.00  0.00    -0.003 C 
ATOM     14  C   UNL     1      -9.629   6.873  55.554  1.00  0.00     0.004 C 
ENDBRANCH  12  13
ENDBRANCH  11  12
ENDBRANCH  10  11
ENDBRANCH   9  10
ENDBRANCH   1   9
TORSDOF 10
ENDMDL
MODEL 6
REMARK VINA RESULT:    -3.578      2.712      5.601
REMARK INTER + INTRA:          -7.015
REMARK INTER:                  -6.145
REMARK INTRA:                  -0.870
REMARK UNBOUND:                -1.345
REMARK SMILES CCCCCCCCCCCC(=O)[O-]
REMARK SMILES IDX 7 1 8 2 9 3 10 4 11 5 12 6 13 7 14 8 6 9 5 10 4 11 3 12 2 13
REMARK SMILES IDX 1 14
REMARK H PARENT
REMARK Flexibility Score: inf
ROOT
ATOM      1  C   UNL     1      -5.932   3.890  54.790  1.00  0.00     0.000 C 
ENDROOT
BRANCH   1   2
ATOM      2  C   UNL     1      -5.905   3.562  53.286  1.00  0.00     0.000 C 
BRANCH   2   3
ATOM      3  C   UNL     1      -7.279   3.251  52.666  1.00  0.00     0.000 C 
BRANCH   3   4
ATOM      4  C   UNL     1      -7.490   3.932  51.303  1.00  0.00     0.006 C 
BRANCH   4   5
ATOM      5  C   UNL     1      -7.635   5.453  51.433  1.00  0.00     0.053 C 
BRANCH   5   6
ATOM      6  C   UNL     1      -9.061   5.856  51.658  1.00  0.00     0.041 C 
ATOM      7  O   UNL     1      -9.864   5.912  50.691  1.00  0.00    -0.550 OA
ATOM      8  O   UNL     1      -9.509   6.133  52.943  1.00  0.00    -0.550 OA
ENDBRANCH   5   6
ENDBRANCH   4   5
ENDBRANCH   3   4
ENDBRANCH   2   3
ENDBRANCH   1   2
BRANCH   1   9
ATOM      9  C   UNL     1      -7.088   4.830  55.176  1.00  0.00     0.000 C 
BRANCH   9  10
ATOM     10  C   UNL     1      -6.627   5.996  56.064  1.00  0.00    -0.000 C 
BRANCH  10  11
ATOM     11  C   UNL     1      -7.506   6.167  57.316  1.00  0.00    -0.000 C 
BRANCH  11  12
ATOM     12  C   UNL     1      -6.735   5.854  58.616  1.00  0.00    -0.000 C 
BRANCH  12  13
ATOM     13  C   UNL     1      -5.219   5.700  58.410  1.00  0.00    -0.003 C 
ATOM     14  C   UNL     1      -4.708   4.302  58.749  1.00  0.00     0.004 C 
ENDBRANCH  12  13
ENDBRANCH  11  12
ENDBRANCH  10  11
ENDBRANCH   9  10
ENDBRANCH   1   9
TORSDOF 10
ENDMDL
MODEL 7
REMARK VINA RESULT:    -3.537     10.080     11.507
REMARK INTER + INTRA:          -6.950
REMARK INTER:                  -6.057
REMARK INTRA:                  -0.893
REMARK UNBOUND:                -1.345
REMARK SMILES CCCCCCCCCCCC(=O)[O-]
REMARK SMILES IDX 7 1 8 2 9 3 10 4 11 5 12 6 13 7 14 8 6 9 5 10 4 11 3 12 2 13
REMARK SMILES IDX 1 14
REMARK H PARENT
REMARK Flexibility Score: inf
ROOT
ATOM      1  C   UNL     1       1.629   1.724  55.463  1.00  0.00     0.000 C 
ENDROOT
BRANCH   1   2
ATOM      2  C   UNL     1       0.590   1.161  56.449  1.00  0.00     0.000 C 
BRANCH   2   3
ATOM      3  C   UNL     1       0.904  -0.247  56.987  1.00  0.00     0.000 C 
BRANCH   3   4
ATOM      4  C   UNL     1       1.131  -0.270  58.509  1.00  0.00     0.006 C 
BRANCH   4   5
ATOM      5  C   UNL     1       1.130   1.139  59.115  1.00  0.00     0.053 C 
BRANCH   5   6
ATOM      6  C   UNL     1       0.641   1.131  60.531  1.00  0.00     0.041 C 
ATOM      7  O   UNL     1       0.467   2.215  61.148  1.00  0.00    -0.550 OA
ATOM      8  O   UNL     1       0.344  -0.072  61.157  1.00  0.00    -0.550 OA
ENDBRANCH   5   6
ENDBRANCH   4   5
ENDBRANCH   3   4
ENDBRANCH   2   3
ENDBRANCH   1   2
BRANCH   1   9
ATOM      9  C   UNL     1       2.756   0.725  55.146  1.00  0.00     0.000 C 
BRANCH   9  10
ATOM     10  C   UNL     1       2.890   0.446  53.641  1.00  0.00    -0.000 C 
BRANCH  10  11
ATOM     11  C   UNL     1       2.367  -0.948  53.251  1.00  0.00    -0.000 C 
BRANCH  11  12
ATOM     12  C   UNL     1       3.123  -2.078  53.981  1.00  0.00    -0.000 C 
BRANCH  12  13
ATOM     13  C   UNL     1       2.210  -3.217  54.463  1.00  0.00    -0.003 C 
ATOM     14  C   UNL     1       0.950  -3.376  53.614  1.00  0.00     0.004 C 
ENDBRANCH  12  13
ENDBRANCH  11  12
ENDBRANCH  10  11
ENDBRANCH   9  10
ENDBRANCH   1   9
TORSDOF 10
ENDMDL
MODEL 8
REMARK VINA RESULT:    -3.506      9.442     11.545
REMARK INTER + INTRA:          -6.901
REMARK INTER:                  -6.064
REMARK INTRA:                  -0.836
REMARK UNBOUND:                -1.345
REMARK SMILES CCCCCCCCCCCC(=O)[O-]
REMARK SMILES IDX 7 1 8 2 9 3 10 4 11 5 12 6 13 7 14 8 6 9 5 10 4 11 3 12 2 13
REMARK SMILES IDX 1 14
REMARK H PARENT
REMARK Flexibility Score: inf
ROOT
ATOM      1  C   UNL     1       0.470   0.102  56.448  1.00  0.00     0.000 C 
ENDROOT
BRANCH   1   2
ATOM      2  C   UNL     1       1.080   1.502  56.256  1.00  0.00     0.000 C 
BRANCH   2   3
ATOM      3  C   UNL     1       1.955   1.660  54.999  1.00  0.00     0.000 C 
BRANCH   3   4
ATOM      4  C   UNL     1       3.039   0.574  54.883  1.00  0.00     0.006 C 
BRANCH   4   5
ATOM      5  C   UNL     1       3.049  -0.089  53.499  1.00  0.00     0.053 C 
BRANCH   5   6
ATOM      6  C   UNL     1       2.390  -1.434  53.525  1.00  0.00     0.041 C 
ATOM      7  O   UNL     1       1.211  -1.572  53.108  1.00  0.00    -0.550 OA
ATOM      8  O   UNL     1       3.094  -2.543  53.978  1.00  0.00    -0.550 OA
ENDBRANCH   5   6
ENDBRANCH   4   5
ENDBRANCH   3   4
ENDBRANCH   2   3
ENDBRANCH   1   2
BRANCH   1   9
ATOM      9  C   UNL     1      -0.984   0.146  56.950  1.00  0.00     0.000 C 
BRANCH   9  10
ATOM     10  C   UNL     1      -1.383   1.534  57.477  1.00  0.00    -0.000 C 
BRANCH  10  11
ATOM     11  C   UNL     1      -1.518   1.565  59.010  1.00  0.00    -0.000 C 
BRANCH  11  12
ATOM     12  C   UNL     1      -0.866   0.336  59.677  1.00  0.00    -0.000 C 
BRANCH  12  13
ATOM     13  C   UNL     1       0.299   0.691  60.616  1.00  0.00    -0.003 C 
ATOM     14  C   UNL     1       0.519   2.195  60.756  1.00  0.00     0.004 C 
ENDBRANCH  12  13
ENDBRANCH  11  12
ENDBRANCH  10  11
ENDBRANCH   9  10
ENDBRANCH   1   9
TORSDOF 10
ENDMDL
MODEL 9
REMARK VINA RESULT:    -3.495      1.723      3.034
REMARK INTER + INTRA:          -6.883
REMARK INTER:                  -5.371
REMARK INTRA:                  -1.512
REMARK UNBOUND:                -1.345
REMARK SMILES CCCCCCCCCCCC(=O)[O-]
REMARK SMILES IDX 7 1 8 2 9 3 10 4 11 5 12 6 13 7 14 8 6 9 5 10 4 11 3 12 2 13
REMARK SMILES IDX 1 14
REMARK H PARENT
REMARK Flexibility Score: inf
ROOT
ATOM      1  C   UNL     1      -6.305   2.862  54.612  1.00  0.00     0.000 C 
ENDROOT
BRANCH   1   2
ATOM      2  C   UNL     1      -5.945   4.264  55.138  1.00  0.00     0.000 C 
BRANCH   2   3
ATOM      3  C   UNL     1      -7.096   5.285  55.097  1.00  0.00     0.000 C 
BRANCH   3   4
ATOM      4  C   UNL     1      -8.422   4.715  55.631  1.00  0.00     0.006 C 
BRANCH   4   5
ATOM      5  C   UNL     1      -9.614   5.093  54.741  1.00  0.00     0.053 C 
BRANCH   5   6
ATOM      6  C   UNL     1     -10.142   6.455  55.074  1.00  0.00     0.041 C 
ATOM      7  O   UNL     1     -10.649   7.176  54.175  1.00  0.00    -0.550 OA
ATOM      8  O   UNL     1     -10.107   6.913  56.385  1.00  0.00    -0.550 OA
ENDBRANCH   5   6
ENDBRANCH   4   5
ENDBRANCH   3   4
ENDBRANCH   2   3
ENDBRANCH   1   2
BRANCH   1   9
ATOM      9  C   UNL     1      -6.303   2.781  53.076  1.00  0.00     0.000 C 
BRANCH   9  10
ATOM     10  C   UNL     1      -7.620   2.222  52.513  1.00  0.00    -0.000 C 
BRANCH  10  11
ATOM     11  C   UNL     1      -8.225   3.123  51.423  1.00  0.00    -0.000 C 
BRANCH  11  12
ATOM     12  C   UNL     1      -7.330   4.342  51.113  1.00  0.00    -0.000 C 
BRANCH  12  13
ATOM     13  C   UNL     1      -7.973   5.688  51.485  1.00  0.00    -0.003 C 
ATOM     14  C   UNL     1      -9.453   5.767  51.118  1.00  0.00     0.004 C 
ENDBRANCH  12  13
ENDBRANCH  11  12
ENDBRANCH  10  11
ENDBRANCH   9  10
ENDBRANCH   1   9
TORSDOF 10
ENDMDL
