MODEL 1
REMARK VINA RESULT:    -2.066      0.000      0.000
REMARK INTER + INTRA:          -4.112
REMARK INTER:                  -2.791
REMARK INTRA:                  -1.321
REMARK UNBOUND:                -1.321
REMARK SMILES CC(=O)CCC=C(C)CCC=C(C)C
REMARK SMILES IDX 7 1 6 2 8 3 9 4 10 5 11 6 13 7 12 8 14 9 5 10 4 11 2 12 3 13
REMARK SMILES IDX 1 14
REMARK H PARENT
REMARK Flexibility Score: inf
ROOT
ATOM      1  C   UNL     1      31.220  58.550   9.247  1.00  0.00    -0.077 C 
ATOM      2  C   UNL     1      31.615  57.720  10.239  1.00  0.00    -0.028 C 
ATOM      3  C   UNL     1      29.924  58.341   8.498  1.00  0.00     0.039 C 
ENDROOT
BRANCH   1   4
ATOM      4  C   UNL     1      32.058  59.769   8.922  1.00  0.00     0.034 C 
BRANCH   4   5
ATOM      5  C   UNL     1      31.362  61.069   9.348  1.00  0.00     0.032 C 
BRANCH   5   6
ATOM      6  C   UNL     1      31.721  61.466  10.760  1.00  0.00    -0.028 C 
ATOM      7  C   UNL     1      31.406  61.772  13.176  1.00  0.00     0.039 C 
ATOM      8  C   UNL     1      30.928  61.275  11.837  1.00  0.00    -0.080 C 
ATOM      9  C   UNL     1      29.600  60.563  11.737  1.00  0.00     0.039 C 
ENDBRANCH   5   6
ENDBRANCH   4   5
ENDBRANCH   1   4
BRANCH   2  10
ATOM     10  C   UNL     1      30.875  56.474  10.655  1.00  0.00     0.035 C 
BRANCH  10  11
ATOM     11  C   UNL     1      30.170  56.683  11.998  1.00  0.00     0.079 C 
BRANCH  11  12
ATOM     12  C   UNL     1      31.172  56.803  13.114  1.00  0.00     0.130 C 
ATOM     13  O   UNL     1      31.935  55.879  13.345  1.00  0.00    -0.300 OA
ATOM     14  C   UNL     1      31.255  58.059  13.927  1.00  0.00     0.087 C 
ENDBRANCH  11  12
ENDBRANCH  10  11
ENDBRANCH   2  10
TORSDOF 6
ENDMDL
MODEL 2
REMARK VINA RESULT:    -2.055      1.961      4.012
REMARK INTER + INTRA:          -4.096
REMARK INTER:                  -2.815
REMARK INTRA:                  -1.281
REMARK UNBOUND:                -1.321
REMARK SMILES CC(=O)CCC=C(C)CCC=C(C)C
REMARK SMILES IDX 7 1 6 2 8 3 9 4 10 5 11 6 13 7 12 8 14 9 5 10 4 11 2 12 3 13
REMARK SMILES IDX 1 14
REMARK H PARENT
REMARK Flexibility Score: inf
ROOT
ATOM      1  C   UNL     1      30.700  59.956  10.836  1.00  0.00    -0.077 C 
ATOM      2  C   UNL     1      31.737  59.694  10.007  1.00  0.00    -0.028 C 
ATOM      3  C   UNL     1      29.281  59.569  10.487  1.00  0.00     0.039 C 
ENDROOT
BRANCH   1   4
ATOM      4  C   UNL     1      30.970  60.587  12.186  1.00  0.00     0.034 C 
BRANCH   4   5
ATOM      5  C   UNL     1      30.475  59.701  13.338  1.00  0.00     0.032 C 
BRANCH   5   6
ATOM      6  C   UNL     1      31.396  58.531  13.588  1.00  0.00    -0.028 C 
ATOM      7  C   UNL     1      32.026  56.193  13.999  1.00  0.00     0.039 C 
ATOM      8  C   UNL     1      30.992  57.246  13.699  1.00  0.00    -0.080 C 
ATOM      9  C   UNL     1      29.549  56.841  13.511  1.00  0.00     0.039 C 
ENDBRANCH   5   6
ENDBRANCH   4   5
ENDBRANCH   1   4
BRANCH   2  10
ATOM     10  C   UNL     1      31.601  59.076   8.639  1.00  0.00     0.035 C 
BRANCH  10  11
ATOM     11  C   UNL     1      32.125  57.637   8.638  1.00  0.00     0.079 C 
BRANCH  11  12
ATOM     12  C   UNL     1      31.017  56.666   8.942  1.00  0.00     0.130 C 
ATOM     13  O   UNL     1      30.128  56.485   8.125  1.00  0.00    -0.300 OA
ATOM     14  C   UNL     1      31.011  55.900  10.231  1.00  0.00     0.087 C 
ENDBRANCH  11  12
ENDBRANCH  10  11
ENDBRANCH   2  10
TORSDOF 6
ENDMDL
MODEL 3
REMARK VINA RESULT:    -2.042      2.346      4.403
REMARK INTER + INTRA:          -4.080
REMARK INTER:                  -2.611
REMARK INTRA:                  -1.469
REMARK UNBOUND:                -1.321
REMARK SMILES CC(=O)CCC=C(C)CCC=C(C)C
REMARK SMILES IDX 7 1 6 2 8 3 9 4 10 5 11 6 13 7 12 8 14 9 5 10 4 11 2 12 3 13
REMARK SMILES IDX 1 14
REMARK H PARENT
REMARK Flexibility Score: inf
ROOT
ATOM      1  C   UNL     1      30.819  57.303   9.466  1.00  0.00    -0.077 C 
ATOM      2  C   UNL     1      31.755  58.238   9.748  1.00  0.00    -0.028 C 
ATOM      3  C   UNL     1      29.642  57.597   8.566  1.00  0.00     0.039 C 
ENDROOT
BRANCH   1   4
ATOM      4  C   UNL     1      30.990  55.898  10.005  1.00  0.00     0.034 C 
BRANCH   4   5
ATOM      5  C   UNL     1      31.000  55.875  11.541  1.00  0.00     0.032 C 
BRANCH   5   6
ATOM      6  C   UNL     1      29.743  56.476  12.123  1.00  0.00    -0.028 C 
ATOM      7  C   UNL     1      28.384  57.984  13.506  1.00  0.00     0.039 C 
ATOM      8  C   UNL     1      29.716  57.530  12.969  1.00  0.00    -0.080 C 
ATOM      9  C   UNL     1      30.971  58.268  13.368  1.00  0.00     0.039 C 
ENDBRANCH   5   6
ENDBRANCH   4   5
ENDBRANCH   1   4
BRANCH   2  10
ATOM     10  C   UNL     1      31.700  59.670   9.278  1.00  0.00     0.035 C 
BRANCH  10  11
ATOM     11  C   UNL     1      31.576  60.628  10.466  1.00  0.00     0.079 C 
BRANCH  11  12
ATOM     12  C   UNL     1      30.229  61.297  10.475  1.00  0.00     0.130 C 
ATOM     13  O   UNL     1      30.141  62.489  10.225  1.00  0.00    -0.300 OA
ATOM     14  C   UNL     1      28.990  60.504  10.764  1.00  0.00     0.087 C 
ENDBRANCH  11  12
ENDBRANCH  10  11
ENDBRANCH   2  10
TORSDOF 6
ENDMDL
MODEL 4
REMARK VINA RESULT:    -1.994      2.276      4.471
REMARK INTER + INTRA:          -4.014
REMARK INTER:                  -2.732
REMARK INTRA:                  -1.283
REMARK UNBOUND:                -1.321
REMARK SMILES CC(=O)CCC=C(C)CCC=C(C)C
REMARK SMILES IDX 7 1 6 2 8 3 9 4 10 5 11 6 13 7 12 8 14 9 5 10 4 11 2 12 3 13
REMARK SMILES IDX 1 14
REMARK H PARENT
REMARK Flexibility Score: inf
ROOT
ATOM      1  C   UNL     1      31.162  58.278   8.598  1.00  0.00    -0.077 C 
ATOM      2  C   UNL     1      32.040  58.944   9.383  1.00  0.00    -0.028 C 
ATOM      3  C   UNL     1      29.886  58.919   8.105  1.00  0.00     0.039 C 
ENDROOT
BRANCH   1   4
ATOM      4  C   UNL     1      31.497  56.876   8.135  1.00  0.00     0.034 C 
BRANCH   4   5
ATOM      5  C   UNL     1      31.508  55.878   9.303  1.00  0.00     0.032 C 
BRANCH   5   6
ATOM      6  C   UNL     1      30.200  55.876  10.056  1.00  0.00    -0.028 C 
ATOM      7  C   UNL     1      28.701  56.080  11.991  1.00  0.00     0.039 C 
ATOM      8  C   UNL     1      30.068  56.176  11.367  1.00  0.00    -0.080 C 
ATOM      9  C   UNL     1      31.241  56.621  12.208  1.00  0.00     0.039 C 
ENDBRANCH   5   6
ENDBRANCH   4   5
ENDBRANCH   1   4
BRANCH   2  10
ATOM     10  C   UNL     1      31.823  60.338   9.914  1.00  0.00     0.035 C 
BRANCH  10  11
ATOM     11  C   UNL     1      31.108  60.300  11.268  1.00  0.00     0.079 C 
BRANCH  11  12
ATOM     12  C   UNL     1      29.742  60.920  11.167  1.00  0.00     0.130 C 
ATOM     13  O   UNL     1      29.531  61.790  10.336  1.00  0.00    -0.300 OA
ATOM     14  C   UNL     1      28.631  60.461  12.063  1.00  0.00     0.087 C 
ENDBRANCH  11  12
ENDBRANCH  10  11
ENDBRANCH   2  10
TORSDOF 6
ENDMDL
MODEL 5
REMARK VINA RESULT:    -1.962      1.795      4.101
REMARK INTER + INTRA:          -3.972
REMARK INTER:                  -2.668
REMARK INTRA:                  -1.303
REMARK UNBOUND:                -1.321
REMARK SMILES CC(=O)CCC=C(C)CCC=C(C)C
REMARK SMILES IDX 7 1 6 2 8 3 9 4 10 5 11 6 13 7 12 8 14 9 5 10 4 11 2 12 3 13
REMARK SMILES IDX 1 14
REMARK H PARENT
REMARK Flexibility Score: inf
ROOT
ATOM      1  C   UNL     1      30.689  58.370   9.960  1.00  0.00    -0.077 C 
ATOM      2  C   UNL     1      31.404  59.422  10.421  1.00  0.00    -0.028 C 
ATOM      3  C   UNL     1      29.239  58.503   9.560  1.00  0.00     0.039 C 
ENDROOT
BRANCH   1   4
ATOM      4  C   UNL     1      31.377  57.034   9.768  1.00  0.00     0.034 C 
BRANCH   4   5
ATOM      5  C   UNL     1      30.702  55.923  10.585  1.00  0.00     0.032 C 
BRANCH   5   6
ATOM      6  C   UNL     1      31.214  55.875  12.005  1.00  0.00    -0.028 C 
ATOM      7  C   UNL     1      31.172  56.201  14.439  1.00  0.00     0.039 C 
ATOM      8  C   UNL     1      30.506  56.260  13.090  1.00  0.00    -0.080 C 
ATOM      9  C   UNL     1      29.072  56.723  12.987  1.00  0.00     0.039 C 
ENDBRANCH   5   6
ENDBRANCH   4   5
ENDBRANCH   1   4
BRANCH   2  10
ATOM     10  C   UNL     1      30.838  60.798  10.661  1.00  0.00     0.035 C 
BRANCH  10  11
ATOM     11  C   UNL     1      31.219  61.308  12.054  1.00  0.00     0.079 C 
BRANCH  11  12
ATOM     12  C   UNL     1      30.593  60.456  13.124  1.00  0.00     0.130 C 
ATOM     13  O   UNL     1      29.392  60.238  13.100  1.00  0.00    -0.300 OA
ATOM     14  C   UNL     1      31.438  59.852  14.204  1.00  0.00     0.087 C 
ENDBRANCH  11  12
ENDBRANCH  10  11
ENDBRANCH   2  10
TORSDOF 6
ENDMDL
MODEL 6
REMARK VINA RESULT:    -1.926      1.657      2.617
REMARK INTER + INTRA:          -3.922
REMARK INTER:                  -2.623
REMARK INTRA:                  -1.300
REMARK UNBOUND:                -1.321
REMARK SMILES CC(=O)CCC=C(C)CCC=C(C)C
REMARK SMILES IDX 7 1 6 2 8 3 9 4 10 5 11 6 13 7 12 8 14 9 5 10 4 11 2 12 3 13
REMARK SMILES IDX 1 14
REMARK H PARENT
REMARK Flexibility Score: inf
ROOT
ATOM      1  C   UNL     1      30.890  59.505   9.819  1.00  0.00    -0.077 C 
ATOM      2  C   UNL     1      31.706  58.479   9.488  1.00  0.00    -0.028 C 
ATOM      3  C   UNL     1      29.413  59.488   9.497  1.00  0.00     0.039 C 
ENDROOT
BRANCH   1   4
ATOM      4  C   UNL     1      31.450  60.676  10.599  1.00  0.00     0.034 C 
BRANCH   4   5
ATOM      5  C   UNL     1      30.633  60.957  11.868  1.00  0.00     0.032 C 
BRANCH   5   6
ATOM      6  C   UNL     1      31.004  60.026  12.998  1.00  0.00    -0.028 C 
ATOM      7  C   UNL     1      30.652  58.362  14.770  1.00  0.00     0.039 C 
ATOM      8  C   UNL     1      30.141  59.196  13.624  1.00  0.00    -0.080 C 
ATOM      9  C   UNL     1      28.699  59.067  13.194  1.00  0.00     0.039 C 
ENDBRANCH   5   6
ENDBRANCH   4   5
ENDBRANCH   1   4
BRANCH   2  10
ATOM     10  C   UNL     1      31.274  57.261   8.709  1.00  0.00     0.035 C 
BRANCH  10  11
ATOM     11  C   UNL     1      31.417  55.994   9.558  1.00  0.00     0.079 C 
BRANCH  11  12
ATOM     12  C   UNL     1      30.399  55.977  10.665  1.00  0.00     0.130 C 
ATOM     13  O   UNL     1      29.209  56.025  10.396  1.00  0.00    -0.300 OA
ATOM     14  C   UNL     1      30.835  55.875  12.096  1.00  0.00     0.087 C 
ENDBRANCH  11  12
ENDBRANCH  10  11
ENDBRANCH   2  10
TORSDOF 6
ENDMDL
MODEL 7
REMARK VINA RESULT:    -1.924      1.318      1.689
REMARK INTER + INTRA:          -3.920
REMARK INTER:                  -2.701
REMARK INTRA:                  -1.219
REMARK UNBOUND:                -1.321
REMARK SMILES CC(=O)CCC=C(C)CCC=C(C)C
REMARK SMILES IDX 7 1 6 2 8 3 9 4 10 5 11 6 13 7 12 8 14 9 5 10 4 11 2 12 3 13
REMARK SMILES IDX 1 14
REMARK H PARENT
REMARK Flexibility Score: inf
ROOT
ATOM      1  C   UNL     1      30.491  57.652  10.094  1.00  0.00    -0.077 C 
ATOM      2  C   UNL     1      31.350  56.913  10.833  1.00  0.00    -0.028 C 
ATOM      3  C   UNL     1      28.997  57.601  10.316  1.00  0.00     0.039 C 
ENDROOT
BRANCH   1   4
ATOM      4  C   UNL     1      31.040  58.616   9.063  1.00  0.00     0.034 C 
BRANCH   4   5
ATOM      5  C   UNL     1      32.093  59.556   9.667  1.00  0.00     0.032 C 
BRANCH   5   6
ATOM      6  C   UNL     1      31.554  60.951   9.875  1.00  0.00    -0.028 C 
ATOM      7  C   UNL     1      30.455  62.801  11.059  1.00  0.00     0.039 C 
ATOM      8  C   UNL     1      30.994  61.395  11.021  1.00  0.00    -0.080 C 
ATOM      9  C   UNL     1      30.916  60.534  12.260  1.00  0.00     0.039 C 
ENDBRANCH   5   6
ENDBRANCH   4   5
ENDBRANCH   1   4
BRANCH   2  10
ATOM     10  C   UNL     1      30.932  55.916  11.884  1.00  0.00     0.035 C 
BRANCH  10  11
ATOM     11  C   UNL     1      31.701  56.146  13.188  1.00  0.00     0.079 C 
BRANCH  11  12
ATOM     12  C   UNL     1      31.038  57.213  14.017  1.00  0.00     0.130 C 
ATOM     13  O   UNL     1      31.721  57.995  14.658  1.00  0.00    -0.300 OA
ATOM     14  C   UNL     1      29.544  57.337  14.040  1.00  0.00     0.087 C 
ENDBRANCH  11  12
ENDBRANCH  10  11
ENDBRANCH   2  10
TORSDOF 6
ENDMDL
MODEL 8
REMARK VINA RESULT:    -1.832      1.612      3.656
REMARK INTER + INTRA:          -3.796
REMARK INTER:                  -2.450
REMARK INTRA:                  -1.346
REMARK UNBOUND:                -1.321
REMARK SMILES CC(=O)CCC=C(C)CCC=C(C)C
REMARK SMILES IDX 7 1 6 2 8 3 9 4 10 5 11 6 13 7 12 8 14 9 5 10 4 11 2 12 3 13
REMARK SMILES IDX 1 14
REMARK H PARENT
REMARK Flexibility Score: inf
ROOT
ATOM      1  C   UNL     1      30.469  59.730  11.800  1.00  0.00    -0.077 C 
ATOM      2  C   UNL     1      30.996  59.094  12.871  1.00  0.00    -0.028 C 
ATOM      3  C   UNL     1      28.990  59.692  11.495  1.00  0.00     0.039 C 
ENDROOT
BRANCH   1   4
ATOM      4  C   UNL     1      31.372  60.567  10.917  1.00  0.00     0.034 C 
BRANCH   4   5
ATOM      5  C   UNL     1      31.386  60.056   9.470  1.00  0.00     0.032 C 
BRANCH   5   6
ATOM      6  C   UNL     1      31.872  58.629   9.379  1.00  0.00    -0.028 C 
ATOM      7  C   UNL     1      31.767  56.228   8.871  1.00  0.00     0.039 C 
ATOM      8  C   UNL     1      31.166  57.609   8.843  1.00  0.00    -0.080 C 
ATOM      9  C   UNL     1      29.813  57.821   8.206  1.00  0.00     0.039 C 
ENDBRANCH   5   6
ENDBRANCH   4   5
ENDBRANCH   1   4
BRANCH   2  10
ATOM     10  C   UNL     1      30.209  58.228  13.822  1.00  0.00     0.035 C 
BRANCH  10  11
ATOM     11  C   UNL     1      30.425  56.744  13.512  1.00  0.00     0.079 C 
BRANCH  11  12
ATOM     12  C   UNL     1      29.185  56.138  12.913  1.00  0.00     0.130 C 
ATOM     13  O   UNL     1      28.231  55.875  13.629  1.00  0.00    -0.300 OA
ATOM     14  C   UNL     1      29.102  55.879  11.439  1.00  0.00     0.087 C 
ENDBRANCH  11  12
ENDBRANCH  10  11
ENDBRANCH   2  10
TORSDOF 6
ENDMDL
