MODEL 1
REMARK VINA RESULT:    -5.421      0.000      0.000
REMARK INTER + INTRA:         -14.804
REMARK INTER:                 -10.334
REMARK INTRA:                  -4.470
REMARK UNBOUND:                -4.470
REMARK SMILES C[C@H]1O[C@@H](O[C@H]2[C@@H](O)[C@@H](OCCc3ccc(O)c(O)c3)O[C@H](CO)[C@@H]2OC(=O)C=Cc2ccc(O)c(O)c2)[C@@H](O)[C@@H](O)[C@@H]1O
REMARK SMILES IDX 6 1 7 2 9 3 21 4 22 5 25 6 5 7 4 8 1 9 2 10 43 11 3 12 41 13
REMARK SMILES IDX 39 14 44 15 42 17 40 19 8 21 26 23 27 24 28 25 29 26 30 27
REMARK SMILES IDX 31 28 38 29 32 30 36 31 33 32 34 33 37 34 35 36 10 38 11 39
REMARK SMILES IDX 12 40 13 41 20 42 14 43 18 44 15 45 16 46 19 47 17 49 23 51
REMARK SMILES IDX 24 52
REMARK H PARENT 44 16 42 18 40 20 8 22 37 35 35 37 19 48 17 50 24 53
REMARK Flexibility Score: inf
ROOT
ATOM      1  C   UNL     1      13.806  31.791  52.390  1.00  0.00     0.199 C 
ATOM      2  C   UNL     1      13.296  32.007  50.953  1.00  0.00     0.203 C 
ATOM      3  C   UNL     1      13.467  33.480  50.509  1.00  0.00     0.282 C 
ATOM      4  O   UNL     1      14.813  33.910  50.668  1.00  0.00    -0.340 OA
ATOM      5  C   UNL     1      15.233  33.827  52.023  1.00  0.00     0.190 C 
ATOM      6  C   UNL     1      15.235  32.357  52.506  1.00  0.00     0.240 C 
ENDROOT
BRANCH   1   7
ATOM      7  O   UNL     1      12.940  32.453  53.301  1.00  0.00    -0.340 OA
BRANCH   7   8
ATOM      8  C   UNL     1      13.345  32.284  54.653  1.00  0.00     0.282 C 
ATOM      9  C   UNL     1      10.586  30.878  54.113  1.00  0.00     0.041 C 
ATOM     10  C   UNL     1      11.375  31.140  55.404  1.00  0.00     0.150 C 
ATOM     11  C   UNL     1      10.885  32.387  56.190  1.00  0.00     0.174 C 
ATOM     12  O   UNL     1      12.787  31.098  55.205  1.00  0.00    -0.344 OA
ATOM     13  C   UNL     1      11.476  33.688  55.633  1.00  0.00     0.179 C 
ATOM     14  C   UNL     1      12.996  33.535  55.475  1.00  0.00     0.202 C 
BRANCH  11  15
ATOM     15  O   UNL     1      11.255  32.268  57.541  1.00  0.00    -0.388 OA
ATOM     16  H   UNL     1      11.907  32.992  57.728  1.00  0.00     0.211 HD
ENDBRANCH  11  15
BRANCH  13  17
ATOM     17  O   UNL     1      10.865  34.007  54.408  1.00  0.00    -0.387 OA
ATOM     18  H   UNL     1      11.364  33.528  53.699  1.00  0.00     0.211 HD
ENDBRANCH  13  17
BRANCH  14  19
ATOM     19  O   UNL     1      13.553  34.672  54.867  1.00  0.00    -0.385 OA
ATOM     20  H   UNL     1      14.443  34.406  54.523  1.00  0.00     0.211 HD
ENDBRANCH  14  19
ENDBRANCH   7   8
ENDBRANCH   1   7
BRANCH   2  21
ATOM     21  O   UNL     1      11.952  31.613  50.861  1.00  0.00    -0.385 OA
ATOM     22  H   UNL     1      11.717  31.186  51.726  1.00  0.00     0.211 HD
ENDBRANCH   2  21
BRANCH   6  23
ATOM     23  O   UNL     1      16.110  31.560  51.701  1.00  0.00    -0.453 OA
BRANCH  23  24
ATOM     24  C   UNL     1      17.228  30.876  52.191  1.00  0.00     0.331 C 
ATOM     25  O   UNL     1      17.482  30.869  53.427  1.00  0.00    -0.247 OA
BRANCH  24  26
ATOM     26  C   UNL     1      18.129  30.225  51.220  1.00  0.00     0.094 C 
ATOM     27  C   UNL     1      18.799  30.836  50.232  1.00  0.00     0.016 C 
BRANCH  27  28
ATOM     28  C   UNL     1      18.891  32.295  50.034  1.00  0.00    -0.021 A 
ATOM     29  C   UNL     1      18.138  32.898  49.016  1.00  0.00     0.058 A 
ATOM     30  C   UNL     1      19.803  33.071  50.767  1.00  0.00     0.012 A 
ATOM     31  C   UNL     1      18.260  34.273  48.759  1.00  0.00     0.157 A 
ATOM     32  C   UNL     1      19.921  34.442  50.519  1.00  0.00     0.051 A 
ATOM     33  C   UNL     1      19.152  35.048  49.518  1.00  0.00     0.157 A 
BRANCH  31  34
ATOM     34  O   UNL     1      17.503  34.868  47.750  1.00  0.00    -0.504 OA
ATOM     35  H   UNL     1      17.374  35.873  47.706  1.00  0.00     0.293 HD
ENDBRANCH  31  34
BRANCH  33  36
ATOM     36  O   UNL     1      19.291  36.417  49.288  1.00  0.00    -0.504 OA
ATOM     37  H   UNL     1      18.776  36.897  48.561  1.00  0.00     0.293 HD
ENDBRANCH  33  36
ENDBRANCH  27  28
ENDBRANCH  24  26
ENDBRANCH  23  24
ENDBRANCH   6  23
BRANCH   3  38
ATOM     38  O   UNL     1      12.590  34.335  51.235  1.00  0.00    -0.350 OA
BRANCH  38  39
ATOM     39  C   UNL     1      11.853  35.169  50.367  1.00  0.00     0.168 C 
BRANCH  39  40
ATOM     40  C   UNL     1      12.219  36.627  50.644  1.00  0.00     0.064 C 
BRANCH  40  41
ATOM     41  C   UNL     1      13.523  36.985  49.980  1.00  0.00    -0.042 A 
ATOM     42  C   UNL     1      14.623  37.393  50.752  1.00  0.00     0.054 A 
ATOM     43  C   UNL     1      13.664  36.862  48.589  1.00  0.00     0.008 A 
ATOM     44  C   UNL     1      15.847  37.694  50.140  1.00  0.00     0.157 A 
ATOM     45  C   UNL     1      14.881  37.172  47.977  1.00  0.00     0.050 A 
ATOM     46  C   UNL     1      15.974  37.588  48.744  1.00  0.00     0.157 A 
BRANCH  44  47
ATOM     47  O   UNL     1      16.938  38.090  50.911  1.00  0.00    -0.504 OA
ATOM     48  H   UNL     1      17.722  38.586  50.502  1.00  0.00     0.293 HD
ENDBRANCH  44  47
BRANCH  46  49
ATOM     49  O   UNL     1      17.175  37.890  48.103  1.00  0.00    -0.504 OA
ATOM     50  H   UNL     1      18.073  37.784  48.564  1.00  0.00     0.293 HD
ENDBRANCH  46  49
ENDBRANCH  40  41
ENDBRANCH  39  40
ENDBRANCH  38  39
ENDBRANCH   3  38
BRANCH   5  51
ATOM     51  C   UNL     1      16.616  34.471  52.151  1.00  0.00     0.192 C 
BRANCH  51  52
ATOM     52  O   UNL     1      17.263  33.971  53.288  1.00  0.00    -0.394 OA
ATOM     53  H   UNL     1      17.904  33.289  52.965  1.00  0.00     0.210 HD
ENDBRANCH  51  52
ENDBRANCH   5  51
TORSDOF 20
ENDMDL
MODEL 2
REMARK VINA RESULT:    -5.345      1.803      6.585
REMARK INTER + INTRA:         -14.659
REMARK INTER:                 -10.128
REMARK INTRA:                  -4.531
REMARK UNBOUND:                -4.470
REMARK SMILES C[C@H]1O[C@@H](O[C@H]2[C@@H](O)[C@@H](OCCc3ccc(O)c(O)c3)O[C@H](CO)[C@@H]2OC(=O)C=Cc2ccc(O)c(O)c2)[C@@H](O)[C@@H](O)[C@@H]1O
REMARK SMILES IDX 6 1 7 2 9 3 21 4 22 5 25 6 5 7 4 8 1 9 2 10 43 11 3 12 41 13
REMARK SMILES IDX 39 14 44 15 42 17 40 19 8 21 26 23 27 24 28 25 29 26 30 27
REMARK SMILES IDX 31 28 38 29 32 30 36 31 33 32 34 33 37 34 35 36 10 38 11 39
REMARK SMILES IDX 12 40 13 41 20 42 14 43 18 44 15 45 16 46 19 47 17 49 23 51
REMARK SMILES IDX 24 52
REMARK H PARENT 44 16 42 18 40 20 8 22 37 35 35 37 19 48 17 50 24 53
REMARK Flexibility Score: inf
ROOT
ATOM      1  C   UNL     1      15.285  34.282  51.082  1.00  0.00     0.199 C 
ATOM      2  C   UNL     1      15.474  34.790  52.523  1.00  0.00     0.203 C 
ATOM      3  C   UNL     1      16.202  33.743  53.399  1.00  0.00     0.282 C 
ATOM      4  O   UNL     1      17.432  33.347  52.808  1.00  0.00    -0.340 OA
ATOM      5  C   UNL     1      17.234  32.760  51.529  1.00  0.00     0.190 C 
ATOM      6  C   UNL     1      16.642  33.793  50.540  1.00  0.00     0.240 C 
ENDROOT
BRANCH   1   7
ATOM      7  O   UNL     1      14.342  33.219  51.077  1.00  0.00    -0.340 OA
BRANCH   7   8
ATOM      8  C   UNL     1      13.405  33.331  50.015  1.00  0.00     0.282 C 
ATOM      9  C   UNL     1      11.957  32.768  52.747  1.00  0.00     0.041 C 
ATOM     10  C   UNL     1      11.447  32.808  51.299  1.00  0.00     0.150 C 
ATOM     11  C   UNL     1      11.326  31.405  50.643  1.00  0.00     0.174 C 
ATOM     12  O   UNL     1      12.139  33.765  50.499  1.00  0.00    -0.344 OA
ATOM     13  C   UNL     1      12.670  30.907  50.096  1.00  0.00     0.179 C 
ATOM     14  C   UNL     1      13.315  32.006  49.240  1.00  0.00     0.202 C 
BRANCH  11  15
ATOM     15  O   UNL     1      10.402  31.458  49.585  1.00  0.00    -0.388 OA
ATOM     16  H   UNL     1       9.740  30.736  49.741  1.00  0.00     0.211 HD
ENDBRANCH  11  15
BRANCH  13  17
ATOM     17  O   UNL     1      13.509  30.527  51.157  1.00  0.00    -0.387 OA
ATOM     18  H   UNL     1      14.285  31.143  51.151  1.00  0.00     0.211 HD
ENDBRANCH  13  17
BRANCH  14  19
ATOM     19  O   UNL     1      14.596  31.620  48.812  1.00  0.00    -0.385 OA
ATOM     20  H   UNL     1      14.903  30.909  49.430  1.00  0.00     0.211 HD
ENDBRANCH  14  19
ENDBRANCH   7   8
ENDBRANCH   1   7
BRANCH   2  21
ATOM     21  O   UNL     1      14.227  35.122  53.078  1.00  0.00    -0.385 OA
ATOM     22  H   UNL     1      14.353  35.168  54.061  1.00  0.00     0.211 HD
ENDBRANCH   2  21
BRANCH   6  23
ATOM     23  O   UNL     1      17.513  34.921  50.402  1.00  0.00    -0.453 OA
BRANCH  23  24
ATOM     24  C   UNL     1      17.871  35.495  49.178  1.00  0.00     0.331 C 
ATOM     25  O   UNL     1      18.151  34.766  48.187  1.00  0.00    -0.247 OA
BRANCH  24  26
ATOM     26  C   UNL     1      17.975  36.965  49.100  1.00  0.00     0.094 C 
ATOM     27  C   UNL     1      16.967  37.816  48.859  1.00  0.00     0.016 C 
BRANCH  27  28
ATOM     28  C   UNL     1      15.538  37.455  48.791  1.00  0.00    -0.021 A 
ATOM     29  C   UNL     1      14.787  37.400  49.973  1.00  0.00     0.058 A 
ATOM     30  C   UNL     1      14.949  37.053  47.581  1.00  0.00     0.012 A 
ATOM     31  C   UNL     1      13.445  36.990  49.947  1.00  0.00     0.157 A 
ATOM     32  C   UNL     1      13.609  36.652  47.550  1.00  0.00     0.051 A 
ATOM     33  C   UNL     1      12.853  36.619  48.728  1.00  0.00     0.157 A 
BRANCH  31  34
ATOM     34  O   UNL     1      12.701  36.944  51.126  1.00  0.00    -0.504 OA
ATOM     35  H   UNL     1      12.916  36.280  51.862  1.00  0.00     0.293 HD
ENDBRANCH  31  34
BRANCH  33  36
ATOM     36  O   UNL     1      11.520  36.211  48.670  1.00  0.00    -0.504 OA
ATOM     37  H   UNL     1      10.921  36.433  47.884  1.00  0.00     0.293 HD
ENDBRANCH  33  36
ENDBRANCH  27  28
ENDBRANCH  24  26
ENDBRANCH  23  24
ENDBRANCH   6  23
BRANCH   3  38
ATOM     38  O   UNL     1      15.377  32.604  53.625  1.00  0.00    -0.350 OA
BRANCH  38  39
ATOM     39  C   UNL     1      15.657  32.006  54.871  1.00  0.00     0.168 C 
BRANCH  39  40
ATOM     40  C   UNL     1      15.077  32.878  55.986  1.00  0.00     0.064 C 
BRANCH  40  41
ATOM     41  C   UNL     1      13.640  32.515  56.252  1.00  0.00    -0.042 A 
ATOM     42  C   UNL     1      12.640  33.500  56.208  1.00  0.00     0.054 A 
ATOM     43  C   UNL     1      13.281  31.180  56.495  1.00  0.00     0.008 A 
ATOM     44  C   UNL     1      11.297  33.159  56.422  1.00  0.00     0.157 A 
ATOM     45  C   UNL     1      11.945  30.840  56.718  1.00  0.00     0.050 A 
ATOM     46  C   UNL     1      10.950  31.823  56.684  1.00  0.00     0.157 A 
BRANCH  44  47
ATOM     47  O   UNL     1      10.308  34.139  56.368  1.00  0.00    -0.504 OA
ATOM     48  H   UNL     1      10.063  34.688  57.184  1.00  0.00     0.293 HD
ENDBRANCH  44  47
BRANCH  46  49
ATOM     49  O   UNL     1       9.625  31.453  56.912  1.00  0.00    -0.504 OA
ATOM     50  H   UNL     1       8.845  32.013  56.584  1.00  0.00     0.293 HD
ENDBRANCH  46  49
ENDBRANCH  40  41
ENDBRANCH  39  40
ENDBRANCH  38  39
ENDBRANCH   3  38
BRANCH   5  51
ATOM     51  C   UNL     1      18.567  32.196  51.033  1.00  0.00     0.192 C 
BRANCH  51  52
ATOM     52  O   UNL     1      18.571  32.162  49.632  1.00  0.00    -0.394 OA
ATOM     53  H   UNL     1      18.634  33.104  49.332  1.00  0.00     0.210 HD
ENDBRANCH  51  52
ENDBRANCH   5  51
TORSDOF 20
ENDMDL
MODEL 3
REMARK VINA RESULT:    -5.309      1.945      4.123
REMARK INTER + INTRA:         -14.590
REMARK INTER:                 -10.781
REMARK INTRA:                  -3.809
REMARK UNBOUND:                -4.470
REMARK SMILES C[C@H]1O[C@@H](O[C@H]2[C@@H](O)[C@@H](OCCc3ccc(O)c(O)c3)O[C@H](CO)[C@@H]2OC(=O)C=Cc2ccc(O)c(O)c2)[C@@H](O)[C@@H](O)[C@@H]1O
REMARK SMILES IDX 6 1 7 2 9 3 21 4 22 5 25 6 5 7 4 8 1 9 2 10 43 11 3 12 41 13
REMARK SMILES IDX 39 14 44 15 42 17 40 19 8 21 26 23 27 24 28 25 29 26 30 27
REMARK SMILES IDX 31 28 38 29 32 30 36 31 33 32 34 33 37 34 35 36 10 38 11 39
REMARK SMILES IDX 12 40 13 41 20 42 14 43 18 44 15 45 16 46 19 47 17 49 23 51
REMARK SMILES IDX 24 52
REMARK H PARENT 44 16 42 18 40 20 8 22 37 35 35 37 19 48 17 50 24 53
REMARK Flexibility Score: inf
ROOT
ATOM      1  C   UNL     1      13.301  31.697  52.103  1.00  0.00     0.199 C 
ATOM      2  C   UNL     1      13.174  31.966  50.592  1.00  0.00     0.203 C 
ATOM      3  C   UNL     1      13.376  33.465  50.267  1.00  0.00     0.282 C 
ATOM      4  O   UNL     1      14.608  33.941  50.792  1.00  0.00    -0.340 OA
ATOM      5  C   UNL     1      14.664  33.806  52.205  1.00  0.00     0.190 C 
ATOM      6  C   UNL     1      14.617  32.314  52.614  1.00  0.00     0.240 C 
ENDROOT
BRANCH   1   7
ATOM      7  O   UNL     1      12.192  32.274  52.779  1.00  0.00    -0.340 OA
BRANCH   7   8
ATOM      8  C   UNL     1      12.440  32.460  54.166  1.00  0.00     0.282 C 
ATOM      9  C   UNL     1      10.280  30.227  53.690  1.00  0.00     0.041 C 
ATOM     10  C   UNL     1      10.782  30.922  54.964  1.00  0.00     0.150 C 
ATOM     11  C   UNL     1       9.863  32.078  55.444  1.00  0.00     0.174 C 
ATOM     12  O   UNL     1      12.163  31.270  54.894  1.00  0.00    -0.344 OA
ATOM     13  C   UNL     1      10.139  33.385  54.692  1.00  0.00     0.179 C 
ATOM     14  C   UNL     1      11.649  33.669  54.693  1.00  0.00     0.202 C 
BRANCH  11  15
ATOM     15  O   UNL     1      10.064  32.300  56.818  1.00  0.00    -0.388 OA
ATOM     16  H   UNL     1       9.171  32.462  57.220  1.00  0.00     0.211 HD
ENDBRANCH  11  15
BRANCH  13  17
ATOM     17  O   UNL     1       9.637  33.301  53.382  1.00  0.00    -0.387 OA
ATOM     18  H   UNL     1       9.615  32.341  53.139  1.00  0.00     0.211 HD
ENDBRANCH  13  17
BRANCH  14  19
ATOM     19  O   UNL     1      11.946  34.803  53.919  1.00  0.00    -0.385 OA
ATOM     20  H   UNL     1      12.097  35.550  54.552  1.00  0.00     0.211 HD
ENDBRANCH  14  19
ENDBRANCH   7   8
ENDBRANCH   1   7
BRANCH   2  21
ATOM     21  O   UNL     1      11.923  31.522  50.134  1.00  0.00    -0.385 OA
ATOM     22  H   UNL     1      11.354  31.388  50.935  1.00  0.00     0.211 HD
ENDBRANCH   2  21
BRANCH   6  23
ATOM     23  O   UNL     1      15.714  31.597  52.038  1.00  0.00    -0.453 OA
BRANCH  23  24
ATOM     24  C   UNL     1      16.549  30.729  52.750  1.00  0.00     0.331 C 
ATOM     25  O   UNL     1      16.234  29.516  52.899  1.00  0.00    -0.247 OA
BRANCH  24  26
ATOM     26  C   UNL     1      17.766  31.286  53.372  1.00  0.00     0.094 C 
ATOM     27  C   UNL     1      17.870  31.750  54.626  1.00  0.00     0.016 C 
BRANCH  27  28
ATOM     28  C   UNL     1      16.834  31.639  55.669  1.00  0.00    -0.021 A 
ATOM     29  C   UNL     1      16.666  30.420  56.342  1.00  0.00     0.058 A 
ATOM     30  C   UNL     1      15.939  32.692  55.919  1.00  0.00     0.012 A 
ATOM     31  C   UNL     1      15.641  30.264  57.289  1.00  0.00     0.157 A 
ATOM     32  C   UNL     1      14.922  32.542  56.867  1.00  0.00     0.051 A 
ATOM     33  C   UNL     1      14.769  31.332  57.555  1.00  0.00     0.157 A 
BRANCH  31  34
ATOM     34  O   UNL     1      15.483  29.050  57.959  1.00  0.00    -0.504 OA
ATOM     35  H   UNL     1      15.796  28.176  57.551  1.00  0.00     0.293 HD
ENDBRANCH  31  34
BRANCH  33  36
ATOM     36  O   UNL     1      13.744  31.208  58.493  1.00  0.00    -0.504 OA
ATOM     37  H   UNL     1      13.853  30.669  59.344  1.00  0.00     0.293 HD
ENDBRANCH  33  36
ENDBRANCH  27  28
ENDBRANCH  24  26
ENDBRANCH  23  24
ENDBRANCH   6  23
BRANCH   3  38
ATOM     38  O   UNL     1      12.295  34.245  50.768  1.00  0.00    -0.350 OA
BRANCH  38  39
ATOM     39  C   UNL     1      11.851  35.180  49.810  1.00  0.00     0.168 C 
BRANCH  39  40
ATOM     40  C   UNL     1      12.131  36.593  50.322  1.00  0.00     0.064 C 
BRANCH  40  41
ATOM     41  C   UNL     1      13.550  36.998  50.020  1.00  0.00    -0.042 A 
ATOM     42  C   UNL     1      14.409  37.395  51.057  1.00  0.00     0.054 A 
ATOM     43  C   UNL     1      14.039  36.930  48.707  1.00  0.00     0.008 A 
ATOM     44  C   UNL     1      15.740  37.740  50.783  1.00  0.00     0.157 A 
ATOM     45  C   UNL     1      15.363  37.283  48.431  1.00  0.00     0.050 A 
ATOM     46  C   UNL     1      16.217  37.689  49.462  1.00  0.00     0.157 A 
BRANCH  44  47
ATOM     47  O   UNL     1      16.591  38.125  51.817  1.00  0.00    -0.504 OA
ATOM     48  H   UNL     1      16.571  39.064  52.197  1.00  0.00     0.293 HD
ENDBRANCH  44  47
BRANCH  46  49
ATOM     49  O   UNL     1      17.532  38.035  49.155  1.00  0.00    -0.504 OA
ATOM     50  H   UNL     1      17.757  38.700  48.422  1.00  0.00     0.293 HD
ENDBRANCH  46  49
ENDBRANCH  40  41
ENDBRANCH  39  40
ENDBRANCH  38  39
ENDBRANCH   3  38
BRANCH   5  51
ATOM     51  C   UNL     1      15.928  34.499  52.719  1.00  0.00     0.192 C 
BRANCH  51  52
ATOM     52  O   UNL     1      16.945  34.390  51.761  1.00  0.00    -0.394 OA
ATOM     53  H   UNL     1      17.788  34.265  52.266  1.00  0.00     0.210 HD
ENDBRANCH  51  52
ENDBRANCH   5  51
TORSDOF 20
ENDMDL
MODEL 4
REMARK VINA RESULT:    -5.298      1.557      2.244
REMARK INTER + INTRA:         -14.570
REMARK INTER:                  -9.734
REMARK INTRA:                  -4.836
REMARK UNBOUND:                -4.470
REMARK SMILES C[C@H]1O[C@@H](O[C@H]2[C@@H](O)[C@@H](OCCc3ccc(O)c(O)c3)O[C@H](CO)[C@@H]2OC(=O)C=Cc2ccc(O)c(O)c2)[C@@H](O)[C@@H](O)[C@@H]1O
REMARK SMILES IDX 6 1 7 2 9 3 21 4 22 5 25 6 5 7 4 8 1 9 2 10 43 11 3 12 41 13
REMARK SMILES IDX 39 14 44 15 42 17 40 19 8 21 26 23 27 24 28 25 29 26 30 27
REMARK SMILES IDX 31 28 38 29 32 30 36 31 33 32 34 33 37 34 35 36 10 38 11 39
REMARK SMILES IDX 12 40 13 41 20 42 14 43 18 44 15 45 16 46 19 47 17 49 23 51
REMARK SMILES IDX 24 52
REMARK H PARENT 44 16 42 18 40 20 8 22 37 35 35 37 19 48 17 50 24 53
REMARK Flexibility Score: inf
ROOT
ATOM      1  C   UNL     1      13.285  31.715  51.474  1.00  0.00     0.199 C 
ATOM      2  C   UNL     1      11.992  31.783  50.640  1.00  0.00     0.203 C 
ATOM      3  C   UNL     1      11.901  33.109  49.847  1.00  0.00     0.282 C 
ATOM      4  O   UNL     1      13.060  33.308  49.049  1.00  0.00    -0.340 OA
ATOM      5  C   UNL     1      14.237  33.373  49.842  1.00  0.00     0.190 C 
ATOM      6  C   UNL     1      14.487  32.025  50.560  1.00  0.00     0.240 C 
ENDROOT
BRANCH   1   7
ATOM      7  O   UNL     1      13.214  32.662  52.531  1.00  0.00    -0.340 OA
BRANCH   7   8
ATOM      8  C   UNL     1      14.367  32.634  53.361  1.00  0.00     0.282 C 
ATOM      9  C   UNL     1      11.854  31.507  54.874  1.00  0.00     0.041 C 
ATOM     10  C   UNL     1      13.275  31.848  55.346  1.00  0.00     0.150 C 
ATOM     11  C   UNL     1      13.387  33.241  56.024  1.00  0.00     0.174 C 
ATOM     12  O   UNL     1      14.260  31.611  54.342  1.00  0.00    -0.344 OA
ATOM     13  C   UNL     1      13.517  34.373  54.998  1.00  0.00     0.179 C 
ATOM     14  C   UNL     1      14.612  34.020  53.981  1.00  0.00     0.202 C 
BRANCH  11  15
ATOM     15  O   UNL     1      14.513  33.266  56.866  1.00  0.00    -0.388 OA
ATOM     16  H   UNL     1      14.952  34.146  56.738  1.00  0.00     0.211 HD
ENDBRANCH  11  15
BRANCH  13  17
ATOM     17  O   UNL     1      12.282  34.591  54.364  1.00  0.00    -0.387 OA
ATOM     18  H   UNL     1      12.226  35.558  54.158  1.00  0.00     0.211 HD
ENDBRANCH  13  17
BRANCH  14  19
ATOM     19  O   UNL     1      14.683  34.988  52.966  1.00  0.00    -0.385 OA
ATOM     20  H   UNL     1      14.706  35.872  53.413  1.00  0.00     0.211 HD
ENDBRANCH  14  19
ENDBRANCH   7   8
ENDBRANCH   1   7
BRANCH   2  21
ATOM     21  O   UNL     1      10.877  31.629  51.480  1.00  0.00    -0.385 OA
ATOM     22  H   UNL     1      10.072  31.800  50.925  1.00  0.00     0.211 HD
ENDBRANCH   2  21
BRANCH   6  23
ATOM     23  O   UNL     1      14.627  30.963  49.611  1.00  0.00    -0.453 OA
BRANCH  23  24
ATOM     24  C   UNL     1      15.818  30.270  49.372  1.00  0.00     0.331 C 
ATOM     25  O   UNL     1      16.188  30.021  48.192  1.00  0.00    -0.247 OA
BRANCH  24  26
ATOM     26  C   UNL     1      16.588  29.785  50.534  1.00  0.00     0.094 C 
ATOM     27  C   UNL     1      17.611  30.421  51.125  1.00  0.00     0.016 C 
BRANCH  27  28
ATOM     28  C   UNL     1      18.051  31.797  50.827  1.00  0.00    -0.021 A 
ATOM     29  C   UNL     1      17.644  32.843  51.668  1.00  0.00     0.058 A 
ATOM     30  C   UNL     1      18.770  32.093  49.658  1.00  0.00     0.012 A 
ATOM     31  C   UNL     1      17.988  34.172  51.369  1.00  0.00     0.157 A 
ATOM     32  C   UNL     1      19.121  33.413  49.362  1.00  0.00     0.051 A 
ATOM     33  C   UNL     1      18.734  34.456  50.213  1.00  0.00     0.157 A 
BRANCH  31  34
ATOM     34  O   UNL     1      17.586  35.207  52.213  1.00  0.00    -0.504 OA
ATOM     35  H   UNL     1      18.096  35.428  53.061  1.00  0.00     0.293 HD
ENDBRANCH  31  34
BRANCH  33  36
ATOM     36  O   UNL     1      19.094  35.766  49.893  1.00  0.00    -0.504 OA
ATOM     37  H   UNL     1      20.003  35.999  49.514  1.00  0.00     0.293 HD
ENDBRANCH  33  36
ENDBRANCH  27  28
ENDBRANCH  24  26
ENDBRANCH  23  24
ENDBRANCH   6  23
BRANCH   3  38
ATOM     38  O   UNL     1      11.711  34.215  50.723  1.00  0.00    -0.350 OA
BRANCH  38  39
ATOM     39  C   UNL     1      11.342  35.376  50.011  1.00  0.00     0.168 C 
BRANCH  39  40
ATOM     40  C   UNL     1      12.044  36.586  50.627  1.00  0.00     0.064 C 
BRANCH  40  41
ATOM     41  C   UNL     1      13.323  36.891  49.891  1.00  0.00    -0.042 A 
ATOM     42  C   UNL     1      14.491  37.210  50.602  1.00  0.00     0.054 A 
ATOM     43  C   UNL     1      13.370  36.806  48.491  1.00  0.00     0.008 A 
ATOM     44  C   UNL     1      15.690  37.462  49.922  1.00  0.00     0.157 A 
ATOM     45  C   UNL     1      14.562  37.066  47.811  1.00  0.00     0.050 A 
ATOM     46  C   UNL     1      15.723  37.395  48.519  1.00  0.00     0.157 A 
BRANCH  44  47
ATOM     47  O   UNL     1      16.848  37.770  50.633  1.00  0.00    -0.504 OA
ATOM     48  H   UNL     1      17.400  37.049  51.084  1.00  0.00     0.293 HD
ENDBRANCH  44  47
BRANCH  46  49
ATOM     49  O   UNL     1      16.898  37.650  47.811  1.00  0.00    -0.504 OA
ATOM     50  H   UNL     1      16.919  37.688  46.798  1.00  0.00     0.293 HD
ENDBRANCH  46  49
ENDBRANCH  40  41
ENDBRANCH  39  40
ENDBRANCH  38  39
ENDBRANCH   3  38
BRANCH   5  51
ATOM     51  C   UNL     1      15.414  33.769  48.947  1.00  0.00     0.192 C 
BRANCH  51  52
ATOM     52  O   UNL     1      15.205  33.277  47.652  1.00  0.00    -0.394 OA
ATOM     53  H   UNL     1      15.876  32.561  47.516  1.00  0.00     0.210 HD
ENDBRANCH  51  52
ENDBRANCH   5  51
TORSDOF 20
ENDMDL
MODEL 5
REMARK VINA RESULT:    -5.261      2.482      6.782
REMARK INTER + INTRA:         -14.498
REMARK INTER:                 -11.530
REMARK INTRA:                  -2.969
REMARK UNBOUND:                -4.470
REMARK SMILES C[C@H]1O[C@@H](O[C@H]2[C@@H](O)[C@@H](OCCc3ccc(O)c(O)c3)O[C@H](CO)[C@@H]2OC(=O)C=Cc2ccc(O)c(O)c2)[C@@H](O)[C@@H](O)[C@@H]1O
REMARK SMILES IDX 6 1 7 2 9 3 21 4 22 5 25 6 5 7 4 8 1 9 2 10 43 11 3 12 41 13
REMARK SMILES IDX 39 14 44 15 42 17 40 19 8 21 26 23 27 24 28 25 29 26 30 27
REMARK SMILES IDX 31 28 38 29 32 30 36 31 33 32 34 33 37 34 35 36 10 38 11 39
REMARK SMILES IDX 12 40 13 41 20 42 14 43 18 44 15 45 16 46 19 47 17 49 23 51
REMARK SMILES IDX 24 52
REMARK H PARENT 44 16 42 18 40 20 8 22 37 35 35 37 19 48 17 50 24 53
REMARK Flexibility Score: inf
ROOT
ATOM      1  C   UNL     1      12.567  33.519  53.355  1.00  0.00     0.199 C 
ATOM      2  C   UNL     1      13.865  34.095  53.952  1.00  0.00     0.203 C 
ATOM      3  C   UNL     1      14.988  33.030  53.993  1.00  0.00     0.282 C 
ATOM      4  O   UNL     1      15.198  32.458  52.709  1.00  0.00    -0.340 OA
ATOM      5  C   UNL     1      14.028  31.817  52.222  1.00  0.00     0.190 C 
ATOM      6  C   UNL     1      12.890  32.845  52.008  1.00  0.00     0.240 C 
ENDROOT
BRANCH   1   7
ATOM      7  O   UNL     1      12.013  32.573  54.259  1.00  0.00    -0.340 OA
BRANCH   7   8
ATOM      8  C   UNL     1      11.101  33.167  55.173  1.00  0.00     0.282 C 
ATOM      9  C   UNL     1      12.082  30.367  56.211  1.00  0.00     0.041 C 
ATOM     10  C   UNL     1      10.996  31.331  56.712  1.00  0.00     0.150 C 
ATOM     11  C   UNL     1       9.564  30.950  56.244  1.00  0.00     0.174 C 
ATOM     12  O   UNL     1      11.332  32.700  56.496  1.00  0.00    -0.344 OA
ATOM     13  C   UNL     1       9.270  31.449  54.824  1.00  0.00     0.179 C 
ATOM     14  C   UNL     1       9.653  32.932  54.711  1.00  0.00     0.202 C 
BRANCH  11  15
ATOM     15  O   UNL     1       8.618  31.510  57.122  1.00  0.00    -0.388 OA
ATOM     16  H   UNL     1       8.067  32.141  56.590  1.00  0.00     0.211 HD
ENDBRANCH  11  15
BRANCH  13  17
ATOM     17  O   UNL     1       9.968  30.668  53.887  1.00  0.00    -0.387 OA
ATOM     18  H   UNL     1      10.933  30.857  54.011  1.00  0.00     0.211 HD
ENDBRANCH  13  17
BRANCH  14  19
ATOM     19  O   UNL     1       9.496  33.390  53.393  1.00  0.00    -0.385 OA
ATOM     20  H   UNL     1       9.881  34.303  53.358  1.00  0.00     0.211 HD
ENDBRANCH  14  19
ENDBRANCH   7   8
ENDBRANCH   1   7
BRANCH   2  21
ATOM     21  O   UNL     1      13.614  34.602  55.237  1.00  0.00    -0.385 OA
ATOM     22  H   UNL     1      14.486  34.635  55.709  1.00  0.00     0.211 HD
ENDBRANCH   2  21
BRANCH   6  23
ATOM     23  O   UNL     1      13.287  33.853  51.074  1.00  0.00    -0.453 OA
BRANCH  23  24
ATOM     24  C   UNL     1      12.566  34.190  49.923  1.00  0.00     0.331 C 
ATOM     25  O   UNL     1      12.606  33.448  48.903  1.00  0.00    -0.247 OA
BRANCH  24  26
ATOM     26  C   UNL     1      11.818  35.462  49.916  1.00  0.00     0.094 C 
ATOM     27  C   UNL     1      12.352  36.693  49.937  1.00  0.00     0.016 C 
BRANCH  27  28
ATOM     28  C   UNL     1      13.787  37.006  49.805  1.00  0.00    -0.021 A 
ATOM     29  C   UNL     1      14.514  37.383  50.943  1.00  0.00     0.058 A 
ATOM     30  C   UNL     1      14.409  37.044  48.547  1.00  0.00     0.012 A 
ATOM     31  C   UNL     1      15.864  37.756  50.835  1.00  0.00     0.157 A 
ATOM     32  C   UNL     1      15.755  37.406  48.437  1.00  0.00     0.051 A 
ATOM     33  C   UNL     1      16.487  37.762  49.576  1.00  0.00     0.157 A 
BRANCH  31  34
ATOM     34  O   UNL     1      16.584  38.124  51.972  1.00  0.00    -0.504 OA
ATOM     35  H   UNL     1      16.595  39.082  52.304  1.00  0.00     0.293 HD
ENDBRANCH  31  34
BRANCH  33  36
ATOM     36  O   UNL     1      17.828  38.123  49.439  1.00  0.00    -0.504 OA
ATOM     37  H   UNL     1      18.553  37.744  50.035  1.00  0.00     0.293 HD
ENDBRANCH  33  36
ENDBRANCH  27  28
ENDBRANCH  24  26
ENDBRANCH  23  24
ENDBRANCH   6  23
BRANCH   3  38
ATOM     38  O   UNL     1      14.688  32.010  54.941  1.00  0.00    -0.350 OA
BRANCH  38  39
ATOM     39  C   UNL     1      15.865  31.459  55.490  1.00  0.00     0.168 C 
BRANCH  39  40
ATOM     40  C   UNL     1      16.272  32.273  56.718  1.00  0.00     0.064 C 
BRANCH  40  41
ATOM     41  C   UNL     1      15.498  31.831  57.932  1.00  0.00    -0.042 A 
ATOM     42  C   UNL     1      14.268  32.431  58.246  1.00  0.00     0.054 A 
ATOM     43  C   UNL     1      15.974  30.778  58.729  1.00  0.00     0.008 A 
ATOM     44  C   UNL     1      13.528  31.998  59.355  1.00  0.00     0.157 A 
ATOM     45  C   UNL     1      15.243  30.352  59.840  1.00  0.00     0.050 A 
ATOM     46  C   UNL     1      14.023  30.957  60.159  1.00  0.00     0.157 A 
BRANCH  44  47
ATOM     47  O   UNL     1      12.304  32.592  59.657  1.00  0.00    -0.504 OA
ATOM     48  H   UNL     1      11.678  32.913  58.928  1.00  0.00     0.293 HD
ENDBRANCH  44  47
BRANCH  46  49
ATOM     49  O   UNL     1      13.317  30.511  61.276  1.00  0.00    -0.504 OA
ATOM     50  H   UNL     1      13.290  31.037  62.143  1.00  0.00     0.293 HD
ENDBRANCH  46  49
ENDBRANCH  40  41
ENDBRANCH  39  40
ENDBRANCH  38  39
ENDBRANCH   3  38
BRANCH   5  51
ATOM     51  C   UNL     1      14.373  31.073  50.930  1.00  0.00     0.192 C 
BRANCH  51  52
ATOM     52  O   UNL     1      15.149  31.898  50.106  1.00  0.00    -0.394 OA
ATOM     53  H   UNL     1      16.078  31.834  50.445  1.00  0.00     0.210 HD
ENDBRANCH  51  52
ENDBRANCH   5  51
TORSDOF 20
ENDMDL
MODEL 6
REMARK VINA RESULT:    -5.117      1.594      7.094
REMARK INTER + INTRA:         -14.225
REMARK INTER:                 -10.099
REMARK INTRA:                  -4.126
REMARK UNBOUND:                -4.470
REMARK SMILES C[C@H]1O[C@@H](O[C@H]2[C@@H](O)[C@@H](OCCc3ccc(O)c(O)c3)O[C@H](CO)[C@@H]2OC(=O)C=Cc2ccc(O)c(O)c2)[C@@H](O)[C@@H](O)[C@@H]1O
REMARK SMILES IDX 6 1 7 2 9 3 21 4 22 5 25 6 5 7 4 8 1 9 2 10 43 11 3 12 41 13
REMARK SMILES IDX 39 14 44 15 42 17 40 19 8 21 26 23 27 24 28 25 29 26 30 27
REMARK SMILES IDX 31 28 38 29 32 30 36 31 33 32 34 33 37 34 35 36 10 38 11 39
REMARK SMILES IDX 12 40 13 41 20 42 14 43 18 44 15 45 16 46 19 47 17 49 23 51
REMARK SMILES IDX 24 52
REMARK H PARENT 44 16 42 18 40 20 8 22 37 35 35 37 19 48 17 50 24 53
REMARK Flexibility Score: inf
ROOT
ATOM      1  C   UNL     1      15.206  32.585  50.041  1.00  0.00     0.199 C 
ATOM      2  C   UNL     1      14.759  31.128  50.265  1.00  0.00     0.203 C 
ATOM      3  C   UNL     1      14.331  30.888  51.732  1.00  0.00     0.282 C 
ATOM      4  O   UNL     1      13.335  31.819  52.135  1.00  0.00    -0.340 OA
ATOM      5  C   UNL     1      13.803  33.158  52.047  1.00  0.00     0.190 C 
ATOM      6  C   UNL     1      14.115  33.532  50.578  1.00  0.00     0.240 C 
ENDROOT
BRANCH   1   7
ATOM      7  O   UNL     1      16.432  32.811  50.724  1.00  0.00    -0.340 OA
BRANCH   7   8
ATOM      8  C   UNL     1      16.913  34.136  50.548  1.00  0.00     0.282 C 
ATOM      9  C   UNL     1      18.718  32.064  49.023  1.00  0.00     0.041 C 
ATOM     10  C   UNL     1      18.878  33.567  49.297  1.00  0.00     0.150 C 
ATOM     11  C   UNL     1      19.804  33.883  50.503  1.00  0.00     0.174 C 
ATOM     12  O   UNL     1      17.631  34.257  49.326  1.00  0.00    -0.344 OA
ATOM     13  C   UNL     1      19.063  33.777  51.842  1.00  0.00     0.179 C 
ATOM     14  C   UNL     1      17.748  34.567  51.765  1.00  0.00     0.202 C 
BRANCH  11  15
ATOM     15  O   UNL     1      20.315  35.187  50.375  1.00  0.00    -0.388 OA
ATOM     16  H   UNL     1      20.938  35.181  49.603  1.00  0.00     0.211 HD
ENDBRANCH  11  15
BRANCH  13  17
ATOM     17  O   UNL     1      18.830  32.427  52.155  1.00  0.00    -0.387 OA
ATOM     18  H   UNL     1      17.969  32.385  52.644  1.00  0.00     0.211 HD
ENDBRANCH  13  17
BRANCH  14  19
ATOM     19  O   UNL     1      16.995  34.401  52.939  1.00  0.00    -0.385 OA
ATOM     20  H   UNL     1      17.260  33.529  53.329  1.00  0.00     0.211 HD
ENDBRANCH  14  19
ENDBRANCH   7   8
ENDBRANCH   1   7
BRANCH   2  21
ATOM     21  O   UNL     1      15.793  30.252  49.899  1.00  0.00    -0.385 OA
ATOM     22  H   UNL     1      16.621  30.588  50.330  1.00  0.00     0.211 HD
ENDBRANCH   2  21
BRANCH   6  23
ATOM     23  O   UNL     1      12.947  33.396  49.761  1.00  0.00    -0.453 OA
BRANCH  23  24
ATOM     24  C   UNL     1      12.531  34.340  48.816  1.00  0.00     0.331 C 
ATOM     25  O   UNL     1      12.806  34.186  47.594  1.00  0.00    -0.247 OA
BRANCH  24  26
ATOM     26  C   UNL     1      11.826  35.543  49.297  1.00  0.00     0.094 C 
ATOM     27  C   UNL     1      12.401  36.672  49.741  1.00  0.00     0.016 C 
BRANCH  27  28
ATOM     28  C   UNL     1      13.841  36.981  49.676  1.00  0.00    -0.021 A 
ATOM     29  C   UNL     1      14.520  37.336  50.850  1.00  0.00     0.058 A 
ATOM     30  C   UNL     1      14.516  37.039  48.446  1.00  0.00     0.012 A 
ATOM     31  C   UNL     1      15.874  37.705  50.807  1.00  0.00     0.157 A 
ATOM     32  C   UNL     1      15.867  37.398  48.400  1.00  0.00     0.051 A 
ATOM     33  C   UNL     1      16.551  37.731  49.576  1.00  0.00     0.157 A 
BRANCH  31  34
ATOM     34  O   UNL     1      16.546  38.050  51.980  1.00  0.00    -0.504 OA
ATOM     35  H   UNL     1      16.717  37.370  52.712  1.00  0.00     0.293 HD
ENDBRANCH  31  34
BRANCH  33  36
ATOM     36  O   UNL     1      17.897  38.089  49.503  1.00  0.00    -0.504 OA
ATOM     37  H   UNL     1      18.282  38.856  50.040  1.00  0.00     0.293 HD
ENDBRANCH  33  36
ENDBRANCH  27  28
ENDBRANCH  24  26
ENDBRANCH  23  24
ENDBRANCH   6  23
BRANCH   3  38
ATOM     38  O   UNL     1      15.452  30.960  52.608  1.00  0.00    -0.350 OA
BRANCH  38  39
ATOM     39  C   UNL     1      15.307  30.077  53.699  1.00  0.00     0.168 C 
BRANCH  39  40
ATOM     40  C   UNL     1      15.556  30.843  54.999  1.00  0.00     0.064 C 
BRANCH  40  41
ATOM     41  C   UNL     1      14.320  31.592  55.420  1.00  0.00    -0.042 A 
ATOM     42  C   UNL     1      13.076  30.942  55.462  1.00  0.00     0.054 A 
ATOM     43  C   UNL     1      14.410  32.933  55.824  1.00  0.00     0.008 A 
ATOM     44  C   UNL     1      11.929  31.628  55.886  1.00  0.00     0.157 A 
ATOM     45  C   UNL     1      13.267  33.622  56.238  1.00  0.00     0.050 A 
ATOM     46  C   UNL     1      12.026  32.977  56.270  1.00  0.00     0.157 A 
BRANCH  44  47
ATOM     47  O   UNL     1      10.699  30.976  55.935  1.00  0.00    -0.504 OA
ATOM     48  H   UNL     1      10.623  30.011  56.236  1.00  0.00     0.293 HD
ENDBRANCH  44  47
BRANCH  46  49
ATOM     49  O   UNL     1      10.903  33.691  56.687  1.00  0.00    -0.504 OA
ATOM     50  H   UNL     1      10.946  34.678  56.918  1.00  0.00     0.293 HD
ENDBRANCH  46  49
ENDBRANCH  40  41
ENDBRANCH  39  40
ENDBRANCH  38  39
ENDBRANCH   3  38
BRANCH   5  51
ATOM     51  C   UNL     1      12.755  34.088  52.662  1.00  0.00     0.192 C 
BRANCH  51  52
ATOM     52  O   UNL     1      11.472  33.592  52.395  1.00  0.00    -0.394 OA
ATOM     53  H   UNL     1      11.238  33.907  51.485  1.00  0.00     0.210 HD
ENDBRANCH  51  52
ENDBRANCH   5  51
TORSDOF 20
ENDMDL
MODEL 7
REMARK VINA RESULT:    -5.069      1.949      6.174
REMARK INTER + INTRA:         -14.133
REMARK INTER:                 -10.310
REMARK INTRA:                  -3.823
REMARK UNBOUND:                -4.470
REMARK SMILES C[C@H]1O[C@@H](O[C@H]2[C@@H](O)[C@@H](OCCc3ccc(O)c(O)c3)O[C@H](CO)[C@@H]2OC(=O)C=Cc2ccc(O)c(O)c2)[C@@H](O)[C@@H](O)[C@@H]1O
REMARK SMILES IDX 6 1 7 2 9 3 21 4 22 5 25 6 5 7 4 8 1 9 2 10 43 11 3 12 41 13
REMARK SMILES IDX 39 14 44 15 42 17 40 19 8 21 26 23 27 24 28 25 29 26 30 27
REMARK SMILES IDX 31 28 38 29 32 30 36 31 33 32 34 33 37 34 35 36 10 38 11 39
REMARK SMILES IDX 12 40 13 41 20 42 14 43 18 44 15 45 16 46 19 47 17 49 23 51
REMARK SMILES IDX 24 52
REMARK H PARENT 44 16 42 18 40 20 8 22 37 35 35 37 19 48 17 50 24 53
REMARK Flexibility Score: inf
ROOT
ATOM      1  C   UNL     1      12.662  32.705  52.743  1.00  0.00     0.199 C 
ATOM      2  C   UNL     1      11.802  33.947  52.445  1.00  0.00     0.203 C 
ATOM      3  C   UNL     1      11.401  34.011  50.952  1.00  0.00     0.282 C 
ATOM      4  O   UNL     1      10.762  32.809  50.542  1.00  0.00    -0.340 OA
ATOM      5  C   UNL     1      11.613  31.682  50.701  1.00  0.00     0.190 C 
ATOM      6  C   UNL     1      11.945  31.456  52.195  1.00  0.00     0.240 C 
ENDROOT
BRANCH   1   7
ATOM      7  O   UNL     1      13.933  32.853  52.125  1.00  0.00    -0.340 OA
BRANCH   7   8
ATOM      8  C   UNL     1      14.927  33.305  53.034  1.00  0.00     0.282 C 
ATOM      9  C   UNL     1      15.737  33.936  50.064  1.00  0.00     0.041 C 
ATOM     10  C   UNL     1      16.504  34.054  51.390  1.00  0.00     0.150 C 
ATOM     11  C   UNL     1      17.449  32.854  51.670  1.00  0.00     0.174 C 
ATOM     12  O   UNL     1      15.657  34.395  52.486  1.00  0.00    -0.344 OA
ATOM     13  C   UNL     1      16.700  31.660  52.276  1.00  0.00     0.179 C 
ATOM     14  C   UNL     1      15.837  32.139  53.453  1.00  0.00     0.202 C 
BRANCH  11  15
ATOM     15  O   UNL     1      18.460  33.250  52.564  1.00  0.00    -0.388 OA
ATOM     16  H   UNL     1      19.319  32.916  52.197  1.00  0.00     0.211 HD
ENDBRANCH  11  15
BRANCH  13  17
ATOM     17  O   UNL     1      15.918  31.034  51.291  1.00  0.00    -0.387 OA
ATOM     18  H   UNL     1      15.217  31.680  51.020  1.00  0.00     0.211 HD
ENDBRANCH  13  17
BRANCH  14  19
ATOM     19  O   UNL     1      15.057  31.088  53.962  1.00  0.00    -0.385 OA
ATOM     20  H   UNL     1      15.626  30.276  53.949  1.00  0.00     0.211 HD
ENDBRANCH  14  19
ENDBRANCH   7   8
ENDBRANCH   1   7
BRANCH   2  21
ATOM     21  O   UNL     1      12.496  35.108  52.824  1.00  0.00    -0.385 OA
ATOM     22  H   UNL     1      12.562  35.680  52.015  1.00  0.00     0.211 HD
ENDBRANCH   2  21
BRANCH   6  23
ATOM     23  O   UNL     1      10.749  31.243  52.954  1.00  0.00    -0.453 OA
BRANCH  23  24
ATOM     24  C   UNL     1      10.703  30.572  54.181  1.00  0.00     0.331 C 
ATOM     25  O   UNL     1      11.228  29.432  54.306  1.00  0.00    -0.247 OA
BRANCH  24  26
ATOM     26  C   UNL     1       9.969  31.204  55.294  1.00  0.00     0.094 C 
ATOM     27  C   UNL     1      10.517  31.774  56.379  1.00  0.00     0.016 C 
BRANCH  27  28
ATOM     28  C   UNL     1      11.957  32.021  56.581  1.00  0.00    -0.021 A 
ATOM     29  C   UNL     1      12.723  31.079  57.283  1.00  0.00     0.058 A 
ATOM     30  C   UNL     1      12.548  33.232  56.185  1.00  0.00     0.012 A 
ATOM     31  C   UNL     1      14.079  31.322  57.552  1.00  0.00     0.157 A 
ATOM     32  C   UNL     1      13.901  33.473  56.444  1.00  0.00     0.051 A 
ATOM     33  C   UNL     1      14.671  32.522  57.126  1.00  0.00     0.157 A 
BRANCH  31  34
ATOM     34  O   UNL     1      14.837  30.378  58.245  1.00  0.00    -0.504 OA
ATOM     35  H   UNL     1      14.400  29.676  58.833  1.00  0.00     0.293 HD
ENDBRANCH  31  34
BRANCH  33  36
ATOM     36  O   UNL     1      16.018  32.789  57.375  1.00  0.00    -0.504 OA
ATOM     37  H   UNL     1      16.696  32.888  56.630  1.00  0.00     0.293 HD
ENDBRANCH  33  36
ENDBRANCH  27  28
ENDBRANCH  24  26
ENDBRANCH  23  24
ENDBRANCH   6  23
BRANCH   3  38
ATOM     38  O   UNL     1      12.535  34.269  50.130  1.00  0.00    -0.350 OA
BRANCH  38  39
ATOM     39  C   UNL     1      12.216  35.155  49.080  1.00  0.00     0.168 C 
BRANCH  39  40
ATOM     40  C   UNL     1      12.368  36.594  49.576  1.00  0.00     0.064 C 
BRANCH  40  41
ATOM     41  C   UNL     1      13.816  37.009  49.571  1.00  0.00    -0.042 A 
ATOM     42  C   UNL     1      14.457  37.362  50.769  1.00  0.00     0.054 A 
ATOM     43  C   UNL     1      14.550  36.995  48.375  1.00  0.00     0.008 A 
ATOM     44  C   UNL     1      15.813  37.716  50.772  1.00  0.00     0.157 A 
ATOM     45  C   UNL     1      15.900  37.357  48.374  1.00  0.00     0.050 A 
ATOM     46  C   UNL     1      16.536  37.719  49.567  1.00  0.00     0.157 A 
BRANCH  44  47
ATOM     47  O   UNL     1      16.447  38.057  51.965  1.00  0.00    -0.504 OA
ATOM     48  H   UNL     1      15.970  37.985  52.857  1.00  0.00     0.293 HD
ENDBRANCH  44  47
BRANCH  46  49
ATOM     49  O   UNL     1      17.883  38.076  49.534  1.00  0.00    -0.504 OA
ATOM     50  H   UNL     1      18.350  38.341  48.672  1.00  0.00     0.293 HD
ENDBRANCH  46  49
ENDBRANCH  40  41
ENDBRANCH  39  40
ENDBRANCH  38  39
ENDBRANCH   3  38
BRANCH   5  51
ATOM     51  C   UNL     1      10.936  30.460  50.075  1.00  0.00     0.192 C 
BRANCH  51  52
ATOM     52  O   UNL     1      11.189  29.329  50.862  1.00  0.00    -0.394 OA
ATOM     53  H   UNL     1      11.725  29.643  51.635  1.00  0.00     0.210 HD
ENDBRANCH  51  52
ENDBRANCH   5  51
TORSDOF 20
ENDMDL
MODEL 8
REMARK VINA RESULT:    -4.941      2.380      6.996
REMARK INTER + INTRA:         -13.888
REMARK INTER:                  -9.975
REMARK INTRA:                  -3.913
REMARK UNBOUND:                -4.470
REMARK SMILES C[C@H]1O[C@@H](O[C@H]2[C@@H](O)[C@@H](OCCc3ccc(O)c(O)c3)O[C@H](CO)[C@@H]2OC(=O)C=Cc2ccc(O)c(O)c2)[C@@H](O)[C@@H](O)[C@@H]1O
REMARK SMILES IDX 6 1 7 2 9 3 21 4 22 5 25 6 5 7 4 8 1 9 2 10 43 11 3 12 41 13
REMARK SMILES IDX 39 14 44 15 42 17 40 19 8 21 26 23 27 24 28 25 29 26 30 27
REMARK SMILES IDX 31 28 38 29 32 30 36 31 33 32 34 33 37 34 35 36 10 38 11 39
REMARK SMILES IDX 12 40 13 41 20 42 14 43 18 44 15 45 16 46 19 47 17 49 23 51
REMARK SMILES IDX 24 52
REMARK H PARENT 44 16 42 18 40 20 8 22 37 35 35 37 19 48 17 50 24 53
REMARK Flexibility Score: inf
ROOT
ATOM      1  C   UNL     1      13.555  33.953  52.178  1.00  0.00     0.199 C 
ATOM      2  C   UNL     1      12.994  34.429  53.531  1.00  0.00     0.203 C 
ATOM      3  C   UNL     1      13.251  33.387  54.646  1.00  0.00     0.282 C 
ATOM      4  O   UNL     1      14.630  33.053  54.728  1.00  0.00    -0.340 OA
ATOM      5  C   UNL     1      15.108  32.494  53.512  1.00  0.00     0.190 C 
ATOM      6  C   UNL     1      15.025  33.530  52.365  1.00  0.00     0.240 C 
ENDROOT
BRANCH   1   7
ATOM      7  O   UNL     1      12.784  32.855  51.709  1.00  0.00    -0.340 OA
BRANCH   7   8
ATOM      8  C   UNL     1      12.559  32.912  50.307  1.00  0.00     0.282 C 
ATOM      9  C   UNL     1       9.896  32.292  51.856  1.00  0.00     0.041 C 
ATOM     10  C   UNL     1      10.242  32.296  50.360  1.00  0.00     0.150 C 
ATOM     11  C   UNL     1      10.548  30.885  49.789  1.00  0.00     0.174 C 
ATOM     12  O   UNL     1      11.216  33.282  50.023  1.00  0.00    -0.344 OA
ATOM     13  C   UNL     1      11.994  30.453  50.063  1.00  0.00     0.179 C 
ATOM     14  C   UNL     1      12.953  31.579  49.649  1.00  0.00     0.202 C 
BRANCH  11  15
ATOM     15  O   UNL     1      10.335  30.882  48.399  1.00  0.00    -0.388 OA
ATOM     16  H   UNL     1       9.371  31.067  48.253  1.00  0.00     0.211 HD
ENDBRANCH  11  15
BRANCH  13  17
ATOM     17  O   UNL     1      12.147  30.124  51.421  1.00  0.00    -0.387 OA
ATOM     18  H   UNL     1      12.495  29.197  51.460  1.00  0.00     0.211 HD
ENDBRANCH  13  17
BRANCH  14  19
ATOM     19  O   UNL     1      14.278  31.257  49.987  1.00  0.00    -0.385 OA
ATOM     20  H   UNL     1      14.240  30.729  50.825  1.00  0.00     0.211 HD
ENDBRANCH  14  19
ENDBRANCH   7   8
ENDBRANCH   1   7
BRANCH   2  21
ATOM     21  O   UNL     1      11.621  34.698  53.409  1.00  0.00    -0.385 OA
ATOM     22  H   UNL     1      11.493  35.146  52.533  1.00  0.00     0.211 HD
ENDBRANCH   2  21
BRANCH   6  23
ATOM     23  O   UNL     1      15.800  34.693  52.675  1.00  0.00    -0.453 OA
BRANCH  23  24
ATOM     24  C   UNL     1      16.299  35.586  51.721  1.00  0.00     0.331 C 
ATOM     25  O   UNL     1      16.986  35.166  50.749  1.00  0.00    -0.247 OA
BRANCH  24  26
ATOM     26  C   UNL     1      16.055  37.027  51.919  1.00  0.00     0.094 C 
ATOM     27  C   UNL     1      15.261  37.805  51.168  1.00  0.00     0.016 C 
BRANCH  27  28
ATOM     28  C   UNL     1      14.356  37.331  50.104  1.00  0.00    -0.021 A 
ATOM     29  C   UNL     1      13.035  36.991  50.429  1.00  0.00     0.058 A 
ATOM     30  C   UNL     1      14.824  37.104  48.800  1.00  0.00     0.012 A 
ATOM     31  C   UNL     1      12.172  36.470  49.452  1.00  0.00     0.157 A 
ATOM     32  C   UNL     1      13.966  36.592  47.822  1.00  0.00     0.051 A 
ATOM     33  C   UNL     1      12.640  36.274  48.142  1.00  0.00     0.157 A 
BRANCH  31  34
ATOM     34  O   UNL     1      10.857  36.140  49.780  1.00  0.00    -0.504 OA
ATOM     35  H   UNL     1      10.117  36.161  49.087  1.00  0.00     0.293 HD
ENDBRANCH  31  34
BRANCH  33  36
ATOM     36  O   UNL     1      11.804  35.762  47.149  1.00  0.00    -0.504 OA
ATOM     37  H   UNL     1      11.100  36.327  46.690  1.00  0.00     0.293 HD
ENDBRANCH  33  36
ENDBRANCH  27  28
ENDBRANCH  24  26
ENDBRANCH  23  24
ENDBRANCH   6  23
BRANCH   3  38
ATOM     38  O   UNL     1      12.474  32.212  54.434  1.00  0.00    -0.350 OA
BRANCH  38  39
ATOM     39  C   UNL     1      11.994  31.688  55.653  1.00  0.00     0.168 C 
BRANCH  39  40
ATOM     40  C   UNL     1      11.065  32.712  56.307  1.00  0.00     0.064 C 
BRANCH  40  41
ATOM     41  C   UNL     1       9.625  32.391  56.008  1.00  0.00    -0.042 A 
ATOM     42  C   UNL     1       8.897  33.177  55.100  1.00  0.00     0.054 A 
ATOM     43  C   UNL     1       9.014  31.272  56.595  1.00  0.00     0.008 A 
ATOM     44  C   UNL     1       7.566  32.861  54.795  1.00  0.00     0.157 A 
ATOM     45  C   UNL     1       7.684  30.961  56.299  1.00  0.00     0.050 A 
ATOM     46  C   UNL     1       6.955  31.750  55.403  1.00  0.00     0.157 A 
BRANCH  44  47
ATOM     47  O   UNL     1       6.851  33.639  53.887  1.00  0.00    -0.504 OA
ATOM     48  H   UNL     1       6.927  34.650  53.881  1.00  0.00     0.293 HD
ENDBRANCH  44  47
BRANCH  46  49
ATOM     49  O   UNL     1       5.630  31.415  55.128  1.00  0.00    -0.504 OA
ATOM     50  H   UNL     1       5.128  30.716  55.666  1.00  0.00     0.293 HD
ENDBRANCH  46  49
ENDBRANCH  40  41
ENDBRANCH  39  40
ENDBRANCH  38  39
ENDBRANCH   3  38
BRANCH   5  51
ATOM     51  C   UNL     1      16.538  31.994  53.727  1.00  0.00     0.192 C 
BRANCH  51  52
ATOM     52  O   UNL     1      17.261  32.942  54.463  1.00  0.00    -0.394 OA
ATOM     53  H   UNL     1      18.183  32.587  54.540  1.00  0.00     0.210 HD
ENDBRANCH  51  52
ENDBRANCH   5  51
TORSDOF 20
ENDMDL
MODEL 9
REMARK VINA RESULT:    -4.939      1.781      5.975
REMARK INTER + INTRA:         -13.885
REMARK INTER:                  -9.786
REMARK INTRA:                  -4.098
REMARK UNBOUND:                -4.470
REMARK SMILES C[C@H]1O[C@@H](O[C@H]2[C@@H](O)[C@@H](OCCc3ccc(O)c(O)c3)O[C@H](CO)[C@@H]2OC(=O)C=Cc2ccc(O)c(O)c2)[C@@H](O)[C@@H](O)[C@@H]1O
REMARK SMILES IDX 6 1 7 2 9 3 21 4 22 5 25 6 5 7 4 8 1 9 2 10 43 11 3 12 41 13
REMARK SMILES IDX 39 14 44 15 42 17 40 19 8 21 26 23 27 24 28 25 29 26 30 27
REMARK SMILES IDX 31 28 38 29 32 30 36 31 33 32 34 33 37 34 35 36 10 38 11 39
REMARK SMILES IDX 12 40 13 41 20 42 14 43 18 44 15 45 16 46 19 47 17 49 23 51
REMARK SMILES IDX 24 52
REMARK H PARENT 44 16 42 18 40 20 8 22 37 35 35 37 19 48 17 50 24 53
REMARK Flexibility Score: inf
ROOT
ATOM      1  C   UNL     1      16.205  34.163  50.710  1.00  0.00     0.199 C 
ATOM      2  C   UNL     1      17.074  34.506  51.935  1.00  0.00     0.203 C 
ATOM      3  C   UNL     1      16.728  33.604  53.143  1.00  0.00     0.282 C 
ATOM      4  O   UNL     1      16.815  32.228  52.797  1.00  0.00    -0.340 OA
ATOM      5  C   UNL     1      15.915  31.893  51.750  1.00  0.00     0.190 C 
ATOM      6  C   UNL     1      16.284  32.646  50.450  1.00  0.00     0.240 C 
ENDROOT
BRANCH   1   7
ATOM      7  O   UNL     1      14.861  34.549  50.964  1.00  0.00    -0.340 OA
BRANCH   7   8
ATOM      8  C   UNL     1      14.050  34.485  49.799  1.00  0.00     0.282 C 
ATOM      9  C   UNL     1      14.206  37.420  50.910  1.00  0.00     0.041 C 
ATOM     10  C   UNL     1      13.355  36.780  49.803  1.00  0.00     0.150 C 
ATOM     11  C   UNL     1      11.921  36.401  50.262  1.00  0.00     0.174 C 
ATOM     12  O   UNL     1      14.041  35.734  49.118  1.00  0.00    -0.344 OA
ATOM     13  C   UNL     1      11.886  35.052  50.989  1.00  0.00     0.179 C 
ATOM     14  C   UNL     1      12.636  34.000  50.158  1.00  0.00     0.202 C 
BRANCH  11  15
ATOM     15  O   UNL     1      11.072  36.330  49.143  1.00  0.00    -0.388 OA
ATOM     16  H   UNL     1      10.447  37.099  49.203  1.00  0.00     0.211 HD
ENDBRANCH  11  15
BRANCH  13  17
ATOM     17  O   UNL     1      12.445  35.183  52.272  1.00  0.00    -0.387 OA
ATOM     18  H   UNL     1      12.018  35.968  52.699  1.00  0.00     0.211 HD
ENDBRANCH  13  17
BRANCH  14  19
ATOM     19  O   UNL     1      12.714  32.780  50.847  1.00  0.00    -0.385 OA
ATOM     20  H   UNL     1      12.479  32.068  50.199  1.00  0.00     0.211 HD
ENDBRANCH  14  19
ENDBRANCH   7   8
ENDBRANCH   1   7
BRANCH   2  21
ATOM     21  O   UNL     1      16.915  35.862  52.265  1.00  0.00    -0.385 OA
ATOM     22  H   UNL     1      16.109  35.926  52.840  1.00  0.00     0.211 HD
ENDBRANCH   2  21
BRANCH   6  23
ATOM     23  O   UNL     1      17.615  32.320  50.036  1.00  0.00    -0.453 OA
BRANCH  23  24
ATOM     24  C   UNL     1      18.003  32.132  48.705  1.00  0.00     0.331 C 
ATOM     25  O   UNL     1      17.256  31.505  47.904  1.00  0.00    -0.247 OA
BRANCH  24  26
ATOM     26  C   UNL     1      19.330  32.624  48.289  1.00  0.00     0.094 C 
ATOM     27  C   UNL     1      19.606  33.852  47.823  1.00  0.00     0.016 C 
BRANCH  27  28
ATOM     28  C   UNL     1      18.668  34.989  47.798  1.00  0.00    -0.021 A 
ATOM     29  C   UNL     1      18.667  35.902  48.862  1.00  0.00     0.058 A 
ATOM     30  C   UNL     1      17.700  35.109  46.787  1.00  0.00     0.012 A 
ATOM     31  C   UNL     1      17.736  36.953  48.899  1.00  0.00     0.157 A 
ATOM     32  C   UNL     1      16.777  36.159  46.817  1.00  0.00     0.051 A 
ATOM     33  C   UNL     1      16.791  37.084  47.868  1.00  0.00     0.157 A 
BRANCH  31  34
ATOM     34  O   UNL     1      17.745  37.861  49.958  1.00  0.00    -0.504 OA
ATOM     35  H   UNL     1      18.613  38.183  50.372  1.00  0.00     0.293 HD
ENDBRANCH  31  34
BRANCH  33  36
ATOM     36  O   UNL     1      15.857  38.121  47.876  1.00  0.00    -0.504 OA
ATOM     37  H   UNL     1      14.869  37.959  47.724  1.00  0.00     0.293 HD
ENDBRANCH  33  36
ENDBRANCH  27  28
ENDBRANCH  24  26
ENDBRANCH  23  24
ENDBRANCH   6  23
BRANCH   3  38
ATOM     38  O   UNL     1      15.429  33.902  53.647  1.00  0.00    -0.350 OA
BRANCH  38  39
ATOM     39  C   UNL     1      15.088  33.052  54.720  1.00  0.00     0.168 C 
BRANCH  39  40
ATOM     40  C   UNL     1      14.023  33.734  55.579  1.00  0.00     0.064 C 
BRANCH  40  41
ATOM     41  C   UNL     1      12.656  33.184  55.269  1.00  0.00    -0.042 A 
ATOM     42  C   UNL     1      11.513  33.751  55.856  1.00  0.00     0.054 A 
ATOM     43  C   UNL     1      12.509  32.134  54.349  1.00  0.00     0.008 A 
ATOM     44  C   UNL     1      10.237  33.263  55.543  1.00  0.00     0.157 A 
ATOM     45  C   UNL     1      11.239  31.640  54.043  1.00  0.00     0.050 A 
ATOM     46  C   UNL     1      10.101  32.197  54.637  1.00  0.00     0.157 A 
BRANCH  44  47
ATOM     47  O   UNL     1       9.106  33.834  56.122  1.00  0.00    -0.504 OA
ATOM     48  H   UNL     1       8.271  34.021  55.580  1.00  0.00     0.293 HD
ENDBRANCH  44  47
BRANCH  46  49
ATOM     49  O   UNL     1       8.847  31.682  54.312  1.00  0.00    -0.504 OA
ATOM     50  H   UNL     1       8.211  31.325  55.019  1.00  0.00     0.293 HD
ENDBRANCH  46  49
ENDBRANCH  40  41
ENDBRANCH  39  40
ENDBRANCH  38  39
ENDBRANCH   3  38
BRANCH   5  51
ATOM     51  C   UNL     1      15.929  30.375  51.554  1.00  0.00     0.192 C 
BRANCH  51  52
ATOM     52  O   UNL     1      15.698  30.074  50.206  1.00  0.00    -0.394 OA
ATOM     53  H   UNL     1      16.203  30.747  49.681  1.00  0.00     0.210 HD
ENDBRANCH  51  52
ENDBRANCH   5  51
TORSDOF 20
ENDMDL
