MODEL 1
REMARK VINA RESULT:    -3.960      0.000      0.000
REMARK INTER + INTRA:          -5.913
REMARK INTER:                  -6.044
REMARK INTRA:                   0.132
REMARK UNBOUND:                 0.132
REMARK SMILES CC1=CCC[C@H](C)C(=O)C[C@@H](C(C)C)C(=O)C1
REMARK SMILES IDX 8 1 9 2 6 3 7 4 5 5 4 6 3 7 2 8 1 9 10 11 11 12 15 13 16 14
REMARK SMILES IDX 17 15 12 17 13 18 14 19
REMARK H PARENT
REMARK Flexibility Score: 70.00
ROOT
ATOM      1  C   UNL     1      87.864  37.084  24.466  1.00  0.00     0.136 C 
ATOM      2  O   UNL     1      88.964  36.835  23.994  1.00  0.00    -0.299 OA
ENDROOT
BRANCH   1   3
ATOM      3  C   UNL     1      86.703  36.155  24.196  1.00  0.00     0.053 C 
ATOM      4  C   UNL     1      86.702  35.676  22.739  1.00  0.00     0.016 C 
BRANCH   3   5
ATOM      5  C   UNL     1      86.765  34.966  25.186  1.00  0.00     0.015 C 
BRANCH   5   6
ATOM      6  C   UNL     1      85.554  34.811  26.127  1.00  0.00     0.028 C 
BRANCH   6   7
ATOM      7  C   UNL     1      85.825  34.890  27.614  1.00  0.00    -0.028 C 
ATOM      8  C   UNL     1      86.187  35.990  28.319  1.00  0.00    -0.070 CG0
ATOM      9  C   UNL     1      86.506  35.809  29.783  1.00  0.00     0.039 C 
ATOM     10  G   UNL     1      86.221  37.395  27.747  1.00  0.00     0.000 G0
ENDBRANCH   6   7
ENDBRANCH   5   6
ENDBRANCH   3   5
ENDBRANCH   1   3
BRANCH   1  11
ATOM     11  C   UNL     1      87.704  38.274  25.383  1.00  0.00     0.087 C 
BRANCH  11  12
ATOM     12  C   UNL     1      88.553  38.134  26.685  1.00  0.00     0.066 C 
BRANCH  12  13
ATOM     13  C   UNL     1      87.620  37.997  27.881  1.00  0.00     0.140 C 
ATOM     14  O   UNL     1      88.030  38.321  28.988  1.00  0.00    -0.299 OA
BRANCH  13  15
ATOM     15  C   UNL     1      86.232  37.402  27.759  1.00  0.00     0.106 CG0
ATOM     16  G   UNL     1      86.194  35.991  28.319  1.00  0.00     0.000 G0
ENDBRANCH  13  15
ENDBRANCH  12  13
BRANCH  12  17
ATOM     17  C   UNL     1      89.539  39.334  26.876  1.00  0.00    -0.006 C 
ATOM     18  C   UNL     1      89.399  40.374  25.746  1.00  0.00     0.008 C 
ATOM     19  C   UNL     1      91.010  38.873  26.925  1.00  0.00     0.008 C 
ENDBRANCH  12  17
ENDBRANCH  11  12
ENDBRANCH   1  11
TORSDOF 1
ENDMDL
MODEL 2
REMARK VINA RESULT:    -3.325      2.427      4.967
REMARK INTER + INTRA:          -4.943
REMARK INTER:                  -4.545
REMARK INTRA:                  -0.398
REMARK UNBOUND:                 0.132
REMARK SMILES CC1=CCC[C@H](C)C(=O)C[C@@H](C(C)C)C(=O)C1
REMARK SMILES IDX 8 1 9 2 6 3 7 4 5 5 4 6 3 7 2 8 1 9 10 11 11 12 15 13 16 14
REMARK SMILES IDX 17 15 12 17 13 18 14 19
REMARK H PARENT
REMARK Flexibility Score: 70.00
ROOT
ATOM      1  C   UNL     1      86.591  33.240  24.974  1.00  0.00     0.136 C 
ATOM      2  O   UNL     1      85.757  32.577  24.374  1.00  0.00    -0.299 OA
ENDROOT
BRANCH   1   3
ATOM      3  C   UNL     1      87.998  33.345  24.432  1.00  0.00     0.053 C 
ATOM      4  C   UNL     1      88.705  31.985  24.459  1.00  0.00     0.016 C 
BRANCH   3   5
ATOM      5  C   UNL     1      87.947  33.932  23.001  1.00  0.00     0.015 C 
BRANCH   5   6
ATOM      6  C   UNL     1      87.535  35.414  22.897  1.00  0.00     0.028 C 
BRANCH   6   7
ATOM      7  C   UNL     1      88.333  36.408  23.715  1.00  0.00    -0.028 C 
ATOM      8  C   UNL     1      87.842  37.348  24.559  1.00  0.00    -0.070 CG0
ATOM      9  C   UNL     1      88.826  38.302  25.192  1.00  0.00     0.039 C 
ATOM     10  G   UNL     1      86.382  37.454  24.961  1.00  0.00     0.000 G0
ENDBRANCH   6   7
ENDBRANCH   5   6
ENDBRANCH   3   5
ENDBRANCH   1   3
BRANCH   1  11
ATOM     11  C   UNL     1      86.176  34.016  26.202  1.00  0.00     0.087 C 
BRANCH  11  12
ATOM     12  C   UNL     1      85.252  35.225  25.853  1.00  0.00     0.066 C 
BRANCH  12  13
ATOM     13  C   UNL     1      86.012  36.523  26.094  1.00  0.00     0.140 C 
ATOM     14  O   UNL     1      86.290  36.839  27.243  1.00  0.00    -0.299 OA
BRANCH  13  15
ATOM     15  C   UNL     1      86.366  37.473  24.967  1.00  0.00     0.106 CG0
ATOM     16  G   UNL     1      87.824  37.327  24.571  1.00  0.00     0.000 G0
ENDBRANCH  13  15
ENDBRANCH  12  13
BRANCH  12  17
ATOM     17  C   UNL     1      83.915  35.197  26.665  1.00  0.00    -0.006 C 
ATOM     18  C   UNL     1      83.296  33.785  26.698  1.00  0.00     0.008 C 
ATOM     19  C   UNL     1      82.866  36.168  26.085  1.00  0.00     0.008 C 
ENDBRANCH  12  17
ENDBRANCH  11  12
ENDBRANCH   1  11
TORSDOF 1
ENDMDL
MODEL 3
REMARK VINA RESULT:    -3.234      1.914      4.516
REMARK INTER + INTRA:          -4.803
REMARK INTER:                  -4.479
REMARK INTRA:                  -0.324
REMARK UNBOUND:                 0.132
REMARK SMILES CC1=CCC[C@H](C)C(=O)C[C@@H](C(C)C)C(=O)C1
REMARK SMILES IDX 8 1 9 2 6 3 7 4 5 5 4 6 3 7 2 8 1 9 10 11 11 12 15 13 16 14
REMARK SMILES IDX 17 15 12 17 13 18 14 19
REMARK H PARENT
REMARK Flexibility Score: 70.00
ROOT
ATOM      1  C   UNL     1      88.027  38.218  27.443  1.00  0.00     0.136 C 
ATOM      2  O   UNL     1      88.794  37.915  28.346  1.00  0.00    -0.299 OA
ENDROOT
BRANCH   1   3
ATOM      3  C   UNL     1      88.565  38.854  26.182  1.00  0.00     0.053 C 
ATOM      4  C   UNL     1      89.706  39.829  26.496  1.00  0.00     0.016 C 
BRANCH   3   5
ATOM      5  C   UNL     1      89.019  37.741  25.207  1.00  0.00     0.015 C 
BRANCH   5   6
ATOM      6  C   UNL     1      88.100  37.496  23.993  1.00  0.00     0.028 C 
BRANCH   6   7
ATOM      7  C   UNL     1      87.561  36.092  23.812  1.00  0.00    -0.028 C 
ATOM      8  C   UNL     1      86.406  35.593  24.314  1.00  0.00    -0.070 CG0
ATOM      9  C   UNL     1      86.121  34.128  24.089  1.00  0.00     0.039 C 
ATOM     10  G   UNL     1      85.353  36.427  25.022  1.00  0.00     0.000 G0
ENDBRANCH   6   7
ENDBRANCH   5   6
ENDBRANCH   3   5
ENDBRANCH   1   3
BRANCH   1  11
ATOM     11  C   UNL     1      86.562  37.869  27.569  1.00  0.00     0.087 C 
BRANCH  11  12
ATOM     12  C   UNL     1      86.313  36.331  27.496  1.00  0.00     0.066 C 
BRANCH  12  13
ATOM     13  C   UNL     1      85.213  36.048  26.481  1.00  0.00     0.140 C 
ATOM     14  O   UNL     1      84.221  35.428  26.843  1.00  0.00    -0.299 OA
BRANCH  13  15
ATOM     15  C   UNL     1      85.339  36.440  25.022  1.00  0.00     0.106 CG0
ATOM     16  G   UNL     1      86.400  35.608  24.325  1.00  0.00     0.000 G0
ENDBRANCH  13  15
ENDBRANCH  12  13
BRANCH  12  17
ATOM     17  C   UNL     1      85.956  35.725  28.894  1.00  0.00    -0.006 C 
ATOM     18  C   UNL     1      85.517  36.815  29.893  1.00  0.00     0.008 C 
ATOM     19  C   UNL     1      87.141  34.957  29.512  1.00  0.00     0.008 C 
ENDBRANCH  12  17
ENDBRANCH  11  12
ENDBRANCH   1  11
TORSDOF 1
ENDMDL
MODEL 4
REMARK VINA RESULT:    -3.208      2.939      4.819
REMARK INTER + INTRA:          -4.764
REMARK INTER:                  -5.005
REMARK INTRA:                   0.241
REMARK UNBOUND:                 0.132
REMARK SMILES CC1=CCC[C@H](C)C(=O)C[C@@H](C(C)C)C(=O)C1
REMARK SMILES IDX 8 1 9 2 6 3 7 4 5 5 4 6 3 7 2 8 1 9 10 11 11 12 15 13 16 14
REMARK SMILES IDX 17 15 12 17 13 18 14 19
REMARK H PARENT
REMARK Flexibility Score: 70.00
ROOT
ATOM      1  C   UNL     1      87.096  37.828  28.616  1.00  0.00     0.136 C 
ATOM      2  O   UNL     1      88.077  38.421  28.189  1.00  0.00    -0.299 OA
ENDROOT
BRANCH   1   3
ATOM      3  C   UNL     1      86.484  38.240  29.934  1.00  0.00     0.053 C 
ATOM      4  C   UNL     1      86.233  39.752  29.981  1.00  0.00     0.016 C 
BRANCH   3   5
ATOM      5  C   UNL     1      85.178  37.439  30.159  1.00  0.00     0.015 C 
BRANCH   5   6
ATOM      6  C   UNL     1      83.875  38.147  29.735  1.00  0.00     0.028 C 
BRANCH   6   7
ATOM      7  C   UNL     1      82.735  37.265  29.270  1.00  0.00    -0.028 C 
ATOM      8  C   UNL     1      82.328  37.068  27.992  1.00  0.00    -0.070 CG0
ATOM      9  C   UNL     1      81.098  36.223  27.773  1.00  0.00     0.039 C 
ATOM     10  G   UNL     1      83.070  37.582  26.772  1.00  0.00     0.000 G0
ENDBRANCH   6   7
ENDBRANCH   5   6
ENDBRANCH   3   5
ENDBRANCH   1   3
BRANCH   1  11
ATOM     11  C   UNL     1      86.461  36.748  27.772  1.00  0.00     0.087 C 
BRANCH  11  12
ATOM     12  C   UNL     1      85.707  37.330  26.536  1.00  0.00     0.066 C 
BRANCH  12  13
ATOM     13  C   UNL     1      84.303  36.742  26.481  1.00  0.00     0.140 C 
ATOM     14  O   UNL     1      84.165  35.574  26.145  1.00  0.00    -0.299 OA
BRANCH  13  15
ATOM     15  C   UNL     1      83.067  37.576  26.754  1.00  0.00     0.106 CG0
ATOM     16  G   UNL     1      82.342  37.084  27.993  1.00  0.00     0.000 G0
ENDBRANCH  13  15
ENDBRANCH  12  13
BRANCH  12  17
ATOM     17  C   UNL     1      86.478  37.067  25.200  1.00  0.00    -0.006 C 
ATOM     18  C   UNL     1      87.829  37.811  25.164  1.00  0.00     0.008 C 
ATOM     19  C   UNL     1      85.661  37.498  23.965  1.00  0.00     0.008 C 
ENDBRANCH  12  17
ENDBRANCH  11  12
ENDBRANCH   1  11
TORSDOF 1
ENDMDL
MODEL 5
REMARK VINA RESULT:    -3.173      2.217      3.702
REMARK INTER + INTRA:          -4.712
REMARK INTER:                  -4.808
REMARK INTRA:                   0.096
REMARK UNBOUND:                 0.132
REMARK SMILES CC1=CCC[C@H](C)C(=O)C[C@@H](C(C)C)C(=O)C1
REMARK SMILES IDX 8 1 9 2 6 3 7 4 5 5 4 6 3 7 2 8 1 9 10 11 11 12 15 13 16 14
REMARK SMILES IDX 17 15 12 17 13 18 14 19
REMARK H PARENT
REMARK Flexibility Score: 70.00
ROOT
ATOM      1  C   UNL     1      87.287  37.491  25.048  1.00  0.00     0.136 C 
ATOM      2  O   UNL     1      88.216  38.192  25.423  1.00  0.00    -0.299 OA
ENDROOT
BRANCH   1   3
ATOM      3  C   UNL     1      87.361  36.799  23.707  1.00  0.00     0.053 C 
ATOM      4  C   UNL     1      88.517  35.793  23.666  1.00  0.00     0.016 C 
BRANCH   3   5
ATOM      5  C   UNL     1      86.003  36.118  23.412  1.00  0.00     0.015 C 
BRANCH   5   6
ATOM      6  C   UNL     1      85.995  34.578  23.480  1.00  0.00     0.028 C 
BRANCH   6   7
ATOM      7  C   UNL     1      84.747  33.922  24.033  1.00  0.00    -0.028 C 
ATOM      8  C   UNL     1      84.548  33.491  25.303  1.00  0.00    -0.070 CG0
ATOM      9  C   UNL     1      83.257  32.770  25.602  1.00  0.00     0.039 C 
ATOM     10  G   UNL     1      85.506  33.751  26.451  1.00  0.00     0.000 G0
ENDBRANCH   6   7
ENDBRANCH   5   6
ENDBRANCH   3   5
ENDBRANCH   1   3
BRANCH   1  11
ATOM     11  C   UNL     1      86.115  37.260  25.973  1.00  0.00     0.087 C 
BRANCH  11  12
ATOM     12  C   UNL     1      86.419  36.175  27.052  1.00  0.00     0.066 C 
BRANCH  12  13
ATOM     13  C   UNL     1      85.305  35.135  27.047  1.00  0.00     0.140 C 
ATOM     14  O   UNL     1      84.240  35.410  27.584  1.00  0.00    -0.299 OA
BRANCH  13  15
ATOM     15  C   UNL     1      85.498  33.747  26.469  1.00  0.00     0.106 CG0
ATOM     16  G   UNL     1      84.559  33.511  25.300  1.00  0.00     0.000 G0
ENDBRANCH  13  15
ENDBRANCH  12  13
BRANCH  12  17
ATOM     17  C   UNL     1      86.601  36.797  28.477  1.00  0.00    -0.006 C 
ATOM     18  C   UNL     1      87.673  37.905  28.483  1.00  0.00     0.008 C 
ATOM     19  C   UNL     1      86.999  35.737  29.524  1.00  0.00     0.008 C 
ENDBRANCH  12  17
ENDBRANCH  11  12
ENDBRANCH   1  11
TORSDOF 1
ENDMDL
MODEL 6
REMARK VINA RESULT:    -3.128      2.919      4.264
REMARK INTER + INTRA:          -4.642
REMARK INTER:                  -4.230
REMARK INTRA:                  -0.412
REMARK UNBOUND:                 0.132
REMARK SMILES CC1=CCC[C@H](C)C(=O)C[C@@H](C(C)C)C(=O)C1
REMARK SMILES IDX 8 1 9 2 6 3 7 4 5 5 4 6 3 7 2 8 1 9 10 11 11 12 15 13 16 14
REMARK SMILES IDX 17 15 12 17 13 18 14 19
REMARK H PARENT
REMARK Flexibility Score: 70.00
ROOT
ATOM      1  C   UNL     1      87.371  32.671  24.635  1.00  0.00     0.136 C 
ATOM      2  O   UNL     1      88.557  32.406  24.506  1.00  0.00    -0.299 OA
ENDROOT
BRANCH   1   3
ATOM      3  C   UNL     1      86.543  31.932  25.661  1.00  0.00     0.053 C 
ATOM      4  C   UNL     1      86.654  30.414  25.474  1.00  0.00     0.016 C 
BRANCH   3   5
ATOM      5  C   UNL     1      86.990  32.365  27.079  1.00  0.00     0.015 C 
BRANCH   5   6
ATOM      6  C   UNL     1      86.037  33.324  27.820  1.00  0.00     0.028 C 
BRANCH   6   7
ATOM      7  C   UNL     1      84.623  33.432  27.291  1.00  0.00    -0.028 C 
ATOM      8  C   UNL     1      84.061  34.504  26.680  1.00  0.00    -0.070 CG0
ATOM      9  C   UNL     1      82.597  34.420  26.326  1.00  0.00     0.039 C 
ATOM     10  G   UNL     1      84.827  35.747  26.267  1.00  0.00     0.000 G0
ENDBRANCH   6   7
ENDBRANCH   5   6
ENDBRANCH   3   5
ENDBRANCH   1   3
BRANCH   1  11
ATOM     11  C   UNL     1      86.772  33.796  23.824  1.00  0.00     0.087 C 
BRANCH  11  12
ATOM     12  C   UNL     1      86.813  35.159  24.584  1.00  0.00     0.066 C 
BRANCH  12  13
ATOM     13  C   UNL     1      85.388  35.625  24.858  1.00  0.00     0.140 C 
ATOM     14  O   UNL     1      84.688  35.966  23.914  1.00  0.00    -0.299 OA
BRANCH  13  15
ATOM     15  C   UNL     1      84.836  35.752  26.264  1.00  0.00     0.106 CG0
ATOM     16  G   UNL     1      84.058  34.509  26.657  1.00  0.00     0.000 G0
ENDBRANCH  13  15
ENDBRANCH  12  13
BRANCH  12  17
ATOM     17  C   UNL     1      87.618  36.247  23.798  1.00  0.00    -0.006 C 
ATOM     18  C   UNL     1      88.972  35.704  23.297  1.00  0.00     0.008 C 
ATOM     19  C   UNL     1      87.891  37.498  24.658  1.00  0.00     0.008 C 
ENDBRANCH  12  17
ENDBRANCH  11  12
ENDBRANCH   1  11
TORSDOF 1
ENDMDL
MODEL 7
REMARK VINA RESULT:    -3.014      3.542      4.568
REMARK INTER + INTRA:          -4.469
REMARK INTER:                  -4.484
REMARK INTRA:                   0.015
REMARK UNBOUND:                 0.132
REMARK SMILES CC1=CCC[C@H](C)C(=O)C[C@@H](C(C)C)C(=O)C1
REMARK SMILES IDX 8 1 9 2 6 3 7 4 5 5 4 6 3 7 2 8 1 9 10 11 11 12 15 13 16 14
REMARK SMILES IDX 17 15 12 17 13 18 14 19
REMARK H PARENT
REMARK Flexibility Score: 70.00
ROOT
ATOM      1  C   UNL     1      84.435  37.554  22.612  1.00  0.00     0.136 C 
ATOM      2  O   UNL     1      84.033  36.448  22.279  1.00  0.00    -0.299 OA
ENDROOT
BRANCH   1   3
ATOM      3  C   UNL     1      83.726  38.792  22.114  1.00  0.00     0.053 C 
ATOM      4  C   UNL     1      83.621  38.794  20.584  1.00  0.00     0.016 C 
BRANCH   3   5
ATOM      5  C   UNL     1      82.331  38.879  22.780  1.00  0.00     0.015 C 
BRANCH   5   6
ATOM      6  C   UNL     1      82.327  39.057  24.311  1.00  0.00     0.028 C 
BRANCH   6   7
ATOM      7  C   UNL     1      82.010  37.833  25.145  1.00  0.00    -0.028 C 
ATOM      8  C   UNL     1      82.878  37.110  25.893  1.00  0.00    -0.070 CG0
ATOM      9  C   UNL     1      82.354  35.862  26.561  1.00  0.00     0.039 C 
ATOM     10  G   UNL     1      84.317  37.514  26.158  1.00  0.00     0.000 G0
ENDBRANCH   6   7
ENDBRANCH   5   6
ENDBRANCH   3   5
ENDBRANCH   1   3
BRANCH   1  11
ATOM     11  C   UNL     1      85.583  37.661  23.587  1.00  0.00     0.087 C 
BRANCH  11  12
ATOM     12  C   UNL     1      85.852  36.317  24.333  1.00  0.00     0.066 C 
BRANCH  12  13
ATOM     13  C   UNL     1      85.283  36.402  25.743  1.00  0.00     0.140 C 
ATOM     14  O   UNL     1      85.553  35.515  26.543  1.00  0.00    -0.299 OA
BRANCH  13  15
ATOM     15  C   UNL     1      84.333  37.505  26.166  1.00  0.00     0.106 CG0
ATOM     16  G   UNL     1      82.892  37.118  25.886  1.00  0.00     0.000 G0
ENDBRANCH  13  15
ENDBRANCH  12  13
BRANCH  12  17
ATOM     17  C   UNL     1      87.375  35.955  24.363  1.00  0.00    -0.006 C 
ATOM     18  C   UNL     1      88.262  37.215  24.312  1.00  0.00     0.008 C 
ATOM     19  C   UNL     1      87.775  35.037  23.190  1.00  0.00     0.008 C 
ENDBRANCH  12  17
ENDBRANCH  11  12
ENDBRANCH   1  11
TORSDOF 1
ENDMDL
MODEL 8
REMARK VINA RESULT:    -2.992      8.723      9.936
REMARK INTER + INTRA:          -4.435
REMARK INTER:                  -4.112
REMARK INTRA:                  -0.322
REMARK UNBOUND:                 0.132
REMARK SMILES CC1=CCC[C@H](C)C(=O)C[C@@H](C(C)C)C(=O)C1
REMARK SMILES IDX 8 1 9 2 6 3 7 4 5 5 4 6 3 7 2 8 1 9 10 11 11 12 15 13 16 14
REMARK SMILES IDX 17 15 12 17 13 18 14 19
REMARK H PARENT
REMARK Flexibility Score: 70.00
ROOT
ATOM      1  C   UNL     1      81.546  43.435  24.031  1.00  0.00     0.136 C 
ATOM      2  O   UNL     1      81.300  42.755  23.045  1.00  0.00    -0.299 OA
ENDROOT
BRANCH   1   3
ATOM      3  C   UNL     1      81.166  44.897  24.049  1.00  0.00     0.053 C 
ATOM      4  C   UNL     1      81.471  45.566  22.703  1.00  0.00     0.016 C 
BRANCH   3   5
ATOM      5  C   UNL     1      79.669  45.027  24.422  1.00  0.00     0.015 C 
BRANCH   5   6
ATOM      6  C   UNL     1      79.373  45.612  25.818  1.00  0.00     0.028 C 
BRANCH   6   7
ATOM      7  C   UNL     1      80.563  46.052  26.644  1.00  0.00    -0.028 C 
ATOM      8  C   UNL     1      81.060  45.439  27.746  1.00  0.00    -0.070 CG0
ATOM      9  C   UNL     1      82.196  46.118  28.471  1.00  0.00     0.039 C 
ATOM     10  G   UNL     1      80.597  44.085  28.251  1.00  0.00     0.000 G0
ENDBRANCH   6   7
ENDBRANCH   5   6
ENDBRANCH   3   5
ENDBRANCH   1   3
BRANCH   1  11
ATOM     11  C   UNL     1      82.149  42.779  25.251  1.00  0.00     0.087 C 
BRANCH  11  12
ATOM     12  C   UNL     1      81.066  42.359  26.292  1.00  0.00     0.066 C 
BRANCH  12  13
ATOM     13  C   UNL     1      81.413  42.959  27.648  1.00  0.00     0.140 C 
ATOM     14  O   UNL     1      82.334  42.473  28.290  1.00  0.00    -0.299 OA
BRANCH  13  15
ATOM     15  C   UNL     1      80.608  44.088  28.262  1.00  0.00     0.106 CG0
ATOM     16  G   UNL     1      81.068  45.434  27.731  1.00  0.00     0.000 G0
ENDBRANCH  13  15
ENDBRANCH  12  13
BRANCH  12  17
ATOM     17  C   UNL     1      80.914  40.804  26.389  1.00  0.00    -0.006 C 
ATOM     18  C   UNL     1      82.227  40.079  26.030  1.00  0.00     0.008 C 
ATOM     19  C   UNL     1      79.803  40.272  25.461  1.00  0.00     0.008 C 
ENDBRANCH  12  17
ENDBRANCH  11  12
ENDBRANCH   1  11
TORSDOF 1
ENDMDL
MODEL 9
REMARK VINA RESULT:    -2.973      2.343      4.524
REMARK INTER + INTRA:          -4.405
REMARK INTER:                  -4.360
REMARK INTRA:                  -0.045
REMARK UNBOUND:                 0.132
REMARK SMILES CC1=CCC[C@H](C)C(=O)C[C@@H](C(C)C)C(=O)C1
REMARK SMILES IDX 8 1 9 2 6 3 7 4 5 5 4 6 3 7 2 8 1 9 10 11 11 12 15 13 16 14
REMARK SMILES IDX 17 15 12 17 13 18 14 19
REMARK H PARENT
REMARK Flexibility Score: 70.00
ROOT
ATOM      1  C   UNL     1      86.199  37.381  29.244  1.00  0.00     0.136 C 
ATOM      2  O   UNL     1      86.440  38.512  29.640  1.00  0.00    -0.299 OA
ENDROOT
BRANCH   1   3
ATOM      3  C   UNL     1      84.993  36.640  29.774  1.00  0.00     0.053 C 
ATOM      4  C   UNL     1      85.158  36.304  31.261  1.00  0.00     0.016 C 
BRANCH   3   5
ATOM      5  C   UNL     1      83.725  37.490  29.519  1.00  0.00     0.015 C 
BRANCH   5   6
ATOM      6  C   UNL     1      83.515  37.965  28.068  1.00  0.00     0.028 C 
BRANCH   6   7
ATOM      7  C   UNL     1      83.004  36.941  27.077  1.00  0.00    -0.028 C 
ATOM      8  C   UNL     1      83.482  36.704  25.831  1.00  0.00    -0.070 CG0
ATOM      9  C   UNL     1      82.746  35.699  24.978  1.00  0.00     0.039 C 
ATOM     10  G   UNL     1      84.746  37.329  25.270  1.00  0.00     0.000 G0
ENDBRANCH   6   7
ENDBRANCH   5   6
ENDBRANCH   3   5
ENDBRANCH   1   3
BRANCH   1  11
ATOM     11  C   UNL     1      87.065  36.775  28.164  1.00  0.00     0.087 C 
BRANCH  11  12
ATOM     12  C   UNL     1      86.914  37.517  26.800  1.00  0.00     0.066 C 
BRANCH  12  13
ATOM     13  C   UNL     1      85.990  36.716  25.892  1.00  0.00     0.140 C 
ATOM     14  O   UNL     1      86.293  35.564  25.611  1.00  0.00    -0.299 OA
BRANCH  13  15
ATOM     15  C   UNL     1      84.751  37.321  25.264  1.00  0.00     0.106 CG0
ATOM     16  G   UNL     1      83.491  36.695  25.835  1.00  0.00     0.000 G0
ENDBRANCH  13  15
ENDBRANCH  12  13
BRANCH  12  17
ATOM     17  C   UNL     1      88.297  37.770  26.112  1.00  0.00    -0.006 C 
ATOM     18  C   UNL     1      89.121  38.835  26.864  1.00  0.00     0.008 C 
ATOM     19  C   UNL     1      88.139  38.230  24.649  1.00  0.00     0.008 C 
ENDBRANCH  12  17
ENDBRANCH  11  12
ENDBRANCH   1  11
TORSDOF 1
ENDMDL
