MODEL 1
REMARK VINA RESULT:    -1.354      0.000      0.000
REMARK INTER + INTRA:          -0.249
REMARK INTER:                  -1.908
REMARK INTRA:                   1.659
REMARK UNBOUND:                 1.659
REMARK SMILES CC1=CCC(=C(C)C)C(=O)CC(C)=CCC1
REMARK SMILES IDX 12 1 14 2 13 3 15 4 16 5 2 6 1 7 3 8 11 10 9 11 10 12 5 13
REMARK SMILES IDX 6 14 7 15 8 16 4 17
REMARK H PARENT
REMARK Flexibility Score: 60.00
ROOT
ATOM      1  C   UNL     1      85.284  32.024  67.459  1.00  0.00    -0.070 C 
ATOM      2  C   UNL     1      83.945  32.162  67.612  1.00  0.00    -0.027 C 
ATOM      3  C   UNL     1      86.212  33.011  68.119  1.00  0.00     0.039 C 
ENDROOT
BRANCH   2   4
ATOM      4  C   UNL     1      82.919  31.263  66.970  1.00  0.00     0.032 C 
BRANCH   4   5
ATOM      5  C   UNL     1      82.469  31.834  65.619  1.00  0.00     0.034 C 
BRANCH   5   6
ATOM      6  C   UNL     1      83.084  31.052  64.477  1.00  0.00    -0.077 C 
ATOM      7  C   UNL     1      82.496  29.711  64.125  1.00  0.00     0.039 C 
ATOM      8  C   UNL     1      84.175  31.475  63.798  1.00  0.00    -0.023 CG0
ATOM      9  G   UNL     1      84.886  32.790  64.017  1.00  0.00     0.000 G0
ENDBRANCH   5   6
ENDBRANCH   4   5
ENDBRANCH   2   4
BRANCH   1  10
ATOM     10  C   UNL     1      85.906  30.866  66.704  1.00  0.00     0.111 C 
BRANCH  10  11
ATOM     11  C   UNL     1      86.462  31.303  65.374  1.00  0.00     0.163 C 
ATOM     12  O   UNL     1      87.211  30.509  64.740  1.00  0.00    -0.294 OA
BRANCH  11  13
ATOM     13  C   UNL     1      86.178  32.644  64.791  1.00  0.00    -0.002 C 
ATOM     14  C   UNL     1      86.974  33.723  65.046  1.00  0.00    -0.069 C 
ATOM     15  C   UNL     1      88.121  33.656  66.029  1.00  0.00     0.039 C 
ATOM     16  C   UNL     1      86.710  35.065  64.401  1.00  0.00     0.039 C 
BRANCH  13  17
ATOM     17  C   UNL     1      84.879  32.785  64.010  1.00  0.00     0.066 CG0
ATOM     18  G   UNL     1      84.175  31.465  63.795  1.00  0.00     0.000 G0
ENDBRANCH  13  17
ENDBRANCH  11  13
ENDBRANCH  10  11
ENDBRANCH   1  10
TORSDOF 0
ENDMDL
MODEL 2
REMARK VINA RESULT:    -0.479      2.029      4.522
REMARK INTER + INTRA:           0.984
REMARK INTER:                  -1.239
REMARK INTRA:                   2.222
REMARK UNBOUND:                 1.659
REMARK SMILES CC1=CCC(=C(C)C)C(=O)CC(C)=CCC1
REMARK SMILES IDX 12 1 14 2 13 3 15 4 16 5 2 6 1 7 3 8 11 10 9 11 10 12 5 13
REMARK SMILES IDX 6 14 7 15 8 16 4 17
REMARK H PARENT
REMARK Flexibility Score: 60.00
ROOT
ATOM      1  C   UNL     1      83.947  31.955  64.843  1.00  0.00    -0.070 C 
ATOM      2  C   UNL     1      84.545  32.381  63.704  1.00  0.00    -0.027 C 
ATOM      3  C   UNL     1      82.935  30.840  64.778  1.00  0.00     0.039 C 
ENDROOT
BRANCH   2   4
ATOM      4  C   UNL     1      85.540  33.512  63.637  1.00  0.00     0.032 C 
BRANCH   4   5
ATOM      5  C   UNL     1      86.946  33.017  63.999  1.00  0.00     0.034 C 
BRANCH   5   6
ATOM      6  C   UNL     1      87.530  33.844  65.125  1.00  0.00    -0.077 C 
ATOM      7  C   UNL     1      87.705  35.325  64.913  1.00  0.00     0.039 C 
ATOM      8  C   UNL     1      87.958  33.305  66.290  1.00  0.00    -0.023 CG0
ATOM      9  G   UNL     1      87.856  31.846  66.669  1.00  0.00     0.000 G0
ENDBRANCH   5   6
ENDBRANCH   4   5
ENDBRANCH   2   4
BRANCH   1  10
ATOM     10  C   UNL     1      84.305  32.506  66.209  1.00  0.00     0.111 C 
BRANCH  10  11
ATOM     11  C   UNL     1      85.318  31.639  66.910  1.00  0.00     0.163 C 
ATOM     12  O   UNL     1      85.111  31.316  68.112  1.00  0.00    -0.294 OA
BRANCH  11  13
ATOM     13  C   UNL     1      86.564  31.169  66.243  1.00  0.00    -0.002 C 
ATOM     14  C   UNL     1      86.562  30.118  65.372  1.00  0.00    -0.069 C 
ATOM     15  C   UNL     1      85.321  29.289  65.124  1.00  0.00     0.039 C 
ATOM     16  C   UNL     1      87.822  29.687  64.655  1.00  0.00     0.039 C 
BRANCH  13  17
ATOM     17  C   UNL     1      87.863  31.828  66.685  1.00  0.00     0.066 CG0
ATOM     18  G   UNL     1      87.950  33.284  66.287  1.00  0.00     0.000 G0
ENDBRANCH  13  17
ENDBRANCH  11  13
ENDBRANCH  10  11
ENDBRANCH   1  10
TORSDOF 0
ENDMDL
MODEL 3
REMARK VINA RESULT:    -0.268      2.033      3.936
REMARK INTER + INTRA:           1.282
REMARK INTER:                  -1.732
REMARK INTRA:                   3.014
REMARK UNBOUND:                 1.659
REMARK SMILES CC1=CCC(=C(C)C)C(=O)CC(C)=CCC1
REMARK SMILES IDX 12 1 14 2 13 3 15 4 16 5 2 6 1 7 3 8 11 10 9 11 10 12 5 13
REMARK SMILES IDX 6 14 7 15 8 16 4 17
REMARK H PARENT
REMARK Flexibility Score: 60.00
ROOT
ATOM      1  C   UNL     1      83.036  29.717  64.425  1.00  0.00    -0.070 C 
ATOM      2  C   UNL     1      83.739  28.611  64.082  1.00  0.00    -0.027 C 
ATOM      3  C   UNL     1      81.807  30.092  63.638  1.00  0.00     0.039 C 
ENDROOT
BRANCH   2   4
ATOM      4  C   UNL     1      85.003  28.158  64.767  1.00  0.00     0.032 C 
BRANCH   4   5
ATOM      5  C   UNL     1      85.723  29.348  65.414  1.00  0.00     0.034 C 
BRANCH   5   6
ATOM      6  C   UNL     1      87.024  29.640  64.695  1.00  0.00    -0.077 C 
ATOM      7  C   UNL     1      87.960  28.494  64.409  1.00  0.00     0.039 C 
ATOM      8  C   UNL     1      87.412  30.889  64.350  1.00  0.00    -0.023 CG0
ATOM      9  G   UNL     1      86.599  32.146  64.557  1.00  0.00     0.000 G0
ENDBRANCH   5   6
ENDBRANCH   4   5
ENDBRANCH   2   4
BRANCH   1  10
ATOM     10  C   UNL     1      83.391  30.570  65.628  1.00  0.00     0.111 C 
BRANCH  10  11
ATOM     11  C   UNL     1      84.159  31.803  65.229  1.00  0.00     0.163 C 
ATOM     12  O   UNL     1      83.594  32.654  64.488  1.00  0.00    -0.294 OA
BRANCH  11  13
ATOM     13  C   UNL     1      85.564  32.043  65.660  1.00  0.00    -0.002 C 
ATOM     14  C   UNL     1      85.887  32.270  66.967  1.00  0.00    -0.069 C 
ATOM     15  C   UNL     1      84.829  32.413  68.038  1.00  0.00     0.039 C 
ATOM     16  C   UNL     1      87.324  32.453  67.401  1.00  0.00     0.039 C 
BRANCH  13  17
ATOM     17  C   UNL     1      86.604  32.160  64.555  1.00  0.00     0.066 CG0
ATOM     18  G   UNL     1      87.408  30.895  64.366  1.00  0.00     0.000 G0
ENDBRANCH  13  17
ENDBRANCH  11  13
ENDBRANCH  10  11
ENDBRANCH   1  10
TORSDOF 0
ENDMDL
MODEL 4
REMARK VINA RESULT:    -0.148      2.268      4.182
REMARK INTER + INTRA:           1.451
REMARK INTER:                   0.125
REMARK INTRA:                   1.325
REMARK UNBOUND:                 1.659
REMARK SMILES CC1=CCC(=C(C)C)C(=O)CC(C)=CCC1
REMARK SMILES IDX 12 1 14 2 13 3 15 4 16 5 2 6 1 7 3 8 11 10 9 11 10 12 5 13
REMARK SMILES IDX 6 14 7 15 8 16 4 17
REMARK H PARENT
REMARK Flexibility Score: 60.00
ROOT
ATOM      1  C   UNL     1      86.562  31.905  66.804  1.00  0.00    -0.070 C 
ATOM      2  C   UNL     1      87.469  30.898  66.791  1.00  0.00    -0.027 C 
ATOM      3  C   UNL     1      85.962  32.347  68.114  1.00  0.00     0.039 C 
ENDROOT
BRANCH   2   4
ATOM      4  C   UNL     1      88.106  30.343  65.542  1.00  0.00     0.032 C 
BRANCH   4   5
ATOM      5  C   UNL     1      88.110  28.810  65.571  1.00  0.00     0.034 C 
BRANCH   5   6
ATOM      6  C   UNL     1      87.267  28.252  64.444  1.00  0.00    -0.077 C 
ATOM      7  C   UNL     1      87.931  27.372  63.417  1.00  0.00     0.039 C 
ATOM      8  C   UNL     1      85.959  28.555  64.282  1.00  0.00    -0.023 CG0
ATOM      9  G   UNL     1      85.137  29.414  65.215  1.00  0.00     0.000 G0
ENDBRANCH   5   6
ENDBRANCH   4   5
ENDBRANCH   2   4
BRANCH   1  10
ATOM     10  C   UNL     1      86.170  32.667  65.554  1.00  0.00     0.111 C 
BRANCH  10  11
ATOM     11  C   UNL     1      85.723  31.741  64.453  1.00  0.00     0.163 C 
ATOM     12  O   UNL     1      86.267  31.841  63.320  1.00  0.00    -0.294 OA
BRANCH  11  13
ATOM     13  C   UNL     1      84.649  30.727  64.650  1.00  0.00    -0.002 C 
ATOM     14  C   UNL     1      83.332  31.025  64.450  1.00  0.00    -0.069 C 
ATOM     15  C   UNL     1      82.870  32.430  64.135  1.00  0.00     0.039 C 
ATOM     16  C   UNL     1      82.257  29.972  64.595  1.00  0.00     0.039 C 
BRANCH  13  17
ATOM     17  C   UNL     1      85.080  29.383  65.219  1.00  0.00     0.066 CG0
ATOM     18  G   UNL     1      85.968  28.601  64.278  1.00  0.00     0.000 G0
ENDBRANCH  13  17
ENDBRANCH  11  13
ENDBRANCH  10  11
ENDBRANCH   1  10
TORSDOF 0
ENDMDL
MODEL 5
REMARK VINA RESULT:    -0.046      1.972      3.788
REMARK INTER + INTRA:           1.595
REMARK INTER:                  -2.027
REMARK INTRA:                   3.622
REMARK UNBOUND:                 1.659
REMARK SMILES CC1=CCC(=C(C)C)C(=O)CC(C)=CCC1
REMARK SMILES IDX 12 1 14 2 13 3 15 4 16 5 2 6 1 7 3 8 11 10 9 11 10 12 5 13
REMARK SMILES IDX 6 14 7 15 8 16 4 17
REMARK H PARENT
REMARK Flexibility Score: 60.00
ROOT
ATOM      1  C   UNL     1      84.675  32.990  63.553  1.00  0.00    -0.070 C 
ATOM      2  C   UNL     1      83.520  32.517  64.079  1.00  0.00    -0.027 C 
ATOM      3  C   UNL     1      84.675  34.311  62.827  1.00  0.00     0.039 C 
ENDROOT
BRANCH   2   4
ATOM      4  C   UNL     1      83.388  31.194  64.790  1.00  0.00     0.032 C 
BRANCH   4   5
ATOM      5  C   UNL     1      84.563  30.977  65.752  1.00  0.00     0.034 C 
BRANCH   5   6
ATOM      6  C   UNL     1      84.327  31.707  67.057  1.00  0.00    -0.077 C 
ATOM      7  C   UNL     1      82.909  31.907  67.523  1.00  0.00     0.039 C 
ATOM      8  C   UNL     1      85.328  32.240  67.795  1.00  0.00    -0.023 CG0
ATOM      9  G   UNL     1      86.802  32.131  67.480  1.00  0.00     0.000 G0
ENDBRANCH   5   6
ENDBRANCH   4   5
ENDBRANCH   2   4
BRANCH   1  10
ATOM     10  C   UNL     1      86.003  32.279  63.724  1.00  0.00     0.111 C 
BRANCH  10  11
ATOM     11  C   UNL     1      86.712  32.717  64.978  1.00  0.00     0.163 C 
ATOM     12  O   UNL     1      86.976  33.942  65.128  1.00  0.00    -0.294 OA
BRANCH  11  13
ATOM     13  C   UNL     1      87.130  31.755  66.036  1.00  0.00    -0.002 C 
ATOM     14  C   UNL     1      87.644  30.528  65.731  1.00  0.00    -0.069 C 
ATOM     15  C   UNL     1      87.707  30.020  64.308  1.00  0.00     0.039 C 
ATOM     16  C   UNL     1      88.120  29.584  66.812  1.00  0.00     0.039 C 
BRANCH  13  17
ATOM     17  C   UNL     1      86.829  32.152  67.474  1.00  0.00     0.066 CG0
ATOM     18  G   UNL     1      85.348  32.242  67.763  1.00  0.00     0.000 G0
ENDBRANCH  13  17
ENDBRANCH  11  13
ENDBRANCH  10  11
ENDBRANCH   1  10
TORSDOF 0
ENDMDL
MODEL 6
REMARK VINA RESULT:     0.283      1.738      3.664
REMARK INTER + INTRA:           2.058
REMARK INTER:                   0.160
REMARK INTRA:                   1.898
REMARK UNBOUND:                 1.659
REMARK SMILES CC1=CCC(=C(C)C)C(=O)CC(C)=CCC1
REMARK SMILES IDX 12 1 14 2 13 3 15 4 16 5 2 6 1 7 3 8 11 10 9 11 10 12 5 13
REMARK SMILES IDX 6 14 7 15 8 16 4 17
REMARK H PARENT
REMARK Flexibility Score: 60.00
ROOT
ATOM      1  C   UNL     1      87.014  32.951  65.567  1.00  0.00    -0.070 C 
ATOM      2  C   UNL     1      86.593  32.896  66.854  1.00  0.00    -0.027 C 
ATOM      3  C   UNL     1      88.125  33.896  65.189  1.00  0.00     0.039 C 
ENDROOT
BRANCH   2   4
ATOM      4  C   UNL     1      85.466  32.022  67.344  1.00  0.00     0.032 C 
BRANCH   4   5
ATOM      5  C   UNL     1      84.116  32.545  66.839  1.00  0.00     0.034 C 
BRANCH   5   6
ATOM      6  C   UNL     1      83.090  31.431  66.804  1.00  0.00    -0.077 C 
ATOM      7  C   UNL     1      82.128  31.305  67.956  1.00  0.00     0.039 C 
ATOM      8  C   UNL     1      83.037  30.509  65.817  1.00  0.00    -0.023 CG0
ATOM      9  G   UNL     1      83.920  30.487  64.590  1.00  0.00     0.000 G0
ENDBRANCH   5   6
ENDBRANCH   4   5
ENDBRANCH   2   4
BRANCH   1  10
ATOM     10  C   UNL     1      86.460  32.043  64.486  1.00  0.00     0.111 C 
BRANCH  10  11
ATOM     11  C   UNL     1      86.441  30.602  64.925  1.00  0.00     0.163 C 
ATOM     12  O   UNL     1      87.497  30.099  65.396  1.00  0.00    -0.294 OA
BRANCH  11  13
ATOM     13  C   UNL     1      85.227  29.747  64.804  1.00  0.00    -0.002 C 
ATOM     14  C   UNL     1      85.307  28.385  64.765  1.00  0.00    -0.069 C 
ATOM     15  C   UNL     1      86.636  27.664  64.720  1.00  0.00     0.039 C 
ATOM     16  C   UNL     1      84.065  27.526  64.702  1.00  0.00     0.039 C 
BRANCH  13  17
ATOM     17  C   UNL     1      83.905  30.469  64.585  1.00  0.00     0.066 CG0
ATOM     18  G   UNL     1      83.033  30.487  65.819  1.00  0.00     0.000 G0
ENDBRANCH  13  17
ENDBRANCH  11  13
ENDBRANCH  10  11
ENDBRANCH   1  10
TORSDOF 0
ENDMDL
MODEL 7
REMARK VINA RESULT:     0.548     14.166     16.108
REMARK INTER + INTRA:           2.431
REMARK INTER:                   0.597
REMARK INTRA:                   1.834
REMARK UNBOUND:                 1.659
REMARK SMILES CC1=CCC(=C(C)C)C(=O)CC(C)=CCC1
REMARK SMILES IDX 12 1 14 2 13 3 15 4 16 5 2 6 1 7 3 8 11 10 9 11 10 12 5 13
REMARK SMILES IDX 6 14 7 15 8 16 4 17
REMARK H PARENT
REMARK Flexibility Score: 60.00
ROOT
ATOM      1  C   UNL     1      79.644  35.565  51.110  1.00  0.00    -0.070 C 
ATOM      2  C   UNL     1      80.590  34.683  51.512  1.00  0.00    -0.027 C 
ATOM      3  C   UNL     1      79.694  36.121  49.710  1.00  0.00     0.039 C 
ENDROOT
BRANCH   2   4
ATOM      4  C   UNL     1      80.667  34.091  52.897  1.00  0.00     0.032 C 
BRANCH   4   5
ATOM      5  C   UNL     1      80.077  32.675  52.914  1.00  0.00     0.034 C 
BRANCH   5   6
ATOM      6  C   UNL     1      79.322  32.396  51.632  1.00  0.00    -0.077 C 
ATOM      7  C   UNL     1      80.089  31.876  50.444  1.00  0.00     0.039 C 
ATOM      8  C   UNL     1      78.001  32.647  51.484  1.00  0.00    -0.023 CG0
ATOM      9  G   UNL     1      77.082  33.163  52.567  1.00  0.00     0.000 G0
ENDBRANCH   5   6
ENDBRANCH   4   5
ENDBRANCH   2   4
BRANCH   1  10
ATOM     10  C   UNL     1      78.479  35.973  51.990  1.00  0.00     0.111 C 
BRANCH  10  11
ATOM     11  C   UNL     1      77.167  35.474  51.443  1.00  0.00     0.163 C 
ATOM     12  O   UNL     1      76.741  35.955  50.358  1.00  0.00    -0.294 OA
BRANCH  11  13
ATOM     13  C   UNL     1      76.346  34.450  52.148  1.00  0.00    -0.002 C 
ATOM     14  C   UNL     1      75.056  34.693  52.521  1.00  0.00    -0.069 C 
ATOM     15  C   UNL     1      74.418  36.054  52.351  1.00  0.00     0.039 C 
ATOM     16  C   UNL     1      74.213  33.626  53.182  1.00  0.00     0.039 C 
BRANCH  13  17
ATOM     17  C   UNL     1      77.060  33.169  52.556  1.00  0.00     0.066 CG0
ATOM     18  G   UNL     1      77.968  32.630  51.475  1.00  0.00     0.000 G0
ENDBRANCH  13  17
ENDBRANCH  11  13
ENDBRANCH  10  11
ENDBRANCH   1  10
TORSDOF 0
ENDMDL
MODEL 8
REMARK VINA RESULT:     0.621      1.919      2.924
REMARK INTER + INTRA:           2.535
REMARK INTER:                  -1.370
REMARK INTRA:                   3.905
REMARK UNBOUND:                 1.659
REMARK SMILES CC1=CCC(=C(C)C)C(=O)CC(C)=CCC1
REMARK SMILES IDX 12 1 14 2 13 3 15 4 16 5 2 6 1 7 3 8 11 10 9 11 10 12 5 13
REMARK SMILES IDX 6 14 7 15 8 16 4 17
REMARK H PARENT
REMARK Flexibility Score: 60.00
ROOT
ATOM      1  C   UNL     1      87.098  28.336  64.709  1.00  0.00    -0.070 C 
ATOM      2  C   UNL     1      85.783  28.446  65.016  1.00  0.00    -0.027 C 
ATOM      3  C   UNL     1      87.654  27.000  64.287  1.00  0.00     0.039 C 
ENDROOT
BRANCH   2   4
ATOM      4  C   UNL     1      85.123  29.717  65.487  1.00  0.00     0.032 C 
BRANCH   4   5
ATOM      5  C   UNL     1      83.971  30.107  64.552  1.00  0.00     0.034 C 
BRANCH   5   6
ATOM      6  C   UNL     1      83.844  31.614  64.462  1.00  0.00    -0.077 C 
ATOM      7  C   UNL     1      82.507  32.242  64.754  1.00  0.00     0.039 C 
ATOM      8  C   UNL     1      84.861  32.417  64.072  1.00  0.00    -0.023 CG0
ATOM      9  G   UNL     1      86.263  31.958  63.746  1.00  0.00     0.000 G0
ENDBRANCH   5   6
ENDBRANCH   4   5
ENDBRANCH   2   4
BRANCH   1  10
ATOM     10  C   UNL     1      88.038  29.526  64.701  1.00  0.00     0.111 C 
BRANCH  10  11
ATOM     11  C   UNL     1      87.528  30.644  65.572  1.00  0.00     0.163 C 
ATOM     12  O   UNL     1      87.406  30.439  66.811  1.00  0.00    -0.294 OA
BRANCH  11  13
ATOM     13  C   UNL     1      87.145  31.974  65.021  1.00  0.00    -0.002 C 
ATOM     14  C   UNL     1      87.462  33.137  65.661  1.00  0.00    -0.069 C 
ATOM     15  C   UNL     1      88.113  33.146  67.026  1.00  0.00     0.039 C 
ATOM     16  C   UNL     1      87.120  34.483  65.062  1.00  0.00     0.039 C 
BRANCH  13  17
ATOM     17  C   UNL     1      86.262  31.967  63.781  1.00  0.00     0.066 CG0
ATOM     18  G   UNL     1      84.850  32.428  64.060  1.00  0.00     0.000 G0
ENDBRANCH  13  17
ENDBRANCH  11  13
ENDBRANCH  10  11
ENDBRANCH   1  10
TORSDOF 0
ENDMDL
MODEL 9
REMARK VINA RESULT:     1.104      1.587      3.900
REMARK INTER + INTRA:           3.215
REMARK INTER:                   0.870
REMARK INTRA:                   2.345
REMARK UNBOUND:                 1.659
REMARK SMILES CC1=CCC(=C(C)C)C(=O)CC(C)=CCC1
REMARK SMILES IDX 12 1 14 2 13 3 15 4 16 5 2 6 1 7 3 8 11 10 9 11 10 12 5 13
REMARK SMILES IDX 6 14 7 15 8 16 4 17
REMARK H PARENT
REMARK Flexibility Score: 60.00
ROOT
ATOM      1  C   UNL     1      83.670  31.122  64.559  1.00  0.00    -0.070 C 
ATOM      2  C   UNL     1      83.277  32.392  64.301  1.00  0.00    -0.027 C 
ATOM      3  C   UNL     1      82.692  30.152  65.171  1.00  0.00     0.039 C 
ENDROOT
BRANCH   2   4
ATOM      4  C   UNL     1      84.174  33.460  63.728  1.00  0.00     0.032 C 
BRANCH   4   5
ATOM      5  C   UNL     1      85.616  32.950  63.609  1.00  0.00     0.034 C 
BRANCH   5   6
ATOM      6  C   UNL     1      86.579  33.907  64.278  1.00  0.00    -0.077 C 
ATOM      7  C   UNL     1      86.499  35.370  63.928  1.00  0.00     0.039 C 
ATOM      8  C   UNL     1      87.548  33.502  65.130  1.00  0.00    -0.023 CG0
ATOM      9  G   UNL     1      87.769  32.080  65.593  1.00  0.00     0.000 G0
ENDBRANCH   5   6
ENDBRANCH   4   5
ENDBRANCH   2   4
BRANCH   1  10
ATOM     10  C   UNL     1      85.044  30.600  64.190  1.00  0.00     0.111 C 
BRANCH  10  11
ATOM     11  C   UNL     1      85.895  30.361  65.409  1.00  0.00     0.163 C 
ATOM     12  O   UNL     1      86.089  29.173  65.789  1.00  0.00    -0.294 OA
BRANCH  11  13
ATOM     13  C   UNL     1      86.498  31.475  66.193  1.00  0.00    -0.002 C 
ATOM     14  C   UNL     1      85.880  31.997  67.293  1.00  0.00    -0.069 C 
ATOM     15  C   UNL     1      84.494  31.563  67.713  1.00  0.00     0.039 C 
ATOM     16  C   UNL     1      86.529  33.088  68.116  1.00  0.00     0.039 C 
BRANCH  13  17
ATOM     17  C   UNL     1      87.768  32.095  65.629  1.00  0.00     0.066 CG0
ATOM     18  G   UNL     1      87.561  33.504  65.123  1.00  0.00     0.000 G0
ENDBRANCH  13  17
ENDBRANCH  11  13
ENDBRANCH  10  11
ENDBRANCH   1  10
TORSDOF 0
ENDMDL
