MODEL 1
REMARK VINA RESULT:    -3.745      0.000      0.000
REMARK INTER + INTRA:          -4.470
REMARK INTER:                  -4.402
REMARK INTRA:                  -0.068
REMARK UNBOUND:                -0.068
REMARK SMILES O=C([O-])CCC(=O)[O-]
REMARK SMILES IDX 4 1 2 2 1 3 3 4 5 5 6 6 7 7 8 8
REMARK H PARENT
REMARK Flexibility Score: inf
ROOT
ATOM      1  C   UNL     1     -26.602  44.772  89.838  1.00  0.00     0.059 C 
ENDROOT
BRANCH   1   2
ATOM      2  C   UNL     1     -26.668  46.246  90.102  1.00  0.00     0.042 C 
ATOM      3  O   UNL     1     -25.679  46.980  89.845  1.00  0.00    -0.550 OA
ATOM      4  O   UNL     1     -27.809  46.799  90.669  1.00  0.00    -0.550 OA
ENDBRANCH   1   2
BRANCH   1   5
ATOM      5  C   UNL     1     -27.210  43.965  90.990  1.00  0.00     0.059 C 
BRANCH   5   6
ATOM      6  C   UNL     1     -28.315  43.072  90.515  1.00  0.00     0.042 C 
ATOM      7  O   UNL     1     -29.162  42.624  91.331  1.00  0.00    -0.550 OA
ATOM      8  O   UNL     1     -28.384  42.702  89.178  1.00  0.00    -0.550 OA
ENDBRANCH   5   6
ENDBRANCH   1   5
TORSDOF 3
ENDMDL
MODEL 2
REMARK VINA RESULT:    -3.728      0.166      3.994
REMARK INTER + INTRA:          -4.450
REMARK INTER:                  -4.369
REMARK INTRA:                  -0.081
REMARK UNBOUND:                -0.068
REMARK SMILES O=C([O-])CCC(=O)[O-]
REMARK SMILES IDX 4 1 2 2 1 3 3 4 5 5 6 6 7 7 8 8
REMARK H PARENT
REMARK Flexibility Score: inf
ROOT
ATOM      1  C   UNL     1     -27.117  43.826  91.069  1.00  0.00     0.059 C 
ENDROOT
BRANCH   1   2
ATOM      2  C   UNL     1     -28.284  43.036  90.559  1.00  0.00     0.042 C 
ATOM      3  O   UNL     1     -29.172  42.633  91.355  1.00  0.00    -0.550 OA
ATOM      4  O   UNL     1     -28.367  42.712  89.211  1.00  0.00    -0.550 OA
ENDBRANCH   1   2
BRANCH   1   5
ATOM      5  C   UNL     1     -26.446  44.627  89.949  1.00  0.00     0.059 C 
BRANCH   5   6
ATOM      6  C   UNL     1     -26.588  46.103  90.164  1.00  0.00     0.042 C 
ATOM      7  O   UNL     1     -27.654  46.575  90.640  1.00  0.00    -0.550 OA
ATOM      8  O   UNL     1     -25.557  46.961  89.801  1.00  0.00    -0.550 OA
ENDBRANCH   5   6
ENDBRANCH   1   5
TORSDOF 3
ENDMDL
MODEL 3
REMARK VINA RESULT:    -3.702      1.026      3.983
REMARK INTER + INTRA:          -4.419
REMARK INTER:                  -4.301
REMARK INTRA:                  -0.118
REMARK UNBOUND:                -0.068
REMARK SMILES O=C([O-])CCC(=O)[O-]
REMARK SMILES IDX 4 1 2 2 1 3 3 4 5 5 6 6 7 7 8 8
REMARK H PARENT
REMARK Flexibility Score: inf
ROOT
ATOM      1  C   UNL     1     -27.109  43.926  90.941  1.00  0.00     0.059 C 
ENDROOT
BRANCH   1   2
ATOM      2  C   UNL     1     -28.241  43.072  90.454  1.00  0.00     0.042 C 
ATOM      3  O   UNL     1     -29.127  42.677  91.257  1.00  0.00    -0.550 OA
ATOM      4  O   UNL     1     -28.292  42.680  89.123  1.00  0.00    -0.550 OA
ENDBRANCH   1   2
BRANCH   1   5
ATOM      5  C   UNL     1     -27.301  45.394  90.549  1.00  0.00     0.059 C 
BRANCH   5   6
ATOM      6  C   UNL     1     -26.264  45.843  89.566  1.00  0.00     0.042 C 
ATOM      7  O   UNL     1     -25.426  46.726  89.887  1.00  0.00    -0.550 OA
ATOM      8  O   UNL     1     -26.250  45.316  88.281  1.00  0.00    -0.550 OA
ENDBRANCH   5   6
ENDBRANCH   1   5
TORSDOF 3
ENDMDL
MODEL 4
REMARK VINA RESULT:    -3.697      1.014      4.064
REMARK INTER + INTRA:          -4.413
REMARK INTER:                  -4.294
REMARK INTRA:                  -0.119
REMARK UNBOUND:                -0.068
REMARK SMILES O=C([O-])CCC(=O)[O-]
REMARK SMILES IDX 4 1 2 2 1 3 3 4 5 5 6 6 7 7 8 8
REMARK H PARENT
REMARK Flexibility Score: inf
ROOT
ATOM      1  C   UNL     1     -27.086  43.910  90.941  1.00  0.00     0.059 C 
ENDROOT
BRANCH   1   2
ATOM      2  C   UNL     1     -28.221  43.056  90.460  1.00  0.00     0.042 C 
ATOM      3  O   UNL     1     -29.106  42.666  91.265  1.00  0.00    -0.550 OA
ATOM      4  O   UNL     1     -28.276  42.661  89.130  1.00  0.00    -0.550 OA
ENDBRANCH   1   2
BRANCH   1   5
ATOM      5  C   UNL     1     -27.303  45.385  90.592  1.00  0.00     0.059 C 
BRANCH   5   6
ATOM      6  C   UNL     1     -26.335  45.854  89.550  1.00  0.00     0.042 C 
ATOM      7  O   UNL     1     -26.283  45.283  88.430  1.00  0.00    -0.550 OA
ATOM      8  O   UNL     1     -25.460  46.896  89.833  1.00  0.00    -0.550 OA
ENDBRANCH   5   6
ENDBRANCH   1   5
TORSDOF 3
ENDMDL
MODEL 5
REMARK VINA RESULT:    -3.691      2.099      2.229
REMARK INTER + INTRA:          -4.406
REMARK INTER:                  -4.332
REMARK INTRA:                  -0.075
REMARK UNBOUND:                -0.068
REMARK SMILES O=C([O-])CCC(=O)[O-]
REMARK SMILES IDX 4 1 2 2 1 3 3 4 5 5 6 6 7 7 8 8
REMARK H PARENT
REMARK Flexibility Score: inf
ROOT
ATOM      1  C   UNL     1     -26.481  44.602  89.643  1.00  0.00     0.059 C 
ENDROOT
BRANCH   1   2
ATOM      2  C   UNL     1     -25.309  43.879  90.236  1.00  0.00     0.042 C 
ATOM      3  O   UNL     1     -24.302  43.615  89.526  1.00  0.00    -0.550 OA
ATOM      4  O   UNL     1     -25.347  43.461  91.560  1.00  0.00    -0.550 OA
ENDBRANCH   1   2
BRANCH   1   5
ATOM      5  C   UNL     1     -27.720  44.491  90.536  1.00  0.00     0.059 C 
BRANCH   5   6
ATOM      6  C   UNL     1     -28.470  43.219  90.285  1.00  0.00     0.042 C 
ATOM      7  O   UNL     1     -29.120  42.673  91.213  1.00  0.00    -0.550 OA
ATOM      8  O   UNL     1     -28.416  42.616  89.034  1.00  0.00    -0.550 OA
ENDBRANCH   5   6
ENDBRANCH   1   5
TORSDOF 3
ENDMDL
MODEL 6
REMARK VINA RESULT:    -3.684     16.807     17.488
REMARK INTER + INTRA:          -4.398
REMARK INTER:                  -4.363
REMARK INTRA:                  -0.034
REMARK UNBOUND:                -0.068
REMARK SMILES O=C([O-])CCC(=O)[O-]
REMARK SMILES IDX 4 1 2 2 1 3 3 4 5 5 6 6 7 7 8 8
REMARK H PARENT
REMARK Flexibility Score: inf
ROOT
ATOM      1  C   UNL     1     -21.217  28.641  87.085  1.00  0.00     0.059 C 
ENDROOT
BRANCH   1   2
ATOM      2  C   UNL     1     -22.112  28.529  85.887  1.00  0.00     0.042 C 
ATOM      3  O   UNL     1     -22.866  27.531  85.751  1.00  0.00    -0.550 OA
ATOM      4  O   UNL     1     -22.079  29.508  84.902  1.00  0.00    -0.550 OA
ENDBRANCH   1   2
BRANCH   1   5
ATOM      5  C   UNL     1     -21.934  29.306  88.263  1.00  0.00     0.059 C 
BRANCH   5   6
ATOM      6  C   UNL     1     -21.586  28.650  89.563  1.00  0.00     0.042 C 
ATOM      7  O   UNL     1     -20.397  28.653  89.977  1.00  0.00    -0.550 OA
ATOM      8  O   UNL     1     -22.569  27.998  90.298  1.00  0.00    -0.550 OA
ENDBRANCH   5   6
ENDBRANCH   1   5
TORSDOF 3
ENDMDL
MODEL 7
REMARK VINA RESULT:    -3.660      0.148      1.623
REMARK INTER + INTRA:          -4.370
REMARK INTER:                  -4.288
REMARK INTRA:                  -0.081
REMARK UNBOUND:                -0.068
REMARK SMILES O=C([O-])CCC(=O)[O-]
REMARK SMILES IDX 4 1 2 2 1 3 3 4 5 5 6 6 7 7 8 8
REMARK H PARENT
REMARK Flexibility Score: inf
ROOT
ATOM      1  C   UNL     1     -26.463  44.702  89.833  1.00  0.00     0.059 C 
ENDROOT
BRANCH   1   2
ATOM      2  C   UNL     1     -26.629  46.163  90.125  1.00  0.00     0.042 C 
ATOM      3  O   UNL     1     -27.707  46.594  90.613  1.00  0.00    -0.550 OA
ATOM      4  O   UNL     1     -25.608  47.053  89.818  1.00  0.00    -0.550 OA
ENDBRANCH   1   2
BRANCH   1   5
ATOM      5  C   UNL     1     -27.052  43.835  90.949  1.00  0.00     0.059 C 
BRANCH   5   6
ATOM      6  C   UNL     1     -28.206  43.015  90.460  1.00  0.00     0.042 C 
ATOM      7  O   UNL     1     -28.295  42.707  89.243  1.00  0.00    -0.550 OA
ATOM      8  O   UNL     1     -29.207  42.626  91.343  1.00  0.00    -0.550 OA
ENDBRANCH   5   6
ENDBRANCH   1   5
TORSDOF 3
ENDMDL
MODEL 8
REMARK VINA RESULT:    -3.461     16.699     17.273
REMARK INTER + INTRA:          -4.136
REMARK INTER:                  -4.100
REMARK INTRA:                  -0.036
REMARK UNBOUND:                -0.068
REMARK SMILES O=C([O-])CCC(=O)[O-]
REMARK SMILES IDX 4 1 2 2 1 3 3 4 5 5 6 6 7 7 8 8
REMARK H PARENT
REMARK Flexibility Score: inf
ROOT
ATOM      1  C   UNL     1     -19.794  28.799  89.961  1.00  0.00     0.059 C 
ENDROOT
BRANCH   1   2
ATOM      2  C   UNL     1     -18.756  29.688  90.578  1.00  0.00     0.042 C 
ATOM      3  O   UNL     1     -18.485  30.801  90.058  1.00  0.00    -0.550 OA
ATOM      4  O   UNL     1     -18.062  29.265  91.705  1.00  0.00    -0.550 OA
ENDBRANCH   1   2
BRANCH   1   5
ATOM      5  C   UNL     1     -20.689  29.570  88.986  1.00  0.00     0.059 C 
BRANCH   5   6
ATOM      6  C   UNL     1     -21.598  28.653  88.229  1.00  0.00     0.042 C 
ATOM      7  O   UNL     1     -22.189  27.713  88.822  1.00  0.00    -0.550 OA
ATOM      8  O   UNL     1     -21.762  28.812  86.858  1.00  0.00    -0.550 OA
ENDBRANCH   5   6
ENDBRANCH   1   5
TORSDOF 3
ENDMDL
MODEL 9
REMARK VINA RESULT:    -3.351     11.278     12.209
REMARK INTER + INTRA:          -4.007
REMARK INTER:                  -3.978
REMARK INTRA:                  -0.029
REMARK UNBOUND:                -0.068
REMARK SMILES O=C([O-])CCC(=O)[O-]
REMARK SMILES IDX 4 1 2 2 1 3 3 4 5 5 6 6 7 7 8 8
REMARK H PARENT
REMARK Flexibility Score: inf
ROOT
ATOM      1  C   UNL     1     -18.826  37.335  84.984  1.00  0.00     0.059 C 
ENDROOT
BRANCH   1   2
ATOM      2  C   UNL     1     -18.347  37.260  83.565  1.00  0.00     0.042 C 
ATOM      3  O   UNL     1     -19.154  36.988  82.638  1.00  0.00    -0.550 OA
ATOM      4  O   UNL     1     -17.002  37.450  83.276  1.00  0.00    -0.550 OA
ENDBRANCH   1   2
BRANCH   1   5
ATOM      5  C   UNL     1     -20.180  38.044  85.085  1.00  0.00     0.059 C 
BRANCH   5   6
ATOM      6  C   UNL     1     -20.386  38.651  86.438  1.00  0.00     0.042 C 
ATOM      7  O   UNL     1     -20.908  37.976  87.363  1.00  0.00    -0.550 OA
ATOM      8  O   UNL     1     -20.037  39.976  86.666  1.00  0.00    -0.550 OA
ENDBRANCH   5   6
ENDBRANCH   1   5
TORSDOF 3
ENDMDL
