MODEL 1
REMARK VINA RESULT:    -4.864      0.000      0.000
REMARK INTER + INTRA:          -5.293
REMARK INTER:                  -5.149
REMARK INTRA:                  -0.144
REMARK UNBOUND:                -0.144
REMARK SMILES C=C1CC=C(C(C)C)CC1
REMARK SMILES IDX 5 1 4 2 3 3 2 4 1 5 10 6 9 7 6 8 7 9 8 10
REMARK H PARENT
REMARK Flexibility Score: inf
ROOT
ATOM      1  C   UNL     1      -0.581  18.424  30.606  1.00  0.00    -0.071 C 
ATOM      2  C   UNL     1      -0.595  19.184  29.490  1.00  0.00    -0.023 C 
ATOM      3  C   UNL     1      -1.125  20.595  29.513  1.00  0.00     0.057 C 
ATOM      4  C   UNL     1      -0.796  21.276  30.825  1.00  0.00    -0.073 C 
ATOM      5  C   UNL     1      -0.684  22.610  30.880  1.00  0.00     0.008 C 
ATOM      6  C   UNL     1      -0.628  20.453  32.087  1.00  0.00     0.035 C 
ATOM      7  C   UNL     1      -1.124  19.014  31.890  1.00  0.00     0.035 C 
ENDROOT
BRANCH   1   8
ATOM      8  C   UNL     1      -0.013  17.013  30.598  1.00  0.00     0.008 C 
ATOM      9  C   UNL     1      -0.678  16.155  29.515  1.00  0.00     0.012 C 
ATOM     10  C   UNL     1      -0.134  16.354  31.978  1.00  0.00     0.012 C 
ENDBRANCH   1   8
TORSDOF 1
ENDMDL
MODEL 2
REMARK VINA RESULT:    -4.784      0.573      2.034
REMARK INTER + INTRA:          -5.207
REMARK INTER:                  -5.065
REMARK INTRA:                  -0.142
REMARK UNBOUND:                -0.144
REMARK SMILES C=C1CC=C(C(C)C)CC1
REMARK SMILES IDX 5 1 4 2 3 3 2 4 1 5 10 6 9 7 6 8 7 9 8 10
REMARK H PARENT
REMARK Flexibility Score: inf
ROOT
ATOM      1  C   UNL     1      -0.716  18.695  30.788  1.00  0.00    -0.071 C 
ATOM      2  C   UNL     1      -0.783  19.459  31.899  1.00  0.00    -0.023 C 
ATOM      3  C   UNL     1      -0.429  20.923  31.862  1.00  0.00     0.057 C 
ATOM      4  C   UNL     1      -0.851  21.551  30.549  1.00  0.00    -0.073 C 
ATOM      5  C   UNL     1      -1.125  22.861  30.487  1.00  0.00     0.008 C 
ATOM      6  C   UNL     1      -0.930  20.705  29.295  1.00  0.00     0.035 C 
ATOM      7  C   UNL     1      -0.261  19.337  29.495  1.00  0.00     0.035 C 
ENDROOT
BRANCH   1   8
ATOM      8  C   UNL     1      -1.108  17.226  30.811  1.00  0.00     0.008 C 
ATOM      9  C   UNL     1      -0.648  16.550  32.108  1.00  0.00     0.012 C 
ATOM     10  C   UNL     1      -0.570  16.485  29.580  1.00  0.00     0.012 C 
ENDBRANCH   1   8
TORSDOF 1
ENDMDL
MODEL 3
REMARK VINA RESULT:    -4.176     13.552     14.996
REMARK INTER + INTRA:          -4.565
REMARK INTER:                  -4.386
REMARK INTRA:                  -0.179
REMARK UNBOUND:                -0.144
REMARK SMILES C=C1CC=C(C(C)C)CC1
REMARK SMILES IDX 5 1 4 2 3 3 2 4 1 5 10 6 9 7 6 8 7 9 8 10
REMARK H PARENT
REMARK Flexibility Score: inf
ROOT
ATOM      1  C   UNL     1       1.139  15.269  15.965  1.00  0.00    -0.071 C 
ATOM      2  C   UNL     1       1.134  16.313  15.108  1.00  0.00    -0.023 C 
ATOM      3  C   UNL     1       1.060  17.732  15.609  1.00  0.00     0.057 C 
ATOM      4  C   UNL     1       1.822  17.890  16.909  1.00  0.00    -0.073 C 
ATOM      5  C   UNL     1       2.331  19.082  17.249  1.00  0.00     0.008 C 
ATOM      6  C   UNL     1       1.979  16.709  17.845  1.00  0.00     0.035 C 
ATOM      7  C   UNL     1       1.053  15.550  17.450  1.00  0.00     0.035 C 
ENDROOT
BRANCH   1   8
ATOM      8  C   UNL     1       1.252  13.836  15.468  1.00  0.00     0.008 C 
ATOM      9  C   UNL     1       0.900  12.836  16.575  1.00  0.00     0.012 C 
ATOM     10  C   UNL     1       2.646  13.554  14.891  1.00  0.00     0.012 C 
ENDBRANCH   1   8
TORSDOF 1
ENDMDL
MODEL 4
REMARK VINA RESULT:    -4.009     14.183     16.327
REMARK INTER + INTRA:          -4.388
REMARK INTER:                  -4.250
REMARK INTRA:                  -0.138
REMARK UNBOUND:                -0.144
REMARK SMILES C=C1CC=C(C(C)C)CC1
REMARK SMILES IDX 5 1 4 2 3 3 2 4 1 5 10 6 9 7 6 8 7 9 8 10
REMARK H PARENT
REMARK Flexibility Score: inf
ROOT
ATOM      1  C   UNL     1       1.437  15.033  16.181  1.00  0.00    -0.071 C 
ATOM      2  C   UNL     1       2.077  14.851  15.005  1.00  0.00    -0.023 C 
ATOM      3  C   UNL     1       2.403  13.469  14.501  1.00  0.00     0.057 C 
ATOM      4  C   UNL     1       1.313  12.484  14.870  1.00  0.00    -0.073 C 
ATOM      5  C   UNL     1       1.114  11.390  14.122  1.00  0.00     0.008 C 
ATOM      6  C   UNL     1       0.467  12.717  16.105  1.00  0.00     0.035 C 
ATOM      7  C   UNL     1       1.063  13.815  16.997  1.00  0.00     0.035 C 
ENDROOT
BRANCH   1   8
ATOM      8  C   UNL     1       1.070  16.424  16.676  1.00  0.00     0.008 C 
ATOM      9  C   UNL     1       1.057  17.436  15.525  1.00  0.00     0.012 C 
ATOM     10  C   UNL     1       2.007  16.880  17.803  1.00  0.00     0.012 C 
ENDBRANCH   1   8
TORSDOF 1
ENDMDL
MODEL 5
REMARK VINA RESULT:    -3.959     14.984     16.914
REMARK INTER + INTRA:          -4.335
REMARK INTER:                  -4.148
REMARK INTRA:                  -0.187
REMARK UNBOUND:                -0.144
REMARK SMILES C=C1CC=C(C(C)C)CC1
REMARK SMILES IDX 5 1 4 2 3 3 2 4 1 5 10 6 9 7 6 8 7 9 8 10
REMARK H PARENT
REMARK Flexibility Score: inf
ROOT
ATOM      1  C   UNL     1       1.537  15.588  15.443  1.00  0.00    -0.071 C 
ATOM      2  C   UNL     1       2.235  14.524  15.897  1.00  0.00    -0.023 C 
ATOM      3  C   UNL     1       2.814  13.508  14.947  1.00  0.00     0.057 C 
ATOM      4  C   UNL     1       3.288  14.168  13.668  1.00  0.00    -0.073 C 
ATOM      5  C   UNL     1       4.266  13.607  12.945  1.00  0.00     0.008 C 
ATOM      6  C   UNL     1       2.632  15.446  13.186  1.00  0.00     0.035 C 
ATOM      7  C   UNL     1       1.332  15.735  13.951  1.00  0.00     0.035 C 
ENDROOT
BRANCH   1   8
ATOM      8  C   UNL     1       0.983  16.637  16.395  1.00  0.00     0.008 C 
ATOM      9  C   UNL     1       0.982  18.026  15.747  1.00  0.00     0.012 C 
ATOM     10  C   UNL     1       1.751  16.647  17.723  1.00  0.00     0.012 C 
ENDBRANCH   1   8
TORSDOF 1
ENDMDL
MODEL 6
REMARK VINA RESULT:    -3.897     14.746     16.694
REMARK INTER + INTRA:          -4.269
REMARK INTER:                  -4.089
REMARK INTRA:                  -0.180
REMARK UNBOUND:                -0.144
REMARK SMILES C=C1CC=C(C(C)C)CC1
REMARK SMILES IDX 5 1 4 2 3 3 2 4 1 5 10 6 9 7 6 8 7 9 8 10
REMARK H PARENT
REMARK Flexibility Score: inf
ROOT
ATOM      1  C   UNL     1       1.365  12.578  15.161  1.00  0.00    -0.071 C 
ATOM      2  C   UNL     1       0.783  12.714  16.372  1.00  0.00    -0.023 C 
ATOM      3  C   UNL     1       1.229  13.785  17.335  1.00  0.00     0.057 C 
ATOM      4  C   UNL     1       1.627  15.047  16.598  1.00  0.00    -0.073 C 
ATOM      5  C   UNL     1       1.543  16.237  17.208  1.00  0.00     0.008 C 
ATOM      6  C   UNL     1       2.154  14.963  15.180  1.00  0.00     0.035 C 
ATOM      7  C   UNL     1       2.492  13.517  14.789  1.00  0.00     0.035 C 
ENDROOT
BRANCH   1   8
ATOM      8  C   UNL     1       0.894  11.524  14.170  1.00  0.00     0.008 C 
ATOM      9  C   UNL     1       1.760  11.528  12.905  1.00  0.00     0.012 C 
ATOM     10  C   UNL     1      -0.589  11.706  13.825  1.00  0.00     0.012 C 
ENDBRANCH   1   8
TORSDOF 1
ENDMDL
MODEL 7
REMARK VINA RESULT:    -3.880     13.761     15.698
REMARK INTER + INTRA:          -4.251
REMARK INTER:                  -4.075
REMARK INTRA:                  -0.176
REMARK UNBOUND:                -0.144
REMARK SMILES C=C1CC=C(C(C)C)CC1
REMARK SMILES IDX 5 1 4 2 3 3 2 4 1 5 10 6 9 7 6 8 7 9 8 10
REMARK H PARENT
REMARK Flexibility Score: inf
ROOT
ATOM      1  C   UNL     1       1.230  16.595  15.777  1.00  0.00    -0.071 C 
ATOM      2  C   UNL     1       1.517  15.470  15.088  1.00  0.00    -0.023 C 
ATOM      3  C   UNL     1       1.832  14.179  15.800  1.00  0.00     0.057 C 
ATOM      4  C   UNL     1       1.010  14.041  17.064  1.00  0.00    -0.073 C 
ATOM      5  C   UNL     1       0.723  12.826  17.551  1.00  0.00     0.008 C 
ATOM      6  C   UNL     1       0.539  15.278  17.802  1.00  0.00     0.035 C 
ATOM      7  C   UNL     1       1.244  16.542  17.289  1.00  0.00     0.035 C 
ENDROOT
BRANCH   1   8
ATOM      8  C   UNL     1       0.874  17.891  15.065  1.00  0.00     0.008 C 
ATOM      9  C   UNL     1      -0.641  18.125  15.066  1.00  0.00     0.012 C 
ATOM     10  C   UNL     1       1.436  17.916  13.637  1.00  0.00     0.012 C 
ENDBRANCH   1   8
TORSDOF 1
ENDMDL
MODEL 8
REMARK VINA RESULT:    -3.825     14.414     15.950
REMARK INTER + INTRA:          -4.192
REMARK INTER:                  -4.005
REMARK INTRA:                  -0.187
REMARK UNBOUND:                -0.144
REMARK SMILES C=C1CC=C(C(C)C)CC1
REMARK SMILES IDX 5 1 4 2 3 3 2 4 1 5 10 6 9 7 6 8 7 9 8 10
REMARK H PARENT
REMARK Flexibility Score: inf
ROOT
ATOM      1  C   UNL     1       1.686  15.327  15.753  1.00  0.00    -0.071 C 
ATOM      2  C   UNL     1       1.279  16.428  16.420  1.00  0.00    -0.023 C 
ATOM      3  C   UNL     1       0.979  17.714  15.692  1.00  0.00     0.057 C 
ATOM      4  C   UNL     1       0.357  17.440  14.338  1.00  0.00    -0.073 C 
ATOM      5  C   UNL     1      -0.445  18.350  13.770  1.00  0.00     0.008 C 
ATOM      6  C   UNL     1       0.670  16.150  13.607  1.00  0.00     0.035 C 
ATOM      7  C   UNL     1       1.851  15.410  14.251  1.00  0.00     0.035 C 
ENDROOT
BRANCH   1   8
ATOM      8  C   UNL     1       1.953  14.016  16.477  1.00  0.00     0.008 C 
ATOM      9  C   UNL     1       1.561  12.815  15.609  1.00  0.00     0.012 C 
ATOM     10  C   UNL     1       1.240  13.973  17.835  1.00  0.00     0.012 C 
ENDBRANCH   1   8
TORSDOF 1
ENDMDL
