MODEL 1
REMARK VINA RESULT:    -4.226      0.000      0.000
REMARK INTER + INTRA:          -9.132
REMARK INTER:                  -6.450
REMARK INTRA:                  -2.683
REMARK UNBOUND:                -2.683
REMARK SMILES CC(=O)CCC=C(C)CCC=C(C)CCC=C(C)C
REMARK SMILES IDX 10 1 11 2 12 3 13 4 14 5 15 6 16 7 18 8 17 9 19 10 9 11 7 12
REMARK SMILES IDX 6 13 8 14 5 15 4 16 2 17 3 18 1 19
REMARK H PARENT
REMARK Flexibility Score: inf
ROOT
ATOM      1  C   UNL     1      21.968  25.662  40.601  1.00  0.00     0.032 C 
ENDROOT
BRANCH   1   2
ATOM      2  C   UNL     1      21.397  25.839  39.213  1.00  0.00    -0.028 C 
ATOM      3  C   UNL     1      20.695  26.913  38.779  1.00  0.00    -0.077 C 
ATOM      4  C   UNL     1      20.246  26.928  37.340  1.00  0.00     0.039 C 
BRANCH   3   5
ATOM      5  C   UNL     1      20.352  28.104  39.655  1.00  0.00     0.034 C 
BRANCH   5   6
ATOM      6  C   UNL     1      21.519  29.099  39.715  1.00  0.00     0.032 C 
BRANCH   6   7
ATOM      7  C   UNL     1      21.840  29.465  41.141  1.00  0.00    -0.028 C 
ATOM      8  C   UNL     1      23.164  29.581  43.206  1.00  0.00     0.039 C 
ATOM      9  C   UNL     1      23.002  29.172  41.765  1.00  0.00    -0.080 C 
ATOM     10  C   UNL     1      24.136  28.469  41.058  1.00  0.00     0.039 C 
ENDBRANCH   6   7
ENDBRANCH   5   6
ENDBRANCH   3   5
ENDBRANCH   1   2
BRANCH   1  11
ATOM     11  C   UNL     1      20.883  25.414  41.660  1.00  0.00     0.034 C 
BRANCH  11  12
ATOM     12  C   UNL     1      21.213  26.097  42.978  1.00  0.00    -0.077 C 
ATOM     13  C   UNL     1      20.388  26.995  43.562  1.00  0.00    -0.028 C 
ATOM     14  C   UNL     1      22.524  25.784  43.653  1.00  0.00     0.039 C 
BRANCH  13  15
ATOM     15  C   UNL     1      19.035  27.377  43.009  1.00  0.00     0.035 C 
BRANCH  15  16
ATOM     16  C   UNL     1      18.830  28.896  43.038  1.00  0.00     0.079 C 
BRANCH  16  17
ATOM     17  C   UNL     1      17.432  29.242  43.480  1.00  0.00     0.130 C 
ATOM     18  O   UNL     1      17.224  30.307  44.042  1.00  0.00    -0.300 OA
ATOM     19  C   UNL     1      16.284  28.302  43.255  1.00  0.00     0.087 C 
ENDBRANCH  16  17
ENDBRANCH  15  16
ENDBRANCH  13  15
ENDBRANCH  11  12
ENDBRANCH   1  11
TORSDOF 9
ENDMDL
MODEL 2
REMARK VINA RESULT:    -4.210      2.643      4.952
REMARK INTER + INTRA:          -9.107
REMARK INTER:                  -6.884
REMARK INTRA:                  -2.224
REMARK UNBOUND:                -2.683
REMARK SMILES CC(=O)CCC=C(C)CCC=C(C)CCC=C(C)C
REMARK SMILES IDX 10 1 11 2 12 3 13 4 14 5 15 6 16 7 18 8 17 9 19 10 9 11 7 12
REMARK SMILES IDX 6 13 8 14 5 15 4 16 2 17 3 18 1 19
REMARK H PARENT
REMARK Flexibility Score: inf
ROOT
ATOM      1  C   UNL     1      20.051  28.346  43.905  1.00  0.00     0.032 C 
ENDROOT
BRANCH   1   2
ATOM      2  C   UNL     1      21.486  28.311  43.432  1.00  0.00    -0.028 C 
ATOM      3  C   UNL     1      22.205  27.194  43.172  1.00  0.00    -0.077 C 
ATOM      4  C   UNL     1      23.613  27.363  42.662  1.00  0.00     0.039 C 
BRANCH   3   5
ATOM      5  C   UNL     1      21.665  25.786  43.349  1.00  0.00     0.034 C 
BRANCH   5   6
ATOM      6  C   UNL     1      21.568  25.059  42.001  1.00  0.00     0.032 C 
BRANCH   6   7
ATOM      7  C   UNL     1      20.335  25.488  41.247  1.00  0.00    -0.028 C 
ATOM      8  C   UNL     1      19.027  26.619  39.505  1.00  0.00     0.039 C 
ATOM      9  C   UNL     1      20.346  26.249  40.131  1.00  0.00    -0.080 C 
ATOM     10  C   UNL     1      21.632  26.719  39.493  1.00  0.00     0.039 C 
ENDBRANCH   6   7
ENDBRANCH   5   6
ENDBRANCH   3   5
ENDBRANCH   1   2
BRANCH   1  11
ATOM     11  C   UNL     1      19.056  28.590  42.760  1.00  0.00     0.034 C 
BRANCH  11  12
ATOM     12  C   UNL     1      17.625  28.688  43.266  1.00  0.00    -0.077 C 
ATOM     13  C   UNL     1      16.735  27.678  43.142  1.00  0.00    -0.028 C 
ATOM     14  C   UNL     1      17.167  29.971  43.911  1.00  0.00     0.039 C 
BRANCH  13  15
ATOM     15  C   UNL     1      17.070  26.332  42.543  1.00  0.00     0.035 C 
BRANCH  15  16
ATOM     16  C   UNL     1      15.912  25.796  41.695  1.00  0.00     0.079 C 
BRANCH  16  17
ATOM     17  C   UNL     1      15.836  24.293  41.776  1.00  0.00     0.130 C 
ATOM     18  O   UNL     1      16.322  23.616  40.882  1.00  0.00    -0.300 OA
ATOM     19  C   UNL     1      15.166  23.604  42.927  1.00  0.00     0.087 C 
ENDBRANCH  16  17
ENDBRANCH  15  16
ENDBRANCH  13  15
ENDBRANCH  11  12
ENDBRANCH   1  11
TORSDOF 9
ENDMDL
MODEL 3
REMARK VINA RESULT:    -4.183      2.434      5.333
REMARK INTER + INTRA:          -9.066
REMARK INTER:                  -6.068
REMARK INTRA:                  -2.998
REMARK UNBOUND:                -2.683
REMARK SMILES CC(=O)CCC=C(C)CCC=C(C)CCC=C(C)C
REMARK SMILES IDX 10 1 11 2 12 3 13 4 14 5 15 6 16 7 18 8 17 9 19 10 9 11 7 12
REMARK SMILES IDX 6 13 8 14 5 15 4 16 2 17 3 18 1 19
REMARK H PARENT
REMARK Flexibility Score: inf
ROOT
ATOM      1  C   UNL     1      19.747  28.326  44.170  1.00  0.00     0.032 C 
ENDROOT
BRANCH   1   2
ATOM      2  C   UNL     1      18.436  28.842  43.624  1.00  0.00    -0.028 C 
ATOM      3  C   UNL     1      17.455  28.084  43.080  1.00  0.00    -0.077 C 
ATOM      4  C   UNL     1      16.194  28.778  42.631  1.00  0.00     0.039 C 
BRANCH   3   5
ATOM      5  C   UNL     1      17.548  26.578  42.914  1.00  0.00     0.034 C 
BRANCH   5   6
ATOM      6  C   UNL     1      17.537  26.185  41.431  1.00  0.00     0.032 C 
BRANCH   6   7
ATOM      7  C   UNL     1      18.930  25.871  40.948  1.00  0.00    -0.028 C 
ATOM      8  C   UNL     1      21.053  26.235  39.770  1.00  0.00     0.039 C 
ATOM      9  C   UNL     1      19.687  26.702  40.199  1.00  0.00    -0.080 C 
ATOM     10  C   UNL     1      19.211  28.079  39.800  1.00  0.00     0.039 C 
ENDBRANCH   6   7
ENDBRANCH   5   6
ENDBRANCH   3   5
ENDBRANCH   1   2
BRANCH   1  11
ATOM     11  C   UNL     1      20.895  28.431  43.154  1.00  0.00     0.034 C 
BRANCH  11  12
ATOM     12  C   UNL     1      21.828  27.232  43.230  1.00  0.00    -0.077 C 
ATOM     13  C   UNL     1      23.098  27.265  42.767  1.00  0.00    -0.028 C 
ATOM     14  C   UNL     1      21.313  25.944  43.819  1.00  0.00     0.039 C 
BRANCH  13  15
ATOM     15  C   UNL     1      23.747  28.497  42.180  1.00  0.00     0.035 C 
BRANCH  15  16
ATOM     16  C   UNL     1      24.216  28.248  40.743  1.00  0.00     0.079 C 
BRANCH  16  17
ATOM     17  C   UNL     1      23.553  29.206  39.787  1.00  0.00     0.130 C 
ATOM     18  O   UNL     1      23.997  29.332  38.656  1.00  0.00    -0.300 OA
ATOM     19  C   UNL     1      22.362  30.022  40.196  1.00  0.00     0.087 C 
ENDBRANCH  16  17
ENDBRANCH  15  16
ENDBRANCH  13  15
ENDBRANCH  11  12
ENDBRANCH   1  11
TORSDOF 9
ENDMDL
MODEL 4
REMARK VINA RESULT:    -4.165      2.252      5.555
REMARK INTER + INTRA:          -9.039
REMARK INTER:                  -6.485
REMARK INTRA:                  -2.555
REMARK UNBOUND:                -2.683
REMARK SMILES CC(=O)CCC=C(C)CCC=C(C)CCC=C(C)C
REMARK SMILES IDX 10 1 11 2 12 3 13 4 14 5 15 6 16 7 18 8 17 9 19 10 9 11 7 12
REMARK SMILES IDX 6 13 8 14 5 15 4 16 2 17 3 18 1 19
REMARK H PARENT
REMARK Flexibility Score: inf
ROOT
ATOM      1  C   UNL     1      19.780  28.198  44.086  1.00  0.00     0.032 C 
ENDROOT
BRANCH   1   2
ATOM      2  C   UNL     1      18.453  28.785  43.666  1.00  0.00    -0.028 C 
ATOM      3  C   UNL     1      17.411  28.091  43.150  1.00  0.00    -0.077 C 
ATOM      4  C   UNL     1      16.146  28.848  42.833  1.00  0.00     0.039 C 
BRANCH   3   5
ATOM      5  C   UNL     1      17.441  26.596  42.890  1.00  0.00     0.034 C 
BRANCH   5   6
ATOM      6  C   UNL     1      17.300  26.294  41.392  1.00  0.00     0.032 C 
BRANCH   6   7
ATOM      7  C   UNL     1      18.632  25.926  40.791  1.00  0.00    -0.028 C 
ATOM      8  C   UNL     1      20.695  26.238  39.496  1.00  0.00     0.039 C 
ATOM      9  C   UNL     1      19.397  26.760  40.053  1.00  0.00    -0.080 C 
ATOM     10  C   UNL     1      18.997  28.194  39.792  1.00  0.00     0.039 C 
ENDBRANCH   6   7
ENDBRANCH   5   6
ENDBRANCH   3   5
ENDBRANCH   1   2
BRANCH   1  11
ATOM     11  C   UNL     1      20.883  28.419  43.039  1.00  0.00     0.034 C 
BRANCH  11  12
ATOM     12  C   UNL     1      21.805  27.215  42.927  1.00  0.00    -0.077 C 
ATOM     13  C   UNL     1      22.921  27.217  42.163  1.00  0.00    -0.028 C 
ATOM     14  C   UNL     1      21.453  25.955  43.676  1.00  0.00     0.039 C 
BRANCH  13  15
ATOM     15  C   UNL     1      23.405  28.420  41.386  1.00  0.00     0.035 C 
BRANCH  15  16
ATOM     16  C   UNL     1      24.854  28.766  41.742  1.00  0.00     0.079 C 
BRANCH  16  17
ATOM     17  C   UNL     1      24.918  30.008  42.592  1.00  0.00     0.130 C 
ATOM     18  O   UNL     1      23.915  30.389  43.178  1.00  0.00    -0.300 OA
ATOM     19  C   UNL     1      26.185  30.799  42.730  1.00  0.00     0.087 C 
ENDBRANCH  16  17
ENDBRANCH  15  16
ENDBRANCH  13  15
ENDBRANCH  11  12
ENDBRANCH   1  11
TORSDOF 9
ENDMDL
MODEL 5
REMARK VINA RESULT:    -4.138      1.551      2.958
REMARK INTER + INTRA:          -8.997
REMARK INTER:                  -6.670
REMARK INTRA:                  -2.327
REMARK UNBOUND:                -2.683
REMARK SMILES CC(=O)CCC=C(C)CCC=C(C)CCC=C(C)C
REMARK SMILES IDX 10 1 11 2 12 3 13 4 14 5 15 6 16 7 18 8 17 9 19 10 9 11 7 12
REMARK SMILES IDX 6 13 8 14 5 15 4 16 2 17 3 18 1 19
REMARK H PARENT
REMARK Flexibility Score: inf
ROOT
ATOM      1  C   UNL     1      19.030  26.248  40.892  1.00  0.00     0.032 C 
ENDROOT
BRANCH   1   2
ATOM      2  C   UNL     1      20.400  25.911  40.349  1.00  0.00    -0.028 C 
ATOM      3  C   UNL     1      21.463  25.507  41.084  1.00  0.00    -0.077 C 
ATOM      4  C   UNL     1      22.738  25.170  40.355  1.00  0.00     0.039 C 
BRANCH   3   5
ATOM      5  C   UNL     1      21.435  25.361  42.595  1.00  0.00     0.034 C 
BRANCH   5   6
ATOM      6  C   UNL     1      22.709  25.936  43.228  1.00  0.00     0.032 C 
BRANCH   6   7
ATOM      7  C   UNL     1      22.654  27.442  43.271  1.00  0.00    -0.028 C 
ATOM      8  C   UNL     1      23.483  29.744  43.060  1.00  0.00     0.039 C 
ATOM      9  C   UNL     1      23.681  28.255  42.941  1.00  0.00    -0.080 C 
ATOM     10  C   UNL     1      25.003  27.718  42.444  1.00  0.00     0.039 C 
ENDBRANCH   6   7
ENDBRANCH   5   6
ENDBRANCH   3   5
ENDBRANCH   1   2
BRANCH   1  11
ATOM     11  C   UNL     1      18.647  27.718  40.659  1.00  0.00     0.034 C 
BRANCH  11  12
ATOM     12  C   UNL     1      19.537  28.666  41.448  1.00  0.00    -0.077 C 
ATOM     13  C   UNL     1      19.342  28.929  42.760  1.00  0.00    -0.028 C 
ATOM     14  C   UNL     1      20.668  29.364  40.738  1.00  0.00     0.039 C 
BRANCH  13  15
ATOM     15  C   UNL     1      18.266  28.276  43.597  1.00  0.00     0.035 C 
BRANCH  15  16
ATOM     16  C   UNL     1      17.067  29.211  43.788  1.00  0.00     0.079 C 
BRANCH  16  17
ATOM     17  C   UNL     1      15.770  28.474  43.573  1.00  0.00     0.130 C 
ATOM     18  O   UNL     1      14.781  28.798  44.213  1.00  0.00    -0.300 OA
ATOM     19  C   UNL     1      15.667  27.340  42.597  1.00  0.00     0.087 C 
ENDBRANCH  16  17
ENDBRANCH  15  16
ENDBRANCH  13  15
ENDBRANCH  11  12
ENDBRANCH   1  11
TORSDOF 9
ENDMDL
MODEL 6
REMARK VINA RESULT:    -4.107      2.434      4.675
REMARK INTER + INTRA:          -8.950
REMARK INTER:                  -6.460
REMARK INTRA:                  -2.490
REMARK UNBOUND:                -2.683
REMARK SMILES CC(=O)CCC=C(C)CCC=C(C)CCC=C(C)C
REMARK SMILES IDX 10 1 11 2 12 3 13 4 14 5 15 6 16 7 18 8 17 9 19 10 9 11 7 12
REMARK SMILES IDX 6 13 8 14 5 15 4 16 2 17 3 18 1 19
REMARK H PARENT
REMARK Flexibility Score: inf
ROOT
ATOM      1  C   UNL     1      19.452  27.760  43.808  1.00  0.00     0.032 C 
ENDROOT
BRANCH   1   2
ATOM      2  C   UNL     1      20.631  26.835  43.606  1.00  0.00    -0.028 C 
ATOM      3  C   UNL     1      21.861  27.206  43.180  1.00  0.00    -0.077 C 
ATOM      4  C   UNL     1      22.926  26.143  43.084  1.00  0.00     0.039 C 
BRANCH   3   5
ATOM      5  C   UNL     1      22.230  28.632  42.810  1.00  0.00     0.034 C 
BRANCH   5   6
ATOM      6  C   UNL     1      22.148  28.846  41.292  1.00  0.00     0.032 C 
BRANCH   6   7
ATOM      7  C   UNL     1      20.868  29.549  40.917  1.00  0.00    -0.028 C 
ATOM      8  C   UNL     1      18.620  29.801  39.963  1.00  0.00     0.039 C 
ATOM      9  C   UNL     1      19.823  28.958  40.297  1.00  0.00    -0.080 C 
ATOM     10  C   UNL     1      19.824  27.488  39.950  1.00  0.00     0.039 C 
ENDBRANCH   6   7
ENDBRANCH   5   6
ENDBRANCH   3   5
ENDBRANCH   1   2
BRANCH   1  11
ATOM     11  C   UNL     1      18.163  27.224  43.168  1.00  0.00     0.034 C 
BRANCH  11  12
ATOM     12  C   UNL     1      17.126  28.321  42.983  1.00  0.00    -0.077 C 
ATOM     13  C   UNL     1      16.081  28.203  42.132  1.00  0.00    -0.028 C 
ATOM     14  C   UNL     1      17.278  29.606  43.756  1.00  0.00     0.039 C 
BRANCH  13  15
ATOM     15  C   UNL     1      15.795  26.962  41.320  1.00  0.00     0.035 C 
BRANCH  15  16
ATOM     16  C   UNL     1      14.918  25.977  42.099  1.00  0.00     0.079 C 
BRANCH  16  17
ATOM     17  C   UNL     1      15.588  24.632  42.212  1.00  0.00     0.130 C 
ATOM     18  O   UNL     1      15.399  23.947  43.206  1.00  0.00    -0.300 OA
ATOM     19  C   UNL     1      16.496  24.116  41.136  1.00  0.00     0.087 C 
ENDBRANCH  16  17
ENDBRANCH  15  16
ENDBRANCH  13  15
ENDBRANCH  11  12
ENDBRANCH   1  11
TORSDOF 9
ENDMDL
MODEL 7
REMARK VINA RESULT:    -4.016      1.460      2.311
REMARK INTER + INTRA:          -8.812
REMARK INTER:                  -6.075
REMARK INTRA:                  -2.737
REMARK UNBOUND:                -2.683
REMARK SMILES CC(=O)CCC=C(C)CCC=C(C)CCC=C(C)C
REMARK SMILES IDX 10 1 11 2 12 3 13 4 14 5 15 6 16 7 18 8 17 9 19 10 9 11 7 12
REMARK SMILES IDX 6 13 8 14 5 15 4 16 2 17 3 18 1 19
REMARK H PARENT
REMARK Flexibility Score: inf
ROOT
ATOM      1  C   UNL     1      19.785  26.259  40.869  1.00  0.00     0.032 C 
ENDROOT
BRANCH   1   2
ATOM      2  C   UNL     1      20.492  26.247  39.533  1.00  0.00    -0.028 C 
ATOM      3  C   UNL     1      21.734  25.761  39.301  1.00  0.00    -0.077 C 
ATOM      4  C   UNL     1      22.253  25.795  37.886  1.00  0.00     0.039 C 
BRANCH   3   5
ATOM      5  C   UNL     1      22.623  25.171  40.382  1.00  0.00     0.034 C 
BRANCH   5   6
ATOM      6  C   UNL     1      23.885  26.020  40.583  1.00  0.00     0.032 C 
BRANCH   6   7
ATOM      7  C   UNL     1      23.719  26.961  41.749  1.00  0.00    -0.028 C 
ATOM      8  C   UNL     1      23.331  29.096  42.898  1.00  0.00     0.039 C 
ATOM      9  C   UNL     1      23.441  28.278  41.638  1.00  0.00    -0.080 C 
ATOM     10  C   UNL     1      23.221  28.941  40.298  1.00  0.00     0.039 C 
ENDBRANCH   6   7
ENDBRANCH   5   6
ENDBRANCH   3   5
ENDBRANCH   1   2
BRANCH   1  11
ATOM     11  C   UNL     1      19.929  27.601  41.603  1.00  0.00     0.034 C 
BRANCH  11  12
ATOM     12  C   UNL     1      19.944  27.420  43.113  1.00  0.00    -0.077 C 
ATOM     13  C   UNL     1      19.200  28.180  43.947  1.00  0.00    -0.028 C 
ATOM     14  C   UNL     1      20.844  26.369  43.712  1.00  0.00     0.039 C 
BRANCH  13  15
ATOM     15  C   UNL     1      18.237  29.246  43.479  1.00  0.00     0.035 C 
BRANCH  15  16
ATOM     16  C   UNL     1      16.785  28.770  43.585  1.00  0.00     0.079 C 
BRANCH  16  17
ATOM     17  C   UNL     1      16.389  27.972  42.369  1.00  0.00     0.130 C 
ATOM     18  O   UNL     1      16.163  28.551  41.317  1.00  0.00    -0.300 OA
ATOM     19  C   UNL     1      16.255  26.479  42.422  1.00  0.00     0.087 C 
ENDBRANCH  16  17
ENDBRANCH  15  16
ENDBRANCH  13  15
ENDBRANCH  11  12
ENDBRANCH   1  11
TORSDOF 9
ENDMDL
MODEL 8
REMARK VINA RESULT:    -3.986      2.204      4.024
REMARK INTER + INTRA:          -8.765
REMARK INTER:                  -5.937
REMARK INTRA:                  -2.828
REMARK UNBOUND:                -2.683
REMARK SMILES CC(=O)CCC=C(C)CCC=C(C)CCC=C(C)C
REMARK SMILES IDX 10 1 11 2 12 3 13 4 14 5 15 6 16 7 18 8 17 9 19 10 9 11 7 12
REMARK SMILES IDX 6 13 8 14 5 15 4 16 2 17 3 18 1 19
REMARK H PARENT
REMARK Flexibility Score: inf
ROOT
ATOM      1  C   UNL     1      17.571  26.062  41.428  1.00  0.00     0.032 C 
ENDROOT
BRANCH   1   2
ATOM      2  C   UNL     1      19.005  25.883  40.985  1.00  0.00    -0.028 C 
ATOM      3  C   UNL     1      19.637  26.618  40.040  1.00  0.00    -0.077 C 
ATOM      4  C   UNL     1      21.090  26.319  39.768  1.00  0.00     0.039 C 
BRANCH   3   5
ATOM      5  C   UNL     1      18.970  27.733  39.255  1.00  0.00     0.034 C 
BRANCH   5   6
ATOM      6  C   UNL     1      19.201  29.094  39.925  1.00  0.00     0.032 C 
BRANCH   6   7
ATOM      7  C   UNL     1      19.836  30.065  38.963  1.00  0.00    -0.028 C 
ATOM      8  C   UNL     1      21.615  31.446  37.985  1.00  0.00     0.039 C 
ATOM      9  C   UNL     1      21.133  30.443  39.000  1.00  0.00    -0.080 C 
ATOM     10  C   UNL     1      22.104  29.878  40.010  1.00  0.00     0.039 C 
ENDBRANCH   6   7
ENDBRANCH   5   6
ENDBRANCH   3   5
ENDBRANCH   1   2
BRANCH   1  11
ATOM     11  C   UNL     1      17.456  26.540  42.884  1.00  0.00     0.034 C 
BRANCH  11  12
ATOM     12  C   UNL     1      17.481  28.057  42.984  1.00  0.00    -0.077 C 
ATOM     13  C   UNL     1      18.520  28.736  43.520  1.00  0.00    -0.028 C 
ATOM     14  C   UNL     1      16.291  28.840  42.492  1.00  0.00     0.039 C 
BRANCH  13  15
ATOM     15  C   UNL     1      19.784  28.079  44.022  1.00  0.00     0.035 C 
BRANCH  15  16
ATOM     16  C   UNL     1      20.978  28.404  43.119  1.00  0.00     0.079 C 
BRANCH  16  17
ATOM     17  C   UNL     1      22.011  27.308  43.175  1.00  0.00     0.130 C 
ATOM     18  O   UNL     1      23.165  27.552  42.856  1.00  0.00    -0.300 OA
ATOM     19  C   UNL     1      21.653  25.916  43.603  1.00  0.00     0.087 C 
ENDBRANCH  16  17
ENDBRANCH  15  16
ENDBRANCH  13  15
ENDBRANCH  11  12
ENDBRANCH   1  11
TORSDOF 9
ENDMDL
MODEL 9
REMARK VINA RESULT:    -3.984      3.017      5.030
REMARK INTER + INTRA:          -8.763
REMARK INTER:                  -6.077
REMARK INTRA:                  -2.687
REMARK UNBOUND:                -2.683
REMARK SMILES CC(=O)CCC=C(C)CCC=C(C)CCC=C(C)C
REMARK SMILES IDX 10 1 11 2 12 3 13 4 14 5 15 6 16 7 18 8 17 9 19 10 9 11 7 12
REMARK SMILES IDX 6 13 8 14 5 15 4 16 2 17 3 18 1 19
REMARK H PARENT
REMARK Flexibility Score: inf
ROOT
ATOM      1  C   UNL     1      16.128  26.243  42.502  1.00  0.00     0.032 C 
ENDROOT
BRANCH   1   2
ATOM      2  C   UNL     1      16.000  25.001  41.650  1.00  0.00    -0.028 C 
ATOM      3  C   UNL     1      15.958  24.973  40.297  1.00  0.00    -0.077 C 
ATOM      4  C   UNL     1      15.874  23.628  39.621  1.00  0.00     0.039 C 
BRANCH   3   5
ATOM      5  C   UNL     1      16.007  26.217  39.427  1.00  0.00     0.034 C 
BRANCH   5   6
ATOM      6  C   UNL     1      17.363  26.340  38.718  1.00  0.00     0.032 C 
BRANCH   6   7
ATOM      7  C   UNL     1      18.041  27.638  39.078  1.00  0.00    -0.028 C 
ATOM      8  C   UNL     1      19.770  29.102  40.024  1.00  0.00     0.039 C 
ATOM      9  C   UNL     1      19.233  27.731  39.707  1.00  0.00    -0.080 C 
ATOM     10  C   UNL     1      20.040  26.510  40.080  1.00  0.00     0.039 C 
ENDBRANCH   6   7
ENDBRANCH   5   6
ENDBRANCH   3   5
ENDBRANCH   1   2
BRANCH   1  11
ATOM     11  C   UNL     1      17.588  26.575  42.848  1.00  0.00     0.034 C 
BRANCH  11  12
ATOM     12  C   UNL     1      17.793  28.068  43.058  1.00  0.00    -0.077 C 
ATOM     13  C   UNL     1      18.921  28.581  43.597  1.00  0.00    -0.028 C 
ATOM     14  C   UNL     1      16.685  29.016  42.678  1.00  0.00     0.039 C 
BRANCH  13  15
ATOM     15  C   UNL     1      20.118  27.748  43.995  1.00  0.00     0.035 C 
BRANCH  15  16
ATOM     16  C   UNL     1      21.354  28.119  43.169  1.00  0.00     0.079 C 
BRANCH  16  17
ATOM     17  C   UNL     1      22.378  27.014  43.207  1.00  0.00     0.130 C 
ATOM     18  O   UNL     1      23.531  27.251  42.880  1.00  0.00    -0.300 OA
ATOM     19  C   UNL     1      22.012  25.621  43.628  1.00  0.00     0.087 C 
ENDBRANCH  16  17
ENDBRANCH  15  16
ENDBRANCH  13  15
ENDBRANCH  11  12
ENDBRANCH   1  11
TORSDOF 9
ENDMDL
