MODEL 1
REMARK VINA RESULT:    -4.826      0.000      0.000
REMARK INTER + INTRA:          -4.967
REMARK INTER:                  -4.967
REMARK INTRA:                   0.000
REMARK UNBOUND:                 0.000
REMARK SMILES O=c1ccc2cc(O)ccc2o1
REMARK SMILES IDX 9 1 10 2 11 3 5 4 4 5 3 6 2 7 1 8 12 9 6 10 7 11 8 12
REMARK H PARENT 8 13
REMARK Flexibility Score: inf
ROOT
ATOM      1  C   UNL     1      -0.396 -14.659  -7.023  1.00  0.00     0.050 A 
ATOM      2  C   UNL     1       0.617 -15.608  -6.854  1.00  0.00     0.052 A 
ATOM      3  C   UNL     1       0.462 -16.898  -7.371  1.00  0.00     0.138 A 
ATOM      4  C   UNL     1      -0.721 -17.239  -8.065  1.00  0.00     0.021 A 
ATOM      5  C   UNL     1      -0.846 -18.535  -8.572  1.00  0.00     0.019 A 
ATOM      6  C   UNL     1       0.190 -19.449  -8.380  1.00  0.00     0.094 A 
ATOM      7  C   UNL     1       1.333 -19.041  -7.682  1.00  0.00     0.336 A 
ATOM      8  O   UNL     1       2.278 -19.851  -7.499  1.00  0.00    -0.246 OA
ATOM      9  O   UNL     1       1.427 -17.801  -7.210  1.00  0.00    -0.423 OA
ATOM     10  C   UNL     1      -1.734 -16.283  -8.232  1.00  0.00     0.058 A 
ATOM     11  C   UNL     1      -1.571 -14.991  -7.709  1.00  0.00     0.116 A 
ENDROOT
BRANCH  11  12
ATOM     12  O   UNL     1      -2.568 -14.031  -7.867  1.00  0.00    -0.508 OA
ATOM     13  H   UNL     1      -3.403 -14.036  -7.292  1.00  0.00     0.293 HD
ENDBRANCH  11  12
TORSDOF 1
ENDMDL
MODEL 2
REMARK VINA RESULT:    -4.798      1.902      3.926
REMARK INTER + INTRA:          -4.939
REMARK INTER:                  -4.939
REMARK INTRA:                   0.000
REMARK UNBOUND:                 0.000
REMARK SMILES O=c1ccc2cc(O)ccc2o1
REMARK SMILES IDX 9 1 10 2 11 3 5 4 4 5 3 6 2 7 1 8 12 9 6 10 7 11 8 12
REMARK H PARENT 8 13
REMARK Flexibility Score: inf
ROOT
ATOM      1  C   UNL     1      -0.386 -14.648  -6.819  1.00  0.00     0.050 A 
ATOM      2  C   UNL     1      -1.657 -14.718  -7.398  1.00  0.00     0.052 A 
ATOM      3  C   UNL     1      -2.027 -15.841  -8.144  1.00  0.00     0.138 A 
ATOM      4  C   UNL     1      -1.113 -16.905  -8.310  1.00  0.00     0.021 A 
ATOM      5  C   UNL     1      -1.511 -18.016  -9.059  1.00  0.00     0.019 A 
ATOM      6  C   UNL     1      -2.789 -18.042  -9.618  1.00  0.00     0.094 A 
ATOM      7  C   UNL     1      -3.641 -16.951  -9.412  1.00  0.00     0.336 A 
ATOM      8  O   UNL     1      -4.798 -16.956  -9.909  1.00  0.00    -0.246 OA
ATOM      9  O   UNL     1      -3.237 -15.906  -8.694  1.00  0.00    -0.423 OA
ATOM     10  C   UNL     1       0.161 -16.830  -7.726  1.00  0.00     0.058 A 
ATOM     11  C   UNL     1       0.524 -15.699  -6.980  1.00  0.00     0.116 A 
ENDROOT
BRANCH  11  12
ATOM     12  O   UNL     1       1.785 -15.610  -6.395  1.00  0.00    -0.508 OA
ATOM     13  H   UNL     1       2.451 -16.373  -6.453  1.00  0.00     0.293 HD
ENDBRANCH  11  12
TORSDOF 1
ENDMDL
MODEL 3
REMARK VINA RESULT:    -4.610      1.548      4.815
REMARK INTER + INTRA:          -4.745
REMARK INTER:                  -4.745
REMARK INTRA:                   0.000
REMARK UNBOUND:                 0.000
REMARK SMILES O=c1ccc2cc(O)ccc2o1
REMARK SMILES IDX 9 1 10 2 11 3 5 4 4 5 3 6 2 7 1 8 12 9 6 10 7 11 8 12
REMARK H PARENT 8 13
REMARK Flexibility Score: inf
ROOT
ATOM      1  C   UNL     1       1.775 -18.381  -7.176  1.00  0.00     0.050 A 
ATOM      2  C   UNL     1       0.643 -17.843  -7.796  1.00  0.00     0.052 A 
ATOM      3  C   UNL     1       0.125 -16.617  -7.366  1.00  0.00     0.138 A 
ATOM      4  C   UNL     1       0.749 -15.925  -6.304  1.00  0.00     0.021 A 
ATOM      5  C   UNL     1       0.210 -14.702  -5.897  1.00  0.00     0.019 A 
ATOM      6  C   UNL     1      -0.921 -14.203  -6.544  1.00  0.00     0.094 A 
ATOM      7  C   UNL     1      -1.487 -14.944  -7.588  1.00  0.00     0.336 A 
ATOM      8  O   UNL     1      -2.507 -14.510  -8.183  1.00  0.00    -0.246 OA
ATOM      9  O   UNL     1      -0.953 -16.105  -7.956  1.00  0.00    -0.423 OA
ATOM     10  C   UNL     1       1.885 -16.470  -5.687  1.00  0.00     0.058 A 
ATOM     11  C   UNL     1       2.398 -17.700  -6.123  1.00  0.00     0.116 A 
ENDROOT
BRANCH  11  12
ATOM     12  O   UNL     1       3.525 -18.254  -5.520  1.00  0.00    -0.508 OA
ATOM     13  H   UNL     1       3.652 -19.258  -5.457  1.00  0.00     0.293 HD
ENDBRANCH  11  12
TORSDOF 1
ENDMDL
MODEL 4
REMARK VINA RESULT:    -4.609      1.436      1.694
REMARK INTER + INTRA:          -4.744
REMARK INTER:                  -4.744
REMARK INTRA:                   0.000
REMARK UNBOUND:                 0.000
REMARK SMILES O=c1ccc2cc(O)ccc2o1
REMARK SMILES IDX 9 1 10 2 11 3 5 4 4 5 3 6 2 7 1 8 12 9 6 10 7 11 8 12
REMARK H PARENT 8 13
REMARK Flexibility Score: inf
ROOT
ATOM      1  C   UNL     1      -0.962 -14.081  -6.300  1.00  0.00     0.050 A 
ATOM      2  C   UNL     1       0.130 -14.703  -5.689  1.00  0.00     0.052 A 
ATOM      3  C   UNL     1       0.644 -15.894  -6.213  1.00  0.00     0.138 A 
ATOM      4  C   UNL     1       0.054 -16.465  -7.363  1.00  0.00     0.021 A 
ATOM      5  C   UNL     1       0.589 -17.655  -7.865  1.00  0.00     0.019 A 
ATOM      6  C   UNL     1       1.680 -18.240  -7.222  1.00  0.00     0.094 A 
ATOM      7  C   UNL     1       2.212 -17.618  -6.087  1.00  0.00     0.336 A 
ATOM      8  O   UNL     1       3.196 -18.131  -5.493  1.00  0.00    -0.246 OA
ATOM      9  O   UNL     1       1.683 -16.485  -5.630  1.00  0.00    -0.423 OA
ATOM     10  C   UNL     1      -1.042 -15.837  -7.973  1.00  0.00     0.058 A 
ATOM     11  C   UNL     1      -1.550 -14.643  -7.440  1.00  0.00     0.116 A 
ENDROOT
BRANCH  11  12
ATOM     12  O   UNL     1      -2.638 -14.007  -8.035  1.00  0.00    -0.508 OA
ATOM     13  H   UNL     1      -2.956 -13.097  -7.720  1.00  0.00     0.293 HD
ENDBRANCH  11  12
TORSDOF 1
ENDMDL
MODEL 5
REMARK VINA RESULT:    -4.591      2.548      5.147
REMARK INTER + INTRA:          -4.725
REMARK INTER:                  -4.725
REMARK INTRA:                   0.000
REMARK UNBOUND:                 0.000
REMARK SMILES O=c1ccc2cc(O)ccc2o1
REMARK SMILES IDX 9 1 10 2 11 3 5 4 4 5 3 6 2 7 1 8 12 9 6 10 7 11 8 12
REMARK H PARENT 8 13
REMARK Flexibility Score: inf
ROOT
ATOM      1  C   UNL     1      -1.435 -16.315  -8.335  1.00  0.00     0.050 A 
ATOM      2  C   UNL     1      -2.292 -16.023  -7.270  1.00  0.00     0.052 A 
ATOM      3  C   UNL     1      -1.903 -15.105  -6.288  1.00  0.00     0.138 A 
ATOM      4  C   UNL     1      -0.643 -14.473  -6.379  1.00  0.00     0.021 A 
ATOM      5  C   UNL     1      -0.282 -13.559  -5.385  1.00  0.00     0.019 A 
ATOM      6  C   UNL     1      -1.169 -13.299  -4.340  1.00  0.00     0.094 A 
ATOM      7  C   UNL     1      -2.401 -13.964  -4.315  1.00  0.00     0.336 A 
ATOM      8  O   UNL     1      -3.214 -13.742  -3.380  1.00  0.00    -0.246 OA
ATOM      9  O   UNL     1      -2.719 -14.828  -5.274  1.00  0.00    -0.423 OA
ATOM     10  C   UNL     1       0.213 -14.769  -7.451  1.00  0.00     0.058 A 
ATOM     11  C   UNL     1      -0.184 -15.691  -8.430  1.00  0.00     0.116 A 
ENDROOT
BRANCH  11  12
ATOM     12  O   UNL     1       0.654 -15.995  -9.500  1.00  0.00    -0.508 OA
ATOM     13  H   UNL     1       0.755 -15.366 -10.289  1.00  0.00     0.293 HD
ENDBRANCH  11  12
TORSDOF 1
ENDMDL
MODEL 6
REMARK VINA RESULT:    -4.574      2.011      4.408
REMARK INTER + INTRA:          -4.708
REMARK INTER:                  -4.708
REMARK INTRA:                   0.000
REMARK UNBOUND:                 0.000
REMARK SMILES O=c1ccc2cc(O)ccc2o1
REMARK SMILES IDX 9 1 10 2 11 3 5 4 4 5 3 6 2 7 1 8 12 9 6 10 7 11 8 12
REMARK H PARENT 8 13
REMARK Flexibility Score: inf
ROOT
ATOM      1  C   UNL     1       1.875 -17.654  -6.444  1.00  0.00     0.050 A 
ATOM      2  C   UNL     1       0.675 -17.829  -7.139  1.00  0.00     0.052 A 
ATOM      3  C   UNL     1      -0.210 -16.757  -7.293  1.00  0.00     0.138 A 
ATOM      4  C   UNL     1       0.115 -15.495  -6.745  1.00  0.00     0.021 A 
ATOM      5  C   UNL     1      -0.787 -14.442  -6.916  1.00  0.00     0.019 A 
ATOM      6  C   UNL     1      -1.973 -14.663  -7.616  1.00  0.00     0.094 A 
ATOM      7  C   UNL     1      -2.229 -15.939  -8.130  1.00  0.00     0.336 A 
ATOM      8  O   UNL     1      -3.293 -16.158  -8.765  1.00  0.00    -0.246 OA
ATOM      9  O   UNL     1      -1.352 -16.925  -7.954  1.00  0.00    -0.423 OA
ATOM     10  C   UNL     1       1.322 -15.325  -6.049  1.00  0.00     0.058 A 
ATOM     11  C   UNL     1       2.203 -16.406  -5.899  1.00  0.00     0.116 A 
ENDROOT
BRANCH  11  12
ATOM     12  O   UNL     1       3.404 -16.252  -5.211  1.00  0.00    -0.508 OA
ATOM     13  H   UNL     1       3.553 -16.681  -4.304  1.00  0.00     0.293 HD
ENDBRANCH  11  12
TORSDOF 1
ENDMDL
MODEL 7
REMARK VINA RESULT:    -4.546      0.965      4.764
REMARK INTER + INTRA:          -4.679
REMARK INTER:                  -4.679
REMARK INTRA:                   0.000
REMARK UNBOUND:                 0.000
REMARK SMILES O=c1ccc2cc(O)ccc2o1
REMARK SMILES IDX 9 1 10 2 11 3 5 4 4 5 3 6 2 7 1 8 12 9 6 10 7 11 8 12
REMARK H PARENT 8 13
REMARK Flexibility Score: inf
ROOT
ATOM      1  C   UNL     1       0.575 -19.491  -8.237  1.00  0.00     0.050 A 
ATOM      2  C   UNL     1      -0.492 -18.642  -8.547  1.00  0.00     0.052 A 
ATOM      3  C   UNL     1      -0.515 -17.335  -8.050  1.00  0.00     0.138 A 
ATOM      4  C   UNL     1       0.544 -16.876  -7.234  1.00  0.00     0.021 A 
ATOM      5  C   UNL     1       0.494 -15.564  -6.753  1.00  0.00     0.019 A 
ATOM      6  C   UNL     1      -0.590 -14.753  -7.088  1.00  0.00     0.094 A 
ATOM      7  C   UNL     1      -1.603 -15.276  -7.900  1.00  0.00     0.336 A 
ATOM      8  O   UNL     1      -2.588 -14.558  -8.213  1.00  0.00    -0.246 OA
ATOM      9  O   UNL     1      -1.531 -16.527  -8.345  1.00  0.00    -0.423 OA
ATOM     10  C   UNL     1       1.611 -17.732  -6.926  1.00  0.00     0.058 A 
ATOM     11  C   UNL     1       1.626 -19.042  -7.428  1.00  0.00     0.116 A 
ENDROOT
BRANCH  11  12
ATOM     12  O   UNL     1       2.680 -19.904  -7.132  1.00  0.00    -0.508 OA
ATOM     13  H   UNL     1       3.633 -19.688  -7.403  1.00  0.00     0.293 HD
ENDBRANCH  11  12
TORSDOF 1
ENDMDL
MODEL 8
REMARK VINA RESULT:    -4.466      1.736      2.315
REMARK INTER + INTRA:          -4.596
REMARK INTER:                  -4.596
REMARK INTRA:                   0.000
REMARK UNBOUND:                 0.000
REMARK SMILES O=c1ccc2cc(O)ccc2o1
REMARK SMILES IDX 9 1 10 2 11 3 5 4 4 5 3 6 2 7 1 8 12 9 6 10 7 11 8 12
REMARK H PARENT 8 13
REMARK Flexibility Score: inf
ROOT
ATOM      1  C   UNL     1      -0.245 -14.392  -4.507  1.00  0.00     0.050 A 
ATOM      2  C   UNL     1       0.258 -15.660  -4.815  1.00  0.00     0.052 A 
ATOM      3  C   UNL     1       0.252 -16.115  -6.137  1.00  0.00     0.138 A 
ATOM      4  C   UNL     1      -0.262 -15.288  -7.162  1.00  0.00     0.021 A 
ATOM      5  C   UNL     1      -0.253 -15.768  -8.474  1.00  0.00     0.019 A 
ATOM      6  C   UNL     1       0.259 -17.039  -8.735  1.00  0.00     0.094 A 
ATOM      7  C   UNL     1       0.751 -17.803  -7.670  1.00  0.00     0.336 A 
ATOM      8  O   UNL     1       1.217 -18.952  -7.885  1.00  0.00    -0.246 OA
ATOM      9  O   UNL     1       0.731 -17.321  -6.430  1.00  0.00    -0.423 OA
ATOM     10  C   UNL     1      -0.765 -14.016  -6.847  1.00  0.00     0.058 A 
ATOM     11  C   UNL     1      -0.757 -13.569  -5.518  1.00  0.00     0.116 A 
ENDROOT
BRANCH  11  12
ATOM     12  O   UNL     1      -1.252 -12.309  -5.190  1.00  0.00    -0.508 OA
ATOM     13  H   UNL     1      -1.702 -12.132  -4.298  1.00  0.00     0.293 HD
ENDBRANCH  11  12
TORSDOF 1
ENDMDL
MODEL 9
REMARK VINA RESULT:    -4.337      1.161      2.434
REMARK INTER + INTRA:          -4.464
REMARK INTER:                  -4.464
REMARK INTRA:                   0.000
REMARK UNBOUND:                 0.000
REMARK SMILES O=c1ccc2cc(O)ccc2o1
REMARK SMILES IDX 9 1 10 2 11 3 5 4 4 5 3 6 2 7 1 8 12 9 6 10 7 11 8 12
REMARK H PARENT 8 13
REMARK Flexibility Score: inf
ROOT
ATOM      1  C   UNL     1      -2.017 -16.338  -8.243  1.00  0.00     0.050 A 
ATOM      2  C   UNL     1      -1.131 -17.387  -7.979  1.00  0.00     0.052 A 
ATOM      3  C   UNL     1       0.009 -17.163  -7.200  1.00  0.00     0.138 A 
ATOM      4  C   UNL     1       0.260 -15.873  -6.681  1.00  0.00     0.021 A 
ATOM      5  C   UNL     1       1.407 -15.678  -5.904  1.00  0.00     0.019 A 
ATOM      6  C   UNL     1       2.263 -16.754  -5.666  1.00  0.00     0.094 A 
ATOM      7  C   UNL     1       1.950 -18.003  -6.214  1.00  0.00     0.336 A 
ATOM      8  O   UNL     1       2.710 -18.985  -6.010  1.00  0.00    -0.246 OA
ATOM      9  O   UNL     1       0.852 -18.161  -6.949  1.00  0.00    -0.423 OA
ATOM     10  C   UNL     1      -0.633 -14.824  -6.949  1.00  0.00     0.058 A 
ATOM     11  C   UNL     1      -1.773 -15.058  -7.732  1.00  0.00     0.116 A 
ENDROOT
BRANCH  11  12
ATOM     12  O   UNL     1      -2.668 -14.027  -8.006  1.00  0.00    -0.508 OA
ATOM     13  H   UNL     1      -3.499 -14.183  -8.567  1.00  0.00     0.293 HD
ENDBRANCH  11  12
TORSDOF 1
ENDMDL
