MODEL 1
REMARK VINA RESULT:    -3.452      0.000      0.000
REMARK INTER + INTRA:          -5.819
REMARK INTER:                  -5.269
REMARK INTRA:                  -0.550
REMARK UNBOUND:                -0.550
REMARK SMILES O=C([O-])CCCCCCCCC(=O)[O-]
REMARK SMILES IDX 7 1 6 2 5 3 4 4 2 5 1 6 3 7 8 8 9 9 10 10 11 11 12 12 13 13
REMARK SMILES IDX 14 14
REMARK H PARENT
REMARK Flexibility Score: inf
ROOT
ATOM      1  C   UNL     1     -14.758  13.059   6.828  1.00  0.00     0.000 C 
ENDROOT
BRANCH   1   2
ATOM      2  C   UNL     1     -13.721  13.596   7.827  1.00  0.00     0.000 C 
BRANCH   2   3
ATOM      3  C   UNL     1     -14.155  13.412   9.288  1.00  0.00     0.006 C 
BRANCH   3   4
ATOM      4  C   UNL     1     -13.725  14.581  10.184  1.00  0.00     0.053 C 
BRANCH   4   5
ATOM      5  C   UNL     1     -13.948  14.243  11.625  1.00  0.00     0.041 C 
ATOM      6  O   UNL     1     -15.104  14.314  12.120  1.00  0.00    -0.550 OA
ATOM      7  O   UNL     1     -12.890  13.805  12.409  1.00  0.00    -0.550 OA
ENDBRANCH   4   5
ENDBRANCH   3   4
ENDBRANCH   2   3
ENDBRANCH   1   2
BRANCH   1   8
ATOM      8  C   UNL     1     -16.063  12.683   7.541  1.00  0.00     0.000 C 
BRANCH   8   9
ATOM      9  C   UNL     1     -16.407  11.202   7.314  1.00  0.00     0.000 C 
BRANCH   9  10
ATOM     10  C   UNL     1     -16.280  10.363   8.595  1.00  0.00     0.006 C 
BRANCH  10  11
ATOM     11  C   UNL     1     -15.352   9.154   8.419  1.00  0.00     0.053 C 
BRANCH  11  12
ATOM     12  C   UNL     1     -15.893   7.970   9.157  1.00  0.00     0.041 C 
ATOM     13  O   UNL     1     -15.425   7.656  10.283  1.00  0.00    -0.550 OA
ATOM     14  O   UNL     1     -16.884   7.185   8.581  1.00  0.00    -0.550 OA
ENDBRANCH  11  12
ENDBRANCH  10  11
ENDBRANCH   9  10
ENDBRANCH   8   9
ENDBRANCH   1   8
TORSDOF 9
ENDMDL
MODEL 2
REMARK VINA RESULT:    -3.344      1.335      5.352
REMARK INTER + INTRA:          -5.654
REMARK INTER:                  -5.039
REMARK INTRA:                  -0.615
REMARK UNBOUND:                -0.550
REMARK SMILES O=C([O-])CCCCCCCCC(=O)[O-]
REMARK SMILES IDX 7 1 6 2 5 3 4 4 2 5 1 6 3 7 8 8 9 9 10 10 11 11 12 12 13 13
REMARK SMILES IDX 14 14
REMARK H PARENT
REMARK Flexibility Score: inf
ROOT
ATOM      1  C   UNL     1     -14.648  12.877   6.762  1.00  0.00     0.000 C 
ENDROOT
BRANCH   1   2
ATOM      2  C   UNL     1     -16.138  13.057   7.088  1.00  0.00     0.000 C 
BRANCH   2   3
ATOM      3  C   UNL     1     -16.876  11.719   7.243  1.00  0.00     0.006 C 
BRANCH   3   4
ATOM      4  C   UNL     1     -15.931  10.512   7.173  1.00  0.00     0.053 C 
BRANCH   4   5
ATOM      5  C   UNL     1     -15.856   9.831   8.504  1.00  0.00     0.041 C 
ATOM      6  O   UNL     1     -15.218   8.753   8.629  1.00  0.00    -0.550 OA
ATOM      7  O   UNL     1     -16.451  10.411   9.616  1.00  0.00    -0.550 OA
ENDBRANCH   4   5
ENDBRANCH   3   4
ENDBRANCH   2   3
ENDBRANCH   1   2
BRANCH   1   8
ATOM      8  C   UNL     1     -13.770  13.638   7.763  1.00  0.00     0.000 C 
BRANCH   8   9
ATOM      9  C   UNL     1     -14.166  13.300   9.209  1.00  0.00     0.000 C 
BRANCH   9  10
ATOM     10  C   UNL     1     -13.827  14.430  10.194  1.00  0.00     0.006 C 
BRANCH  10  11
ATOM     11  C   UNL     1     -13.647  13.926  11.632  1.00  0.00     0.053 C 
BRANCH  11  12
ATOM     12  C   UNL     1     -14.964  13.896  12.342  1.00  0.00     0.041 C 
ATOM     13  O   UNL     1     -15.724  12.899  12.227  1.00  0.00    -0.550 OA
ATOM     14  O   UNL     1     -15.373  14.990  13.094  1.00  0.00    -0.550 OA
ENDBRANCH  11  12
ENDBRANCH  10  11
ENDBRANCH   9  10
ENDBRANCH   8   9
ENDBRANCH   1   8
TORSDOF 9
ENDMDL
MODEL 3
REMARK VINA RESULT:    -3.331      0.497      5.807
REMARK INTER + INTRA:          -5.633
REMARK INTER:                  -5.096
REMARK INTRA:                  -0.537
REMARK UNBOUND:                -0.550
REMARK SMILES O=C([O-])CCCCCCCCC(=O)[O-]
REMARK SMILES IDX 7 1 6 2 5 3 4 4 2 5 1 6 3 7 8 8 9 9 10 10 11 11 12 12 13 13
REMARK SMILES IDX 14 14
REMARK H PARENT
REMARK Flexibility Score: inf
ROOT
ATOM      1  C   UNL     1     -15.602  11.429   7.148  1.00  0.00     0.000 C 
ENDROOT
BRANCH   1   2
ATOM      2  C   UNL     1     -16.898  11.050   7.881  1.00  0.00     0.000 C 
BRANCH   2   3
ATOM      3  C   UNL     1     -16.664  10.040   9.014  1.00  0.00     0.006 C 
BRANCH   3   4
ATOM      4  C   UNL     1     -15.552   9.034   8.689  1.00  0.00     0.053 C 
BRANCH   4   5
ATOM      5  C   UNL     1     -15.854   7.705   9.305  1.00  0.00     0.041 C 
ATOM      6  O   UNL     1     -16.747   6.966   8.812  1.00  0.00    -0.550 OA
ATOM      7  O   UNL     1     -15.119   7.261  10.396  1.00  0.00    -0.550 OA
ENDBRANCH   4   5
ENDBRANCH   3   4
ENDBRANCH   2   3
ENDBRANCH   1   2
BRANCH   1   8
ATOM      8  C   UNL     1     -15.367  12.944   7.195  1.00  0.00     0.000 C 
BRANCH   8   9
ATOM      9  C   UNL     1     -14.083  13.278   7.969  1.00  0.00     0.000 C 
BRANCH   9  10
ATOM     10  C   UNL     1     -14.265  13.172   9.491  1.00  0.00     0.006 C 
BRANCH  10  11
ATOM     11  C   UNL     1     -13.811  14.438  10.230  1.00  0.00     0.053 C 
BRANCH  11  12
ATOM     12  C   UNL     1     -13.846  14.219  11.710  1.00  0.00     0.041 C 
ATOM     13  O   UNL     1     -12.861  13.701  12.298  1.00  0.00    -0.550 OA
ATOM     14  O   UNL     1     -14.987  14.542  12.433  1.00  0.00    -0.550 OA
ENDBRANCH  11  12
ENDBRANCH  10  11
ENDBRANCH   9  10
ENDBRANCH   8   9
ENDBRANCH   1   8
TORSDOF 9
ENDMDL
MODEL 4
REMARK VINA RESULT:    -3.196      2.844      6.276
REMARK INTER + INTRA:          -5.428
REMARK INTER:                  -4.973
REMARK INTRA:                  -0.455
REMARK UNBOUND:                -0.550
REMARK SMILES O=C([O-])CCCCCCCCC(=O)[O-]
REMARK SMILES IDX 7 1 6 2 5 3 4 4 2 5 1 6 3 7 8 8 9 9 10 10 11 11 12 12 13 13
REMARK SMILES IDX 14 14
REMARK H PARENT
REMARK Flexibility Score: inf
ROOT
ATOM      1  C   UNL     1     -15.456   9.125   8.550  1.00  0.00     0.000 C 
ENDROOT
BRANCH   1   2
ATOM      2  C   UNL     1     -15.961   7.825   9.195  1.00  0.00     0.000 C 
BRANCH   2   3
ATOM      3  C   UNL     1     -15.417   7.618  10.616  1.00  0.00     0.006 C 
BRANCH   3   4
ATOM      4  C   UNL     1     -15.297   6.136  10.994  1.00  0.00     0.053 C 
BRANCH   4   5
ATOM      5  C   UNL     1     -13.951   5.855  11.583  1.00  0.00     0.041 C 
ATOM      6  O   UNL     1     -13.279   6.786  12.100  1.00  0.00    -0.550 OA
ATOM      7  O   UNL     1     -13.457   4.557  11.603  1.00  0.00    -0.550 OA
ENDBRANCH   4   5
ENDBRANCH   3   4
ENDBRANCH   2   3
ENDBRANCH   1   2
BRANCH   1   8
ATOM      8  C   UNL     1     -16.556  10.193   8.532  1.00  0.00     0.000 C 
BRANCH   8   9
ATOM      9  C   UNL     1     -16.428  11.135   9.739  1.00  0.00     0.000 C 
BRANCH   9  10
ATOM     10  C   UNL     1     -16.096  12.579   9.330  1.00  0.00     0.006 C 
BRANCH  10  11
ATOM     11  C   UNL     1     -14.608  12.775   9.013  1.00  0.00     0.053 C 
BRANCH  11  12
ATOM     12  C   UNL     1     -14.429  13.192   7.587  1.00  0.00     0.041 C 
ATOM     13  O   UNL     1     -15.376  13.069   6.767  1.00  0.00    -0.550 OA
ATOM     14  O   UNL     1     -13.200  13.671   7.153  1.00  0.00    -0.550 OA
ENDBRANCH  11  12
ENDBRANCH  10  11
ENDBRANCH   9  10
ENDBRANCH   8   9
ENDBRANCH   1   8
TORSDOF 9
ENDMDL
MODEL 5
REMARK VINA RESULT:    -3.175      2.529      4.018
REMARK INTER + INTRA:          -5.396
REMARK INTER:                  -4.969
REMARK INTRA:                  -0.428
REMARK UNBOUND:                -0.550
REMARK SMILES O=C([O-])CCCCCCCCC(=O)[O-]
REMARK SMILES IDX 7 1 6 2 5 3 4 4 2 5 1 6 3 7 8 8 9 9 10 10 11 11 12 12 13 13
REMARK SMILES IDX 14 14
REMARK H PARENT
REMARK Flexibility Score: inf
ROOT
ATOM      1  C   UNL     1     -15.249   9.482   8.286  1.00  0.00     0.000 C 
ENDROOT
BRANCH   1   2
ATOM      2  C   UNL     1     -16.146  10.364   7.404  1.00  0.00     0.000 C 
BRANCH   2   3
ATOM      3  C   UNL     1     -16.220  11.816   7.901  1.00  0.00     0.006 C 
BRANCH   3   4
ATOM      4  C   UNL     1     -15.403  12.781   7.032  1.00  0.00     0.053 C 
BRANCH   4   5
ATOM      5  C   UNL     1     -14.183  13.239   7.767  1.00  0.00     0.041 C 
ATOM      6  O   UNL     1     -13.183  13.663   7.131  1.00  0.00    -0.550 OA
ATOM      7  O   UNL     1     -14.168  13.243   9.155  1.00  0.00    -0.550 OA
ENDBRANCH   4   5
ENDBRANCH   3   4
ENDBRANCH   2   3
ENDBRANCH   1   2
BRANCH   1   8
ATOM      8  C   UNL     1     -16.033   8.289   8.846  1.00  0.00     0.000 C 
BRANCH   8   9
ATOM      9  C   UNL     1     -16.542   8.583  10.266  1.00  0.00     0.000 C 
BRANCH   9  10
ATOM     10  C   UNL     1     -15.782   7.794  11.343  1.00  0.00     0.006 C 
BRANCH  10  11
ATOM     11  C   UNL     1     -15.133   6.518  10.791  1.00  0.00     0.053 C 
BRANCH  11  12
ATOM     12  C   UNL     1     -13.966   6.118  11.639  1.00  0.00     0.041 C 
ATOM     13  O   UNL     1     -13.383   6.971  12.358  1.00  0.00    -0.550 OA
ATOM     14  O   UNL     1     -13.491   4.813  11.597  1.00  0.00    -0.550 OA
ENDBRANCH  11  12
ENDBRANCH  10  11
ENDBRANCH   9  10
ENDBRANCH   8   9
ENDBRANCH   1   8
TORSDOF 9
ENDMDL
MODEL 6
REMARK VINA RESULT:    -3.125      1.433      2.078
REMARK INTER + INTRA:          -5.320
REMARK INTER:                  -4.790
REMARK INTRA:                  -0.530
REMARK UNBOUND:                -0.550
REMARK SMILES O=C([O-])CCCCCCCCC(=O)[O-]
REMARK SMILES IDX 7 1 6 2 5 3 4 4 2 5 1 6 3 7 8 8 9 9 10 10 11 11 12 12 13 13
REMARK SMILES IDX 14 14
REMARK H PARENT
REMARK Flexibility Score: inf
ROOT
ATOM      1  C   UNL     1     -16.559  11.881   7.450  1.00  0.00     0.000 C 
ENDROOT
BRANCH   1   2
ATOM      2  C   UNL     1     -15.494  12.952   7.169  1.00  0.00     0.000 C 
BRANCH   2   3
ATOM      3  C   UNL     1     -14.366  12.954   8.211  1.00  0.00     0.006 C 
BRANCH   3   4
ATOM      4  C   UNL     1     -14.883  12.747   9.641  1.00  0.00     0.053 C 
BRANCH   4   5
ATOM      5  C   UNL     1     -14.116  13.600  10.601  1.00  0.00     0.041 C 
ATOM      6  O   UNL     1     -13.738  14.752  10.263  1.00  0.00    -0.550 OA
ATOM      7  O   UNL     1     -13.858  13.142  11.886  1.00  0.00    -0.550 OA
ENDBRANCH   4   5
ENDBRANCH   3   4
ENDBRANCH   2   3
ENDBRANCH   1   2
BRANCH   1   8
ATOM      8  C   UNL     1     -16.046  10.485   7.077  1.00  0.00     0.000 C 
BRANCH   8   9
ATOM      9  C   UNL     1     -16.591   9.421   8.043  1.00  0.00     0.000 C 
BRANCH   9  10
ATOM     10  C   UNL     1     -15.494   8.808   8.927  1.00  0.00     0.006 C 
BRANCH  10  11
ATOM     11  C   UNL     1     -15.875   7.422   9.465  1.00  0.00     0.053 C 
BRANCH  11  12
ATOM     12  C   UNL     1     -15.283   7.210  10.823  1.00  0.00     0.041 C 
ATOM     13  O   UNL     1     -14.427   6.305  11.007  1.00  0.00    -0.550 OA
ATOM     14  O   UNL     1     -15.712   7.980  11.897  1.00  0.00    -0.550 OA
ENDBRANCH  11  12
ENDBRANCH  10  11
ENDBRANCH   9  10
ENDBRANCH   8   9
ENDBRANCH   1   8
TORSDOF 9
ENDMDL
MODEL 7
REMARK VINA RESULT:    -2.884      1.684      5.901
REMARK INTER + INTRA:          -4.951
REMARK INTER:                  -4.413
REMARK INTRA:                  -0.538
REMARK UNBOUND:                -0.550
REMARK SMILES O=C([O-])CCCCCCCCC(=O)[O-]
REMARK SMILES IDX 7 1 6 2 5 3 4 4 2 5 1 6 3 7 8 8 9 9 10 10 11 11 12 12 13 13
REMARK SMILES IDX 14 14
REMARK H PARENT
REMARK Flexibility Score: inf
ROOT
ATOM      1  C   UNL     1     -16.985   9.901   8.038  1.00  0.00     0.000 C 
ENDROOT
BRANCH   1   2
ATOM      2  C   UNL     1     -16.746   9.233   9.401  1.00  0.00     0.000 C 
BRANCH   2   3
ATOM      3  C   UNL     1     -15.589   8.223   9.371  1.00  0.00     0.006 C 
BRANCH   3   4
ATOM      4  C   UNL     1     -15.896   6.950  10.171  1.00  0.00     0.053 C 
BRANCH   4   5
ATOM      5  C   UNL     1     -14.938   6.808  11.312  1.00  0.00     0.041 C 
ATOM      6  O   UNL     1     -14.020   5.948  11.265  1.00  0.00    -0.550 OA
ATOM      7  O   UNL     1     -15.030   7.658  12.406  1.00  0.00    -0.550 OA
ENDBRANCH   4   5
ENDBRANCH   3   4
ENDBRANCH   2   3
ENDBRANCH   1   2
BRANCH   1   8
ATOM      8  C   UNL     1     -15.677  10.455   7.461  1.00  0.00     0.000 C 
BRANCH   8   9
ATOM      9  C   UNL     1     -15.689  11.991   7.442  1.00  0.00     0.000 C 
BRANCH   9  10
ATOM     10  C   UNL     1     -14.652  12.603   8.395  1.00  0.00     0.006 C 
BRANCH  10  11
ATOM     11  C   UNL     1     -15.266  13.046   9.730  1.00  0.00     0.053 C 
BRANCH  11  12
ATOM     12  C   UNL     1     -14.236  13.726  10.577  1.00  0.00     0.041 C 
ATOM     13  O   UNL     1     -13.662  14.767  10.163  1.00  0.00    -0.550 OA
ATOM     14  O   UNL     1     -13.877  13.183  11.804  1.00  0.00    -0.550 OA
ENDBRANCH  11  12
ENDBRANCH  10  11
ENDBRANCH   9  10
ENDBRANCH   8   9
ENDBRANCH   1   8
TORSDOF 9
ENDMDL
MODEL 8
REMARK VINA RESULT:    -2.804      2.803      5.590
REMARK INTER + INTRA:          -4.829
REMARK INTER:                  -4.218
REMARK INTRA:                  -0.611
REMARK UNBOUND:                -0.550
REMARK SMILES O=C([O-])CCCCCCCCC(=O)[O-]
REMARK SMILES IDX 7 1 6 2 5 3 4 4 2 5 1 6 3 7 8 8 9 9 10 10 11 11 12 12 13 13
REMARK SMILES IDX 14 14
REMARK H PARENT
REMARK Flexibility Score: inf
ROOT
ATOM      1  C   UNL     1     -16.959  10.565  10.127  1.00  0.00     0.000 C 
ENDROOT
BRANCH   1   2
ATOM      2  C   UNL     1     -16.064   9.788   9.149  1.00  0.00     0.000 C 
BRANCH   2   3
ATOM      3  C   UNL     1     -15.688  10.612   7.908  1.00  0.00     0.006 C 
BRANCH   3   4
ATOM      4  C   UNL     1     -14.956  11.913   8.263  1.00  0.00     0.053 C 
BRANCH   4   5
ATOM      5  C   UNL     1     -15.050  12.889   7.133  1.00  0.00     0.041 C 
ATOM      6  O   UNL     1     -14.008  13.280   6.544  1.00  0.00    -0.550 OA
ATOM      7  O   UNL     1     -16.293  13.332   6.698  1.00  0.00    -0.550 OA
ENDBRANCH   4   5
ENDBRANCH   3   4
ENDBRANCH   2   3
ENDBRANCH   1   2
BRANCH   1   8
ATOM      8  C   UNL     1     -16.745  10.085  11.567  1.00  0.00     0.000 C 
BRANCH   8   9
ATOM      9  C   UNL     1     -15.943  11.115  12.378  1.00  0.00     0.000 C 
BRANCH   9  10
ATOM     10  C   UNL     1     -15.828  12.470  11.663  1.00  0.00     0.006 C 
BRANCH  10  11
ATOM     11  C   UNL     1     -15.071  13.514  12.493  1.00  0.00     0.053 C 
BRANCH  11  12
ATOM     12  C   UNL     1     -13.768  13.854  11.840  1.00  0.00     0.041 C 
ATOM     13  O   UNL     1     -13.740  14.236  10.641  1.00  0.00    -0.550 OA
ATOM     14  O   UNL     1     -12.579  13.703  12.543  1.00  0.00    -0.550 OA
ENDBRANCH  11  12
ENDBRANCH  10  11
ENDBRANCH   9  10
ENDBRANCH   8   9
ENDBRANCH   1   8
TORSDOF 9
ENDMDL
MODEL 9
REMARK VINA RESULT:    -2.572      1.639      5.156
REMARK INTER + INTRA:          -4.476
REMARK INTER:                  -3.755
REMARK INTRA:                  -0.721
REMARK UNBOUND:                -0.550
REMARK SMILES O=C([O-])CCCCCCCCC(=O)[O-]
REMARK SMILES IDX 7 1 6 2 5 3 4 4 2 5 1 6 3 7 8 8 9 9 10 10 11 11 12 12 13 13
REMARK SMILES IDX 14 14
REMARK H PARENT
REMARK Flexibility Score: inf
ROOT
ATOM      1  C   UNL     1     -15.457  11.395   7.127  1.00  0.00     0.000 C 
ENDROOT
BRANCH   1   2
ATOM      2  C   UNL     1     -16.637  10.652   7.771  1.00  0.00     0.000 C 
BRANCH   2   3
ATOM      3  C   UNL     1     -16.228   9.868   9.028  1.00  0.00     0.006 C 
BRANCH   3   4
ATOM      4  C   UNL     1     -16.762  10.502  10.319  1.00  0.00     0.053 C 
BRANCH   4   5
ATOM      5  C   UNL     1     -16.547   9.581  11.479  1.00  0.00     0.041 C 
ATOM      6  O   UNL     1     -16.815   8.356  11.373  1.00  0.00    -0.550 OA
ATOM      7  O   UNL     1     -16.008  10.067  12.662  1.00  0.00    -0.550 OA
ENDBRANCH   4   5
ENDBRANCH   3   4
ENDBRANCH   2   3
ENDBRANCH   1   2
BRANCH   1   8
ATOM      8  C   UNL     1     -15.448  12.873   7.535  1.00  0.00     0.000 C 
BRANCH   8   9
ATOM      9  C   UNL     1     -14.121  13.250   8.210  1.00  0.00     0.000 C 
BRANCH   9  10
ATOM     10  C   UNL     1     -14.160  13.067   9.735  1.00  0.00     0.006 C 
BRANCH  10  11
ATOM     11  C   UNL     1     -14.266  14.400  10.488  1.00  0.00     0.053 C 
BRANCH  11  12
ATOM     12  C   UNL     1     -15.489  14.415  11.350  1.00  0.00     0.041 C 
ATOM     13  O   UNL     1     -16.266  15.406  11.332  1.00  0.00    -0.550 OA
ATOM     14  O   UNL     1     -15.746  13.355  12.211  1.00  0.00    -0.550 OA
ENDBRANCH  11  12
ENDBRANCH  10  11
ENDBRANCH   9  10
ENDBRANCH   8   9
ENDBRANCH   1   8
TORSDOF 9
ENDMDL
