MODEL 1
REMARK VINA RESULT:    -4.420      0.000      0.000
REMARK INTER + INTRA:          -6.710
REMARK INTER:                  -5.971
REMARK INTRA:                  -0.740
REMARK UNBOUND:                -0.740
REMARK SMILES CC(=O)CCC=C(C)CCC=C(C)C
REMARK SMILES IDX 7 1 6 2 8 3 9 4 10 5 11 6 13 7 12 8 14 9 5 10 4 11 2 12 3 13
REMARK SMILES IDX 1 14
REMARK H PARENT
REMARK Flexibility Score: inf
ROOT
ATOM      1  C   UNL     1      13.275  61.841  21.576  1.00  0.00    -0.077 C 
ATOM      2  C   UNL     1      14.595  61.770  21.866  1.00  0.00    -0.028 C 
ATOM      3  C   UNL     1      12.777  62.305  20.227  1.00  0.00     0.039 C 
ENDROOT
BRANCH   1   4
ATOM      4  C   UNL     1      12.269  61.464  22.642  1.00  0.00     0.034 C 
BRANCH   4   5
ATOM      5  C   UNL     1      12.347  62.429  23.829  1.00  0.00     0.032 C 
BRANCH   5   6
ATOM      6  C   UNL     1      11.636  63.722  23.514  1.00  0.00    -0.028 C 
ATOM      7  C   UNL     1      11.139  66.125  23.663  1.00  0.00     0.039 C 
ATOM      8  C   UNL     1      11.905  64.906  24.109  1.00  0.00    -0.080 C 
ATOM      9  C   UNL     1      12.928  65.033  25.213  1.00  0.00     0.039 C 
ENDBRANCH   5   6
ENDBRANCH   4   5
ENDBRANCH   1   4
BRANCH   2  10
ATOM     10  C   UNL     1      15.702  62.083  20.888  1.00  0.00     0.035 C 
BRANCH  10  11
ATOM     11  C   UNL     1      16.146  60.818  20.148  1.00  0.00     0.079 C 
BRANCH  11  12
ATOM     12  C   UNL     1      16.763  59.831  21.104  1.00  0.00     0.130 C 
ATOM     13  O   UNL     1      17.777  60.138  21.713  1.00  0.00    -0.300 OA
ATOM     14  C   UNL     1      16.167  58.471  21.317  1.00  0.00     0.087 C 
ENDBRANCH  11  12
ENDBRANCH  10  11
ENDBRANCH   2  10
TORSDOF 6
ENDMDL
MODEL 2
REMARK VINA RESULT:    -4.313     15.726     17.353
REMARK INTER + INTRA:          -6.565
REMARK INTER:                  -5.601
REMARK INTRA:                  -0.964
REMARK UNBOUND:                -0.740
REMARK SMILES CC(=O)CCC=C(C)CCC=C(C)C
REMARK SMILES IDX 7 1 6 2 8 3 9 4 10 5 11 6 13 7 12 8 14 9 5 10 4 11 2 12 3 13
REMARK SMILES IDX 1 14
REMARK H PARENT
REMARK Flexibility Score: inf
ROOT
ATOM      1  C   UNL     1      13.489  50.139  32.666  1.00  0.00    -0.077 C 
ATOM      2  C   UNL     1      12.952  49.485  33.722  1.00  0.00    -0.028 C 
ATOM      3  C   UNL     1      14.268  49.417  31.591  1.00  0.00     0.039 C 
ENDROOT
BRANCH   1   4
ATOM      4  C   UNL     1      13.321  51.640  32.569  1.00  0.00     0.034 C 
BRANCH   4   5
ATOM      5  C   UNL     1      13.752  52.320  33.872  1.00  0.00     0.032 C 
BRANCH   5   6
ATOM      6  C   UNL     1      15.257  52.372  33.975  1.00  0.00    -0.028 C 
ATOM      7  C   UNL     1      17.462  52.113  35.029  1.00  0.00     0.039 C 
ATOM      8  C   UNL     1      15.958  52.052  35.086  1.00  0.00    -0.080 C 
ATOM      9  C   UNL     1      15.277  51.657  36.376  1.00  0.00     0.039 C 
ENDBRANCH   5   6
ENDBRANCH   4   5
ENDBRANCH   1   4
BRANCH   2  10
ATOM     10  C   UNL     1      13.015  47.991  33.923  1.00  0.00     0.035 C 
BRANCH  10  11
ATOM     11  C   UNL     1      11.648  47.349  33.663  1.00  0.00     0.079 C 
BRANCH  11  12
ATOM     12  C   UNL     1      11.726  46.380  32.513  1.00  0.00     0.130 C 
ATOM     13  O   UNL     1      10.695  45.967  32.003  1.00  0.00    -0.300 OA
ATOM     14  C   UNL     1      13.045  45.898  31.984  1.00  0.00     0.087 C 
ENDBRANCH  11  12
ENDBRANCH  10  11
ENDBRANCH   2  10
TORSDOF 6
ENDMDL
MODEL 3
REMARK VINA RESULT:    -4.299     10.894     12.838
REMARK INTER + INTRA:          -6.547
REMARK INTER:                  -5.605
REMARK INTRA:                  -0.942
REMARK UNBOUND:                -0.740
REMARK SMILES CC(=O)CCC=C(C)CCC=C(C)C
REMARK SMILES IDX 7 1 6 2 8 3 9 4 10 5 11 6 13 7 12 8 14 9 5 10 4 11 2 12 3 13
REMARK SMILES IDX 1 14
REMARK H PARENT
REMARK Flexibility Score: inf
ROOT
ATOM      1  C   UNL     1      12.209  51.263  20.131  1.00  0.00    -0.077 C 
ATOM      2  C   UNL     1      11.851  49.998  20.453  1.00  0.00    -0.028 C 
ATOM      3  C   UNL     1      12.558  52.288  21.185  1.00  0.00     0.039 C 
ENDROOT
BRANCH   1   4
ATOM      4  C   UNL     1      12.240  51.669  18.673  1.00  0.00     0.034 C 
BRANCH   4   5
ATOM      5  C   UNL     1      11.313  52.862  18.421  1.00  0.00     0.032 C 
BRANCH   5   6
ATOM      6  C   UNL     1       9.895  52.399  18.189  1.00  0.00    -0.028 C 
ATOM      7  C   UNL     1       7.502  52.114  18.668  1.00  0.00     0.039 C 
ATOM      8  C   UNL     1       8.876  52.600  19.053  1.00  0.00    -0.080 C 
ATOM      9  C   UNL     1       9.080  53.275  20.389  1.00  0.00     0.039 C 
ENDBRANCH   5   6
ENDBRANCH   4   5
ENDBRANCH   1   4
BRANCH   2  10
ATOM     10  C   UNL     1      11.812  49.454  21.860  1.00  0.00     0.035 C 
BRANCH  10  11
ATOM     11  C   UNL     1      10.470  48.774  22.142  1.00  0.00     0.079 C 
BRANCH  11  12
ATOM     12  C   UNL     1      10.681  47.379  22.670  1.00  0.00     0.130 C 
ATOM     13  O   UNL     1      10.115  47.031  23.695  1.00  0.00    -0.300 OA
ATOM     14  C   UNL     1      11.586  46.408  21.970  1.00  0.00     0.087 C 
ENDBRANCH  11  12
ENDBRANCH  10  11
ENDBRANCH   2  10
TORSDOF 6
ENDMDL
MODEL 4
REMARK VINA RESULT:    -4.286     14.839     16.618
REMARK INTER + INTRA:          -6.529
REMARK INTER:                  -5.787
REMARK INTRA:                  -0.742
REMARK UNBOUND:                -0.740
REMARK SMILES CC(=O)CCC=C(C)CCC=C(C)C
REMARK SMILES IDX 7 1 6 2 8 3 9 4 10 5 11 6 13 7 12 8 14 9 5 10 4 11 2 12 3 13
REMARK SMILES IDX 1 14
REMARK H PARENT
REMARK Flexibility Score: inf
ROOT
ATOM      1  C   UNL     1      15.367  52.231  35.060  1.00  0.00    -0.077 C 
ATOM      2  C   UNL     1      16.527  52.250  34.364  1.00  0.00    -0.028 C 
ATOM      3  C   UNL     1      15.304  51.771  36.498  1.00  0.00     0.039 C 
ENDROOT
BRANCH   1   4
ATOM      4  C   UNL     1      14.091  52.664  34.371  1.00  0.00     0.034 C 
BRANCH   4   5
ATOM      5  C   UNL     1      13.753  51.723  33.210  1.00  0.00     0.032 C 
BRANCH   5   6
ATOM      6  C   UNL     1      13.250  50.397  33.725  1.00  0.00    -0.028 C 
ATOM      7  C   UNL     1      12.843  47.973  33.714  1.00  0.00     0.039 C 
ATOM      8  C   UNL     1      13.357  49.228  33.056  1.00  0.00    -0.080 C 
ATOM      9  C   UNL     1      13.955  49.150  31.670  1.00  0.00     0.039 C 
ENDBRANCH   5   6
ENDBRANCH   4   5
ENDBRANCH   1   4
BRANCH   2  10
ATOM     10  C   UNL     1      17.872  51.878  34.938  1.00  0.00     0.035 C 
BRANCH  10  11
ATOM     11  C   UNL     1      18.583  53.112  35.502  1.00  0.00     0.079 C 
BRANCH  11  12
ATOM     12  C   UNL     1      19.022  54.027  34.389  1.00  0.00     0.130 C 
ATOM     13  O   UNL     1      19.938  53.685  33.656  1.00  0.00    -0.300 OA
ATOM     14  C   UNL     1      18.368  55.359  34.167  1.00  0.00     0.087 C 
ENDBRANCH  11  12
ENDBRANCH  10  11
ENDBRANCH   2  10
TORSDOF 6
ENDMDL
MODEL 5
REMARK VINA RESULT:    -4.230     15.657     17.301
REMARK INTER + INTRA:          -6.454
REMARK INTER:                  -5.819
REMARK INTRA:                  -0.635
REMARK UNBOUND:                -0.740
REMARK SMILES CC(=O)CCC=C(C)CCC=C(C)C
REMARK SMILES IDX 7 1 6 2 8 3 9 4 10 5 11 6 13 7 12 8 14 9 5 10 4 11 2 12 3 13
REMARK SMILES IDX 1 14
REMARK H PARENT
REMARK Flexibility Score: inf
ROOT
ATOM      1  C   UNL     1      14.178  51.243  33.661  1.00  0.00    -0.077 C 
ATOM      2  C   UNL     1      13.377  50.211  34.015  1.00  0.00    -0.028 C 
ATOM      3  C   UNL     1      14.804  51.335  32.289  1.00  0.00     0.039 C 
ENDROOT
BRANCH   1   4
ATOM      4  C   UNL     1      14.471  52.327  34.676  1.00  0.00     0.034 C 
BRANCH   4   5
ATOM      5  C   UNL     1      15.616  51.907  35.604  1.00  0.00     0.032 C 
BRANCH   5   6
ATOM      6  C   UNL     1      16.708  52.948  35.611  1.00  0.00    -0.028 C 
ATOM      7  C   UNL     1      18.783  54.055  34.897  1.00  0.00     0.039 C 
ATOM      8  C   UNL     1      17.793  52.923  34.806  1.00  0.00    -0.080 C 
ATOM      9  C   UNL     1      18.045  51.789  33.840  1.00  0.00     0.039 C 
ENDBRANCH   5   6
ENDBRANCH   4   5
ENDBRANCH   1   4
BRANCH   2  10
ATOM     10  C   UNL     1      12.977  49.086  33.093  1.00  0.00     0.035 C 
BRANCH  10  11
ATOM     11  C   UNL     1      12.739  47.795  33.882  1.00  0.00     0.079 C 
BRANCH  11  12
ATOM     12  C   UNL     1      11.468  47.123  33.432  1.00  0.00     0.130 C 
ATOM     13  O   UNL     1      10.484  47.151  34.156  1.00  0.00    -0.300 OA
ATOM     14  C   UNL     1      11.387  46.406  32.116  1.00  0.00     0.087 C 
ENDBRANCH  11  12
ENDBRANCH  10  11
ENDBRANCH   2  10
TORSDOF 6
ENDMDL
MODEL 6
REMARK VINA RESULT:    -4.228      2.116      6.314
REMARK INTER + INTRA:          -6.451
REMARK INTER:                  -5.466
REMARK INTRA:                  -0.985
REMARK UNBOUND:                -0.740
REMARK SMILES CC(=O)CCC=C(C)CCC=C(C)C
REMARK SMILES IDX 7 1 6 2 8 3 9 4 10 5 11 6 13 7 12 8 14 9 5 10 4 11 2 12 3 13
REMARK SMILES IDX 1 14
REMARK H PARENT
REMARK Flexibility Score: inf
ROOT
ATOM      1  C   UNL     1      14.096  61.936  21.419  1.00  0.00    -0.077 C 
ATOM      2  C   UNL     1      13.706  61.787  22.707  1.00  0.00    -0.028 C 
ATOM      3  C   UNL     1      13.100  61.996  20.285  1.00  0.00     0.039 C 
ENDROOT
BRANCH   1   4
ATOM      4  C   UNL     1      15.574  62.026  21.106  1.00  0.00     0.034 C 
BRANCH   4   5
ATOM      5  C   UNL     1      16.001  60.893  20.167  1.00  0.00     0.032 C 
BRANCH   5   6
ATOM      6  C   UNL     1      16.757  59.829  20.924  1.00  0.00    -0.028 C 
ATOM      7  C   UNL     1      17.113  57.666  22.037  1.00  0.00     0.039 C 
ATOM      8  C   UNL     1      16.224  58.652  21.323  1.00  0.00    -0.080 C 
ATOM      9  C   UNL     1      14.770  58.313  21.093  1.00  0.00     0.039 C 
ENDBRANCH   5   6
ENDBRANCH   4   5
ENDBRANCH   1   4
BRANCH   2  10
ATOM     10  C   UNL     1      12.269  61.719  23.160  1.00  0.00     0.035 C 
BRANCH  10  11
ATOM     11  C   UNL     1      12.076  62.488  24.471  1.00  0.00     0.079 C 
BRANCH  11  12
ATOM     12  C   UNL     1      12.119  63.973  24.226  1.00  0.00     0.130 C 
ATOM     13  O   UNL     1      12.940  64.657  24.820  1.00  0.00    -0.300 OA
ATOM     14  C   UNL     1      11.166  64.638  23.277  1.00  0.00     0.087 C 
ENDBRANCH  11  12
ENDBRANCH  10  11
ENDBRANCH   2  10
TORSDOF 6
ENDMDL
MODEL 7
REMARK VINA RESULT:    -4.179     11.025     14.385
REMARK INTER + INTRA:          -6.384
REMARK INTER:                  -5.703
REMARK INTRA:                  -0.682
REMARK UNBOUND:                -0.740
REMARK SMILES CC(=O)CCC=C(C)CCC=C(C)C
REMARK SMILES IDX 7 1 6 2 8 3 9 4 10 5 11 6 13 7 12 8 14 9 5 10 4 11 2 12 3 13
REMARK SMILES IDX 1 14
REMARK H PARENT
REMARK Flexibility Score: inf
ROOT
ATOM      1  C   UNL     1      11.354  48.481  21.613  1.00  0.00    -0.077 C 
ATOM      2  C   UNL     1      11.910  49.214  20.620  1.00  0.00    -0.028 C 
ATOM      3  C   UNL     1      10.506  49.110  22.692  1.00  0.00     0.039 C 
ENDROOT
BRANCH   1   4
ATOM      4  C   UNL     1      11.609  46.989  21.653  1.00  0.00     0.034 C 
BRANCH   4   5
ATOM      5  C   UNL     1      11.620  46.479  23.098  1.00  0.00     0.032 C 
BRANCH   5   6
ATOM      6  C   UNL     1      13.005  46.032  23.496  1.00  0.00    -0.028 C 
ATOM      7  C   UNL     1      15.176  46.145  24.643  1.00  0.00     0.039 C 
ATOM      8  C   UNL     1      13.834  46.737  24.298  1.00  0.00    -0.080 C 
ATOM      9  C   UNL     1      13.460  48.098  24.836  1.00  0.00     0.039 C 
ENDBRANCH   5   6
ENDBRANCH   4   5
ENDBRANCH   1   4
BRANCH   2  10
ATOM     10  C   UNL     1      11.710  50.699  20.442  1.00  0.00     0.035 C 
BRANCH  10  11
ATOM     11  C   UNL     1      11.832  51.090  18.966  1.00  0.00     0.079 C 
BRANCH  11  12
ATOM     12  C   UNL     1      11.001  52.311  18.669  1.00  0.00     0.130 C 
ATOM     13  O   UNL     1       9.952  52.189  18.054  1.00  0.00    -0.300 OA
ATOM     14  C   UNL     1      11.440  53.679  19.100  1.00  0.00     0.087 C 
ENDBRANCH  11  12
ENDBRANCH  10  11
ENDBRANCH   2  10
TORSDOF 6
ENDMDL
MODEL 8
REMARK VINA RESULT:    -4.121     14.403     16.101
REMARK INTER + INTRA:          -6.306
REMARK INTER:                  -5.405
REMARK INTRA:                  -0.901
REMARK UNBOUND:                -0.740
REMARK SMILES CC(=O)CCC=C(C)CCC=C(C)C
REMARK SMILES IDX 7 1 6 2 8 3 9 4 10 5 11 6 13 7 12 8 14 9 5 10 4 11 2 12 3 13
REMARK SMILES IDX 1 14
REMARK H PARENT
REMARK Flexibility Score: inf
ROOT
ATOM      1  C   UNL     1      16.847  52.199  34.237  1.00  0.00    -0.077 C 
ATOM      2  C   UNL     1      16.617  52.219  35.571  1.00  0.00    -0.028 C 
ATOM      3  C   UNL     1      15.748  51.909  33.242  1.00  0.00     0.039 C 
ENDROOT
BRANCH   1   4
ATOM      4  C   UNL     1      18.250  52.454  33.730  1.00  0.00     0.034 C 
BRANCH   4   5
ATOM      5  C   UNL     1      18.967  53.483  34.611  1.00  0.00     0.032 C 
BRANCH   5   6
ATOM      6  C   UNL     1      19.633  54.539  33.764  1.00  0.00    -0.028 C 
ATOM      7  C   UNL     1      20.052  56.792  32.873  1.00  0.00     0.039 C 
ATOM      8  C   UNL     1      19.267  55.841  33.740  1.00  0.00    -0.080 C 
ATOM      9  C   UNL     1      18.092  56.357  34.537  1.00  0.00     0.039 C 
ENDBRANCH   5   6
ENDBRANCH   4   5
ENDBRANCH   1   4
BRANCH   2  10
ATOM     10  C   UNL     1      15.264  52.015  36.207  1.00  0.00     0.035 C 
BRANCH  10  11
ATOM     11  C   UNL     1      14.842  53.258  36.997  1.00  0.00     0.079 C 
BRANCH  11  12
ATOM     12  C   UNL     1      14.445  54.371  36.063  1.00  0.00     0.130 C 
ATOM     13  O   UNL     1      15.119  55.389  36.020  1.00  0.00    -0.300 OA
ATOM     14  C   UNL     1      13.228  54.264  35.192  1.00  0.00     0.087 C 
ENDBRANCH  11  12
ENDBRANCH  10  11
ENDBRANCH   2  10
TORSDOF 6
ENDMDL
MODEL 9
REMARK VINA RESULT:    -4.085     14.546     16.012
REMARK INTER + INTRA:          -6.257
REMARK INTER:                  -5.179
REMARK INTRA:                  -1.078
REMARK UNBOUND:                -0.740
REMARK SMILES CC(=O)CCC=C(C)CCC=C(C)C
REMARK SMILES IDX 7 1 6 2 8 3 9 4 10 5 11 6 13 7 12 8 14 9 5 10 4 11 2 12 3 13
REMARK SMILES IDX 1 14
REMARK H PARENT
REMARK Flexibility Score: inf
ROOT
ATOM      1  C   UNL     1      18.466  52.948  34.012  1.00  0.00    -0.077 C 
ATOM      2  C   UNL     1      17.826  52.725  35.183  1.00  0.00    -0.028 C 
ATOM      3  C   UNL     1      18.006  52.320  32.717  1.00  0.00     0.039 C 
ENDROOT
BRANCH   1   4
ATOM      4  C   UNL     1      19.692  53.836  34.003  1.00  0.00     0.034 C 
BRANCH   4   5
ATOM      5  C   UNL     1      19.336  55.250  33.532  1.00  0.00     0.032 C 
BRANCH   5   6
ATOM      6  C   UNL     1      18.491  55.959  34.561  1.00  0.00    -0.028 C 
ATOM      7  C   UNL     1      16.447  56.903  35.548  1.00  0.00     0.039 C 
ATOM      8  C   UNL     1      17.172  56.220  34.417  1.00  0.00    -0.080 C 
ATOM      9  C   UNL     1      16.420  55.867  33.156  1.00  0.00     0.039 C 
ENDBRANCH   5   6
ENDBRANCH   4   5
ENDBRANCH   1   4
BRANCH   2  10
ATOM     10  C   UNL     1      16.576  51.891  35.327  1.00  0.00     0.035 C 
BRANCH  10  11
ATOM     11  C   UNL     1      15.325  52.772  35.261  1.00  0.00     0.079 C 
BRANCH  11  12
ATOM     12  C   UNL     1      14.847  53.120  36.646  1.00  0.00     0.130 C 
ATOM     13  O   UNL     1      14.173  54.126  36.815  1.00  0.00    -0.300 OA
ATOM     14  C   UNL     1      15.192  52.266  37.830  1.00  0.00     0.087 C 
ENDBRANCH  11  12
ENDBRANCH  10  11
ENDBRANCH   2  10
TORSDOF 6
ENDMDL
