MODEL 1
REMARK VINA RESULT:    -4.805      0.000      0.000
REMARK INTER + INTRA:          -4.945
REMARK INTER:                  -4.945
REMARK INTRA:                   0.000
REMARK UNBOUND:                 0.000
REMARK SMILES Nc1ncnc2nc[nH]c12
REMARK SMILES IDX 8 1 7 2 6 3 5 4 4 5 3 6 2 7 10 8 9 9 1 11
REMARK H PARENT 9 10 1 12 1 13
REMARK Flexibility Score: inf
ROOT
ATOM      1  C   UNL     1      14.390  34.599  32.812  1.00  0.00     0.199 A 
ATOM      2  N   UNL     1      13.625  34.568  33.939  1.00  0.00    -0.217 NA
ATOM      3  C   UNL     1      14.511  34.188  34.874  1.00  0.00     0.182 A 
ATOM      4  N   UNL     1      14.263  34.000  36.192  1.00  0.00    -0.215 NA
ATOM      5  C   UNL     1      15.299  33.609  36.995  1.00  0.00     0.226 A 
ATOM      6  N   UNL     1      16.552  33.416  36.470  1.00  0.00    -0.217 NA
ATOM      7  C   UNL     1      16.803  33.605  35.140  1.00  0.00     0.152 A 
ATOM      8  C   UNL     1      15.738  34.002  34.337  1.00  0.00     0.127 A 
ATOM      9  N   UNL     1      15.687  34.259  33.024  1.00  0.00    -0.340 N 
ATOM     10  H   UNL     1      16.455  34.211  32.319  1.00  0.00     0.168 HD
ENDROOT
BRANCH   7  11
ATOM     11  N   UNL     1      18.116  33.397  34.616  1.00  0.00    -0.382 N 
ATOM     12  H   UNL     1      18.594  34.161  34.088  1.00  0.00     0.158 HD
ATOM     13  H   UNL     1      18.617  32.492  34.748  1.00  0.00     0.158 HD
ENDBRANCH   7  11
TORSDOF 1
ENDMDL
MODEL 2
REMARK VINA RESULT:    -4.652      0.791      2.438
REMARK INTER + INTRA:          -4.788
REMARK INTER:                  -4.788
REMARK INTRA:                   0.000
REMARK UNBOUND:                 0.000
REMARK SMILES Nc1ncnc2nc[nH]c12
REMARK SMILES IDX 8 1 7 2 6 3 5 4 4 5 3 6 2 7 10 8 9 9 1 11
REMARK H PARENT 9 10 1 12 1 13
REMARK Flexibility Score: inf
ROOT
ATOM      1  C   UNL     1      13.899  34.747  32.852  1.00  0.00     0.199 A 
ATOM      2  N   UNL     1      15.151  34.391  32.452  1.00  0.00    -0.217 NA
ATOM      3  C   UNL     1      15.728  34.027  33.609  1.00  0.00     0.182 A 
ATOM      4  N   UNL     1      16.996  33.582  33.774  1.00  0.00    -0.215 NA
ATOM      5  C   UNL     1      17.408  33.257  35.037  1.00  0.00     0.226 A 
ATOM      6  N   UNL     1      16.550  33.384  36.102  1.00  0.00    -0.217 NA
ATOM      7  C   UNL     1      15.271  33.833  35.937  1.00  0.00     0.152 A 
ATOM      8  C   UNL     1      14.868  34.159  34.645  1.00  0.00     0.127 A 
ATOM      9  N   UNL     1      13.696  34.616  34.188  1.00  0.00    -0.340 N 
ATOM     10  H   UNL     1      12.824  34.826  34.722  1.00  0.00     0.168 HD
ENDROOT
BRANCH   7  11
ATOM     11  N   UNL     1      14.397  33.956  37.060  1.00  0.00    -0.382 N 
ATOM     12  H   UNL     1      13.421  33.589  37.005  1.00  0.00     0.158 HD
ATOM     13  H   UNL     1      14.711  34.410  37.946  1.00  0.00     0.158 HD
ENDBRANCH   7  11
TORSDOF 1
ENDMDL
MODEL 3
REMARK VINA RESULT:    -4.492      1.241      2.729
REMARK INTER + INTRA:          -4.623
REMARK INTER:                  -4.623
REMARK INTRA:                   0.000
REMARK UNBOUND:                 0.000
REMARK SMILES Nc1ncnc2nc[nH]c12
REMARK SMILES IDX 8 1 7 2 6 3 5 4 4 5 3 6 2 7 10 8 9 9 1 11
REMARK H PARENT 9 10 1 12 1 13
REMARK Flexibility Score: inf
ROOT
ATOM      1  C   UNL     1      13.969  34.739  36.615  1.00  0.00     0.199 A 
ATOM      2  N   UNL     1      14.711  33.786  37.243  1.00  0.00    -0.217 NA
ATOM      3  C   UNL     1      15.515  33.354  36.258  1.00  0.00     0.182 A 
ATOM      4  N   UNL     1      16.463  32.391  36.351  1.00  0.00    -0.215 NA
ATOM      5  C   UNL     1      17.187  32.086  35.232  1.00  0.00     0.226 A 
ATOM      6  N   UNL     1      16.950  32.743  34.050  1.00  0.00    -0.217 NA
ATOM      7  C   UNL     1      15.994  33.715  33.954  1.00  0.00     0.152 A 
ATOM      8  C   UNL     1      15.267  34.013  35.102  1.00  0.00     0.127 A 
ATOM      9  N   UNL     1      14.286  34.902  35.305  1.00  0.00    -0.340 N 
ATOM     10  H   UNL     1      13.857  35.567  34.625  1.00  0.00     0.168 HD
ENDROOT
BRANCH   7  11
ATOM     11  N   UNL     1      15.767  34.386  32.713  1.00  0.00    -0.382 N 
ATOM     12  H   UNL     1      15.084  33.995  32.026  1.00  0.00     0.158 HD
ATOM     13  H   UNL     1      16.272  35.266  32.471  1.00  0.00     0.158 HD
ENDBRANCH   7  11
TORSDOF 1
ENDMDL
MODEL 4
REMARK VINA RESULT:    -4.274      0.917      2.828
REMARK INTER + INTRA:          -4.399
REMARK INTER:                  -4.399
REMARK INTRA:                   0.000
REMARK UNBOUND:                 0.000
REMARK SMILES Nc1ncnc2nc[nH]c12
REMARK SMILES IDX 8 1 7 2 6 3 5 4 4 5 3 6 2 7 10 8 9 9 1 11
REMARK H PARENT 9 10 1 12 1 13
REMARK Flexibility Score: inf
ROOT
ATOM      1  C   UNL     1      17.376  33.426  33.767  1.00  0.00     0.199 A 
ATOM      2  N   UNL     1      17.580  33.142  35.083  1.00  0.00    -0.217 NA
ATOM      3  C   UNL     1      16.421  33.526  35.641  1.00  0.00     0.182 A 
ATOM      4  N   UNL     1      16.094  33.457  36.953  1.00  0.00    -0.215 NA
ATOM      5  C   UNL     1      14.857  33.900  37.335  1.00  0.00     0.226 A 
ATOM      6  N   UNL     1      13.979  34.398  36.405  1.00  0.00    -0.217 NA
ATOM      7  C   UNL     1      14.307  34.468  35.080  1.00  0.00     0.152 A 
ATOM      8  C   UNL     1      15.570  34.014  34.709  1.00  0.00     0.127 A 
ATOM      9  N   UNL     1      16.156  33.960  33.507  1.00  0.00    -0.340 N 
ATOM     10  H   UNL     1      15.776  34.256  32.581  1.00  0.00     0.168 HD
ENDROOT
BRANCH   7  11
ATOM     11  N   UNL     1      13.376  34.990  34.131  1.00  0.00    -0.382 N 
ATOM     12  H   UNL     1      12.801  35.828  34.371  1.00  0.00     0.158 HD
ATOM     13  H   UNL     1      13.253  34.550  33.193  1.00  0.00     0.158 HD
ENDBRANCH   7  11
TORSDOF 1
ENDMDL
MODEL 5
REMARK VINA RESULT:    -4.138      0.993      3.785
REMARK INTER + INTRA:          -4.259
REMARK INTER:                  -4.259
REMARK INTRA:                   0.000
REMARK UNBOUND:                 0.000
REMARK SMILES Nc1ncnc2nc[nH]c12
REMARK SMILES IDX 8 1 7 2 6 3 5 4 4 5 3 6 2 7 10 8 9 9 1 11
REMARK H PARENT 9 10 1 12 1 13
REMARK Flexibility Score: inf
ROOT
ATOM      1  C   UNL     1      15.755  33.045  36.817  1.00  0.00     0.199 A 
ATOM      2  N   UNL     1      16.830  33.011  35.981  1.00  0.00    -0.217 NA
ATOM      3  C   UNL     1      16.323  33.515  34.844  1.00  0.00     0.182 A 
ATOM      4  N   UNL     1      16.984  33.701  33.677  1.00  0.00    -0.215 NA
ATOM      5  C   UNL     1      16.295  34.230  32.621  1.00  0.00     0.226 A 
ATOM      6  N   UNL     1      14.969  34.559  32.751  1.00  0.00    -0.217 NA
ATOM      7  C   UNL     1      14.300  34.371  33.927  1.00  0.00     0.152 A 
ATOM      8  C   UNL     1      15.016  33.832  34.992  1.00  0.00     0.127 A 
ATOM      9  N   UNL     1      14.632  33.542  36.241  1.00  0.00    -0.340 N 
ATOM     10  H   UNL     1      13.693  33.665  36.680  1.00  0.00     0.168 HD
ENDROOT
BRANCH   7  11
ATOM     11  N   UNL     1      12.919  34.722  34.038  1.00  0.00    -0.382 N 
ATOM     12  H   UNL     1      12.527  35.491  33.450  1.00  0.00     0.158 HD
ATOM     13  H   UNL     1      12.284  34.225  34.700  1.00  0.00     0.158 HD
ENDBRANCH   7  11
TORSDOF 1
ENDMDL
MODEL 6
REMARK VINA RESULT:    -4.061      0.983      3.413
REMARK INTER + INTRA:          -4.180
REMARK INTER:                  -4.180
REMARK INTRA:                   0.000
REMARK UNBOUND:                 0.000
REMARK SMILES Nc1ncnc2nc[nH]c12
REMARK SMILES IDX 8 1 7 2 6 3 5 4 4 5 3 6 2 7 10 8 9 9 1 11
REMARK H PARENT 9 10 1 12 1 13
REMARK Flexibility Score: inf
ROOT
ATOM      1  C   UNL     1      17.591  33.039  35.063  1.00  0.00     0.199 A 
ATOM      2  N   UNL     1      17.158  33.312  33.801  1.00  0.00    -0.217 NA
ATOM      3  C   UNL     1      15.924  33.795  34.022  1.00  0.00     0.182 A 
ATOM      4  N   UNL     1      15.045  34.224  33.086  1.00  0.00    -0.215 NA
ATOM      5  C   UNL     1      13.828  34.685  33.506  1.00  0.00     0.226 A 
ATOM      6  N   UNL     1      13.516  34.708  34.842  1.00  0.00    -0.217 NA
ATOM      7  C   UNL     1      14.402  34.276  35.788  1.00  0.00     0.152 A 
ATOM      8  C   UNL     1      15.636  33.810  35.344  1.00  0.00     0.127 A 
ATOM      9  N   UNL     1      16.684  33.333  36.028  1.00  0.00    -0.340 N 
ATOM     10  H   UNL     1      16.789  33.211  37.059  1.00  0.00     0.168 HD
ENDROOT
BRANCH   7  11
ATOM     11  N   UNL     1      14.055  34.311  37.174  1.00  0.00    -0.382 N 
ATOM     12  H   UNL     1      13.403  33.597  37.566  1.00  0.00     0.158 HD
ATOM     13  H   UNL     1      14.440  35.041  37.812  1.00  0.00     0.158 HD
ENDBRANCH   7  11
TORSDOF 1
ENDMDL
MODEL 7
REMARK VINA RESULT:    -4.046      0.824      2.759
REMARK INTER + INTRA:          -4.165
REMARK INTER:                  -4.165
REMARK INTRA:                   0.000
REMARK UNBOUND:                 0.000
REMARK SMILES Nc1ncnc2nc[nH]c12
REMARK SMILES IDX 8 1 7 2 6 3 5 4 4 5 3 6 2 7 10 8 9 9 1 11
REMARK H PARENT 9 10 1 12 1 13
REMARK Flexibility Score: inf
ROOT
ATOM      1  C   UNL     1      14.795  33.872  37.120  1.00  0.00     0.199 A 
ATOM      2  N   UNL     1      14.005  34.252  36.078  1.00  0.00    -0.217 NA
ATOM      3  C   UNL     1      14.843  34.150  35.033  1.00  0.00     0.182 A 
ATOM      4  N   UNL     1      14.555  34.417  33.737  1.00  0.00    -0.215 NA
ATOM      5  C   UNL     1      15.545  34.253  32.808  1.00  0.00     0.226 A 
ATOM      6  N   UNL     1      16.793  33.829  33.189  1.00  0.00    -0.217 NA
ATOM      7  C   UNL     1      17.085  33.558  34.496  1.00  0.00     0.152 A 
ATOM      8  C   UNL     1      16.067  33.731  35.429  1.00  0.00     0.127 A 
ATOM      9  N   UNL     1      16.061  33.546  36.755  1.00  0.00    -0.340 N 
ATOM     10  H   UNL     1      16.839  33.228  37.373  1.00  0.00     0.168 HD
ENDROOT
BRANCH   7  11
ATOM     11  N   UNL     1      18.392  33.117  34.868  1.00  0.00    -0.382 N 
ATOM     12  H   UNL     1      19.143  33.816  35.065  1.00  0.00     0.158 HD
ATOM     13  H   UNL     1      18.620  32.103  34.950  1.00  0.00     0.158 HD
ENDBRANCH   7  11
TORSDOF 1
ENDMDL
MODEL 8
REMARK VINA RESULT:    -3.999      3.938      5.251
REMARK INTER + INTRA:          -4.116
REMARK INTER:                  -4.116
REMARK INTRA:                   0.000
REMARK UNBOUND:                 0.000
REMARK SMILES Nc1ncnc2nc[nH]c12
REMARK SMILES IDX 8 1 7 2 6 3 5 4 4 5 3 6 2 7 10 8 9 9 1 11
REMARK H PARENT 9 10 1 12 1 13
REMARK Flexibility Score: inf
ROOT
ATOM      1  C   UNL     1      16.428  32.383  36.181  1.00  0.00     0.199 A 
ATOM      2  N   UNL     1      17.019  31.671  35.182  1.00  0.00    -0.217 NA
ATOM      3  C   UNL     1      17.191  30.467  35.753  1.00  0.00     0.182 A 
ATOM      4  N   UNL     1      17.747  29.374  35.180  1.00  0.00    -0.215 NA
ATOM      5  C   UNL     1      17.836  28.229  35.924  1.00  0.00     0.226 A 
ATOM      6  N   UNL     1      17.372  28.201  37.215  1.00  0.00    -0.217 NA
ATOM      7  C   UNL     1      16.810  29.304  37.794  1.00  0.00     0.152 A 
ATOM      8  C   UNL     1      16.727  30.460  37.024  1.00  0.00     0.127 A 
ATOM      9  N   UNL     1      16.235  31.669  37.319  1.00  0.00    -0.340 N 
ATOM     10  H   UNL     1      15.804  31.999  38.211  1.00  0.00     0.168 HD
ENDROOT
BRANCH   7  11
ATOM     11  N   UNL     1      16.333  29.250  39.140  1.00  0.00    -0.382 N 
ATOM     12  H   UNL     1      15.674  28.494  39.430  1.00  0.00     0.158 HD
ATOM     13  H   UNL     1      16.629  29.955  39.849  1.00  0.00     0.158 HD
ENDBRANCH   7  11
TORSDOF 1
ENDMDL
MODEL 9
REMARK VINA RESULT:    -3.902      9.092     10.388
REMARK INTER + INTRA:          -4.016
REMARK INTER:                  -4.016
REMARK INTRA:                   0.000
REMARK UNBOUND:                 0.000
REMARK SMILES Nc1ncnc2nc[nH]c12
REMARK SMILES IDX 8 1 7 2 6 3 5 4 4 5 3 6 2 7 10 8 9 9 1 11
REMARK H PARENT 9 10 1 12 1 13
REMARK Flexibility Score: inf
ROOT
ATOM      1  C   UNL     1      20.325  34.798  24.616  1.00  0.00     0.199 A 
ATOM      2  N   UNL     1      21.089  33.673  24.548  1.00  0.00    -0.217 NA
ATOM      3  C   UNL     1      21.573  33.582  25.798  1.00  0.00     0.182 A 
ATOM      4  N   UNL     1      22.404  32.625  26.275  1.00  0.00    -0.215 NA
ATOM      5  C   UNL     1      22.792  32.700  27.584  1.00  0.00     0.226 A 
ATOM      6  N   UNL     1      22.346  33.722  28.385  1.00  0.00    -0.217 NA
ATOM      7  C   UNL     1      21.507  34.688  27.905  1.00  0.00     0.152 A 
ATOM      8  C   UNL     1      21.123  34.597  26.570  1.00  0.00     0.127 A 
ATOM      9  N   UNL     1      20.324  35.385  25.839  1.00  0.00    -0.340 N 
ATOM     10  H   UNL     1      19.816  36.249  26.129  1.00  0.00     0.168 HD
ENDROOT
BRANCH   7  11
ATOM     11  N   UNL     1      21.055  35.742  28.758  1.00  0.00    -0.382 N 
ATOM     12  H   UNL     1      20.039  35.975  28.805  1.00  0.00     0.158 HD
ATOM     13  H   UNL     1      21.722  36.292  29.341  1.00  0.00     0.158 HD
ENDBRANCH   7  11
TORSDOF 1
ENDMDL
