MODEL 1
REMARK VINA RESULT:    -3.267      0.000      0.000
REMARK INTER + INTRA:          -3.827
REMARK INTER:                  -3.554
REMARK INTRA:                  -0.273
REMARK UNBOUND:                -0.273
REMARK SMILES CC(C)c1cc2c(cc1O)[C@@]1(C)CCCC(C)(C)[C@H]1CC2=O
REMARK SMILES IDX 4 1 9 2 8 3 7 4 6 5 5 6 21 7 22 8 20 9 19 10 11 11 13 12
REMARK SMILES IDX 14 13 15 14 16 15 17 16 18 17 12 18 2 19 1 20 3 21 10 22
REMARK H PARENT 10 23
REMARK Flexibility Score: inf
ROOT
ATOM      1  C   UNL     1     123.457  84.441  56.189  1.00  0.00    -0.003 A 
ATOM      2  C   UNL     1     123.287  84.975  57.481  1.00  0.00     0.119 A 
ATOM      3  C   UNL     1     122.058  85.528  57.858  1.00  0.00     0.051 A 
ATOM      4  C   UNL     1     120.973  85.596  56.956  1.00  0.00    -0.027 A 
ATOM      5  C   UNL     1     121.131  85.014  55.675  1.00  0.00     0.022 A 
ATOM      6  C   UNL     1     122.368  84.458  55.304  1.00  0.00     0.020 A 
ATOM      7  C   UNL     1     120.009  85.011  54.704  1.00  0.00     0.163 C 
ATOM      8  O   UNL     1     120.122  84.400  53.607  1.00  0.00    -0.294 OA
ATOM      9  C   UNL     1     118.710  85.696  55.007  1.00  0.00     0.086 C 
ATOM     10  C   UNL     1     118.827  86.742  56.146  1.00  0.00     0.013 C 
ATOM     11  C   UNL     1     119.598  86.139  57.384  1.00  0.00    -0.003 C 
ATOM     12  C   UNL     1     119.656  87.227  58.496  1.00  0.00     0.012 C 
ATOM     13  C   UNL     1     120.316  88.516  58.016  1.00  0.00     0.001 C 
ATOM     14  C   UNL     1     119.494  89.124  56.881  1.00  0.00     0.007 C 
ATOM     15  C   UNL     1     119.333  88.172  55.663  1.00  0.00    -0.031 C 
ATOM     16  C   UNL     1     118.275  88.821  54.732  1.00  0.00     0.011 C 
ATOM     17  C   UNL     1     120.668  88.129  54.876  1.00  0.00     0.011 C 
ATOM     18  C   UNL     1     118.811  84.944  57.978  1.00  0.00     0.017 C 
ENDROOT
BRANCH   1  19
ATOM     19  C   UNL     1     124.775  83.832  55.723  1.00  0.00     0.017 C 
ATOM     20  C   UNL     1     125.125  84.257  54.291  1.00  0.00     0.012 C 
ATOM     21  C   UNL     1     124.783  82.306  55.877  1.00  0.00     0.012 C 
ENDBRANCH   1  19
BRANCH   2  22
ATOM     22  O   UNL     1     124.335  84.953  58.401  1.00  0.00    -0.508 OA
ATOM     23  H   UNL     1     125.253  84.597  58.161  1.00  0.00     0.293 HD
ENDBRANCH   2  22
TORSDOF 2
ENDMDL
MODEL 2
REMARK VINA RESULT:    -3.084     10.429     13.183
REMARK INTER + INTRA:          -3.628
REMARK INTER:                  -3.351
REMARK INTRA:                  -0.276
REMARK UNBOUND:                -0.273
REMARK SMILES CC(C)c1cc2c(cc1O)[C@@]1(C)CCCC(C)(C)[C@H]1CC2=O
REMARK SMILES IDX 4 1 9 2 8 3 7 4 6 5 5 6 21 7 22 8 20 9 19 10 11 11 13 12
REMARK SMILES IDX 14 13 15 14 16 15 17 16 18 17 12 18 2 19 1 20 3 21 10 22
REMARK H PARENT 10 23
REMARK Flexibility Score: inf
ROOT
ATOM      1  C   UNL     1     106.659  83.738  56.921  1.00  0.00    -0.003 A 
ATOM      2  C   UNL     1     106.523  84.841  57.788  1.00  0.00     0.119 A 
ATOM      3  C   UNL     1     107.436  85.899  57.728  1.00  0.00     0.051 A 
ATOM      4  C   UNL     1     108.527  85.881  56.832  1.00  0.00    -0.027 A 
ATOM      5  C   UNL     1     108.633  84.796  55.929  1.00  0.00     0.022 A 
ATOM      6  C   UNL     1     107.711  83.737  55.993  1.00  0.00     0.020 A 
ATOM      7  C   UNL     1     109.731  84.749  54.931  1.00  0.00     0.163 C 
ATOM      8  O   UNL     1     109.759  83.835  54.063  1.00  0.00    -0.294 OA
ATOM      9  C   UNL     1     110.807  85.792  54.902  1.00  0.00     0.086 C 
ATOM     10  C   UNL     1     110.917  86.587  56.229  1.00  0.00     0.013 C 
ATOM     11  C   UNL     1     109.496  87.072  56.712  1.00  0.00    -0.003 C 
ATOM     12  C   UNL     1     109.681  87.883  58.028  1.00  0.00     0.012 C 
ATOM     13  C   UNL     1     110.382  87.076  59.115  1.00  0.00     0.001 C 
ATOM     14  C   UNL     1     111.791  86.703  58.654  1.00  0.00     0.007 C 
ATOM     15  C   UNL     1     111.804  85.872  57.341  1.00  0.00    -0.031 C 
ATOM     16  C   UNL     1     113.283  85.807  56.876  1.00  0.00     0.011 C 
ATOM     17  C   UNL     1     111.360  84.421  57.655  1.00  0.00     0.011 C 
ATOM     18  C   UNL     1     108.879  88.047  55.678  1.00  0.00     0.017 C 
ENDROOT
BRANCH   1  19
ATOM     19  C   UNL     1     105.698  82.555  56.947  1.00  0.00     0.017 C 
ATOM     20  C   UNL     1     106.309  81.339  57.655  1.00  0.00     0.012 C 
ATOM     21  C   UNL     1     105.198  82.197  55.541  1.00  0.00     0.012 C 
ENDBRANCH   1  19
BRANCH   2  22
ATOM     22  O   UNL     1     105.476  84.895  58.707  1.00  0.00    -0.508 OA
ATOM     23  H   UNL     1     104.837  84.120  58.839  1.00  0.00     0.293 HD
ENDBRANCH   2  22
TORSDOF 2
ENDMDL
MODEL 3
REMARK VINA RESULT:    -3.082      1.507      1.954
REMARK INTER + INTRA:          -3.626
REMARK INTER:                  -3.348
REMARK INTRA:                  -0.278
REMARK UNBOUND:                -0.273
REMARK SMILES CC(C)c1cc2c(cc1O)[C@@]1(C)CCCC(C)(C)[C@H]1CC2=O
REMARK SMILES IDX 4 1 9 2 8 3 7 4 6 5 5 6 21 7 22 8 20 9 19 10 11 11 13 12
REMARK SMILES IDX 14 13 15 14 16 15 17 16 18 17 12 18 2 19 1 20 3 21 10 22
REMARK H PARENT 10 23
REMARK Flexibility Score: inf
ROOT
ATOM      1  C   UNL     1     122.507  83.615  57.375  1.00  0.00    -0.003 A 
ATOM      2  C   UNL     1     123.046  84.845  57.801  1.00  0.00     0.119 A 
ATOM      3  C   UNL     1     122.230  85.979  57.885  1.00  0.00     0.051 A 
ATOM      4  C   UNL     1     120.867  85.935  57.520  1.00  0.00    -0.027 A 
ATOM      5  C   UNL     1     120.317  84.687  57.140  1.00  0.00     0.022 A 
ATOM      6  C   UNL     1     121.141  83.552  57.060  1.00  0.00     0.020 A 
ATOM      7  C   UNL     1     118.878  84.570  56.794  1.00  0.00     0.163 C 
ATOM      8  O   UNL     1     118.373  83.439  56.559  1.00  0.00    -0.294 OA
ATOM      9  C   UNL     1     117.984  85.772  56.749  1.00  0.00     0.086 C 
ATOM     10  C   UNL     1     118.767  87.106  56.630  1.00  0.00     0.013 C 
ATOM     11  C   UNL     1     119.947  87.159  57.675  1.00  0.00    -0.003 C 
ATOM     12  C   UNL     1     120.671  88.529  57.521  1.00  0.00     0.012 C 
ATOM     13  C   UNL     1     121.186  88.759  56.104  1.00  0.00     0.001 C 
ATOM     14  C   UNL     1     120.011  88.796  55.128  1.00  0.00     0.007 C 
ATOM     15  C   UNL     1     119.166  87.492  55.137  1.00  0.00    -0.031 C 
ATOM     16  C   UNL     1     117.888  87.789  54.308  1.00  0.00     0.011 C 
ATOM     17  C   UNL     1     119.945  86.379  54.391  1.00  0.00     0.011 C 
ATOM     18  C   UNL     1     119.388  87.117  59.120  1.00  0.00     0.017 C 
ENDROOT
BRANCH   1  19
ATOM     19  C   UNL     1     123.350  82.351  57.258  1.00  0.00     0.017 C 
ATOM     20  C   UNL     1     123.986  82.215  55.869  1.00  0.00     0.012 C 
ATOM     21  C   UNL     1     122.552  81.097  57.639  1.00  0.00     0.012 C 
ENDBRANCH   1  19
BRANCH   2  22
ATOM     22  O   UNL     1     124.392  84.947  58.151  1.00  0.00    -0.508 OA
ATOM     23  H   UNL     1     125.103  85.204  57.476  1.00  0.00     0.293 HD
ENDBRANCH   2  22
TORSDOF 2
ENDMDL
MODEL 4
REMARK VINA RESULT:    -3.082     10.497     13.470
REMARK INTER + INTRA:          -3.625
REMARK INTER:                  -3.348
REMARK INTRA:                  -0.277
REMARK UNBOUND:                -0.273
REMARK SMILES CC(C)c1cc2c(cc1O)[C@@]1(C)CCCC(C)(C)[C@H]1CC2=O
REMARK SMILES IDX 4 1 9 2 8 3 7 4 6 5 5 6 21 7 22 8 20 9 19 10 11 11 13 12
REMARK SMILES IDX 14 13 15 14 16 15 17 16 18 17 12 18 2 19 1 20 3 21 10 22
REMARK H PARENT 10 23
REMARK Flexibility Score: inf
ROOT
ATOM      1  C   UNL     1     106.483  84.331  56.690  1.00  0.00    -0.003 A 
ATOM      2  C   UNL     1     106.194  85.355  55.766  1.00  0.00     0.119 A 
ATOM      3  C   UNL     1     107.234  86.087  55.182  1.00  0.00     0.051 A 
ATOM      4  C   UNL     1     108.584  85.849  55.518  1.00  0.00    -0.027 A 
ATOM      5  C   UNL     1     108.873  84.787  56.409  1.00  0.00     0.022 A 
ATOM      6  C   UNL     1     107.825  84.054  56.991  1.00  0.00     0.020 A 
ATOM      7  C   UNL     1     110.277  84.458  56.760  1.00  0.00     0.163 C 
ATOM      8  O   UNL     1     110.532  83.447  57.469  1.00  0.00    -0.294 OA
ATOM      9  C   UNL     1     111.423  85.285  56.260  1.00  0.00     0.086 C 
ATOM     10  C   UNL     1     110.990  86.695  55.781  1.00  0.00     0.013 C 
ATOM     11  C   UNL     1     109.736  86.603  54.829  1.00  0.00    -0.003 C 
ATOM     12  C   UNL     1     109.372  88.043  54.365  1.00  0.00     0.012 C 
ATOM     13  C   UNL     1     109.101  88.981  55.536  1.00  0.00     0.001 C 
ATOM     14  C   UNL     1     110.363  89.124  56.386  1.00  0.00     0.007 C 
ATOM     15  C   UNL     1     110.877  87.770  56.949  1.00  0.00    -0.031 C 
ATOM     16  C   UNL     1     112.280  88.047  57.551  1.00  0.00     0.011 C 
ATOM     17  C   UNL     1     109.959  87.328  58.118  1.00  0.00     0.011 C 
ATOM     18  C   UNL     1     110.088  85.804  53.549  1.00  0.00     0.017 C 
ENDROOT
BRANCH   1  19
ATOM     19  C   UNL     1     105.391  83.506  57.362  1.00  0.00     0.017 C 
ATOM     20  C   UNL     1     105.138  83.962  58.805  1.00  0.00     0.012 C 
ATOM     21  C   UNL     1     105.687  82.003  57.290  1.00  0.00     0.012 C 
ENDBRANCH   1  19
BRANCH   2  22
ATOM     22  O   UNL     1     104.876  85.646  55.418  1.00  0.00    -0.508 OA
ATOM     23  H   UNL     1     104.262  86.169  56.032  1.00  0.00     0.293 HD
ENDBRANCH   2  22
TORSDOF 2
ENDMDL
MODEL 5
REMARK VINA RESULT:    -2.957      2.124      2.968
REMARK INTER + INTRA:          -3.490
REMARK INTER:                  -3.219
REMARK INTRA:                  -0.271
REMARK UNBOUND:                -0.273
REMARK SMILES CC(C)c1cc2c(cc1O)[C@@]1(C)CCCC(C)(C)[C@H]1CC2=O
REMARK SMILES IDX 4 1 9 2 8 3 7 4 6 5 5 6 21 7 22 8 20 9 19 10 11 11 13 12
REMARK SMILES IDX 14 13 15 14 16 15 17 16 18 17 12 18 2 19 1 20 3 21 10 22
REMARK H PARENT 10 23
REMARK Flexibility Score: inf
ROOT
ATOM      1  C   UNL     1     122.907  87.259  54.252  1.00  0.00    -0.003 A 
ATOM      2  C   UNL     1     123.311  86.622  55.442  1.00  0.00     0.119 A 
ATOM      3  C   UNL     1     122.353  86.097  56.318  1.00  0.00     0.051 A 
ATOM      4  C   UNL     1     120.971  86.216  56.056  1.00  0.00    -0.027 A 
ATOM      5  C   UNL     1     120.570  86.812  54.836  1.00  0.00     0.022 A 
ATOM      6  C   UNL     1     121.537  87.335  53.960  1.00  0.00     0.020 A 
ATOM      7  C   UNL     1     119.133  86.918  54.484  1.00  0.00     0.163 C 
ATOM      8  O   UNL     1     118.787  87.353  53.353  1.00  0.00    -0.294 OA
ATOM      9  C   UNL     1     118.060  86.484  55.438  1.00  0.00     0.086 C 
ATOM     10  C   UNL     1     118.557  86.379  56.903  1.00  0.00     0.013 C 
ATOM     11  C   UNL     1     119.915  85.581  56.979  1.00  0.00    -0.003 C 
ATOM     12  C   UNL     1     120.342  85.490  58.474  1.00  0.00     0.012 C 
ATOM     13  C   UNL     1     120.477  86.862  59.125  1.00  0.00     0.001 C 
ATOM     14  C   UNL     1     119.123  87.571  59.121  1.00  0.00     0.007 C 
ATOM     15  C   UNL     1     118.537  87.761  57.694  1.00  0.00    -0.031 C 
ATOM     16  C   UNL     1     117.074  88.243  57.880  1.00  0.00     0.011 C 
ATOM     17  C   UNL     1     119.306  88.901  56.979  1.00  0.00     0.011 C 
ATOM     18  C   UNL     1     119.712  84.125  56.490  1.00  0.00     0.017 C 
ENDROOT
BRANCH   1  19
ATOM     19  C   UNL     1     123.905  87.854  53.265  1.00  0.00     0.017 C 
ATOM     20  C   UNL     1     123.361  89.125  52.600  1.00  0.00     0.012 C 
ATOM     21  C   UNL     1     124.360  86.823  52.224  1.00  0.00     0.012 C 
ENDBRANCH   1  19
BRANCH   2  22
ATOM     22  O   UNL     1     124.663  86.500  55.758  1.00  0.00    -0.508 OA
ATOM     23  H   UNL     1     125.370  87.081  55.322  1.00  0.00     0.293 HD
ENDBRANCH   2  22
TORSDOF 2
ENDMDL
MODEL 6
REMARK VINA RESULT:    -2.908      7.962     10.165
REMARK INTER + INTRA:          -3.436
REMARK INTER:                  -3.162
REMARK INTRA:                  -0.274
REMARK UNBOUND:                -0.273
REMARK SMILES CC(C)c1cc2c(cc1O)[C@@]1(C)CCCC(C)(C)[C@H]1CC2=O
REMARK SMILES IDX 4 1 9 2 8 3 7 4 6 5 5 6 21 7 22 8 20 9 19 10 11 11 13 12
REMARK SMILES IDX 14 13 15 14 16 15 17 16 18 17 12 18 2 19 1 20 3 21 10 22
REMARK H PARENT 10 23
REMARK Flexibility Score: inf
ROOT
ATOM      1  C   UNL     1     114.041  87.177  56.989  1.00  0.00    -0.003 A 
ATOM      2  C   UNL     1     113.497  86.336  57.980  1.00  0.00     0.119 A 
ATOM      3  C   UNL     1     112.215  85.797  57.819  1.00  0.00     0.051 A 
ATOM      4  C   UNL     1     111.424  86.102  56.690  1.00  0.00    -0.027 A 
ATOM      5  C   UNL     1     111.992  86.908  55.673  1.00  0.00     0.022 A 
ATOM      6  C   UNL     1     113.281  87.443  55.840  1.00  0.00     0.020 A 
ATOM      7  C   UNL     1     111.226  87.219  54.441  1.00  0.00     0.163 C 
ATOM      8  O   UNL     1     111.775  87.848  53.496  1.00  0.00    -0.294 OA
ATOM      9  C   UNL     1     109.806  86.772  54.269  1.00  0.00     0.086 C 
ATOM     10  C   UNL     1     109.118  86.404  55.610  1.00  0.00     0.013 C 
ATOM     11  C   UNL     1     110.042  85.460  56.473  1.00  0.00    -0.003 C 
ATOM     12  C   UNL     1     109.285  85.109  57.786  1.00  0.00     0.012 C 
ATOM     13  C   UNL     1     108.882  86.350  58.576  1.00  0.00     0.001 C 
ATOM     14  C   UNL     1     107.913  87.195  57.750  1.00  0.00     0.007 C 
ATOM     15  C   UNL     1     108.507  87.651  56.388  1.00  0.00    -0.031 C 
ATOM     16  C   UNL     1     107.333  88.258  55.576  1.00  0.00     0.011 C 
ATOM     17  C   UNL     1     109.527  88.792  56.638  1.00  0.00     0.011 C 
ATOM     18  C   UNL     1     110.284  84.120  55.733  1.00  0.00     0.017 C 
ENDROOT
BRANCH   1  19
ATOM     19  C   UNL     1     115.428  87.796  57.114  1.00  0.00     0.017 C 
ATOM     20  C   UNL     1     115.394  89.121  57.887  1.00  0.00     0.012 C 
ATOM     21  C   UNL     1     116.106  87.957  55.747  1.00  0.00     0.012 C 
ENDBRANCH   1  19
BRANCH   2  22
ATOM     22  O   UNL     1     114.229  86.023  59.125  1.00  0.00    -0.508 OA
ATOM     23  H   UNL     1     115.153  85.611  59.075  1.00  0.00     0.293 HD
ENDBRANCH   2  22
TORSDOF 2
ENDMDL
MODEL 7
REMARK VINA RESULT:    -2.849      1.964      5.821
REMARK INTER + INTRA:          -3.372
REMARK INTER:                  -3.099
REMARK INTRA:                  -0.273
REMARK UNBOUND:                -0.273
REMARK SMILES CC(C)c1cc2c(cc1O)[C@@]1(C)CCCC(C)(C)[C@H]1CC2=O
REMARK SMILES IDX 4 1 9 2 8 3 7 4 6 5 5 6 21 7 22 8 20 9 19 10 11 11 13 12
REMARK SMILES IDX 14 13 15 14 16 15 17 16 18 17 12 18 2 19 1 20 3 21 10 22
REMARK H PARENT 10 23
REMARK Flexibility Score: inf
ROOT
ATOM      1  C   UNL     1     120.893  86.884  57.000  1.00  0.00    -0.003 A 
ATOM      2  C   UNL     1     122.253  87.072  56.687  1.00  0.00     0.119 A 
ATOM      3  C   UNL     1     123.008  86.011  56.173  1.00  0.00     0.051 A 
ATOM      4  C   UNL     1     122.447  84.730  55.984  1.00  0.00    -0.027 A 
ATOM      5  C   UNL     1     121.067  84.558  56.253  1.00  0.00     0.022 A 
ATOM      6  C   UNL     1     120.314  85.627  56.767  1.00  0.00     0.020 A 
ATOM      7  C   UNL     1     120.412  83.246  56.026  1.00  0.00     0.163 C 
ATOM      8  O   UNL     1     119.164  83.129  56.167  1.00  0.00    -0.294 OA
ATOM      9  C   UNL     1     121.196  82.044  55.593  1.00  0.00     0.086 C 
ATOM     10  C   UNL     1     122.717  82.182  55.863  1.00  0.00     0.013 C 
ATOM     11  C   UNL     1     123.251  83.577  55.356  1.00  0.00    -0.003 C 
ATOM     12  C   UNL     1     124.782  83.639  55.631  1.00  0.00     0.012 C 
ATOM     13  C   UNL     1     125.118  83.428  57.104  1.00  0.00     0.001 C 
ATOM     14  C   UNL     1     124.673  82.033  57.539  1.00  0.00     0.007 C 
ATOM     15  C   UNL     1     123.151  81.787  57.343  1.00  0.00    -0.031 C 
ATOM     16  C   UNL     1     122.915  80.271  57.576  1.00  0.00     0.011 C 
ATOM     17  C   UNL     1     122.370  82.545  58.446  1.00  0.00     0.011 C 
ATOM     18  C   UNL     1     123.075  83.696  53.821  1.00  0.00     0.017 C 
ENDROOT
BRANCH   1  19
ATOM     19  C   UNL     1     120.024  88.001  57.568  1.00  0.00     0.017 C 
ATOM     20  C   UNL     1     119.432  87.626  58.932  1.00  0.00     0.012 C 
ATOM     21  C   UNL     1     118.934  88.434  56.579  1.00  0.00     0.012 C 
ENDBRANCH   1  19
BRANCH   2  22
ATOM     22  O   UNL     1     122.861  88.312  56.876  1.00  0.00    -0.508 OA
ATOM     23  H   UNL     1     122.534  88.968  57.576  1.00  0.00     0.293 HD
ENDBRANCH   2  22
TORSDOF 2
ENDMDL
MODEL 8
REMARK VINA RESULT:    -1.273      2.092      5.956
REMARK INTER + INTRA:          -1.658
REMARK INTER:                  -1.388
REMARK INTRA:                  -0.270
REMARK UNBOUND:                -0.273
REMARK SMILES CC(C)c1cc2c(cc1O)[C@@]1(C)CCCC(C)(C)[C@H]1CC2=O
REMARK SMILES IDX 4 1 9 2 8 3 7 4 6 5 5 6 21 7 22 8 20 9 19 10 11 11 13 12
REMARK SMILES IDX 14 13 15 14 16 15 17 16 18 17 12 18 2 19 1 20 3 21 10 22
REMARK H PARENT 10 23
REMARK Flexibility Score: inf
ROOT
ATOM      1  C   UNL     1     120.793  85.894  57.600  1.00  0.00    -0.003 A 
ATOM      2  C   UNL     1     120.738  84.599  58.152  1.00  0.00     0.119 A 
ATOM      3  C   UNL     1     121.760  83.679  57.887  1.00  0.00     0.051 A 
ATOM      4  C   UNL     1     122.845  84.005  57.045  1.00  0.00    -0.027 A 
ATOM      5  C   UNL     1     122.922  85.323  56.533  1.00  0.00     0.022 A 
ATOM      6  C   UNL     1     121.894  86.242  56.804  1.00  0.00     0.020 A 
ATOM      7  C   UNL     1     124.066  85.737  55.683  1.00  0.00     0.163 C 
ATOM      8  O   UNL     1     124.182  86.938  55.318  1.00  0.00    -0.294 OA
ATOM      9  C   UNL     1     125.125  84.761  55.267  1.00  0.00     0.086 C 
ATOM     10  C   UNL     1     124.673  83.283  55.399  1.00  0.00     0.013 C 
ATOM     11  C   UNL     1     124.006  83.023  56.805  1.00  0.00    -0.003 C 
ATOM     12  C   UNL     1     123.603  81.522  56.881  1.00  0.00     0.012 C 
ATOM     13  C   UNL     1     122.667  81.112  55.749  1.00  0.00     0.001 C 
ATOM     14  C   UNL     1     123.376  81.285  54.406  1.00  0.00     0.007 C 
ATOM     15  C   UNL     1     123.850  82.743  54.148  1.00  0.00    -0.031 C 
ATOM     16  C   UNL     1     124.764  82.694  52.895  1.00  0.00     0.011 C 
ATOM     17  C   UNL     1     122.623  83.617  53.784  1.00  0.00     0.011 C 
ATOM     18  C   UNL     1     125.034  83.261  57.940  1.00  0.00     0.017 C 
ENDROOT
BRANCH   1  19
ATOM     19  C   UNL     1     119.706  86.934  57.849  1.00  0.00     0.017 C 
ATOM     20  C   UNL     1     118.536  86.783  56.869  1.00  0.00     0.012 C 
ATOM     21  C   UNL     1     120.270  88.361  57.840  1.00  0.00     0.012 C 
ENDBRANCH   1  19
BRANCH   2  22
ATOM     22  O   UNL     1     119.676  84.220  58.971  1.00  0.00    -0.508 OA
ATOM     23  H   UNL     1     119.823  83.754  59.859  1.00  0.00     0.293 HD
ENDBRANCH   2  22
TORSDOF 2
ENDMDL
