MODEL 1
REMARK VINA RESULT:    -4.405      0.000      0.000
REMARK INTER + INTRA:          -9.564
REMARK INTER:                  -8.010
REMARK INTRA:                  -1.554
REMARK UNBOUND:                -1.554
REMARK SMILES CCCCCCCCCCCCCC[C@@H](C)C(=O)[O-]
REMARK SMILES IDX 9 1 10 2 11 3 12 4 13 5 14 6 15 7 16 8 17 9 18 10 19 11 8 12
REMARK SMILES IDX 7 13 6 14 5 15 4 16 3 17 2 18 1 19
REMARK H PARENT
REMARK Flexibility Score: inf
ROOT
ATOM      1  C   UNL     1     -40.617 -48.101  34.700  1.00  0.00     0.000 C 
ENDROOT
BRANCH   1   2
ATOM      2  C   UNL     1     -42.056 -47.694  34.338  1.00  0.00     0.000 C 
BRANCH   2   3
ATOM      3  C   UNL     1     -42.850 -48.843  33.697  1.00  0.00     0.000 C 
BRANCH   3   4
ATOM      4  C   UNL     1     -43.284 -49.908  34.719  1.00  0.00     0.000 C 
BRANCH   4   5
ATOM      5  C   UNL     1     -44.297 -49.368  35.744  1.00  0.00     0.001 C 
BRANCH   5   6
ATOM      6  C   UNL     1     -44.868 -50.461  36.677  1.00  0.00     0.009 C 
BRANCH   6   7
ATOM      7  C   UNL     1     -45.963 -49.934  37.636  1.00  0.00     0.032 C 
ATOM      8  C   UNL     1     -46.973 -49.034  36.912  1.00  0.00     0.014 C 
BRANCH   7   9
ATOM      9  C   UNL     1     -46.683 -51.085  38.284  1.00  0.00     0.044 C 
ATOM     10  O   UNL     1     -47.307 -51.926  37.583  1.00  0.00    -0.550 OA
ATOM     11  O   UNL     1     -46.666 -51.224  39.666  1.00  0.00    -0.550 OA
ENDBRANCH   7   9
ENDBRANCH   6   7
ENDBRANCH   5   6
ENDBRANCH   4   5
ENDBRANCH   3   4
ENDBRANCH   2   3
ENDBRANCH   1   2
BRANCH   1  12
ATOM     12  C   UNL     1     -40.212 -47.663  36.118  1.00  0.00     0.000 C 
BRANCH  12  13
ATOM     13  C   UNL     1     -40.655 -48.648  37.220  1.00  0.00    -0.000 C 
BRANCH  13  14
ATOM     14  C   UNL     1     -41.276 -47.922  38.428  1.00  0.00    -0.000 C 
BRANCH  14  15
ATOM     15  C   UNL     1     -42.797 -47.744  38.296  1.00  0.00    -0.000 C 
BRANCH  15  16
ATOM     16  C   UNL     1     -43.452 -47.257  39.597  1.00  0.00    -0.000 C 
BRANCH  16  17
ATOM     17  C   UNL     1     -42.429 -46.549  40.493  1.00  0.00    -0.000 C 
BRANCH  17  18
ATOM     18  C   UNL     1     -42.619 -45.029  40.450  1.00  0.00    -0.003 C 
ATOM     19  C   UNL     1     -41.659 -44.325  41.405  1.00  0.00     0.004 C 
ENDBRANCH  17  18
ENDBRANCH  16  17
ENDBRANCH  15  16
ENDBRANCH  14  15
ENDBRANCH  13  14
ENDBRANCH  12  13
ENDBRANCH   1  12
TORSDOF 14
ENDMDL
MODEL 2
REMARK VINA RESULT:    -4.283      2.125      4.846
REMARK INTER + INTRA:          -9.341
REMARK INTER:                  -7.230
REMARK INTRA:                  -2.111
REMARK UNBOUND:                -1.554
REMARK SMILES CCCCCCCCCCCCCC[C@@H](C)C(=O)[O-]
REMARK SMILES IDX 9 1 10 2 11 3 12 4 13 5 14 6 15 7 16 8 17 9 18 10 19 11 8 12
REMARK SMILES IDX 7 13 6 14 5 15 4 16 3 17 2 18 1 19
REMARK H PARENT
REMARK Flexibility Score: inf
ROOT
ATOM      1  C   UNL     1     -44.558 -48.600  38.405  1.00  0.00     0.000 C 
ENDROOT
BRANCH   1   2
ATOM      2  C   UNL     1     -45.571 -48.173  37.329  1.00  0.00     0.000 C 
BRANCH   2   3
ATOM      3  C   UNL     1     -46.718 -49.183  37.165  1.00  0.00     0.000 C 
BRANCH   3   4
ATOM      4  C   UNL     1     -46.553 -50.420  38.065  1.00  0.00     0.000 C 
BRANCH   4   5
ATOM      5  C   UNL     1     -46.463 -51.729  37.263  1.00  0.00     0.001 C 
BRANCH   5   6
ATOM      6  C   UNL     1     -47.565 -52.751  37.629  1.00  0.00     0.009 C 
BRANCH   6   7
ATOM      7  C   UNL     1     -47.003 -54.118  38.088  1.00  0.00     0.032 C 
ATOM      8  C   UNL     1     -45.491 -54.223  37.850  1.00  0.00     0.014 C 
BRANCH   7   9
ATOM      9  C   UNL     1     -47.303 -54.340  39.545  1.00  0.00     0.044 C 
ATOM     10  O   UNL     1     -47.640 -53.376  40.284  1.00  0.00    -0.550 OA
ATOM     11  O   UNL     1     -47.208 -55.616  40.086  1.00  0.00    -0.550 OA
ENDBRANCH   7   9
ENDBRANCH   6   7
ENDBRANCH   5   6
ENDBRANCH   4   5
ENDBRANCH   3   4
ENDBRANCH   2   3
ENDBRANCH   1   2
BRANCH   1  12
ATOM     12  C   UNL     1     -43.140 -48.069  38.133  1.00  0.00     0.000 C 
BRANCH  12  13
ATOM     13  C   UNL     1     -42.152 -49.157  37.662  1.00  0.00    -0.000 C 
BRANCH  13  14
ATOM     14  C   UNL     1     -42.858 -50.497  37.384  1.00  0.00    -0.000 C 
BRANCH  14  15
ATOM     15  C   UNL     1     -42.824 -50.887  35.897  1.00  0.00    -0.000 C 
BRANCH  15  16
ATOM     16  C   UNL     1     -43.683 -49.962  35.022  1.00  0.00    -0.000 C 
BRANCH  16  17
ATOM     17  C   UNL     1     -42.847 -49.343  33.895  1.00  0.00    -0.000 C 
BRANCH  17  18
ATOM     18  C   UNL     1     -42.434 -47.908  34.242  1.00  0.00    -0.003 C 
ATOM     19  C   UNL     1     -40.925 -47.801  34.438  1.00  0.00     0.004 C 
ENDBRANCH  17  18
ENDBRANCH  16  17
ENDBRANCH  15  16
ENDBRANCH  14  15
ENDBRANCH  13  14
ENDBRANCH  12  13
ENDBRANCH   1  12
TORSDOF 14
ENDMDL
MODEL 3
REMARK VINA RESULT:    -4.265      1.544      2.740
REMARK INTER + INTRA:          -9.309
REMARK INTER:                  -7.059
REMARK INTRA:                  -2.251
REMARK UNBOUND:                -1.554
REMARK SMILES CCCCCCCCCCCCCC[C@@H](C)C(=O)[O-]
REMARK SMILES IDX 9 1 10 2 11 3 12 4 13 5 14 6 15 7 16 8 17 9 18 10 19 11 8 12
REMARK SMILES IDX 7 13 6 14 5 15 4 16 3 17 2 18 1 19
REMARK H PARENT
REMARK Flexibility Score: inf
ROOT
ATOM      1  C   UNL     1     -39.760 -49.772  37.547  1.00  0.00     0.000 C 
ENDROOT
BRANCH   1   2
ATOM      2  C   UNL     1     -39.525 -49.117  36.175  1.00  0.00     0.000 C 
BRANCH   2   3
ATOM      3  C   UNL     1     -40.433 -47.899  35.941  1.00  0.00     0.000 C 
BRANCH   3   4
ATOM      4  C   UNL     1     -40.993 -47.843  34.509  1.00  0.00     0.000 C 
BRANCH   4   5
ATOM      5  C   UNL     1     -42.528 -47.950  34.469  1.00  0.00     0.001 C 
BRANCH   5   6
ATOM      6  C   UNL     1     -43.159 -48.246  35.849  1.00  0.00     0.009 C 
BRANCH   6   7
ATOM      7  C   UNL     1     -44.125 -49.455  35.833  1.00  0.00     0.032 C 
ATOM      8  C   UNL     1     -43.422 -50.754  36.252  1.00  0.00     0.014 C 
BRANCH   7   9
ATOM      9  C   UNL     1     -45.296 -49.198  36.743  1.00  0.00     0.044 C 
ATOM     10  O   UNL     1     -45.503 -48.045  37.208  1.00  0.00    -0.550 OA
ATOM     11  O   UNL     1     -46.156 -50.236  37.077  1.00  0.00    -0.550 OA
ENDBRANCH   7   9
ENDBRANCH   6   7
ENDBRANCH   5   6
ENDBRANCH   4   5
ENDBRANCH   3   4
ENDBRANCH   2   3
ENDBRANCH   1   2
BRANCH   1  12
ATOM     12  C   UNL     1     -40.506 -48.850  38.528  1.00  0.00     0.000 C 
BRANCH  12  13
ATOM     13  C   UNL     1     -41.594 -49.574  39.350  1.00  0.00    -0.000 C 
BRANCH  13  14
ATOM     14  C   UNL     1     -42.859 -48.712  39.519  1.00  0.00    -0.000 C 
BRANCH  14  15
ATOM     15  C   UNL     1     -42.566 -47.205  39.432  1.00  0.00    -0.000 C 
BRANCH  15  16
ATOM     16  C   UNL     1     -43.744 -46.344  39.913  1.00  0.00    -0.000 C 
BRANCH  16  17
ATOM     17  C   UNL     1     -43.266 -44.949  40.332  1.00  0.00    -0.000 C 
BRANCH  17  18
ATOM     18  C   UNL     1     -42.102 -45.041  41.324  1.00  0.00    -0.003 C 
ATOM     19  C   UNL     1     -41.090 -43.923  41.093  1.00  0.00     0.004 C 
ENDBRANCH  17  18
ENDBRANCH  16  17
ENDBRANCH  15  16
ENDBRANCH  14  15
ENDBRANCH  13  14
ENDBRANCH  12  13
ENDBRANCH   1  12
TORSDOF 14
ENDMDL
MODEL 4
REMARK VINA RESULT:    -4.256      1.864      4.504
REMARK INTER + INTRA:          -9.293
REMARK INTER:                  -6.757
REMARK INTRA:                  -2.536
REMARK UNBOUND:                -1.554
REMARK SMILES CCCCCCCCCCCCCC[C@@H](C)C(=O)[O-]
REMARK SMILES IDX 9 1 10 2 11 3 12 4 13 5 14 6 15 7 16 8 17 9 18 10 19 11 8 12
REMARK SMILES IDX 7 13 6 14 5 15 4 16 3 17 2 18 1 19
REMARK H PARENT
REMARK Flexibility Score: inf
ROOT
ATOM      1  C   UNL     1     -42.166 -49.745  38.358  1.00  0.00     0.000 C 
ENDROOT
BRANCH   1   2
ATOM      2  C   UNL     1     -42.914 -48.516  38.903  1.00  0.00     0.000 C 
BRANCH   2   3
ATOM      3  C   UNL     1     -44.424 -48.576  38.628  1.00  0.00     0.000 C 
BRANCH   3   4
ATOM      4  C   UNL     1     -44.768 -48.350  37.146  1.00  0.00     0.000 C 
BRANCH   4   5
ATOM      5  C   UNL     1     -45.468 -49.562  36.508  1.00  0.00     0.001 C 
BRANCH   5   6
ATOM      6  C   UNL     1     -46.682 -50.068  37.322  1.00  0.00     0.009 C 
BRANCH   6   7
ATOM      7  C   UNL     1     -46.615 -51.581  37.643  1.00  0.00     0.032 C 
ATOM      8  C   UNL     1     -45.198 -52.142  37.460  1.00  0.00     0.014 C 
BRANCH   7   9
ATOM      9  C   UNL     1     -47.082 -51.834  39.051  1.00  0.00     0.044 C 
ATOM     10  O   UNL     1     -47.682 -52.903  39.344  1.00  0.00    -0.550 OA
ATOM     11  O   UNL     1     -46.853 -50.884  40.038  1.00  0.00    -0.550 OA
ENDBRANCH   7   9
ENDBRANCH   6   7
ENDBRANCH   5   6
ENDBRANCH   4   5
ENDBRANCH   3   4
ENDBRANCH   2   3
ENDBRANCH   1   2
BRANCH   1  12
ATOM     12  C   UNL     1     -40.904 -49.370  37.562  1.00  0.00     0.000 C 
BRANCH  12  13
ATOM     13  C   UNL     1     -41.013 -48.014  36.833  1.00  0.00    -0.000 C 
BRANCH  13  14
ATOM     14  C   UNL     1     -40.075 -47.935  35.615  1.00  0.00    -0.000 C 
BRANCH  14  15
ATOM     15  C   UNL     1     -40.838 -47.883  34.282  1.00  0.00    -0.000 C 
BRANCH  15  16
ATOM     16  C   UNL     1     -42.362 -47.910  34.470  1.00  0.00    -0.000 C 
BRANCH  16  17
ATOM     17  C   UNL     1     -42.976 -49.139  33.790  1.00  0.00    -0.000 C 
BRANCH  17  18
ATOM     18  C   UNL     1     -42.051 -50.355  33.911  1.00  0.00    -0.003 C 
ATOM     19  C   UNL     1     -42.597 -51.366  34.915  1.00  0.00     0.004 C 
ENDBRANCH  17  18
ENDBRANCH  16  17
ENDBRANCH  15  16
ENDBRANCH  14  15
ENDBRANCH  13  14
ENDBRANCH  12  13
ENDBRANCH   1  12
TORSDOF 14
ENDMDL
MODEL 5
REMARK VINA RESULT:    -4.153      0.934      1.976
REMARK INTER + INTRA:          -9.106
REMARK INTER:                  -7.580
REMARK INTRA:                  -1.526
REMARK UNBOUND:                -1.554
REMARK SMILES CCCCCCCCCCCCCC[C@@H](C)C(=O)[O-]
REMARK SMILES IDX 9 1 10 2 11 3 12 4 13 5 14 6 15 7 16 8 17 9 18 10 19 11 8 12
REMARK SMILES IDX 7 13 6 14 5 15 4 16 3 17 2 18 1 19
REMARK H PARENT
REMARK Flexibility Score: inf
ROOT
ATOM      1  C   UNL     1     -42.416 -47.978  34.584  1.00  0.00     0.000 C 
ENDROOT
BRANCH   1   2
ATOM      2  C   UNL     1     -43.046 -49.259  34.012  1.00  0.00     0.000 C 
BRANCH   2   3
ATOM      3  C   UNL     1     -43.500 -50.233  35.111  1.00  0.00     0.000 C 
BRANCH   3   4
ATOM      4  C   UNL     1     -44.619 -49.654  35.993  1.00  0.00     0.000 C 
BRANCH   4   5
ATOM      5  C   UNL     1     -44.928 -50.537  37.215  1.00  0.00     0.001 C 
BRANCH   5   6
ATOM      6  C   UNL     1     -46.365 -50.354  37.758  1.00  0.00     0.009 C 
BRANCH   6   7
ATOM      7  C   UNL     1     -47.081 -51.694  38.056  1.00  0.00     0.032 C 
ATOM      8  C   UNL     1     -46.500 -52.849  37.229  1.00  0.00     0.014 C 
BRANCH   7   9
ATOM      9  C   UNL     1     -46.982 -52.021  39.521  1.00  0.00     0.044 C 
ATOM     10  O   UNL     1     -47.254 -51.150  40.391  1.00  0.00    -0.550 OA
ATOM     11  O   UNL     1     -46.586 -53.290  39.923  1.00  0.00    -0.550 OA
ENDBRANCH   7   9
ENDBRANCH   6   7
ENDBRANCH   5   6
ENDBRANCH   4   5
ENDBRANCH   3   4
ENDBRANCH   2   3
ENDBRANCH   1   2
BRANCH   1  12
ATOM     12  C   UNL     1     -40.878 -48.028  34.603  1.00  0.00     0.000 C 
BRANCH  12  13
ATOM     13  C   UNL     1     -40.265 -47.678  35.976  1.00  0.00    -0.000 C 
BRANCH  13  14
ATOM     14  C   UNL     1     -40.867 -48.527  37.111  1.00  0.00    -0.000 C 
BRANCH  14  15
ATOM     15  C   UNL     1     -41.417 -47.672  38.264  1.00  0.00    -0.000 C 
BRANCH  15  16
ATOM     16  C   UNL     1     -42.943 -47.779  38.406  1.00  0.00    -0.000 C 
BRANCH  16  17
ATOM     17  C   UNL     1     -43.419 -47.120  39.706  1.00  0.00    -0.000 C 
BRANCH  17  18
ATOM     18  C   UNL     1     -42.291 -46.314  40.359  1.00  0.00    -0.003 C 
ATOM     19  C   UNL     1     -42.650 -44.833  40.446  1.00  0.00     0.004 C 
ENDBRANCH  17  18
ENDBRANCH  16  17
ENDBRANCH  15  16
ENDBRANCH  14  15
ENDBRANCH  13  14
ENDBRANCH  12  13
ENDBRANCH   1  12
TORSDOF 14
ENDMDL
MODEL 6
REMARK VINA RESULT:    -4.115      2.340      4.978
REMARK INTER + INTRA:          -9.037
REMARK INTER:                  -6.951
REMARK INTRA:                  -2.086
REMARK UNBOUND:                -1.554
REMARK SMILES CCCCCCCCCCCCCC[C@@H](C)C(=O)[O-]
REMARK SMILES IDX 9 1 10 2 11 3 12 4 13 5 14 6 15 7 16 8 17 9 18 10 19 11 8 12
REMARK SMILES IDX 7 13 6 14 5 15 4 16 3 17 2 18 1 19
REMARK H PARENT
REMARK Flexibility Score: inf
ROOT
ATOM      1  C   UNL     1     -43.381 -49.414  38.684  1.00  0.00     0.000 C 
ENDROOT
BRANCH   1   2
ATOM      2  C   UNL     1     -44.168 -49.643  39.985  1.00  0.00     0.000 C 
BRANCH   2   3
ATOM      3  C   UNL     1     -45.214 -50.761  39.852  1.00  0.00     0.000 C 
BRANCH   3   4
ATOM      4  C   UNL     1     -46.433 -50.338  39.014  1.00  0.00     0.000 C 
BRANCH   4   5
ATOM      5  C   UNL     1     -46.770 -51.350  37.905  1.00  0.00     0.001 C 
BRANCH   5   6
ATOM      6  C   UNL     1     -46.368 -52.801  38.255  1.00  0.00     0.009 C 
BRANCH   6   7
ATOM      7  C   UNL     1     -47.557 -53.663  38.745  1.00  0.00     0.032 C 
ATOM      8  C   UNL     1     -47.304 -55.162  38.528  1.00  0.00     0.014 C 
BRANCH   7   9
ATOM      9  C   UNL     1     -47.823 -53.401  40.202  1.00  0.00     0.044 C 
ATOM     10  O   UNL     1     -46.956 -53.681  41.072  1.00  0.00    -0.550 OA
ATOM     11  O   UNL     1     -49.035 -52.847  40.596  1.00  0.00    -0.550 OA
ENDBRANCH   7   9
ENDBRANCH   6   7
ENDBRANCH   5   6
ENDBRANCH   4   5
ENDBRANCH   3   4
ENDBRANCH   2   3
ENDBRANCH   1   2
BRANCH   1  12
ATOM     12  C   UNL     1     -43.785 -48.117  37.963  1.00  0.00     0.000 C 
BRANCH  12  13
ATOM     13  C   UNL     1     -44.400 -48.351  36.567  1.00  0.00    -0.000 C 
BRANCH  13  14
ATOM     14  C   UNL     1     -43.961 -49.697  35.960  1.00  0.00    -0.000 C 
BRANCH  14  15
ATOM     15  C   UNL     1     -43.241 -49.532  34.611  1.00  0.00    -0.000 C 
BRANCH  15  16
ATOM     16  C   UNL     1     -42.645 -48.128  34.426  1.00  0.00    -0.000 C 
BRANCH  16  17
ATOM     17  C   UNL     1     -41.113 -48.170  34.501  1.00  0.00    -0.000 C 
BRANCH  17  18
ATOM     18  C   UNL     1     -40.622 -47.805  35.906  1.00  0.00    -0.003 C 
ATOM     19  C   UNL     1     -40.157 -49.044  36.667  1.00  0.00     0.004 C 
ENDBRANCH  17  18
ENDBRANCH  16  17
ENDBRANCH  15  16
ENDBRANCH  14  15
ENDBRANCH  13  14
ENDBRANCH  12  13
ENDBRANCH   1  12
TORSDOF 14
ENDMDL
MODEL 7
REMARK VINA RESULT:    -4.110      3.692      6.824
REMARK INTER + INTRA:          -9.027
REMARK INTER:                  -6.249
REMARK INTRA:                  -2.777
REMARK UNBOUND:                -1.554
REMARK SMILES CCCCCCCCCCCCCC[C@@H](C)C(=O)[O-]
REMARK SMILES IDX 9 1 10 2 11 3 12 4 13 5 14 6 15 7 16 8 17 9 18 10 19 11 8 12
REMARK SMILES IDX 7 13 6 14 5 15 4 16 3 17 2 18 1 19
REMARK H PARENT
REMARK Flexibility Score: inf
ROOT
ATOM      1  C   UNL     1     -45.066 -50.450  39.585  1.00  0.00     0.000 C 
ENDROOT
BRANCH   1   2
ATOM      2  C   UNL     1     -44.362 -51.794  39.842  1.00  0.00     0.000 C 
BRANCH   2   3
ATOM      3  C   UNL     1     -43.614 -52.313  38.604  1.00  0.00     0.000 C 
BRANCH   3   4
ATOM      4  C   UNL     1     -42.262 -51.609  38.390  1.00  0.00     0.000 C 
BRANCH   4   5
ATOM      5  C   UNL     1     -42.304 -50.581  37.246  1.00  0.00     0.001 C 
BRANCH   5   6
ATOM      6  C   UNL     1     -43.407 -50.869  36.201  1.00  0.00     0.009 C 
BRANCH   6   7
ATOM      7  C   UNL     1     -43.981 -49.589  35.549  1.00  0.00     0.032 C 
ATOM      8  C   UNL     1     -44.102 -48.438  36.557  1.00  0.00     0.014 C 
BRANCH   7   9
ATOM      9  C   UNL     1     -43.116 -49.161  34.394  1.00  0.00     0.044 C 
ATOM     10  O   UNL     1     -42.621 -48.003  34.360  1.00  0.00    -0.550 OA
ATOM     11  O   UNL     1     -42.861 -50.046  33.354  1.00  0.00    -0.550 OA
ENDBRANCH   7   9
ENDBRANCH   6   7
ENDBRANCH   5   6
ENDBRANCH   4   5
ENDBRANCH   3   4
ENDBRANCH   2   3
ENDBRANCH   1   2
BRANCH   1  12
ATOM     12  C   UNL     1     -46.553 -50.614  39.230  1.00  0.00     0.000 C 
BRANCH  12  13
ATOM     13  C   UNL     1     -46.830 -50.616  37.711  1.00  0.00    -0.000 C 
BRANCH  13  14
ATOM     14  C   UNL     1     -46.914 -52.044  37.141  1.00  0.00    -0.000 C 
BRANCH  14  15
ATOM     15  C   UNL     1     -47.767 -52.981  38.011  1.00  0.00    -0.000 C 
BRANCH  15  16
ATOM     16  C   UNL     1     -46.999 -54.231  38.465  1.00  0.00    -0.000 C 
BRANCH  16  17
ATOM     17  C   UNL     1     -47.142 -54.443  39.977  1.00  0.00    -0.000 C 
BRANCH  17  18
ATOM     18  C   UNL     1     -48.237 -53.541  40.557  1.00  0.00    -0.003 C 
ATOM     19  C   UNL     1     -47.799 -52.923  41.882  1.00  0.00     0.004 C 
ENDBRANCH  17  18
ENDBRANCH  16  17
ENDBRANCH  15  16
ENDBRANCH  14  15
ENDBRANCH  13  14
ENDBRANCH  12  13
ENDBRANCH   1  12
TORSDOF 14
ENDMDL
MODEL 8
REMARK VINA RESULT:    -4.089      2.859      5.302
REMARK INTER + INTRA:          -8.990
REMARK INTER:                  -6.332
REMARK INTRA:                  -2.657
REMARK UNBOUND:                -1.554
REMARK SMILES CCCCCCCCCCCCCC[C@@H](C)C(=O)[O-]
REMARK SMILES IDX 9 1 10 2 11 3 12 4 13 5 14 6 15 7 16 8 17 9 18 10 19 11 8 12
REMARK SMILES IDX 7 13 6 14 5 15 4 16 3 17 2 18 1 19
REMARK H PARENT
REMARK Flexibility Score: inf
ROOT
ATOM      1  C   UNL     1     -43.319 -51.895  39.659  1.00  0.00     0.000 C 
ENDROOT
BRANCH   1   2
ATOM      2  C   UNL     1     -43.951 -52.922  38.703  1.00  0.00     0.000 C 
BRANCH   2   3
ATOM      3  C   UNL     1     -45.015 -52.296  37.787  1.00  0.00     0.000 C 
BRANCH   3   4
ATOM      4  C   UNL     1     -46.018 -53.332  37.249  1.00  0.00     0.000 C 
BRANCH   4   5
ATOM      5  C   UNL     1     -47.437 -53.127  37.807  1.00  0.00     0.001 C 
BRANCH   5   6
ATOM      6  C   UNL     1     -47.476 -52.254  39.082  1.00  0.00     0.009 C 
BRANCH   6   7
ATOM      7  C   UNL     1     -47.999 -53.011  40.327  1.00  0.00     0.032 C 
ATOM      8  C   UNL     1     -47.123 -54.224  40.668  1.00  0.00     0.014 C 
BRANCH   7   9
ATOM      9  C   UNL     1     -48.063 -52.084  41.510  1.00  0.00     0.044 C 
ATOM     10  O   UNL     1     -48.194 -50.842  41.344  1.00  0.00    -0.550 OA
ATOM     11  O   UNL     1     -47.974 -52.597  42.798  1.00  0.00    -0.550 OA
ENDBRANCH   7   9
ENDBRANCH   6   7
ENDBRANCH   5   6
ENDBRANCH   4   5
ENDBRANCH   3   4
ENDBRANCH   2   3
ENDBRANCH   1   2
BRANCH   1  12
ATOM     12  C   UNL     1     -44.305 -51.388  40.725  1.00  0.00     0.000 C 
BRANCH  12  13
ATOM     13  C   UNL     1     -44.799 -49.947  40.475  1.00  0.00    -0.000 C 
BRANCH  13  14
ATOM     14  C   UNL     1     -43.635 -48.977  40.199  1.00  0.00    -0.000 C 
BRANCH  14  15
ATOM     15  C   UNL     1     -43.865 -48.118  38.945  1.00  0.00    -0.000 C 
BRANCH  15  16
ATOM     16  C   UNL     1     -43.456 -48.838  37.651  1.00  0.00    -0.000 C 
BRANCH  16  17
ATOM     17  C   UNL     1     -44.575 -48.761  36.605  1.00  0.00    -0.000 C 
BRANCH  17  18
ATOM     18  C   UNL     1     -45.906 -48.365  37.252  1.00  0.00    -0.003 C 
ATOM     19  C   UNL     1     -47.007 -49.362  36.902  1.00  0.00     0.004 C 
ENDBRANCH  17  18
ENDBRANCH  16  17
ENDBRANCH  15  16
ENDBRANCH  14  15
ENDBRANCH  13  14
ENDBRANCH  12  13
ENDBRANCH   1  12
TORSDOF 14
ENDMDL
MODEL 9
REMARK VINA RESULT:    -4.085      3.363      6.684
REMARK INTER + INTRA:          -8.982
REMARK INTER:                  -6.220
REMARK INTRA:                  -2.762
REMARK UNBOUND:                -1.554
REMARK SMILES CCCCCCCCCCCCCC[C@@H](C)C(=O)[O-]
REMARK SMILES IDX 9 1 10 2 11 3 12 4 13 5 14 6 15 7 16 8 17 9 18 10 19 11 8 12
REMARK SMILES IDX 7 13 6 14 5 15 4 16 3 17 2 18 1 19
REMARK H PARENT
REMARK Flexibility Score: inf
ROOT
ATOM      1  C   UNL     1     -44.988 -54.900  38.251  1.00  0.00     0.000 C 
ENDROOT
BRANCH   1   2
ATOM      2  C   UNL     1     -45.219 -53.915  37.092  1.00  0.00     0.000 C 
BRANCH   2   3
ATOM      3  C   UNL     1     -45.154 -52.448  37.544  1.00  0.00     0.000 C 
BRANCH   3   4
ATOM      4  C   UNL     1     -46.475 -51.695  37.311  1.00  0.00     0.000 C 
BRANCH   4   5
ATOM      5  C   UNL     1     -46.485 -50.300  37.961  1.00  0.00     0.001 C 
BRANCH   5   6
ATOM      6  C   UNL     1     -46.233 -49.152  36.956  1.00  0.00     0.009 C 
BRANCH   6   7
ATOM      7  C   UNL     1     -44.872 -48.444  37.165  1.00  0.00     0.032 C 
ATOM      8  C   UNL     1     -44.219 -48.842  38.496  1.00  0.00     0.014 C 
BRANCH   7   9
ATOM      9  C   UNL     1     -43.940 -48.765  36.028  1.00  0.00     0.044 C 
ATOM     10  O   UNL     1     -43.000 -47.979  35.730  1.00  0.00    -0.550 OA
ATOM     11  O   UNL     1     -44.114 -49.933  35.297  1.00  0.00    -0.550 OA
ENDBRANCH   7   9
ENDBRANCH   6   7
ENDBRANCH   5   6
ENDBRANCH   4   5
ENDBRANCH   3   4
ENDBRANCH   2   3
ENDBRANCH   1   2
BRANCH   1  12
ATOM     12  C   UNL     1     -46.188 -55.833  38.489  1.00  0.00     0.000 C 
BRANCH  12  13
ATOM     13  C   UNL     1     -47.514 -55.083  38.741  1.00  0.00    -0.000 C 
BRANCH  13  14
ATOM     14  C   UNL     1     -47.596 -54.518  40.171  1.00  0.00    -0.000 C 
BRANCH  14  15
ATOM     15  C   UNL     1     -48.268 -53.137  40.225  1.00  0.00    -0.000 C 
BRANCH  15  16
ATOM     16  C   UNL     1     -47.415 -52.091  40.958  1.00  0.00    -0.000 C 
BRANCH  16  17
ATOM     17  C   UNL     1     -46.002 -52.625  41.222  1.00  0.00    -0.000 C 
BRANCH  17  18
ATOM     18  C   UNL     1     -44.968 -51.495  41.165  1.00  0.00    -0.003 C 
ATOM     19  C   UNL     1     -43.587 -52.029  40.796  1.00  0.00     0.004 C 
ENDBRANCH  17  18
ENDBRANCH  16  17
ENDBRANCH  15  16
ENDBRANCH  14  15
ENDBRANCH  13  14
ENDBRANCH  12  13
ENDBRANCH   1  12
TORSDOF 14
ENDMDL
