MODEL 1
REMARK VINA RESULT:    -4.313      0.000      0.000
REMARK INTER + INTRA:         -10.607
REMARK INTER:                  -8.095
REMARK INTRA:                  -2.512
REMARK UNBOUND:                -2.512
REMARK SMILES CCCCCCCCCCCCCC=CC=CC(=O)OC
REMARK SMILES IDX 9 1 8 2 7 3 6 4 5 5 4 6 3 7 2 8 1 9 10 10 11 11 12 12 13 13
REMARK SMILES IDX 14 14 15 15 16 16 17 17 18 18 19 19 20 20 21 21
REMARK H PARENT
REMARK Flexibility Score: inf
ROOT
ATOM      1  C   UNL     1      67.157  53.442  20.070  1.00  0.00     0.000 C 
ENDROOT
BRANCH   1   2
ATOM      2  C   UNL     1      68.462  54.142  20.490  1.00  0.00     0.000 C 
BRANCH   2   3
ATOM      3  C   UNL     1      69.133  54.903  19.336  1.00  0.00     0.000 C 
BRANCH   3   4
ATOM      4  C   UNL     1      70.646  55.007  19.553  1.00  0.00    -0.000 C 
BRANCH   4   5
ATOM      5  C   UNL     1      71.348  53.690  19.197  1.00  0.00    -0.000 C 
BRANCH   5   6
ATOM      6  C   UNL     1      71.128  53.333  17.720  1.00  0.00    -0.000 C 
BRANCH   6   7
ATOM      7  C   UNL     1      72.267  53.829  16.814  1.00  0.00    -0.000 C 
BRANCH   7   8
ATOM      8  C   UNL     1      71.752  54.548  15.558  1.00  0.00    -0.003 C 
ATOM      9  C   UNL     1      71.847  56.063  15.715  1.00  0.00     0.004 C 
ENDBRANCH   7   8
ENDBRANCH   6   7
ENDBRANCH   5   6
ENDBRANCH   4   5
ENDBRANCH   3   4
ENDBRANCH   2   3
ENDBRANCH   1   2
BRANCH   1  10
ATOM     10  C   UNL     1      67.154  52.887  18.634  1.00  0.00     0.000 C 
BRANCH  10  11
ATOM     11  C   UNL     1      66.443  51.527  18.521  1.00  0.00     0.000 C 
BRANCH  11  12
ATOM     12  C   UNL     1      67.278  50.374  19.098  1.00  0.00     0.004 C 
BRANCH  12  13
ATOM     13  C   UNL     1      68.756  50.451  18.682  1.00  0.00     0.027 C 
BRANCH  13  14
ATOM     14  C   UNL     1      69.641  50.684  19.873  1.00  0.00    -0.027 C 
ATOM     15  C   UNL     1      69.216  50.447  21.116  1.00  0.00    -0.004 C 
BRANCH  15  16
ATOM     16  C   UNL     1      70.094  50.676  22.276  1.00  0.00     0.007 C 
ATOM     17  C   UNL     1      70.713  51.848  22.446  1.00  0.00     0.093 C 
BRANCH  17  18
ATOM     18  C   UNL     1      71.606  52.111  23.586  1.00  0.00     0.330 C 
ATOM     19  O   UNL     1      71.148  52.554  24.677  1.00  0.00    -0.247 OA
BRANCH  18  20
ATOM     20  O   UNL     1      72.973  51.858  23.444  1.00  0.00    -0.466 OA
ATOM     21  C   UNL     1      73.911  52.106  24.484  1.00  0.00     0.282 C 
ENDBRANCH  18  20
ENDBRANCH  17  18
ENDBRANCH  15  16
ENDBRANCH  13  14
ENDBRANCH  12  13
ENDBRANCH  11  12
ENDBRANCH  10  11
ENDBRANCH   1  10
TORSDOF 15
ENDMDL
MODEL 2
REMARK VINA RESULT:    -4.193      1.415      3.479
REMARK INTER + INTRA:         -10.383
REMARK INTER:                  -7.688
REMARK INTRA:                  -2.695
REMARK UNBOUND:                -2.512
REMARK SMILES CCCCCCCCCCCCCC=CC=CC(=O)OC
REMARK SMILES IDX 9 1 8 2 7 3 6 4 5 5 4 6 3 7 2 8 1 9 10 10 11 11 12 12 13 13
REMARK SMILES IDX 14 14 15 15 16 16 17 17 18 18 19 19 20 20 21 21
REMARK H PARENT
REMARK Flexibility Score: inf
ROOT
ATOM      1  C   UNL     1      70.301  53.581  17.093  1.00  0.00     0.000 C 
ENDROOT
BRANCH   1   2
ATOM      2  C   UNL     1      71.327  54.217  18.048  1.00  0.00     0.000 C 
BRANCH   2   3
ATOM      3  C   UNL     1      71.608  53.354  19.287  1.00  0.00     0.000 C 
BRANCH   3   4
ATOM      4  C   UNL     1      71.432  54.167  20.574  1.00  0.00    -0.000 C 
BRANCH   4   5
ATOM      5  C   UNL     1      70.220  55.103  20.476  1.00  0.00    -0.000 C 
BRANCH   5   6
ATOM      6  C   UNL     1      68.960  54.431  21.039  1.00  0.00    -0.000 C 
BRANCH   6   7
ATOM      7  C   UNL     1      67.741  54.588  20.116  1.00  0.00    -0.000 C 
BRANCH   7   8
ATOM      8  C   UNL     1      66.427  54.747  20.894  1.00  0.00    -0.003 C 
ATOM      9  C   UNL     1      66.529  55.873  21.919  1.00  0.00     0.004 C 
ENDBRANCH   7   8
ENDBRANCH   6   7
ENDBRANCH   5   6
ENDBRANCH   4   5
ENDBRANCH   3   4
ENDBRANCH   2   3
ENDBRANCH   1   2
BRANCH   1  10
ATOM     10  C   UNL     1      69.585  52.336  17.648  1.00  0.00     0.000 C 
BRANCH  10  11
ATOM     11  C   UNL     1      68.096  52.283  17.266  1.00  0.00     0.000 C 
BRANCH  11  12
ATOM     12  C   UNL     1      67.252  51.506  18.288  1.00  0.00     0.004 C 
BRANCH  12  13
ATOM     13  C   UNL     1      68.038  50.367  18.957  1.00  0.00     0.027 C 
BRANCH  13  14
ATOM     14  C   UNL     1      68.317  50.679  20.400  1.00  0.00    -0.027 C 
ATOM     15  C   UNL     1      69.527  50.499  20.932  1.00  0.00    -0.004 C 
BRANCH  15  16
ATOM     16  C   UNL     1      69.789  50.812  22.347  1.00  0.00     0.007 C 
ATOM     17  C   UNL     1      70.959  51.334  22.728  1.00  0.00     0.093 C 
BRANCH  17  18
ATOM     18  C   UNL     1      71.262  51.649  24.134  1.00  0.00     0.330 C 
ATOM     19  O   UNL     1      70.724  52.641  24.703  1.00  0.00    -0.247 OA
BRANCH  18  20
ATOM     20  O   UNL     1      72.154  50.830  24.832  1.00  0.00    -0.466 OA
ATOM     21  C   UNL     1      72.005  49.417  24.900  1.00  0.00     0.282 C 
ENDBRANCH  18  20
ENDBRANCH  17  18
ENDBRANCH  15  16
ENDBRANCH  13  14
ENDBRANCH  12  13
ENDBRANCH  11  12
ENDBRANCH  10  11
ENDBRANCH   1  10
TORSDOF 15
ENDMDL
MODEL 3
REMARK VINA RESULT:    -4.136      1.466      4.059
REMARK INTER + INTRA:         -10.275
REMARK INTER:                  -7.195
REMARK INTRA:                  -3.080
REMARK UNBOUND:                -2.512
REMARK SMILES CCCCCCCCCCCCCC=CC=CC(=O)OC
REMARK SMILES IDX 9 1 8 2 7 3 6 4 5 5 4 6 3 7 2 8 1 9 10 10 11 11 12 12 13 13
REMARK SMILES IDX 14 14 15 15 16 16 17 17 18 18 19 19 20 20 21 21
REMARK H PARENT
REMARK Flexibility Score: inf
ROOT
ATOM      1  C   UNL     1      71.481  56.012  18.516  1.00  0.00     0.000 C 
ENDROOT
BRANCH   1   2
ATOM      2  C   UNL     1      71.686  54.778  17.618  1.00  0.00     0.000 C 
BRANCH   2   3
ATOM      3  C   UNL     1      71.936  53.490  18.416  1.00  0.00     0.000 C 
BRANCH   3   4
ATOM      4  C   UNL     1      70.941  52.395  18.017  1.00  0.00    -0.000 C 
BRANCH   4   5
ATOM      5  C   UNL     1      69.764  52.978  17.224  1.00  0.00    -0.000 C 
BRANCH   5   6
ATOM      6  C   UNL     1      68.475  52.187  17.492  1.00  0.00    -0.000 C 
BRANCH   6   7
ATOM      7  C   UNL     1      68.725  50.903  18.298  1.00  0.00    -0.000 C 
BRANCH   7   8
ATOM      8  C   UNL     1      67.428  50.283  18.838  1.00  0.00    -0.003 C 
ATOM      9  C   UNL     1      66.297  51.307  18.855  1.00  0.00     0.004 C 
ENDBRANCH   7   8
ENDBRANCH   6   7
ENDBRANCH   5   6
ENDBRANCH   4   5
ENDBRANCH   3   4
ENDBRANCH   2   3
ENDBRANCH   1   2
BRANCH   1  10
ATOM     10  C   UNL     1      70.047  56.570  18.532  1.00  0.00     0.000 C 
BRANCH  10  11
ATOM     11  C   UNL     1      69.305  56.274  19.847  1.00  0.00     0.000 C 
BRANCH  11  12
ATOM     12  C   UNL     1      67.967  55.553  19.622  1.00  0.00     0.004 C 
BRANCH  12  13
ATOM     13  C   UNL     1      67.874  54.228  20.394  1.00  0.00     0.027 C 
BRANCH  13  14
ATOM     14  C   UNL     1      69.199  53.861  20.999  1.00  0.00    -0.027 C 
ATOM     15  C   UNL     1      69.526  52.591  21.248  1.00  0.00    -0.004 C 
BRANCH  15  16
ATOM     16  C   UNL     1      70.830  52.244  21.838  1.00  0.00     0.007 C 
ATOM     17  C   UNL     1      70.951  52.025  23.151  1.00  0.00     0.093 C 
BRANCH  17  18
ATOM     18  C   UNL     1      72.238  51.686  23.779  1.00  0.00     0.330 C 
ATOM     19  O   UNL     1      72.378  50.609  24.426  1.00  0.00    -0.247 OA
BRANCH  18  20
ATOM     20  O   UNL     1      73.309  52.574  23.645  1.00  0.00    -0.466 OA
ATOM     21  C   UNL     1      74.437  52.297  22.824  1.00  0.00     0.282 C 
ENDBRANCH  18  20
ENDBRANCH  17  18
ENDBRANCH  15  16
ENDBRANCH  13  14
ENDBRANCH  12  13
ENDBRANCH  11  12
ENDBRANCH  10  11
ENDBRANCH   1  10
TORSDOF 15
ENDMDL
MODEL 4
REMARK VINA RESULT:    -4.133      1.815      3.804
REMARK INTER + INTRA:         -10.269
REMARK INTER:                  -7.670
REMARK INTRA:                  -2.600
REMARK UNBOUND:                -2.512
REMARK SMILES CCCCCCCCCCCCCC=CC=CC(=O)OC
REMARK SMILES IDX 9 1 8 2 7 3 6 4 5 5 4 6 3 7 2 8 1 9 10 10 11 11 12 12 13 13
REMARK SMILES IDX 14 14 15 15 16 16 17 17 18 18 19 19 20 20 21 21
REMARK H PARENT
REMARK Flexibility Score: inf
ROOT
ATOM      1  C   UNL     1      70.964  52.751  18.216  1.00  0.00     0.000 C 
ENDROOT
BRANCH   1   2
ATOM      2  C   UNL     1      70.956  53.524  19.548  1.00  0.00     0.000 C 
BRANCH   2   3
ATOM      3  C   UNL     1      69.874  54.611  19.604  1.00  0.00     0.000 C 
BRANCH   3   4
ATOM      4  C   UNL     1      68.812  54.276  20.656  1.00  0.00    -0.000 C 
BRANCH   4   5
ATOM      5  C   UNL     1      67.398  54.394  20.073  1.00  0.00    -0.000 C 
BRANCH   5   6
ATOM      6  C   UNL     1      66.423  54.973  21.109  1.00  0.00    -0.000 C 
BRANCH   6   7
ATOM      7  C   UNL     1      66.490  56.506  21.194  1.00  0.00    -0.000 C 
BRANCH   7   8
ATOM      8  C   UNL     1      66.584  57.171  19.812  1.00  0.00    -0.003 C 
ATOM      9  C   UNL     1      65.269  57.849  19.440  1.00  0.00     0.004 C 
ENDBRANCH   7   8
ENDBRANCH   6   7
ENDBRANCH   5   6
ENDBRANCH   4   5
ENDBRANCH   3   4
ENDBRANCH   2   3
ENDBRANCH   1   2
BRANCH   1  10
ATOM     10  C   UNL     1      69.807  53.096  17.262  1.00  0.00     0.000 C 
BRANCH  10  11
ATOM     11  C   UNL     1      68.570  52.206  17.476  1.00  0.00     0.000 C 
BRANCH  11  12
ATOM     12  C   UNL     1      68.913  50.875  18.162  1.00  0.00     0.004 C 
BRANCH  12  13
ATOM     13  C   UNL     1      67.821  50.419  19.143  1.00  0.00     0.027 C 
BRANCH  13  14
ATOM     14  C   UNL     1      68.240  50.658  20.565  1.00  0.00    -0.027 C 
ATOM     15  C   UNL     1      69.497  50.455  20.967  1.00  0.00    -0.004 C 
BRANCH  15  16
ATOM     16  C   UNL     1      69.896  50.697  22.364  1.00  0.00     0.007 C 
ATOM     17  C   UNL     1      70.837  51.599  22.661  1.00  0.00     0.093 C 
BRANCH  17  18
ATOM     18  C   UNL     1      71.271  51.860  24.043  1.00  0.00     0.330 C 
ATOM     19  O   UNL     1      71.783  50.942  24.744  1.00  0.00    -0.247 OA
BRANCH  18  20
ATOM     20  O   UNL     1      71.111  53.145  24.568  1.00  0.00    -0.466 OA
ATOM     21  C   UNL     1      70.830  54.277  23.754  1.00  0.00     0.282 C 
ENDBRANCH  18  20
ENDBRANCH  17  18
ENDBRANCH  15  16
ENDBRANCH  13  14
ENDBRANCH  12  13
ENDBRANCH  11  12
ENDBRANCH  10  11
ENDBRANCH   1  10
TORSDOF 15
ENDMDL
MODEL 5
REMARK VINA RESULT:    -4.105      2.894      5.361
REMARK INTER + INTRA:         -10.217
REMARK INTER:                  -7.511
REMARK INTRA:                  -2.706
REMARK UNBOUND:                -2.512
REMARK SMILES CCCCCCCCCCCCCC=CC=CC(=O)OC
REMARK SMILES IDX 9 1 8 2 7 3 6 4 5 5 4 6 3 7 2 8 1 9 10 10 11 11 12 12 13 13
REMARK SMILES IDX 14 14 15 15 16 16 17 17 18 18 19 19 20 20 21 21
REMARK H PARENT
REMARK Flexibility Score: inf
ROOT
ATOM      1  C   UNL     1      70.116  51.733  22.161  1.00  0.00     0.000 C 
ENDROOT
BRANCH   1   2
ATOM      2  C   UNL     1      71.287  52.402  21.418  1.00  0.00     0.000 C 
BRANCH   2   3
ATOM      3  C   UNL     1      70.947  53.809  20.905  1.00  0.00     0.000 C 
BRANCH   3   4
ATOM      4  C   UNL     1      69.589  54.275  21.441  1.00  0.00    -0.000 C 
BRANCH   4   5
ATOM      5  C   UNL     1      68.812  55.058  20.374  1.00  0.00    -0.000 C 
BRANCH   5   6
ATOM      6  C   UNL     1      67.339  54.626  20.341  1.00  0.00    -0.000 C 
BRANCH   6   7
ATOM      7  C   UNL     1      66.477  55.379  21.367  1.00  0.00    -0.000 C 
BRANCH   7   8
ATOM      8  C   UNL     1      66.522  56.902  21.171  1.00  0.00    -0.003 C 
ATOM      9  C   UNL     1      65.951  57.297  19.812  1.00  0.00     0.004 C 
ENDBRANCH   7   8
ENDBRANCH   6   7
ENDBRANCH   5   6
ENDBRANCH   4   5
ENDBRANCH   3   4
ENDBRANCH   2   3
ENDBRANCH   1   2
BRANCH   1  10
ATOM     10  C   UNL     1      69.538  50.487  21.468  1.00  0.00     0.000 C 
BRANCH  10  11
ATOM     11  C   UNL     1      69.538  50.602  19.934  1.00  0.00     0.000 C 
BRANCH  11  12
ATOM     12  C   UNL     1      68.183  51.064  19.377  1.00  0.00     0.004 C 
BRANCH  12  13
ATOM     13  C   UNL     1      68.327  51.908  18.101  1.00  0.00     0.027 C 
BRANCH  13  14
ATOM     14  C   UNL     1      69.767  52.240  17.833  1.00  0.00    -0.027 C 
ATOM     15  C   UNL     1      70.120  53.368  17.212  1.00  0.00    -0.004 C 
BRANCH  15  16
ATOM     16  C   UNL     1      71.536  53.684  16.958  1.00  0.00     0.007 C 
ATOM     17  C   UNL     1      72.108  54.759  17.509  1.00  0.00     0.093 C 
BRANCH  17  18
ATOM     18  C   UNL     1      73.516  55.113  17.271  1.00  0.00     0.330 C 
ATOM     19  O   UNL     1      73.832  56.271  16.875  1.00  0.00    -0.247 OA
BRANCH  18  20
ATOM     20  O   UNL     1      74.502  54.149  17.494  1.00  0.00    -0.466 OA
ATOM     21  C   UNL     1      75.147  53.988  18.752  1.00  0.00     0.282 C 
ENDBRANCH  18  20
ENDBRANCH  17  18
ENDBRANCH  15  16
ENDBRANCH  13  14
ENDBRANCH  12  13
ENDBRANCH  11  12
ENDBRANCH  10  11
ENDBRANCH   1  10
TORSDOF 15
ENDMDL
MODEL 6
REMARK VINA RESULT:    -4.070      3.823      7.107
REMARK INTER + INTRA:         -10.151
REMARK INTER:                  -8.836
REMARK INTRA:                  -1.315
REMARK UNBOUND:                -2.512
REMARK SMILES CCCCCCCCCCCCCC=CC=CC(=O)OC
REMARK SMILES IDX 9 1 8 2 7 3 6 4 5 5 4 6 3 7 2 8 1 9 10 10 11 11 12 12 13 13
REMARK SMILES IDX 14 14 15 15 16 16 17 17 18 18 19 19 20 20 21 21
REMARK H PARENT
REMARK Flexibility Score: inf
ROOT
ATOM      1  C   UNL     1      70.824  52.733  24.189  1.00  0.00     0.000 C 
ENDROOT
BRANCH   1   2
ATOM      2  C   UNL     1      70.699  51.617  23.136  1.00  0.00     0.000 C 
BRANCH   2   3
ATOM      3  C   UNL     1      71.128  52.067  21.732  1.00  0.00     0.000 C 
BRANCH   3   4
ATOM      4  C   UNL     1      69.921  52.537  20.913  1.00  0.00    -0.000 C 
BRANCH   4   5
ATOM      5  C   UNL     1      69.043  51.351  20.491  1.00  0.00    -0.000 C 
BRANCH   5   6
ATOM      6  C   UNL     1      69.428  50.853  19.091  1.00  0.00    -0.000 C 
BRANCH   6   7
ATOM      7  C   UNL     1      68.204  50.557  18.209  1.00  0.00    -0.000 C 
BRANCH   7   8
ATOM      8  C   UNL     1      66.902  50.469  19.019  1.00  0.00    -0.003 C 
ATOM      9  C   UNL     1      65.946  51.597  18.644  1.00  0.00     0.004 C 
ENDBRANCH   7   8
ENDBRANCH   6   7
ENDBRANCH   5   6
ENDBRANCH   4   5
ENDBRANCH   3   4
ENDBRANCH   2   3
ENDBRANCH   1   2
BRANCH   1  10
ATOM     10  C   UNL     1      72.252  53.267  24.399  1.00  0.00     0.000 C 
BRANCH  10  11
ATOM     11  C   UNL     1      72.910  52.728  25.681  1.00  0.00     0.000 C 
BRANCH  11  12
ATOM     12  C   UNL     1      71.980  52.814  26.902  1.00  0.00     0.004 C 
BRANCH  12  13
ATOM     13  C   UNL     1      71.985  54.207  27.549  1.00  0.00     0.027 C 
BRANCH  13  14
ATOM     14  C   UNL     1      70.677  54.911  27.325  1.00  0.00    -0.027 C 
ATOM     15  C   UNL     1      69.519  54.247  27.313  1.00  0.00    -0.004 C 
BRANCH  15  16
ATOM     16  C   UNL     1      68.243  54.948  27.096  1.00  0.00     0.007 C 
ATOM     17  C   UNL     1      68.088  55.787  26.067  1.00  0.00     0.093 C 
BRANCH  17  18
ATOM     18  C   UNL     1      66.832  56.515  25.824  1.00  0.00     0.330 C 
ATOM     19  O   UNL     1      66.424  57.389  26.639  1.00  0.00    -0.247 OA
BRANCH  18  20
ATOM     20  O   UNL     1      66.098  56.225  24.670  1.00  0.00    -0.466 OA
ATOM     21  C   UNL     1      65.410  57.225  23.928  1.00  0.00     0.282 C 
ENDBRANCH  18  20
ENDBRANCH  17  18
ENDBRANCH  15  16
ENDBRANCH  13  14
ENDBRANCH  12  13
ENDBRANCH  11  12
ENDBRANCH  10  11
ENDBRANCH   1  10
TORSDOF 15
ENDMDL
MODEL 7
REMARK VINA RESULT:    -4.070      3.317      7.273
REMARK INTER + INTRA:         -10.150
REMARK INTER:                  -9.162
REMARK INTRA:                  -0.988
REMARK UNBOUND:                -2.512
REMARK SMILES CCCCCCCCCCCCCC=CC=CC(=O)OC
REMARK SMILES IDX 9 1 8 2 7 3 6 4 5 5 4 6 3 7 2 8 1 9 10 10 11 11 12 12 13 13
REMARK SMILES IDX 14 14 15 15 16 16 17 17 18 18 19 19 20 20 21 21
REMARK H PARENT
REMARK Flexibility Score: inf
ROOT
ATOM      1  C   UNL     1      69.704  49.868  22.186  1.00  0.00     0.000 C 
ENDROOT
BRANCH   1   2
ATOM      2  C   UNL     1      70.344  50.659  23.341  1.00  0.00     0.000 C 
BRANCH   2   3
ATOM      3  C   UNL     1      71.248  49.795  24.232  1.00  0.00     0.000 C 
BRANCH   3   4
ATOM      4  C   UNL     1      72.473  50.586  24.702  1.00  0.00    -0.000 C 
BRANCH   4   5
ATOM      5  C   UNL     1      72.280  52.091  24.478  1.00  0.00    -0.000 C 
BRANCH   5   6
ATOM      6  C   UNL     1      72.680  52.889  25.728  1.00  0.00    -0.000 C 
BRANCH   6   7
ATOM      7  C   UNL     1      71.534  53.011  26.745  1.00  0.00    -0.000 C 
BRANCH   7   8
ATOM      8  C   UNL     1      70.396  53.914  26.246  1.00  0.00    -0.003 C 
ATOM      9  C   UNL     1      69.460  54.298  27.388  1.00  0.00     0.004 C 
ENDBRANCH   7   8
ENDBRANCH   6   7
ENDBRANCH   5   6
ENDBRANCH   4   5
ENDBRANCH   3   4
ENDBRANCH   2   3
ENDBRANCH   1   2
BRANCH   1  10
ATOM     10  C   UNL     1      69.715  50.588  20.825  1.00  0.00     0.000 C 
BRANCH  10  11
ATOM     11  C   UNL     1      68.343  50.566  20.128  1.00  0.00     0.000 C 
BRANCH  11  12
ATOM     12  C   UNL     1      68.461  50.509  18.597  1.00  0.00     0.004 C 
BRANCH  12  13
ATOM     13  C   UNL     1      67.808  51.720  17.911  1.00  0.00     0.027 C 
BRANCH  13  14
ATOM     14  C   UNL     1      68.832  52.767  17.576  1.00  0.00    -0.027 C 
ATOM     15  C   UNL     1      70.131  52.574  17.810  1.00  0.00    -0.004 C 
BRANCH  15  16
ATOM     16  C   UNL     1      71.126  53.606  17.474  1.00  0.00     0.007 C 
ATOM     17  C   UNL     1      71.202  54.107  16.237  1.00  0.00     0.093 C 
BRANCH  17  18
ATOM     18  C   UNL     1      72.189  55.132  15.860  1.00  0.00     0.330 C 
ATOM     19  O   UNL     1      73.183  55.376  16.602  1.00  0.00    -0.247 OA
BRANCH  18  20
ATOM     20  O   UNL     1      72.013  55.830  14.662  1.00  0.00    -0.466 OA
ATOM     21  C   UNL     1      72.018  57.251  14.594  1.00  0.00     0.282 C 
ENDBRANCH  18  20
ENDBRANCH  17  18
ENDBRANCH  15  16
ENDBRANCH  13  14
ENDBRANCH  12  13
ENDBRANCH  11  12
ENDBRANCH  10  11
ENDBRANCH   1  10
TORSDOF 15
ENDMDL
MODEL 8
REMARK VINA RESULT:    -4.053      1.364      2.336
REMARK INTER + INTRA:         -10.120
REMARK INTER:                  -8.076
REMARK INTRA:                  -2.044
REMARK UNBOUND:                -2.512
REMARK SMILES CCCCCCCCCCCCCC=CC=CC(=O)OC
REMARK SMILES IDX 9 1 8 2 7 3 6 4 5 5 4 6 3 7 2 8 1 9 10 10 11 11 12 12 13 13
REMARK SMILES IDX 14 14 15 15 16 16 17 17 18 18 19 19 20 20 21 21
REMARK H PARENT
REMARK Flexibility Score: inf
ROOT
ATOM      1  C   UNL     1      69.873  53.182  17.520  1.00  0.00     0.000 C 
ENDROOT
BRANCH   1   2
ATOM      2  C   UNL     1      71.235  52.622  17.970  1.00  0.00     0.000 C 
BRANCH   2   3
ATOM      3  C   UNL     1      71.976  53.555  18.939  1.00  0.00     0.000 C 
BRANCH   3   4
ATOM      4  C   UNL     1      73.322  53.998  18.353  1.00  0.00    -0.000 C 
BRANCH   4   5
ATOM      5  C   UNL     1      73.465  55.525  18.389  1.00  0.00    -0.000 C 
BRANCH   5   6
ATOM      6  C   UNL     1      72.375  56.199  17.542  1.00  0.00    -0.000 C 
BRANCH   6   7
ATOM      7  C   UNL     1      72.903  56.705  16.191  1.00  0.00    -0.000 C 
BRANCH   7   8
ATOM      8  C   UNL     1      72.030  56.255  15.009  1.00  0.00    -0.003 C 
ATOM      9  C   UNL     1      71.880  54.737  14.985  1.00  0.00     0.004 C 
ENDBRANCH   7   8
ENDBRANCH   6   7
ENDBRANCH   5   6
ENDBRANCH   4   5
ENDBRANCH   3   4
ENDBRANCH   2   3
ENDBRANCH   1   2
BRANCH   1  10
ATOM     10  C   UNL     1      69.030  53.813  18.643  1.00  0.00     0.000 C 
BRANCH  10  11
ATOM     11  C   UNL     1      67.757  53.008  18.959  1.00  0.00     0.000 C 
BRANCH  11  12
ATOM     12  C   UNL     1      67.503  51.885  17.942  1.00  0.00     0.004 C 
BRANCH  12  13
ATOM     13  C   UNL     1      67.853  50.496  18.499  1.00  0.00     0.027 C 
BRANCH  13  14
ATOM     14  C   UNL     1      68.180  50.568  19.963  1.00  0.00    -0.027 C 
ATOM     15  C   UNL     1      69.439  50.496  20.402  1.00  0.00    -0.004 C 
BRANCH  15  16
ATOM     16  C   UNL     1      69.748  50.571  21.840  1.00  0.00     0.007 C 
ATOM     17  C   UNL     1      70.614  51.475  22.308  1.00  0.00     0.093 C 
BRANCH  17  18
ATOM     18  C   UNL     1      70.957  51.574  23.736  1.00  0.00     0.330 C 
ATOM     19  O   UNL     1      71.097  52.701  24.289  1.00  0.00    -0.247 OA
BRANCH  18  20
ATOM     20  O   UNL     1      71.120  50.399  24.473  1.00  0.00    -0.466 OA
ATOM     21  C   UNL     1      72.378  49.749  24.614  1.00  0.00     0.282 C 
ENDBRANCH  18  20
ENDBRANCH  17  18
ENDBRANCH  15  16
ENDBRANCH  13  14
ENDBRANCH  12  13
ENDBRANCH  11  12
ENDBRANCH  10  11
ENDBRANCH   1  10
TORSDOF 15
ENDMDL
MODEL 9
REMARK VINA RESULT:    -4.022      1.557      4.576
REMARK INTER + INTRA:         -10.060
REMARK INTER:                  -7.171
REMARK INTRA:                  -2.889
REMARK UNBOUND:                -2.512
REMARK SMILES CCCCCCCCCCCCCC=CC=CC(=O)OC
REMARK SMILES IDX 9 1 8 2 7 3 6 4 5 5 4 6 3 7 2 8 1 9 10 10 11 11 12 12 13 13
REMARK SMILES IDX 14 14 15 15 16 16 17 17 18 18 19 19 20 20 21 21
REMARK H PARENT
REMARK Flexibility Score: inf
ROOT
ATOM      1  C   UNL     1      69.852  54.916  18.241  1.00  0.00     0.000 C 
ENDROOT
BRANCH   1   2
ATOM      2  C   UNL     1      69.836  54.930  19.780  1.00  0.00     0.000 C 
BRANCH   2   3
ATOM      3  C   UNL     1      68.990  53.797  20.381  1.00  0.00     0.000 C 
BRANCH   3   4
ATOM      4  C   UNL     1      69.810  52.968  21.376  1.00  0.00    -0.000 C 
BRANCH   4   5
ATOM      5  C   UNL     1      70.256  51.639  20.753  1.00  0.00    -0.000 C 
BRANCH   5   6
ATOM      6  C   UNL     1      69.073  50.671  20.616  1.00  0.00    -0.000 C 
BRANCH   6   7
ATOM      7  C   UNL     1      68.591  50.525  19.164  1.00  0.00    -0.000 C 
BRANCH   7   8
ATOM      8  C   UNL     1      67.077  50.281  19.066  1.00  0.00    -0.003 C 
ATOM      9  C   UNL     1      66.336  51.566  18.708  1.00  0.00     0.004 C 
ENDBRANCH   7   8
ENDBRANCH   6   7
ENDBRANCH   5   6
ENDBRANCH   4   5
ENDBRANCH   3   4
ENDBRANCH   2   3
ENDBRANCH   1   2
BRANCH   1  10
ATOM     10  C   UNL     1      70.092  53.533  17.609  1.00  0.00     0.000 C 
BRANCH  10  11
ATOM     11  C   UNL     1      71.577  53.132  17.593  1.00  0.00     0.000 C 
BRANCH  11  12
ATOM     12  C   UNL     1      72.478  54.230  17.007  1.00  0.00     0.004 C 
BRANCH  12  13
ATOM     13  C   UNL     1      73.642  54.598  17.941  1.00  0.00     0.027 C 
BRANCH  13  14
ATOM     14  C   UNL     1      73.447  54.005  19.307  1.00  0.00    -0.027 C 
ATOM     15  C   UNL     1      73.463  54.761  20.406  1.00  0.00    -0.004 C 
BRANCH  15  16
ATOM     16  C   UNL     1      73.266  54.168  21.740  1.00  0.00     0.007 C 
ATOM     17  C   UNL     1      73.633  52.907  21.990  1.00  0.00     0.093 C 
BRANCH  17  18
ATOM     18  C   UNL     1      73.443  52.276  23.306  1.00  0.00     0.330 C 
ATOM     19  O   UNL     1      74.425  51.795  23.938  1.00  0.00    -0.247 OA
BRANCH  18  20
ATOM     20  O   UNL     1      72.157  52.222  23.849  1.00  0.00    -0.466 OA
ATOM     21  C   UNL     1      71.916  52.201  25.251  1.00  0.00     0.282 C 
ENDBRANCH  18  20
ENDBRANCH  17  18
ENDBRANCH  15  16
ENDBRANCH  13  14
ENDBRANCH  12  13
ENDBRANCH  11  12
ENDBRANCH  10  11
ENDBRANCH   1  10
TORSDOF 15
ENDMDL
