MODEL 1
REMARK VINA RESULT:    -4.221      0.000      0.000
REMARK INTER + INTRA:          -5.010
REMARK INTER:                  -4.838
REMARK INTRA:                  -0.172
REMARK UNBOUND:                -0.172
REMARK SMILES CC=Cc1ccc(O)c(OC)c1
REMARK SMILES IDX 4 1 12 2 9 3 7 4 6 5 5 6 3 7 1 8 2 9 10 10 11 11 8 12
REMARK H PARENT 8 13
REMARK Flexibility Score: inf
ROOT
ATOM      1  C   UNL     1      28.856  29.983  25.383  1.00  0.00    -0.022 A 
ATOM      2  C   UNL     1      28.854  31.383  25.258  1.00  0.00     0.058 A 
ATOM      3  C   UNL     1      28.947  31.997  23.993  1.00  0.00     0.161 A 
ATOM      4  C   UNL     1      29.031  31.190  22.844  1.00  0.00     0.157 A 
ATOM      5  C   UNL     1      29.017  29.798  22.964  1.00  0.00     0.051 A 
ATOM      6  C   UNL     1      28.926  29.196  24.219  1.00  0.00     0.012 A 
ENDROOT
BRANCH   1   7
ATOM      7  C   UNL     1      28.746  29.392  26.741  1.00  0.00     0.003 C 
ATOM      8  C   UNL     1      28.762  29.418  29.204  1.00  0.00     0.035 C 
ATOM      9  C   UNL     1      28.903  30.086  27.874  1.00  0.00    -0.030 C 
ENDBRANCH   1   7
BRANCH   3  10
ATOM     10  O   UNL     1      28.957  33.392  23.842  1.00  0.00    -0.493 OA
ATOM     11  C   UNL     1      27.792  34.206  23.759  1.00  0.00     0.278 C 
ENDBRANCH   3  10
BRANCH   4  12
ATOM     12  O   UNL     1      29.125  31.755  21.571  1.00  0.00    -0.504 OA
ATOM     13  H   UNL     1      29.730  32.543  21.374  1.00  0.00     0.293 HD
ENDBRANCH   4  12
TORSDOF 3
ENDMDL
MODEL 2
REMARK VINA RESULT:    -4.168      5.497      7.905
REMARK INTER + INTRA:          -4.949
REMARK INTER:                  -4.778
REMARK INTRA:                  -0.171
REMARK UNBOUND:                -0.172
REMARK SMILES CC=Cc1ccc(O)c(OC)c1
REMARK SMILES IDX 4 1 12 2 9 3 7 4 6 5 5 6 3 7 1 8 2 9 10 10 11 11 8 12
REMARK H PARENT 8 13
REMARK Flexibility Score: inf
ROOT
ATOM      1  C   UNL     1      28.214  36.186  20.453  1.00  0.00    -0.022 A 
ATOM      2  C   UNL     1      27.213  37.153  20.643  1.00  0.00     0.058 A 
ATOM      3  C   UNL     1      27.119  38.274  19.793  1.00  0.00     0.161 A 
ATOM      4  C   UNL     1      28.037  38.414  18.738  1.00  0.00     0.157 A 
ATOM      5  C   UNL     1      29.025  37.445  18.537  1.00  0.00     0.051 A 
ATOM      6  C   UNL     1      29.114  36.338  19.382  1.00  0.00     0.012 A 
ENDROOT
BRANCH   1   7
ATOM      7  C   UNL     1      28.260  35.021  21.373  1.00  0.00     0.003 C 
ATOM      8  C   UNL     1      28.092  33.875  23.547  1.00  0.00     0.035 C 
ATOM      9  C   UNL     1      28.043  35.100  22.691  1.00  0.00    -0.030 C 
ENDBRANCH   1   7
BRANCH   3  10
ATOM     10  O   UNL     1      26.133  39.258  19.968  1.00  0.00    -0.493 OA
ATOM     11  C   UNL     1      26.216  40.331  20.901  1.00  0.00     0.278 C 
ENDBRANCH   3  10
BRANCH   4  12
ATOM     12  O   UNL     1      27.981  39.508  17.873  1.00  0.00    -0.504 OA
ATOM     13  H   UNL     1      28.634  39.625  17.109  1.00  0.00     0.293 HD
ENDBRANCH   4  12
TORSDOF 3
ENDMDL
MODEL 3
REMARK VINA RESULT:    -4.102      2.880      5.098
REMARK INTER + INTRA:          -4.873
REMARK INTER:                  -4.709
REMARK INTRA:                  -0.165
REMARK UNBOUND:                -0.172
REMARK SMILES CC=Cc1ccc(O)c(OC)c1
REMARK SMILES IDX 4 1 12 2 9 3 7 4 6 5 5 6 3 7 1 8 2 9 10 10 11 11 8 12
REMARK H PARENT 8 13
REMARK Flexibility Score: inf
ROOT
ATOM      1  C   UNL     1      28.404  33.811  22.967  1.00  0.00    -0.022 A 
ATOM      2  C   UNL     1      28.808  34.417  21.766  1.00  0.00     0.058 A 
ATOM      3  C   UNL     1      28.424  35.738  21.457  1.00  0.00     0.161 A 
ATOM      4  C   UNL     1      27.635  36.455  22.373  1.00  0.00     0.157 A 
ATOM      5  C   UNL     1      27.245  35.860  23.576  1.00  0.00     0.051 A 
ATOM      6  C   UNL     1      27.627  34.552  23.876  1.00  0.00     0.012 A 
ENDROOT
BRANCH   1   7
ATOM      7  C   UNL     1      28.846  32.420  23.245  1.00  0.00     0.003 C 
ATOM      8  C   UNL     1      28.860  30.273  24.453  1.00  0.00     0.035 C 
ATOM      9  C   UNL     1      28.373  31.672  24.249  1.00  0.00    -0.030 C 
ENDBRANCH   1   7
BRANCH   3  10
ATOM     10  O   UNL     1      28.807  36.362  20.260  1.00  0.00    -0.493 OA
ATOM     11  C   UNL     1      29.125  35.675  19.054  1.00  0.00     0.278 C 
ENDBRANCH   3  10
BRANCH   4  12
ATOM     12  O   UNL     1      27.232  37.764  22.108  1.00  0.00    -0.504 OA
ATOM     13  H   UNL     1      27.458  38.233  21.240  1.00  0.00     0.293 HD
ENDBRANCH   4  12
TORSDOF 3
ENDMDL
MODEL 4
REMARK VINA RESULT:    -4.089      8.414     10.982
REMARK INTER + INTRA:          -4.858
REMARK INTER:                  -4.710
REMARK INTRA:                  -0.148
REMARK UNBOUND:                -0.172
REMARK SMILES CC=Cc1ccc(O)c(OC)c1
REMARK SMILES IDX 4 1 12 2 9 3 7 4 6 5 5 6 3 7 1 8 2 9 10 10 11 11 8 12
REMARK H PARENT 8 13
REMARK Flexibility Score: inf
ROOT
ATOM      1  C   UNL     1      26.652  41.240  20.959  1.00  0.00    -0.022 A 
ATOM      2  C   UNL     1      26.170  39.920  20.991  1.00  0.00     0.058 A 
ATOM      3  C   UNL     1      26.386  39.044  19.909  1.00  0.00     0.161 A 
ATOM      4  C   UNL     1      27.104  39.500  18.789  1.00  0.00     0.157 A 
ATOM      5  C   UNL     1      27.598  40.807  18.762  1.00  0.00     0.051 A 
ATOM      6  C   UNL     1      27.381  41.671  19.835  1.00  0.00     0.012 A 
ENDROOT
BRANCH   1   7
ATOM      7  C   UNL     1      26.403  42.116  22.132  1.00  0.00     0.003 C 
ATOM      8  C   UNL     1      26.999  43.308  24.204  1.00  0.00     0.035 C 
ATOM      9  C   UNL     1      27.325  42.403  23.059  1.00  0.00    -0.030 C 
ENDBRANCH   1   7
BRANCH   3  10
ATOM     10  O   UNL     1      25.906  37.725  19.914  1.00  0.00    -0.493 OA
ATOM     11  C   UNL     1      25.415  37.046  21.065  1.00  0.00     0.278 C 
ENDBRANCH   3  10
BRANCH   4  12
ATOM     12  O   UNL     1      27.341  38.667  17.696  1.00  0.00    -0.504 OA
ATOM     13  H   UNL     1      27.020  38.896  16.764  1.00  0.00     0.293 HD
ENDBRANCH   4  12
TORSDOF 3
ENDMDL
MODEL 5
REMARK VINA RESULT:    -4.049      3.670      7.120
REMARK INTER + INTRA:          -4.813
REMARK INTER:                  -4.655
REMARK INTRA:                  -0.158
REMARK UNBOUND:                -0.172
REMARK SMILES CC=Cc1ccc(O)c(OC)c1
REMARK SMILES IDX 4 1 12 2 9 3 7 4 6 5 5 6 3 7 1 8 2 9 10 10 11 11 8 12
REMARK H PARENT 8 13
REMARK Flexibility Score: inf
ROOT
ATOM      1  C   UNL     1      28.367  35.972  20.563  1.00  0.00    -0.022 A 
ATOM      2  C   UNL     1      28.138  35.546  21.883  1.00  0.00     0.058 A 
ATOM      3  C   UNL     1      28.382  34.211  22.264  1.00  0.00     0.161 A 
ATOM      4  C   UNL     1      28.870  33.303  21.309  1.00  0.00     0.157 A 
ATOM      5  C   UNL     1      29.113  33.728  20.000  1.00  0.00     0.051 A 
ATOM      6  C   UNL     1      28.869  35.050  19.627  1.00  0.00     0.012 A 
ENDROOT
BRANCH   1   7
ATOM      7  C   UNL     1      28.102  37.393  20.220  1.00  0.00     0.003 C 
ATOM      8  C   UNL     1      26.705  39.396  19.895  1.00  0.00     0.035 C 
ATOM      9  C   UNL     1      26.886  37.952  20.241  1.00  0.00    -0.030 C 
ENDBRANCH   1   7
BRANCH   3  10
ATOM     10  O   UNL     1      28.153  33.759  23.574  1.00  0.00    -0.493 OA
ATOM     11  C   UNL     1      29.106  33.821  24.630  1.00  0.00     0.278 C 
ENDBRANCH   3  10
BRANCH   4  12
ATOM     12  O   UNL     1      29.125  31.972  21.643  1.00  0.00    -0.504 OA
ATOM     13  H   UNL     1      30.034  31.547  21.509  1.00  0.00     0.293 HD
ENDBRANCH   4  12
TORSDOF 3
ENDMDL
MODEL 6
REMARK VINA RESULT:    -4.031      3.079      4.656
REMARK INTER + INTRA:          -4.791
REMARK INTER:                  -4.647
REMARK INTRA:                  -0.144
REMARK UNBOUND:                -0.172
REMARK SMILES CC=Cc1ccc(O)c(OC)c1
REMARK SMILES IDX 4 1 12 2 9 3 7 4 6 5 5 6 3 7 1 8 2 9 10 10 11 11 8 12
REMARK H PARENT 8 13
REMARK Flexibility Score: inf
ROOT
ATOM      1  C   UNL     1      28.460  33.645  22.572  1.00  0.00    -0.022 A 
ATOM      2  C   UNL     1      28.059  34.989  22.667  1.00  0.00     0.058 A 
ATOM      3  C   UNL     1      28.160  35.854  21.559  1.00  0.00     0.161 A 
ATOM      4  C   UNL     1      28.658  35.356  20.342  1.00  0.00     0.157 A 
ATOM      5  C   UNL     1      29.043  34.016  20.240  1.00  0.00     0.051 A 
ATOM      6  C   UNL     1      28.942  33.164  21.341  1.00  0.00     0.012 A 
ENDROOT
BRANCH   1   7
ATOM      7  C   UNL     1      28.323  32.777  23.769  1.00  0.00     0.003 C 
ATOM      8  C   UNL     1      28.585  30.704  25.074  1.00  0.00     0.035 C 
ATOM      9  C   UNL     1      28.747  31.508  23.824  1.00  0.00    -0.030 C 
ENDBRANCH   1   7
BRANCH   3  10
ATOM     10  O   UNL     1      27.774  37.202  21.631  1.00  0.00    -0.493 OA
ATOM     11  C   UNL     1      26.500  37.702  21.240  1.00  0.00     0.278 C 
ENDBRANCH   3  10
BRANCH   4  12
ATOM     12  O   UNL     1      28.775  36.177  19.220  1.00  0.00    -0.504 OA
ATOM     13  H   UNL     1      29.564  36.796  19.084  1.00  0.00     0.293 HD
ENDBRANCH   4  12
TORSDOF 3
ENDMDL
MODEL 7
REMARK VINA RESULT:    -4.021      4.475      6.575
REMARK INTER + INTRA:          -4.781
REMARK INTER:                  -4.610
REMARK INTRA:                  -0.170
REMARK UNBOUND:                -0.172
REMARK SMILES CC=Cc1ccc(O)c(OC)c1
REMARK SMILES IDX 4 1 12 2 9 3 7 4 6 5 5 6 3 7 1 8 2 9 10 10 11 11 8 12
REMARK H PARENT 8 13
REMARK Flexibility Score: inf
ROOT
ATOM      1  C   UNL     1      27.605  28.426  27.052  1.00  0.00    -0.022 A 
ATOM      2  C   UNL     1      26.313  27.885  27.171  1.00  0.00     0.058 A 
ATOM      3  C   UNL     1      25.698  27.751  28.432  1.00  0.00     0.161 A 
ATOM      4  C   UNL     1      26.387  28.177  29.581  1.00  0.00     0.157 A 
ATOM      5  C   UNL     1      27.666  28.729  29.464  1.00  0.00     0.051 A 
ATOM      6  C   UNL     1      28.271  28.858  28.214  1.00  0.00     0.012 A 
ENDROOT
BRANCH   1   7
ATOM      7  C   UNL     1      28.200  28.552  25.698  1.00  0.00     0.003 C 
ATOM      8  C   UNL     1      28.645  29.655  23.540  1.00  0.00     0.035 C 
ATOM      9  C   UNL     1      27.996  29.596  24.886  1.00  0.00    -0.030 C 
ENDBRANCH   1   7
BRANCH   3  10
ATOM     10  O   UNL     1      24.412  27.206  28.577  1.00  0.00    -0.493 OA
ATOM     11  C   UNL     1      23.200  27.928  28.385  1.00  0.00     0.278 C 
ENDBRANCH   3  10
BRANCH   4  12
ATOM     12  O   UNL     1      25.816  28.063  30.849  1.00  0.00    -0.504 OA
ATOM     13  H   UNL     1      26.298  27.616  31.619  1.00  0.00     0.293 HD
ENDBRANCH   4  12
TORSDOF 3
ENDMDL
MODEL 8
REMARK VINA RESULT:    -3.940      6.212      8.753
REMARK INTER + INTRA:          -4.688
REMARK INTER:                  -4.515
REMARK INTRA:                  -0.173
REMARK UNBOUND:                -0.172
REMARK SMILES CC=Cc1ccc(O)c(OC)c1
REMARK SMILES IDX 4 1 12 2 9 3 7 4 6 5 5 6 3 7 1 8 2 9 10 10 11 11 8 12
REMARK H PARENT 8 13
REMARK Flexibility Score: inf
ROOT
ATOM      1  C   UNL     1      27.996  37.417  20.834  1.00  0.00    -0.022 A 
ATOM      2  C   UNL     1      27.300  38.605  21.118  1.00  0.00     0.058 A 
ATOM      3  C   UNL     1      27.182  39.623  20.150  1.00  0.00     0.161 A 
ATOM      4  C   UNL     1      27.761  39.436  18.882  1.00  0.00     0.157 A 
ATOM      5  C   UNL     1      28.439  38.249  18.593  1.00  0.00     0.051 A 
ATOM      6  C   UNL     1      28.555  37.245  19.554  1.00  0.00     0.012 A 
ENDROOT
BRANCH   1   7
ATOM      7  C   UNL     1      28.081  36.375  21.889  1.00  0.00     0.003 C 
ATOM      8  C   UNL     1      27.271  35.057  23.806  1.00  0.00     0.035 C 
ATOM      9  C   UNL     1      27.114  36.137  22.783  1.00  0.00    -0.030 C 
ENDBRANCH   1   7
BRANCH   3  10
ATOM     10  O   UNL     1      26.500  40.822  20.412  1.00  0.00    -0.493 OA
ATOM     11  C   UNL     1      27.039  41.916  21.147  1.00  0.00     0.278 C 
ENDBRANCH   3  10
BRANCH   4  12
ATOM     12  O   UNL     1      27.668  40.417  17.895  1.00  0.00    -0.504 OA
ATOM     13  H   UNL     1      28.066  40.292  16.972  1.00  0.00     0.293 HD
ENDBRANCH   4  12
TORSDOF 3
ENDMDL
MODEL 9
REMARK VINA RESULT:    -3.888      7.567     10.299
REMARK INTER + INTRA:          -4.628
REMARK INTER:                  -4.457
REMARK INTRA:                  -0.171
REMARK UNBOUND:                -0.172
REMARK SMILES CC=Cc1ccc(O)c(OC)c1
REMARK SMILES IDX 4 1 12 2 9 3 7 4 6 5 5 6 3 7 1 8 2 9 10 10 11 11 8 12
REMARK H PARENT 8 13
REMARK Flexibility Score: inf
ROOT
ATOM      1  C   UNL     1      27.516  39.458  19.775  1.00  0.00    -0.022 A 
ATOM      2  C   UNL     1      26.324  38.714  19.742  1.00  0.00     0.058 A 
ATOM      3  C   UNL     1      26.207  37.504  20.455  1.00  0.00     0.161 A 
ATOM      4  C   UNL     1      27.298  37.047  21.216  1.00  0.00     0.157 A 
ATOM      5  C   UNL     1      28.478  37.794  21.263  1.00  0.00     0.051 A 
ATOM      6  C   UNL     1      28.589  38.990  20.554  1.00  0.00     0.012 A 
ENDROOT
BRANCH   1   7
ATOM      7  C   UNL     1      27.580  40.730  19.011  1.00  0.00     0.003 C 
ATOM      8  C   UNL     1      27.349  43.161  18.686  1.00  0.00     0.035 C 
ATOM      9  C   UNL     1      27.243  41.923  19.517  1.00  0.00    -0.030 C 
ENDBRANCH   1   7
BRANCH   3  10
ATOM     10  O   UNL     1      25.031  36.738  20.431  1.00  0.00    -0.493 OA
ATOM     11  C   UNL     1      23.876  37.003  21.220  1.00  0.00     0.278 C 
ENDBRANCH   3  10
BRANCH   4  12
ATOM     12  O   UNL     1      27.225  35.855  21.938  1.00  0.00    -0.504 OA
ATOM     13  H   UNL     1      27.821  35.063  21.731  1.00  0.00     0.293 HD
ENDBRANCH   4  12
TORSDOF 3
ENDMDL
