MODEL 1
REMARK VINA RESULT:    -4.936      0.000      0.000
REMARK INTER + INTRA:          -9.704
REMARK INTER:                  -7.822
REMARK INTRA:                  -1.882
REMARK UNBOUND:                -1.882
REMARK SMILES C[C@H]1O[C@H](O[C@H]2[C@H](Oc3cc(O)c4c(c3)O[C@@H](c3ccc(O)cc3)CC4=O)O[C@H](CO)[C@H](O)[C@@H]2O)[C@@H](O)[C@@H](O)[C@H]1O
REMARK SMILES IDX 6 1 34 2 32 3 29 4 28 5 7 6 5 7 4 8 1 9 2 10 40 11 3 12
REMARK SMILES IDX 38 13 36 14 41 15 39 17 37 19 35 21 8 23 9 24 10 25 15 26
REMARK SMILES IDX 11 27 14 28 13 29 16 30 26 31 17 32 27 33 25 34 12 35 18 37
REMARK SMILES IDX 19 38 24 39 20 40 23 41 21 42 22 43 33 45 30 47 31 48
REMARK H PARENT 41 16 39 18 37 20 35 22 12 36 22 44 33 46 31 49
REMARK Flexibility Score: inf
ROOT
ATOM      1  C   UNL     1      19.887  32.886  40.974  1.00  0.00     0.221 C 
ATOM      2  C   UNL     1      20.473  31.757  40.113  1.00  0.00     0.181 C 
ATOM      3  C   UNL     1      21.876  32.131  39.620  1.00  0.00     0.177 C 
ATOM      4  C   UNL     1      21.910  33.537  38.974  1.00  0.00     0.179 C 
ATOM      5  O   UNL     1      21.344  34.532  39.823  1.00  0.00    -0.332 OA
ATOM      6  C   UNL     1      20.014  34.247  40.250  1.00  0.00     0.339 C 
ENDROOT
BRANCH   1   7
ATOM      7  O   UNL     1      20.589  32.943  42.205  1.00  0.00    -0.337 OA
BRANCH   7   8
ATOM      8  C   UNL     1      20.358  34.080  43.039  1.00  0.00     0.282 C 
ATOM      9  C   UNL     1      18.428  33.186  46.062  1.00  0.00     0.041 C 
ATOM     10  C   UNL     1      19.684  33.438  45.229  1.00  0.00     0.150 C 
ATOM     11  C   UNL     1      20.617  34.450  45.912  1.00  0.00     0.174 C 
ATOM     12  O   UNL     1      19.283  33.872  43.945  1.00  0.00    -0.344 OA
ATOM     13  C   UNL     1      21.925  34.490  45.096  1.00  0.00     0.179 C 
ATOM     14  C   UNL     1      21.619  34.854  43.622  1.00  0.00     0.202 C 
BRANCH  11  15
ATOM     15  O   UNL     1      19.977  35.699  45.995  1.00  0.00    -0.388 OA
ATOM     16  H   UNL     1      20.140  36.064  46.908  1.00  0.00     0.211 HD
ENDBRANCH  11  15
BRANCH  13  17
ATOM     17  O   UNL     1      22.831  35.420  45.652  1.00  0.00    -0.387 OA
ATOM     18  H   UNL     1      22.476  36.327  45.451  1.00  0.00     0.211 HD
ENDBRANCH  13  17
BRANCH  14  19
ATOM     19  O   UNL     1      21.472  36.262  43.583  1.00  0.00    -0.385 OA
ATOM     20  H   UNL     1      21.168  36.614  44.457  1.00  0.00     0.211 HD
ENDBRANCH  14  19
ENDBRANCH   7   8
ENDBRANCH   1   7
BRANCH   2  21
ATOM     21  O   UNL     1      19.626  31.472  39.027  1.00  0.00    -0.387 OA
ATOM     22  H   UNL     1      18.769  31.950  39.194  1.00  0.00     0.211 HD
ENDBRANCH   2  21
BRANCH   6  23
ATOM     23  O   UNL     1      19.121  34.327  39.136  1.00  0.00    -0.462 OA
BRANCH  23  24
ATOM     24  C   UNL     1      17.998  35.154  38.981  1.00  0.00     0.130 A 
ATOM     25  C   UNL     1      17.753  35.937  37.836  1.00  0.00     0.093 A 
ATOM     26  C   UNL     1      17.098  35.213  40.043  1.00  0.00     0.094 A 
ATOM     27  C   UNL     1      16.656  36.808  37.778  1.00  0.00     0.133 A 
ATOM     28  C   UNL     1      15.955  36.015  39.975  1.00  0.00     0.138 A 
ATOM     29  C   UNL     1      15.719  36.826  38.846  1.00  0.00     0.102 A 
ATOM     30  O   UNL     1      15.053  36.002  41.048  1.00  0.00    -0.484 OA
ATOM     31  C   UNL     1      14.476  37.641  38.852  1.00  0.00     0.174 C 
ATOM     32  C   UNL     1      13.735  36.548  40.944  1.00  0.00     0.211 C 
ATOM     33  O   UNL     1      13.993  38.124  37.798  1.00  0.00    -0.294 OA
ATOM     34  C   UNL     1      13.761  37.861  40.149  1.00  0.00     0.131 C 
BRANCH  27  35
ATOM     35  O   UNL     1      16.575  37.663  36.676  1.00  0.00    -0.507 OA
ATOM     36  H   UNL     1      17.350  37.881  36.068  1.00  0.00     0.293 HD
ENDBRANCH  27  35
BRANCH  32  37
ATOM     37  C   UNL     1      13.148  36.759  42.320  1.00  0.00    -0.007 A 
ATOM     38  C   UNL     1      12.469  37.948  42.637  1.00  0.00     0.011 A 
ATOM     39  C   UNL     1      13.219  35.737  43.281  1.00  0.00     0.011 A 
ATOM     40  C   UNL     1      11.904  38.124  43.903  1.00  0.00     0.046 A 
ATOM     41  C   UNL     1      12.650  35.910  44.545  1.00  0.00     0.046 A 
ATOM     42  C   UNL     1      11.993  37.107  44.860  1.00  0.00     0.115 A 
BRANCH  42  43
ATOM     43  O   UNL     1      11.419  37.296  46.117  1.00  0.00    -0.508 OA
ATOM     44  H   UNL     1      10.835  36.587  46.544  1.00  0.00     0.293 HD
ENDBRANCH  42  43
ENDBRANCH  32  37
ENDBRANCH  23  24
ENDBRANCH   6  23
BRANCH   3  45
ATOM     45  O   UNL     1      22.367  31.164  38.724  1.00  0.00    -0.387 OA
ATOM     46  H   UNL     1      21.799  30.354  38.830  1.00  0.00     0.211 HD
ENDBRANCH   3  45
BRANCH   4  47
ATOM     47  C   UNL     1      21.376  33.584  37.517  1.00  0.00     0.191 C 
BRANCH  47  48
ATOM     48  O   UNL     1      21.355  34.891  37.009  1.00  0.00    -0.394 OA
ATOM     49  H   UNL     1      20.641  34.926  36.314  1.00  0.00     0.210 HD
ENDBRANCH  47  48
ENDBRANCH   4  47
TORSDOF 14
ENDMDL
MODEL 2
REMARK VINA RESULT:    -4.860      1.314      2.122
REMARK INTER + INTRA:          -9.584
REMARK INTER:                  -7.135
REMARK INTRA:                  -2.449
REMARK UNBOUND:                -1.882
REMARK SMILES C[C@H]1O[C@H](O[C@H]2[C@H](Oc3cc(O)c4c(c3)O[C@@H](c3ccc(O)cc3)CC4=O)O[C@H](CO)[C@H](O)[C@@H]2O)[C@@H](O)[C@@H](O)[C@H]1O
REMARK SMILES IDX 6 1 34 2 32 3 29 4 28 5 7 6 5 7 4 8 1 9 2 10 40 11 3 12
REMARK SMILES IDX 38 13 36 14 41 15 39 17 37 19 35 21 8 23 9 24 10 25 15 26
REMARK SMILES IDX 11 27 14 28 13 29 16 30 26 31 17 32 27 33 25 34 12 35 18 37
REMARK SMILES IDX 19 38 24 39 20 40 23 41 21 42 22 43 33 45 30 47 31 48
REMARK H PARENT 41 16 39 18 37 20 35 22 12 36 22 44 33 46 31 49
REMARK Flexibility Score: inf
ROOT
ATOM      1  C   UNL     1      20.697  32.881  41.683  1.00  0.00     0.221 C 
ATOM      2  C   UNL     1      21.534  31.785  41.005  1.00  0.00     0.181 C 
ATOM      3  C   UNL     1      22.899  32.340  40.579  1.00  0.00     0.177 C 
ATOM      4  C   UNL     1      22.767  33.658  39.779  1.00  0.00     0.179 C 
ATOM      5  O   UNL     1      21.972  34.623  40.462  1.00  0.00    -0.332 OA
ATOM      6  C   UNL     1      20.671  34.162  40.818  1.00  0.00     0.339 C 
ENDROOT
BRANCH   1   7
ATOM      7  O   UNL     1      21.262  33.180  42.948  1.00  0.00    -0.337 OA
BRANCH   7   8
ATOM      8  C   UNL     1      20.359  33.445  44.023  1.00  0.00     0.282 C 
ATOM      9  C   UNL     1      21.132  36.649  45.696  1.00  0.00     0.041 C 
ATOM     10  C   UNL     1      20.440  35.727  44.693  1.00  0.00     0.150 C 
ATOM     11  C   UNL     1      18.911  35.851  44.778  1.00  0.00     0.174 C 
ATOM     12  O   UNL     1      20.876  34.405  44.935  1.00  0.00    -0.344 OA
ATOM     13  C   UNL     1      18.320  35.034  43.611  1.00  0.00     0.179 C 
ATOM     14  C   UNL     1      18.809  33.566  43.691  1.00  0.00     0.202 C 
BRANCH  11  15
ATOM     15  O   UNL     1      18.472  35.414  46.040  1.00  0.00    -0.388 OA
ATOM     16  H   UNL     1      17.475  35.400  46.026  1.00  0.00     0.211 HD
ENDBRANCH  11  15
BRANCH  13  17
ATOM     17  O   UNL     1      16.909  35.082  43.634  1.00  0.00    -0.387 OA
ATOM     18  H   UNL     1      16.594  34.208  43.988  1.00  0.00     0.211 HD
ENDBRANCH  13  17
BRANCH  14  19
ATOM     19  O   UNL     1      17.985  32.925  44.647  1.00  0.00    -0.385 OA
ATOM     20  H   UNL     1      18.416  32.107  44.999  1.00  0.00     0.211 HD
ENDBRANCH  14  19
ENDBRANCH   7   8
ENDBRANCH   1   7
BRANCH   2  21
ATOM     21  O   UNL     1      20.849  31.251  39.898  1.00  0.00    -0.387 OA
ATOM     22  H   UNL     1      20.521  32.022  39.360  1.00  0.00     0.211 HD
ENDBRANCH   2  21
BRANCH   6  23
ATOM     23  O   UNL     1      19.884  33.975  39.638  1.00  0.00    -0.462 OA
BRANCH  23  24
ATOM     24  C   UNL     1      18.722  34.660  39.252  1.00  0.00     0.130 A 
ATOM     25  C   UNL     1      18.514  35.187  37.963  1.00  0.00     0.093 A 
ATOM     26  C   UNL     1      17.739  34.844  40.221  1.00  0.00     0.094 A 
ATOM     27  C   UNL     1      17.367  35.935  37.664  1.00  0.00     0.133 A 
ATOM     28  C   UNL     1      16.551  35.518  39.925  1.00  0.00     0.138 A 
ATOM     29  C   UNL     1      16.348  36.076  38.646  1.00  0.00     0.102 A 
ATOM     30  O   UNL     1      15.570  35.633  40.919  1.00  0.00    -0.484 OA
ATOM     31  C   UNL     1      15.054  36.770  38.413  1.00  0.00     0.174 C 
ATOM     32  C   UNL     1      14.229  36.037  40.626  1.00  0.00     0.211 C 
ATOM     33  O   UNL     1      14.624  37.001  37.256  1.00  0.00    -0.294 OA
ATOM     34  C   UNL     1      14.225  37.172  39.593  1.00  0.00     0.131 C 
BRANCH  27  35
ATOM     35  O   UNL     1      17.313  36.555  36.413  1.00  0.00    -0.507 OA
ATOM     36  H   UNL     1      16.689  37.313  36.182  1.00  0.00     0.293 HD
ENDBRANCH  27  35
BRANCH  32  37
ATOM     37  C   UNL     1      13.521  36.455  41.894  1.00  0.00    -0.007 A 
ATOM     38  C   UNL     1      13.530  35.627  43.028  1.00  0.00     0.011 A 
ATOM     39  C   UNL     1      12.898  37.712  41.970  1.00  0.00     0.011 A 
ATOM     40  C   UNL     1      12.895  36.033  44.205  1.00  0.00     0.046 A 
ATOM     41  C   UNL     1      12.268  38.121  43.149  1.00  0.00     0.046 A 
ATOM     42  C   UNL     1      12.264  37.280  44.269  1.00  0.00     0.115 A 
BRANCH  42  43
ATOM     43  O   UNL     1      11.640  37.673  45.453  1.00  0.00    -0.508 OA
ATOM     44  H   UNL     1      11.112  37.016  46.015  1.00  0.00     0.293 HD
ENDBRANCH  42  43
ENDBRANCH  32  37
ENDBRANCH  23  24
ENDBRANCH   6  23
BRANCH   3  45
ATOM     45  O   UNL     1      23.620  31.383  39.840  1.00  0.00    -0.387 OA
ATOM     46  H   UNL     1      22.958  30.734  39.480  1.00  0.00     0.211 HD
ENDBRANCH   3  45
BRANCH   4  47
ATOM     47  C   UNL     1      22.371  33.465  38.290  1.00  0.00     0.191 C 
BRANCH  47  48
ATOM     48  O   UNL     1      22.071  34.685  37.666  1.00  0.00    -0.394 OA
ATOM     49  H   UNL     1      22.914  35.018  37.251  1.00  0.00     0.210 HD
ENDBRANCH  47  48
ENDBRANCH   4  47
TORSDOF 14
ENDMDL
MODEL 3
REMARK VINA RESULT:    -4.823      2.291      4.763
REMARK INTER + INTRA:          -9.524
REMARK INTER:                  -7.194
REMARK INTRA:                  -2.331
REMARK UNBOUND:                -1.882
REMARK SMILES C[C@H]1O[C@H](O[C@H]2[C@H](Oc3cc(O)c4c(c3)O[C@@H](c3ccc(O)cc3)CC4=O)O[C@H](CO)[C@H](O)[C@@H]2O)[C@@H](O)[C@@H](O)[C@H]1O
REMARK SMILES IDX 6 1 34 2 32 3 29 4 28 5 7 6 5 7 4 8 1 9 2 10 40 11 3 12
REMARK SMILES IDX 38 13 36 14 41 15 39 17 37 19 35 21 8 23 9 24 10 25 15 26
REMARK SMILES IDX 11 27 14 28 13 29 16 30 26 31 17 32 27 33 25 34 12 35 18 37
REMARK SMILES IDX 19 38 24 39 20 40 23 41 21 42 22 43 33 45 30 47 31 48
REMARK H PARENT 41 16 39 18 37 20 35 22 12 36 22 44 33 46 31 49
REMARK Flexibility Score: inf
ROOT
ATOM      1  C   UNL     1      22.371  33.056  44.011  1.00  0.00     0.221 C 
ATOM      2  C   UNL     1      23.130  31.755  44.311  1.00  0.00     0.181 C 
ATOM      3  C   UNL     1      24.621  32.040  44.523  1.00  0.00     0.177 C 
ATOM      4  C   UNL     1      25.217  32.902  43.384  1.00  0.00     0.179 C 
ATOM      5  O   UNL     1      24.459  34.087  43.155  1.00  0.00    -0.332 OA
ATOM      6  C   UNL     1      23.078  33.855  42.890  1.00  0.00     0.339 C 
ENDROOT
BRANCH   1   7
ATOM      7  O   UNL     1      22.320  33.845  45.188  1.00  0.00    -0.337 OA
BRANCH   7   8
ATOM      8  C   UNL     1      21.027  34.164  45.707  1.00  0.00     0.282 C 
ATOM      9  C   UNL     1      20.190  37.727  45.189  1.00  0.00     0.041 C 
ATOM     10  C   UNL     1      20.228  36.237  44.854  1.00  0.00     0.150 C 
ATOM     11  C   UNL     1      18.820  35.687  44.583  1.00  0.00     0.174 C 
ATOM     12  O   UNL     1      20.863  35.560  45.919  1.00  0.00    -0.344 OA
ATOM     13  C   UNL     1      18.983  34.240  44.073  1.00  0.00     0.179 C 
ATOM     14  C   UNL     1      19.767  33.399  45.110  1.00  0.00     0.202 C 
BRANCH  11  15
ATOM     15  O   UNL     1      18.044  35.778  45.752  1.00  0.00    -0.388 OA
ATOM     16  H   UNL     1      17.259  36.358  45.552  1.00  0.00     0.211 HD
ENDBRANCH  11  15
BRANCH  13  17
ATOM     17  O   UNL     1      17.723  33.656  43.821  1.00  0.00    -0.387 OA
ATOM     18  H   UNL     1      17.848  32.670  43.847  1.00  0.00     0.211 HD
ENDBRANCH  13  17
BRANCH  14  19
ATOM     19  O   UNL     1      18.831  33.016  46.101  1.00  0.00    -0.385 OA
ATOM     20  H   UNL     1      18.459  32.117  45.914  1.00  0.00     0.211 HD
ENDBRANCH  14  19
ENDBRANCH   7   8
ENDBRANCH   1   7
BRANCH   2  21
ATOM     21  O   UNL     1      22.947  30.824  43.272  1.00  0.00    -0.387 OA
ATOM     22  H   UNL     1      21.988  30.869  43.008  1.00  0.00     0.211 HD
ENDBRANCH   2  21
BRANCH   6  23
ATOM     23  O   UNL     1      22.930  33.210  41.622  1.00  0.00    -0.462 OA
BRANCH  23  24
ATOM     24  C   UNL     1      22.093  33.574  40.556  1.00  0.00     0.130 A 
ATOM     25  C   UNL     1      22.502  33.590  39.209  1.00  0.00     0.093 A 
ATOM     26  C   UNL     1      20.794  33.965  40.870  1.00  0.00     0.094 A 
ATOM     27  C   UNL     1      21.644  34.045  38.198  1.00  0.00     0.133 A 
ATOM     28  C   UNL     1      19.895  34.347  39.871  1.00  0.00     0.138 A 
ATOM     29  C   UNL     1      20.305  34.397  38.523  1.00  0.00     0.102 A 
ATOM     30  O   UNL     1      18.582  34.683  40.232  1.00  0.00    -0.484 OA
ATOM     31  C   UNL     1      19.284  34.806  37.524  1.00  0.00     0.174 C 
ATOM     32  C   UNL     1      17.530  34.796  39.269  1.00  0.00     0.211 C 
ATOM     33  O   UNL     1      19.420  34.567  36.299  1.00  0.00    -0.294 OA
ATOM     34  C   UNL     1      18.040  35.491  37.999  1.00  0.00     0.131 C 
BRANCH  27  35
ATOM     35  O   UNL     1      22.179  34.180  36.915  1.00  0.00    -0.507 OA
ATOM     36  H   UNL     1      23.075  33.814  36.632  1.00  0.00     0.293 HD
ENDBRANCH  27  35
BRANCH  32  37
ATOM     37  C   UNL     1      16.357  35.542  39.861  1.00  0.00    -0.007 A 
ATOM     38  C   UNL     1      15.680  36.522  39.118  1.00  0.00     0.011 A 
ATOM     39  C   UNL     1      15.891  35.214  41.145  1.00  0.00     0.011 A 
ATOM     40  C   UNL     1      14.578  37.187  39.663  1.00  0.00     0.046 A 
ATOM     41  C   UNL     1      14.786  35.876  41.689  1.00  0.00     0.046 A 
ATOM     42  C   UNL     1      14.129  36.866  40.948  1.00  0.00     0.115 A 
BRANCH  42  43
ATOM     43  O   UNL     1      13.025  37.536  41.476  1.00  0.00    -0.508 OA
ATOM     44  H   UNL     1      13.109  38.134  42.290  1.00  0.00     0.293 HD
ENDBRANCH  42  43
ENDBRANCH  32  37
ENDBRANCH  23  24
ENDBRANCH   6  23
BRANCH   3  45
ATOM     45  O   UNL     1      25.345  30.842  44.667  1.00  0.00    -0.387 OA
ATOM     46  H   UNL     1      24.688  30.129  44.885  1.00  0.00     0.211 HD
ENDBRANCH   3  45
BRANCH   4  47
ATOM     47  C   UNL     1      25.544  32.111  42.088  1.00  0.00     0.191 C 
BRANCH  47  48
ATOM     48  O   UNL     1      25.859  32.964  41.020  1.00  0.00    -0.394 OA
ATOM     49  H   UNL     1      26.063  33.859  41.409  1.00  0.00     0.210 HD
ENDBRANCH  47  48
ENDBRANCH   4  47
TORSDOF 14
ENDMDL
MODEL 4
REMARK VINA RESULT:    -4.581      1.401      2.215
REMARK INTER + INTRA:          -9.142
REMARK INTER:                  -7.347
REMARK INTRA:                  -1.795
REMARK UNBOUND:                -1.882
REMARK SMILES C[C@H]1O[C@H](O[C@H]2[C@H](Oc3cc(O)c4c(c3)O[C@@H](c3ccc(O)cc3)CC4=O)O[C@H](CO)[C@H](O)[C@@H]2O)[C@@H](O)[C@@H](O)[C@H]1O
REMARK SMILES IDX 6 1 34 2 32 3 29 4 28 5 7 6 5 7 4 8 1 9 2 10 40 11 3 12
REMARK SMILES IDX 38 13 36 14 41 15 39 17 37 19 35 21 8 23 9 24 10 25 15 26
REMARK SMILES IDX 11 27 14 28 13 29 16 30 26 31 17 32 27 33 25 34 12 35 18 37
REMARK SMILES IDX 19 38 24 39 20 40 23 41 21 42 22 43 33 45 30 47 31 48
REMARK H PARENT 41 16 39 18 37 20 35 22 12 36 22 44 33 46 31 49
REMARK Flexibility Score: inf
ROOT
ATOM      1  C   UNL     1      20.935  32.545  41.294  1.00  0.00     0.221 C 
ATOM      2  C   UNL     1      21.738  31.320  40.830  1.00  0.00     0.181 C 
ATOM      3  C   UNL     1      23.242  31.618  40.871  1.00  0.00     0.177 C 
ATOM      4  C   UNL     1      23.592  32.944  40.154  1.00  0.00     0.179 C 
ATOM      5  O   UNL     1      22.804  34.034  40.626  1.00  0.00    -0.332 OA
ATOM      6  C   UNL     1      21.397  33.817  40.545  1.00  0.00     0.339 C 
ENDROOT
BRANCH   1   7
ATOM      7  O   UNL     1      21.127  32.725  42.687  1.00  0.00    -0.337 OA
BRANCH   7   8
ATOM      8  C   UNL     1      20.677  33.956  43.256  1.00  0.00     0.282 C 
ATOM      9  C   UNL     1      18.406  33.385  46.117  1.00  0.00     0.041 C 
ATOM     10  C   UNL     1      19.744  33.630  45.422  1.00  0.00     0.150 C 
ATOM     11  C   UNL     1      20.473  34.843  46.018  1.00  0.00     0.174 C 
ATOM     12  O   UNL     1      19.502  33.788  44.038  1.00  0.00    -0.344 OA
ATOM     13  C   UNL     1      21.880  34.890  45.385  1.00  0.00     0.179 C 
ATOM     14  C   UNL     1      21.764  34.957  43.842  1.00  0.00     0.202 C 
BRANCH  11  15
ATOM     15  O   UNL     1      19.721  36.008  45.782  1.00  0.00    -0.388 OA
ATOM     16  H   UNL     1      20.018  36.699  46.436  1.00  0.00     0.211 HD
ENDBRANCH  11  15
BRANCH  13  17
ATOM     17  O   UNL     1      22.608  35.998  45.870  1.00  0.00    -0.387 OA
ATOM     18  H   UNL     1      23.508  35.961  45.451  1.00  0.00     0.211 HD
ENDBRANCH  13  17
BRANCH  14  19
ATOM     19  O   UNL     1      21.502  36.311  43.522  1.00  0.00    -0.385 OA
ATOM     20  H   UNL     1      21.632  36.897  44.310  1.00  0.00     0.211 HD
ENDBRANCH  14  19
ENDBRANCH   7   8
ENDBRANCH   1   7
BRANCH   2  21
ATOM     21  O   UNL     1      21.345  30.930  39.537  1.00  0.00    -0.387 OA
ATOM     22  H   UNL     1      20.580  30.302  39.644  1.00  0.00     0.211 HD
ENDBRANCH   2  21
BRANCH   6  23
ATOM     23  O   UNL     1      20.992  33.787  39.173  1.00  0.00    -0.462 OA
BRANCH  23  24
ATOM     24  C   UNL     1      19.876  34.402  38.585  1.00  0.00     0.130 A 
ATOM     25  C   UNL     1      19.813  34.777  37.229  1.00  0.00     0.093 A 
ATOM     26  C   UNL     1      18.789  34.676  39.411  1.00  0.00     0.094 A 
ATOM     27  C   UNL     1      18.702  35.465  36.721  1.00  0.00     0.133 A 
ATOM     28  C   UNL     1      17.639  35.290  38.908  1.00  0.00     0.138 A 
ATOM     29  C   UNL     1      17.579  35.697  37.560  1.00  0.00     0.102 A 
ATOM     30  O   UNL     1      16.550  35.498  39.767  1.00  0.00    -0.484 OA
ATOM     31  C   UNL     1      16.316  36.336  37.106  1.00  0.00     0.174 C 
ATOM     32  C   UNL     1      15.249  35.841  39.282  1.00  0.00     0.211 C 
ATOM     33  O   UNL     1      16.018  36.427  35.890  1.00  0.00    -0.294 OA
ATOM     34  C   UNL     1      15.356  36.852  38.133  1.00  0.00     0.131 C 
BRANCH  27  35
ATOM     35  O   UNL     1      18.787  35.940  35.409  1.00  0.00    -0.507 OA
ATOM     36  H   UNL     1      18.054  35.844  34.723  1.00  0.00     0.293 HD
ENDBRANCH  27  35
BRANCH  32  37
ATOM     37  C   UNL     1      14.399  36.386  40.407  1.00  0.00    -0.007 A 
ATOM     38  C   UNL     1      14.341  35.729  41.646  1.00  0.00     0.011 A 
ATOM     39  C   UNL     1      13.706  37.597  40.242  1.00  0.00     0.011 A 
ATOM     40  C   UNL     1      13.575  36.254  42.690  1.00  0.00     0.046 A 
ATOM     41  C   UNL     1      12.944  38.125  41.288  1.00  0.00     0.046 A 
ATOM     42  C   UNL     1      12.875  37.452  42.514  1.00  0.00     0.115 A 
BRANCH  42  43
ATOM     43  O   UNL     1      12.118  37.966  43.567  1.00  0.00    -0.508 OA
ATOM     44  H   UNL     1      12.322  38.873  43.971  1.00  0.00     0.293 HD
ENDBRANCH  42  43
ENDBRANCH  32  37
ENDBRANCH  23  24
ENDBRANCH   6  23
BRANCH   3  45
ATOM     45  O   UNL     1      23.979  30.552  40.323  1.00  0.00    -0.387 OA
ATOM     46  H   UNL     1      24.610  30.943  39.662  1.00  0.00     0.211 HD
ENDBRANCH   3  45
BRANCH   4  47
ATOM     47  C   UNL     1      23.645  32.839  38.605  1.00  0.00     0.191 C 
BRANCH  47  48
ATOM     48  O   UNL     1      24.902  32.413  38.153  1.00  0.00    -0.394 OA
ATOM     49  H   UNL     1      24.788  31.493  37.787  1.00  0.00     0.210 HD
ENDBRANCH  47  48
ENDBRANCH   4  47
TORSDOF 14
ENDMDL
MODEL 5
REMARK VINA RESULT:    -4.508      2.036      6.280
REMARK INTER + INTRA:          -9.025
REMARK INTER:                  -6.583
REMARK INTRA:                  -2.442
REMARK UNBOUND:                -1.882
REMARK SMILES C[C@H]1O[C@H](O[C@H]2[C@H](Oc3cc(O)c4c(c3)O[C@@H](c3ccc(O)cc3)CC4=O)O[C@H](CO)[C@H](O)[C@@H]2O)[C@@H](O)[C@@H](O)[C@H]1O
REMARK SMILES IDX 6 1 34 2 32 3 29 4 28 5 7 6 5 7 4 8 1 9 2 10 40 11 3 12
REMARK SMILES IDX 38 13 36 14 41 15 39 17 37 19 35 21 8 23 9 24 10 25 15 26
REMARK SMILES IDX 11 27 14 28 13 29 16 30 26 31 17 32 27 33 25 34 12 35 18 37
REMARK SMILES IDX 19 38 24 39 20 40 23 41 21 42 22 43 33 45 30 47 31 48
REMARK H PARENT 41 16 39 18 37 20 35 22 12 36 22 44 33 46 31 49
REMARK Flexibility Score: inf
ROOT
ATOM      1  C   UNL     1      21.041  33.962  41.835  1.00  0.00     0.221 C 
ATOM      2  C   UNL     1      22.090  34.758  42.628  1.00  0.00     0.181 C 
ATOM      3  C   UNL     1      22.771  33.860  43.668  1.00  0.00     0.177 C 
ATOM      4  C   UNL     1      21.744  33.085  44.528  1.00  0.00     0.179 C 
ATOM      5  O   UNL     1      20.799  32.379  43.730  1.00  0.00    -0.332 OA
ATOM      6  C   UNL     1      20.100  33.195  42.793  1.00  0.00     0.339 C 
ENDROOT
BRANCH   1   7
ATOM      7  O   UNL     1      21.703  33.038  40.988  1.00  0.00    -0.337 OA
BRANCH   7   8
ATOM      8  C   UNL     1      21.423  33.116  39.589  1.00  0.00     0.282 C 
ATOM      9  C   UNL     1      19.398  30.244  38.442  1.00  0.00     0.041 C 
ATOM     10  C   UNL     1      19.648  31.656  38.969  1.00  0.00     0.150 C 
ATOM     11  C   UNL     1      18.965  32.713  38.089  1.00  0.00     0.174 C 
ATOM     12  O   UNL     1      21.045  31.857  39.046  1.00  0.00    -0.344 OA
ATOM     13  C   UNL     1      19.116  34.072  38.803  1.00  0.00     0.179 C 
ATOM     14  C   UNL     1      20.615  34.375  39.052  1.00  0.00     0.202 C 
BRANCH  11  15
ATOM     15  O   UNL     1      19.534  32.696  36.803  1.00  0.00    -0.388 OA
ATOM     16  H   UNL     1      20.491  32.435  36.898  1.00  0.00     0.211 HD
ENDBRANCH  11  15
BRANCH  13  17
ATOM     17  O   UNL     1      18.528  35.104  38.040  1.00  0.00    -0.387 OA
ATOM     18  H   UNL     1      18.644  35.948  38.554  1.00  0.00     0.211 HD
ENDBRANCH  13  17
BRANCH  14  19
ATOM     19  O   UNL     1      21.125  34.883  37.833  1.00  0.00    -0.385 OA
ATOM     20  H   UNL     1      20.816  35.810  37.675  1.00  0.00     0.211 HD
ENDBRANCH  14  19
ENDBRANCH   7   8
ENDBRANCH   1   7
BRANCH   2  21
ATOM     21  O   UNL     1      21.500  35.875  43.247  1.00  0.00    -0.387 OA
ATOM     22  H   UNL     1      20.529  35.849  43.028  1.00  0.00     0.211 HD
ENDBRANCH   2  21
BRANCH   6  23
ATOM     23  O   UNL     1      19.226  34.089  43.488  1.00  0.00    -0.462 OA
BRANCH  23  24
ATOM     24  C   UNL     1      17.939  34.506  43.119  1.00  0.00     0.130 A 
ATOM     25  C   UNL     1      16.809  34.393  43.952  1.00  0.00     0.093 A 
ATOM     26  C   UNL     1      17.782  35.036  41.840  1.00  0.00     0.094 A 
ATOM     27  C   UNL     1      15.534  34.750  43.493  1.00  0.00     0.133 A 
ATOM     28  C   UNL     1      16.533  35.472  41.389  1.00  0.00     0.138 A 
ATOM     29  C   UNL     1      15.391  35.333  42.204  1.00  0.00     0.102 A 
ATOM     30  O   UNL     1      16.436  36.045  40.113  1.00  0.00    -0.484 OA
ATOM     31  C   UNL     1      14.105  35.830  41.650  1.00  0.00     0.174 C 
ATOM     32  C   UNL     1      15.282  36.777  39.691  1.00  0.00     0.211 C 
ATOM     33  O   UNL     1      13.115  36.071  42.384  1.00  0.00    -0.294 OA
ATOM     34  C   UNL     1      14.001  36.085  40.178  1.00  0.00     0.131 C 
BRANCH  27  35
ATOM     35  O   UNL     1      14.448  34.458  44.322  1.00  0.00    -0.507 OA
ATOM     36  H   UNL     1      14.531  34.085  45.256  1.00  0.00     0.293 HD
ENDBRANCH  27  35
BRANCH  32  37
ATOM     37  C   UNL     1      15.279  36.925  38.187  1.00  0.00    -0.007 A 
ATOM     38  C   UNL     1      14.295  36.297  37.405  1.00  0.00     0.011 A 
ATOM     39  C   UNL     1      16.227  37.750  37.559  1.00  0.00     0.011 A 
ATOM     40  C   UNL     1      14.283  36.463  36.017  1.00  0.00     0.046 A 
ATOM     41  C   UNL     1      16.212  37.919  36.172  1.00  0.00     0.046 A 
ATOM     42  C   UNL     1      15.240  37.273  35.398  1.00  0.00     0.115 A 
BRANCH  42  43
ATOM     43  O   UNL     1      15.211  37.432  34.012  1.00  0.00    -0.508 OA
ATOM     44  H   UNL     1      15.103  38.345  33.587  1.00  0.00     0.293 HD
ENDBRANCH  42  43
ENDBRANCH  32  37
ENDBRANCH  23  24
ENDBRANCH   6  23
BRANCH   3  45
ATOM     45  O   UNL     1      23.636  34.609  44.486  1.00  0.00    -0.387 OA
ATOM     46  H   UNL     1      23.775  35.486  44.038  1.00  0.00     0.211 HD
ENDBRANCH   3  45
BRANCH   4  47
ATOM     47  C   UNL     1      21.098  33.925  45.663  1.00  0.00     0.191 C 
BRANCH  47  48
ATOM     48  O   UNL     1      19.905  33.349  46.125  1.00  0.00    -0.394 OA
ATOM     49  H   UNL     1      20.151  32.522  46.625  1.00  0.00     0.210 HD
ENDBRANCH  47  48
ENDBRANCH   4  47
TORSDOF 14
ENDMDL
MODEL 6
REMARK VINA RESULT:    -4.448      2.224      6.411
REMARK INTER + INTRA:          -8.930
REMARK INTER:                  -6.967
REMARK INTRA:                  -1.963
REMARK UNBOUND:                -1.882
REMARK SMILES C[C@H]1O[C@H](O[C@H]2[C@H](Oc3cc(O)c4c(c3)O[C@@H](c3ccc(O)cc3)CC4=O)O[C@H](CO)[C@H](O)[C@@H]2O)[C@@H](O)[C@@H](O)[C@H]1O
REMARK SMILES IDX 6 1 34 2 32 3 29 4 28 5 7 6 5 7 4 8 1 9 2 10 40 11 3 12
REMARK SMILES IDX 38 13 36 14 41 15 39 17 37 19 35 21 8 23 9 24 10 25 15 26
REMARK SMILES IDX 11 27 14 28 13 29 16 30 26 31 17 32 27 33 25 34 12 35 18 37
REMARK SMILES IDX 19 38 24 39 20 40 23 41 21 42 22 43 33 45 30 47 31 48
REMARK H PARENT 41 16 39 18 37 20 35 22 12 36 22 44 33 46 31 49
REMARK Flexibility Score: inf
ROOT
ATOM      1  C   UNL     1      21.123  33.568  42.093  1.00  0.00     0.221 C 
ATOM      2  C   UNL     1      22.133  34.518  42.753  1.00  0.00     0.181 C 
ATOM      3  C   UNL     1      22.773  33.854  43.979  1.00  0.00     0.177 C 
ATOM      4  C   UNL     1      21.713  33.252  44.933  1.00  0.00     0.179 C 
ATOM      5  O   UNL     1      20.806  32.390  44.253  1.00  0.00    -0.332 OA
ATOM      6  C   UNL     1      20.144  32.994  43.144  1.00  0.00     0.339 C 
ENDROOT
BRANCH   1   7
ATOM      7  O   UNL     1      21.825  32.502  41.475  1.00  0.00    -0.337 OA
BRANCH   7   8
ATOM      8  C   UNL     1      21.639  32.324  40.069  1.00  0.00     0.282 C 
ATOM      9  C   UNL     1      18.181  31.288  39.272  1.00  0.00     0.041 C 
ATOM     10  C   UNL     1      19.330  32.270  39.491  1.00  0.00     0.150 C 
ATOM     11  C   UNL     1      19.519  33.194  38.279  1.00  0.00     0.174 C 
ATOM     12  O   UNL     1      20.498  31.527  39.775  1.00  0.00    -0.344 OA
ATOM     13  C   UNL     1      20.564  34.259  38.672  1.00  0.00     0.179 C 
ATOM     14  C   UNL     1      21.879  33.572  39.114  1.00  0.00     0.202 C 
BRANCH  11  15
ATOM     15  O   UNL     1      19.898  32.432  37.159  1.00  0.00    -0.388 OA
ATOM     16  H   UNL     1      19.685  31.478  37.354  1.00  0.00     0.211 HD
ENDBRANCH  11  15
BRANCH  13  17
ATOM     17  O   UNL     1      20.809  35.138  37.594  1.00  0.00    -0.387 OA
ATOM     18  H   UNL     1      20.132  34.937  36.895  1.00  0.00     0.211 HD
ENDBRANCH  13  17
BRANCH  14  19
ATOM     19  O   UNL     1      22.571  33.235  37.925  1.00  0.00    -0.385 OA
ATOM     20  H   UNL     1      21.990  33.342  37.131  1.00  0.00     0.211 HD
ENDBRANCH  14  19
ENDBRANCH   7   8
ENDBRANCH   1   7
BRANCH   2  21
ATOM     21  O   UNL     1      21.513  35.729  43.113  1.00  0.00    -0.387 OA
ATOM     22  H   UNL     1      21.270  36.192  42.266  1.00  0.00     0.211 HD
ENDBRANCH   2  21
BRANCH   6  23
ATOM     23  O   UNL     1      19.239  33.998  43.611  1.00  0.00    -0.462 OA
BRANCH  23  24
ATOM     24  C   UNL     1      18.070  34.468  42.991  1.00  0.00     0.130 A 
ATOM     25  C   UNL     1      16.796  34.428  43.590  1.00  0.00     0.093 A 
ATOM     26  C   UNL     1      18.192  34.974  41.700  1.00  0.00     0.094 A 
ATOM     27  C   UNL     1      15.654  34.835  42.886  1.00  0.00     0.133 A 
ATOM     28  C   UNL     1      17.079  35.459  41.007  1.00  0.00     0.138 A 
ATOM     29  C   UNL     1      15.795  35.394  41.586  1.00  0.00     0.102 A 
ATOM     30  O   UNL     1      17.261  36.006  39.729  1.00  0.00    -0.484 OA
ATOM     31  C   UNL     1      14.668  35.939  40.785  1.00  0.00     0.174 C 
ATOM     32  C   UNL     1      16.250  36.782  39.080  1.00  0.00     0.211 C 
ATOM     33  O   UNL     1      13.568  36.243  41.308  1.00  0.00    -0.294 OA
ATOM     34  C   UNL     1      14.865  36.163  39.318  1.00  0.00     0.131 C 
BRANCH  27  35
ATOM     35  O   UNL     1      14.414  34.615  43.491  1.00  0.00    -0.507 OA
ATOM     36  H   UNL     1      13.842  35.342  43.893  1.00  0.00     0.293 HD
ENDBRANCH  27  35
BRANCH  32  37
ATOM     37  C   UNL     1      16.547  36.895  37.603  1.00  0.00    -0.007 A 
ATOM     38  C   UNL     1      16.119  38.013  36.868  1.00  0.00     0.011 A 
ATOM     39  C   UNL     1      17.312  35.908  36.961  1.00  0.00     0.011 A 
ATOM     40  C   UNL     1      16.422  38.124  35.508  1.00  0.00     0.046 A 
ATOM     41  C   UNL     1      17.620  36.021  35.602  1.00  0.00     0.046 A 
ATOM     42  C   UNL     1      17.172  37.129  34.872  1.00  0.00     0.115 A 
BRANCH  42  43
ATOM     43  O   UNL     1      17.470  37.257  33.515  1.00  0.00    -0.508 OA
ATOM     44  H   UNL     1      18.319  37.711  33.201  1.00  0.00     0.293 HD
ENDBRANCH  42  43
ENDBRANCH  32  37
ENDBRANCH  23  24
ENDBRANCH   6  23
BRANCH   3  45
ATOM     45  O   UNL     1      23.599  34.761  44.667  1.00  0.00    -0.387 OA
ATOM     46  H   UNL     1      23.268  35.675  44.455  1.00  0.00     0.211 HD
ENDBRANCH   3  45
BRANCH   4  47
ATOM     47  C   UNL     1      21.015  34.293  45.850  1.00  0.00     0.191 C 
BRANCH  47  48
ATOM     48  O   UNL     1      21.845  35.391  46.121  1.00  0.00    -0.394 OA
ATOM     49  H   UNL     1      21.288  36.071  46.592  1.00  0.00     0.210 HD
ENDBRANCH  47  48
ENDBRANCH   4  47
TORSDOF 14
ENDMDL
MODEL 7
REMARK VINA RESULT:    -4.360      2.384      6.765
REMARK INTER + INTRA:          -8.791
REMARK INTER:                  -6.877
REMARK INTRA:                  -1.914
REMARK UNBOUND:                -1.882
REMARK SMILES C[C@H]1O[C@H](O[C@H]2[C@H](Oc3cc(O)c4c(c3)O[C@@H](c3ccc(O)cc3)CC4=O)O[C@H](CO)[C@H](O)[C@@H]2O)[C@@H](O)[C@@H](O)[C@H]1O
REMARK SMILES IDX 6 1 34 2 32 3 29 4 28 5 7 6 5 7 4 8 1 9 2 10 40 11 3 12
REMARK SMILES IDX 38 13 36 14 41 15 39 17 37 19 35 21 8 23 9 24 10 25 15 26
REMARK SMILES IDX 11 27 14 28 13 29 16 30 26 31 17 32 27 33 25 34 12 35 18 37
REMARK SMILES IDX 19 38 24 39 20 40 23 41 21 42 22 43 33 45 30 47 31 48
REMARK H PARENT 41 16 39 18 37 20 35 22 12 36 22 44 33 46 31 49
REMARK Flexibility Score: inf
ROOT
ATOM      1  C   UNL     1      21.450  34.110  41.759  1.00  0.00     0.221 C 
ATOM      2  C   UNL     1      22.253  34.932  42.779  1.00  0.00     0.181 C 
ATOM      3  C   UNL     1      23.013  34.004  43.735  1.00  0.00     0.177 C 
ATOM      4  C   UNL     1      22.095  32.916  44.342  1.00  0.00     0.179 C 
ATOM      5  O   UNL     1      21.375  32.201  43.341  1.00  0.00    -0.332 OA
ATOM      6  C   UNL     1      20.606  33.028  42.472  1.00  0.00     0.339 C 
ENDROOT
BRANCH   1   7
ATOM      7  O   UNL     1      22.348  33.486  40.857  1.00  0.00    -0.337 OA
BRANCH   7   8
ATOM      8  C   UNL     1      22.325  33.928  39.498  1.00  0.00     0.282 C 
ATOM      9  C   UNL     1      24.538  31.879  37.359  1.00  0.00     0.041 C 
ATOM     10  C   UNL     1      23.226  32.287  38.027  1.00  0.00     0.150 C 
ATOM     11  C   UNL     1      22.101  32.462  36.996  1.00  0.00     0.174 C 
ATOM     12  O   UNL     1      23.454  33.471  38.765  1.00  0.00    -0.344 OA
ATOM     13  C   UNL     1      20.791  32.684  37.780  1.00  0.00     0.179 C 
ATOM     14  C   UNL     1      20.937  33.904  38.722  1.00  0.00     0.202 C 
BRANCH  11  15
ATOM     15  O   UNL     1      22.416  33.525  36.131  1.00  0.00    -0.388 OA
ATOM     16  H   UNL     1      23.368  33.421  35.856  1.00  0.00     0.211 HD
ENDBRANCH  11  15
BRANCH  13  17
ATOM     17  O   UNL     1      19.708  32.876  36.895  1.00  0.00    -0.387 OA
ATOM     18  H   UNL     1      19.071  32.128  37.048  1.00  0.00     0.211 HD
ENDBRANCH  13  17
BRANCH  14  19
ATOM     19  O   UNL     1      20.731  35.052  37.920  1.00  0.00    -0.385 OA
ATOM     20  H   UNL     1      21.283  35.812  38.233  1.00  0.00     0.211 HD
ENDBRANCH  14  19
ENDBRANCH   7   8
ENDBRANCH   1   7
BRANCH   2  21
ATOM     21  O   UNL     1      21.406  35.796  43.496  1.00  0.00    -0.387 OA
ATOM     22  H   UNL     1      20.472  35.512  43.303  1.00  0.00     0.211 HD
ENDBRANCH   2  21
BRANCH   6  23
ATOM     23  O   UNL     1      19.520  33.612  43.196  1.00  0.00    -0.462 OA
BRANCH  23  24
ATOM     24  C   UNL     1      18.353  34.202  42.685  1.00  0.00     0.130 A 
ATOM     25  C   UNL     1      17.133  34.262  43.386  1.00  0.00     0.093 A 
ATOM     26  C   UNL     1      18.416  34.729  41.397  1.00  0.00     0.094 A 
ATOM     27  C   UNL     1      15.981  34.789  42.787  1.00  0.00     0.133 A 
ATOM     28  C   UNL     1      17.300  35.330  40.809  1.00  0.00     0.138 A 
ATOM     29  C   UNL     1      16.067  35.367  41.491  1.00  0.00     0.102 A 
ATOM     30  O   UNL     1      17.428  35.892  39.530  1.00  0.00    -0.484 OA
ATOM     31  C   UNL     1      14.934  36.032  40.796  1.00  0.00     0.174 C 
ATOM     32  C   UNL     1      16.443  36.773  38.982  1.00  0.00     0.211 C 
ATOM     33  O   UNL     1      13.913  36.421  41.415  1.00  0.00    -0.294 OA
ATOM     34  C   UNL     1      15.032  36.276  39.322  1.00  0.00     0.131 C 
BRANCH  27  35
ATOM     35  O   UNL     1      14.779  34.666  43.489  1.00  0.00    -0.507 OA
ATOM     36  H   UNL     1      14.298  33.793  43.642  1.00  0.00     0.293 HD
ENDBRANCH  27  35
BRANCH  32  37
ATOM     37  C   UNL     1      16.629  36.897  37.487  1.00  0.00    -0.007 A 
ATOM     38  C   UNL     1      16.114  38.002  36.790  1.00  0.00     0.011 A 
ATOM     39  C   UNL     1      17.376  35.936  36.788  1.00  0.00     0.011 A 
ATOM     40  C   UNL     1      16.314  38.125  35.412  1.00  0.00     0.046 A 
ATOM     41  C   UNL     1      17.581  36.060  35.411  1.00  0.00     0.046 A 
ATOM     42  C   UNL     1      17.047  37.155  34.719  1.00  0.00     0.115 A 
BRANCH  42  43
ATOM     43  O   UNL     1      17.241  37.294  33.345  1.00  0.00    -0.508 OA
ATOM     44  H   UNL     1      16.825  36.648  32.685  1.00  0.00     0.293 HD
ENDBRANCH  42  43
ENDBRANCH  32  37
ENDBRANCH  23  24
ENDBRANCH   6  23
BRANCH   3  45
ATOM     45  O   UNL     1      23.644  34.742  44.753  1.00  0.00    -0.387 OA
ATOM     46  H   UNL     1      23.084  35.548  44.919  1.00  0.00     0.211 HD
ENDBRANCH   3  45
BRANCH   4  47
ATOM     47  C   UNL     1      21.205  33.411  45.515  1.00  0.00     0.191 C 
BRANCH  47  48
ATOM     48  O   UNL     1      20.177  32.505  45.810  1.00  0.00    -0.394 OA
ATOM     49  H   UNL     1      20.569  31.792  46.388  1.00  0.00     0.210 HD
ENDBRANCH  47  48
ENDBRANCH   4  47
TORSDOF 14
ENDMDL
MODEL 8
REMARK VINA RESULT:    -4.344      3.130      5.771
REMARK INTER + INTRA:          -8.765
REMARK INTER:                  -6.896
REMARK INTRA:                  -1.868
REMARK UNBOUND:                -1.882
REMARK SMILES C[C@H]1O[C@H](O[C@H]2[C@H](Oc3cc(O)c4c(c3)O[C@@H](c3ccc(O)cc3)CC4=O)O[C@H](CO)[C@H](O)[C@@H]2O)[C@@H](O)[C@@H](O)[C@H]1O
REMARK SMILES IDX 6 1 34 2 32 3 29 4 28 5 7 6 5 7 4 8 1 9 2 10 40 11 3 12
REMARK SMILES IDX 38 13 36 14 41 15 39 17 37 19 35 21 8 23 9 24 10 25 15 26
REMARK SMILES IDX 11 27 14 28 13 29 16 30 26 31 17 32 27 33 25 34 12 35 18 37
REMARK SMILES IDX 19 38 24 39 20 40 23 41 21 42 22 43 33 45 30 47 31 48
REMARK H PARENT 41 16 39 18 37 20 35 22 12 36 22 44 33 46 31 49
REMARK Flexibility Score: inf
ROOT
ATOM      1  C   UNL     1      22.900  31.804  42.398  1.00  0.00     0.221 C 
ATOM      2  C   UNL     1      23.795  30.587  42.676  1.00  0.00     0.181 C 
ATOM      3  C   UNL     1      25.097  31.024  43.360  1.00  0.00     0.177 C 
ATOM      4  C   UNL     1      25.785  32.190  42.610  1.00  0.00     0.179 C 
ATOM      5  O   UNL     1      24.895  33.278  42.378  1.00  0.00    -0.332 OA
ATOM      6  C   UNL     1      23.701  32.920  41.687  1.00  0.00     0.339 C 
ENDROOT
BRANCH   1   7
ATOM      7  O   UNL     1      22.395  32.299  43.627  1.00  0.00    -0.337 OA
BRANCH   7   8
ATOM      8  C   UNL     1      21.505  33.415  43.567  1.00  0.00     0.282 C 
ATOM      9  C   UNL     1      18.593  32.959  45.798  1.00  0.00     0.041 C 
ATOM     10  C   UNL     1      19.992  33.429  45.405  1.00  0.00     0.150 C 
ATOM     11  C   UNL     1      20.172  34.933  45.659  1.00  0.00     0.174 C 
ATOM     12  O   UNL     1      20.207  33.094  44.049  1.00  0.00    -0.344 OA
ATOM     13  C   UNL     1      21.658  35.266  45.412  1.00  0.00     0.179 C 
ATOM     14  C   UNL     1      22.064  34.846  43.978  1.00  0.00     0.202 C 
BRANCH  11  15
ATOM     15  O   UNL     1      19.297  35.659  44.831  1.00  0.00    -0.388 OA
ATOM     16  H   UNL     1      19.835  36.049  44.088  1.00  0.00     0.211 HD
ENDBRANCH  11  15
BRANCH  13  17
ATOM     17  O   UNL     1      21.899  36.644  45.606  1.00  0.00    -0.387 OA
ATOM     18  H   UNL     1      22.545  36.724  46.357  1.00  0.00     0.211 HD
ENDBRANCH  13  17
BRANCH  14  19
ATOM     19  O   UNL     1      21.620  35.882  43.121  1.00  0.00    -0.385 OA
ATOM     20  H   UNL     1      20.746  35.659  42.713  1.00  0.00     0.211 HD
ENDBRANCH  14  19
ENDBRANCH   7   8
ENDBRANCH   1   7
BRANCH   2  21
ATOM     21  O   UNL     1      24.071  29.891  41.485  1.00  0.00    -0.387 OA
ATOM     22  H   UNL     1      24.238  30.576  40.782  1.00  0.00     0.211 HD
ENDBRANCH   2  21
BRANCH   6  23
ATOM     23  O   UNL     1      24.013  32.556  40.340  1.00  0.00    -0.462 OA
BRANCH  23  24
ATOM     24  C   UNL     1      23.417  33.019  39.156  1.00  0.00     0.130 A 
ATOM     25  C   UNL     1      24.061  33.022  37.904  1.00  0.00     0.093 A 
ATOM     26  C   UNL     1      22.123  33.526  39.249  1.00  0.00     0.094 A 
ATOM     27  C   UNL     1      23.442  33.575  36.774  1.00  0.00     0.133 A 
ATOM     28  C   UNL     1      21.456  34.011  38.121  1.00  0.00     0.138 A 
ATOM     29  C   UNL     1      22.105  34.047  36.869  1.00  0.00     0.102 A 
ATOM     30  O   UNL     1      20.135  34.463  38.255  1.00  0.00    -0.484 OA
ATOM     31  C   UNL     1      21.320  34.571  35.721  1.00  0.00     0.174 C 
ATOM     32  C   UNL     1      19.289  34.694  37.127  1.00  0.00     0.211 C 
ATOM     33  O   UNL     1      21.652  34.343  34.531  1.00  0.00    -0.294 OA
ATOM     34  C   UNL     1      20.079  35.362  35.993  1.00  0.00     0.131 C 
BRANCH  27  35
ATOM     35  O   UNL     1      24.209  33.683  35.611  1.00  0.00    -0.507 OA
ATOM     36  H   UNL     1      23.856  34.019  34.728  1.00  0.00     0.293 HD
ENDBRANCH  27  35
BRANCH  32  37
ATOM     37  C   UNL     1      18.100  35.536  37.529  1.00  0.00    -0.007 A 
ATOM     38  C   UNL     1      17.715  35.637  38.875  1.00  0.00     0.011 A 
ATOM     39  C   UNL     1      17.406  36.281  36.561  1.00  0.00     0.011 A 
ATOM     40  C   UNL     1      16.631  36.441  39.242  1.00  0.00     0.046 A 
ATOM     41  C   UNL     1      16.326  37.089  36.929  1.00  0.00     0.046 A 
ATOM     42  C   UNL     1      15.935  37.168  38.271  1.00  0.00     0.115 A 
BRANCH  42  43
ATOM     43  O   UNL     1      14.859  37.969  38.654  1.00  0.00    -0.508 OA
ATOM     44  H   UNL     1      14.519  38.716  38.061  1.00  0.00     0.293 HD
ENDBRANCH  42  43
ENDBRANCH  32  37
ENDBRANCH  23  24
ENDBRANCH   6  23
BRANCH   3  45
ATOM     45  O   UNL     1      25.979  29.937  43.499  1.00  0.00    -0.387 OA
ATOM     46  H   UNL     1      25.652  29.217  42.895  1.00  0.00     0.211 HD
ENDBRANCH   3  45
BRANCH   4  47
ATOM     47  C   UNL     1      26.582  31.757  41.349  1.00  0.00     0.191 C 
BRANCH  47  48
ATOM     48  O   UNL     1      26.949  32.856  40.560  1.00  0.00    -0.394 OA
ATOM     49  H   UNL     1      27.067  32.523  39.627  1.00  0.00     0.210 HD
ENDBRANCH  47  48
ENDBRANCH   4  47
TORSDOF 14
ENDMDL
MODEL 9
REMARK VINA RESULT:    -4.216      2.280      6.954
REMARK INTER + INTRA:          -8.563
REMARK INTER:                  -6.440
REMARK INTRA:                  -2.123
REMARK UNBOUND:                -1.882
REMARK SMILES C[C@H]1O[C@H](O[C@H]2[C@H](Oc3cc(O)c4c(c3)O[C@@H](c3ccc(O)cc3)CC4=O)O[C@H](CO)[C@H](O)[C@@H]2O)[C@@H](O)[C@@H](O)[C@H]1O
REMARK SMILES IDX 6 1 34 2 32 3 29 4 28 5 7 6 5 7 4 8 1 9 2 10 40 11 3 12
REMARK SMILES IDX 38 13 36 14 41 15 39 17 37 19 35 21 8 23 9 24 10 25 15 26
REMARK SMILES IDX 11 27 14 28 13 29 16 30 26 31 17 32 27 33 25 34 12 35 18 37
REMARK SMILES IDX 19 38 24 39 20 40 23 41 21 42 22 43 33 45 30 47 31 48
REMARK H PARENT 41 16 39 18 37 20 35 22 12 36 22 44 33 46 31 49
REMARK Flexibility Score: inf
ROOT
ATOM      1  C   UNL     1      17.122  34.403  37.231  1.00  0.00     0.221 C 
ATOM      2  C   UNL     1      16.015  33.895  36.295  1.00  0.00     0.181 C 
ATOM      3  C   UNL     1      15.754  34.908  35.174  1.00  0.00     0.177 C 
ATOM      4  C   UNL     1      15.548  36.341  35.721  1.00  0.00     0.179 C 
ATOM      5  O   UNL     1      16.606  36.742  36.587  1.00  0.00    -0.332 OA
ATOM      6  C   UNL     1      16.836  35.855  37.679  1.00  0.00     0.339 C 
ENDROOT
BRANCH   1   7
ATOM      7  O   UNL     1      18.364  34.359  36.547  1.00  0.00    -0.337 OA
BRANCH   7   8
ATOM      8  C   UNL     1      19.522  34.792  37.264  1.00  0.00     0.282 C 
ATOM      9  C   UNL     1      19.891  32.991  40.471  1.00  0.00     0.041 C 
ATOM     10  C   UNL     1      20.112  33.254  38.983  1.00  0.00     0.150 C 
ATOM     11  C   UNL     1      21.607  33.301  38.637  1.00  0.00     0.174 C 
ATOM     12  O   UNL     1      19.454  34.459  38.645  1.00  0.00    -0.344 OA
ATOM     13  C   UNL     1      21.720  33.381  37.101  1.00  0.00     0.179 C 
ATOM     14  C   UNL     1      20.944  34.613  36.575  1.00  0.00     0.202 C 
BRANCH  11  15
ATOM     15  O   UNL     1      22.209  34.389  39.294  1.00  0.00    -0.388 OA
ATOM     16  H   UNL     1      23.102  34.541  38.876  1.00  0.00     0.211 HD
ENDBRANCH  11  15
BRANCH  13  17
ATOM     17  O   UNL     1      23.074  33.449  36.704  1.00  0.00    -0.387 OA
ATOM     18  H   UNL     1      23.583  32.833  37.295  1.00  0.00     0.211 HD
ENDBRANCH  13  17
BRANCH  14  19
ATOM     19  O   UNL     1      21.795  35.729  36.763  1.00  0.00    -0.385 OA
ATOM     20  H   UNL     1      21.272  36.558  36.904  1.00  0.00     0.211 HD
ENDBRANCH  14  19
ENDBRANCH   7   8
ENDBRANCH   1   7
BRANCH   2  21
ATOM     21  O   UNL     1      14.835  33.640  37.017  1.00  0.00    -0.387 OA
ATOM     22  H   UNL     1      14.632  32.671  36.908  1.00  0.00     0.211 HD
ENDBRANCH   2  21
BRANCH   6  23
ATOM     23  O   UNL     1      15.731  35.909  38.586  1.00  0.00    -0.462 OA
BRANCH  23  24
ATOM     24  C   UNL     1      15.700  35.537  39.939  1.00  0.00     0.130 A 
ATOM     25  C   UNL     1      14.523  35.191  40.630  1.00  0.00     0.093 A 
ATOM     26  C   UNL     1      16.910  35.543  40.630  1.00  0.00     0.094 A 
ATOM     27  C   UNL     1      14.547  34.910  42.003  1.00  0.00     0.133 A 
ATOM     28  C   UNL     1      16.969  35.190  41.981  1.00  0.00     0.138 A 
ATOM     29  C   UNL     1      15.792  34.872  42.688  1.00  0.00     0.102 A 
ATOM     30  O   UNL     1      18.218  35.160  42.619  1.00  0.00    -0.484 OA
ATOM     31  C   UNL     1      15.947  34.500  44.119  1.00  0.00     0.174 C 
ATOM     32  C   UNL     1      18.410  34.537  43.892  1.00  0.00     0.211 C 
ATOM     33  O   UNL     1      15.049  33.885  44.745  1.00  0.00    -0.294 OA
ATOM     34  C   UNL     1      17.225  34.838  44.820  1.00  0.00     0.131 C 
BRANCH  27  35
ATOM     35  O   UNL     1      13.318  34.733  42.643  1.00  0.00    -0.507 OA
ATOM     36  H   UNL     1      12.896  33.834  42.822  1.00  0.00     0.293 HD
ENDBRANCH  27  35
BRANCH  32  37
ATOM     37  C   UNL     1      19.711  34.995  44.507  1.00  0.00    -0.007 A 
ATOM     38  C   UNL     1      20.848  34.170  44.481  1.00  0.00     0.011 A 
ATOM     39  C   UNL     1      19.815  36.283  45.058  1.00  0.00     0.011 A 
ATOM     40  C   UNL     1      22.056  34.612  45.027  1.00  0.00     0.046 A 
ATOM     41  C   UNL     1      21.024  36.727  45.599  1.00  0.00     0.046 A 
ATOM     42  C   UNL     1      22.147  35.891  45.587  1.00  0.00     0.115 A 
BRANCH  42  43
ATOM     43  O   UNL     1      23.361  36.319  46.124  1.00  0.00    -0.508 OA
ATOM     44  H   UNL     1      23.836  35.790  46.846  1.00  0.00     0.293 HD
ENDBRANCH  42  43
ENDBRANCH  32  37
ENDBRANCH  23  24
ENDBRANCH   6  23
BRANCH   3  45
ATOM     45  O   UNL     1      14.653  34.515  34.391  1.00  0.00    -0.387 OA
ATOM     46  H   UNL     1      13.974  35.238  34.459  1.00  0.00     0.211 HD
ENDBRANCH   3  45
BRANCH   4  47
ATOM     47  C   UNL     1      14.132  36.606  36.302  1.00  0.00     0.191 C 
BRANCH  47  48
ATOM     48  O   UNL     1      14.093  37.779  37.070  1.00  0.00    -0.394 OA
ATOM     49  H   UNL     1      14.682  37.633  37.861  1.00  0.00     0.210 HD
ENDBRANCH  47  48
ENDBRANCH   4  47
TORSDOF 14
ENDMDL
