MODEL 1
REMARK VINA RESULT:    -3.554      0.000      0.000
REMARK INTER + INTRA:          -6.721
REMARK INTER:                  -5.424
REMARK INTRA:                  -1.298
REMARK UNBOUND:                -1.298
REMARK SMILES C=CCCCCCCCCCC
REMARK SMILES IDX 7 1 8 2 9 3 10 4 11 5 12 6 6 7 5 8 4 9 3 10 2 11 1 12
REMARK H PARENT
REMARK Flexibility Score: inf
ROOT
ATOM      1  C   UNL     1     139.965 138.051 134.480  1.00  0.00     0.000 C 
ENDROOT
BRANCH   1   2
ATOM      2  C   UNL     1     139.699 139.484 133.995  1.00  0.00    -0.000 C 
BRANCH   2   3
ATOM      3  C   UNL     1     138.213 139.751 133.703  1.00  0.00    -0.000 C 
BRANCH   3   4
ATOM      4  C   UNL     1     137.860 139.899 132.210  1.00  0.00    -0.000 C 
BRANCH   4   5
ATOM      5  C   UNL     1     137.440 138.577 131.534  1.00  0.00    -0.003 C 
ATOM      6  C   UNL     1     138.477 138.079 130.526  1.00  0.00     0.004 C 
ENDBRANCH   4   5
ENDBRANCH   3   4
ENDBRANCH   2   3
ENDBRANCH   1   2
BRANCH   1   7
ATOM      7  C   UNL     1     140.595 137.204 133.364  1.00  0.00     0.000 C 
BRANCH   7   8
ATOM      8  C   UNL     1     141.667 137.972 132.574  1.00  0.00     0.000 C 
BRANCH   8   9
ATOM      9  C   UNL     1     143.041 137.949 133.265  1.00  0.00     0.004 C 
BRANCH   9  10
ATOM     10  C   UNL     1     143.595 139.363 133.495  1.00  0.00     0.027 C 
BRANCH  10  11
ATOM     11  C   UNL     1     143.752 139.686 134.958  1.00  0.00    -0.035 C 
ATOM     12  C   UNL     1     143.369 138.834 135.913  1.00  0.00     0.004 C 
ENDBRANCH  10  11
ENDBRANCH   9  10
ENDBRANCH   8   9
ENDBRANCH   7   8
ENDBRANCH   1   7
TORSDOF 9
ENDMDL
MODEL 2
REMARK VINA RESULT:    -3.545      3.387      5.465
REMARK INTER + INTRA:          -6.707
REMARK INTER:                  -5.451
REMARK INTRA:                  -1.256
REMARK UNBOUND:                -1.298
REMARK SMILES C=CCCCCCCCCCC
REMARK SMILES IDX 7 1 8 2 9 3 10 4 11 5 12 6 6 7 5 8 4 9 3 10 2 11 1 12
REMARK H PARENT
REMARK Flexibility Score: inf
ROOT
ATOM      1  C   UNL     1     139.723 142.898 134.244  1.00  0.00     0.000 C 
ENDROOT
BRANCH   1   2
ATOM      2  C   UNL     1     139.887 144.324 133.694  1.00  0.00    -0.000 C 
BRANCH   2   3
ATOM      3  C   UNL     1     139.853 144.378 132.157  1.00  0.00    -0.000 C 
BRANCH   3   4
ATOM      4  C   UNL     1     138.503 144.811 131.551  1.00  0.00    -0.000 C 
BRANCH   4   5
ATOM      5  C   UNL     1     137.901 143.783 130.572  1.00  0.00    -0.003 C 
ATOM      6  C   UNL     1     138.853 142.621 130.283  1.00  0.00     0.004 C 
ENDBRANCH   4   5
ENDBRANCH   3   4
ENDBRANCH   2   3
ENDBRANCH   1   2
BRANCH   1   7
ATOM      7  C   UNL     1     138.549 142.825 135.231  1.00  0.00     0.000 C 
BRANCH   7   8
ATOM      8  C   UNL     1     137.602 141.651 134.935  1.00  0.00     0.000 C 
BRANCH   8   9
ATOM      9  C   UNL     1     137.260 141.527 133.440  1.00  0.00     0.004 C 
BRANCH   9  10
ATOM     10  C   UNL     1     137.641 140.152 132.872  1.00  0.00     0.027 C 
BRANCH  10  11
ATOM     11  C   UNL     1     138.230 139.243 133.919  1.00  0.00    -0.035 C 
ATOM     12  C   UNL     1     139.336 138.529 133.690  1.00  0.00     0.004 C 
ENDBRANCH  10  11
ENDBRANCH   9  10
ENDBRANCH   8   9
ENDBRANCH   7   8
ENDBRANCH   1   7
TORSDOF 9
ENDMDL
MODEL 3
REMARK VINA RESULT:    -3.525      3.055      5.395
REMARK INTER + INTRA:          -6.677
REMARK INTER:                  -5.662
REMARK INTRA:                  -1.014
REMARK UNBOUND:                -1.298
REMARK SMILES C=CCCCCCCCCCC
REMARK SMILES IDX 7 1 8 2 9 3 10 4 11 5 12 6 6 7 5 8 4 9 3 10 2 11 1 12
REMARK H PARENT
REMARK Flexibility Score: inf
ROOT
ATOM      1  C   UNL     1     144.826 140.807 133.897  1.00  0.00     0.000 C 
ENDROOT
BRANCH   1   2
ATOM      2  C   UNL     1     143.838 141.612 133.039  1.00  0.00    -0.000 C 
BRANCH   2   3
ATOM      3  C   UNL     1     143.796 143.102 133.414  1.00  0.00    -0.000 C 
BRANCH   3   4
ATOM      4  C   UNL     1     143.207 143.406 134.806  1.00  0.00    -0.000 C 
BRANCH   4   5
ATOM      5  C   UNL     1     141.979 144.339 134.773  1.00  0.00    -0.003 C 
ATOM      6  C   UNL     1     141.668 144.849 133.365  1.00  0.00     0.004 C 
ENDBRANCH   4   5
ENDBRANCH   3   4
ENDBRANCH   2   3
ENDBRANCH   1   2
BRANCH   1   7
ATOM      7  C   UNL     1     144.101 139.692 134.665  1.00  0.00     0.000 C 
BRANCH   7   8
ATOM      8  C   UNL     1     142.682 139.436 134.134  1.00  0.00     0.000 C 
BRANCH   8   9
ATOM      9  C   UNL     1     142.466 137.976 133.700  1.00  0.00     0.004 C 
BRANCH   9  10
ATOM     10  C   UNL     1     142.315 137.842 132.178  1.00  0.00     0.027 C 
BRANCH  10  11
ATOM     11  C   UNL     1     143.624 137.543 131.495  1.00  0.00    -0.035 C 
ATOM     12  C   UNL     1     144.220 138.431 130.694  1.00  0.00     0.004 C 
ENDBRANCH  10  11
ENDBRANCH   9  10
ENDBRANCH   8   9
ENDBRANCH   7   8
ENDBRANCH   1   7
TORSDOF 9
ENDMDL
MODEL 4
REMARK VINA RESULT:    -3.472      1.836      5.070
REMARK INTER + INTRA:          -6.597
REMARK INTER:                  -5.968
REMARK INTRA:                  -0.629
REMARK UNBOUND:                -1.298
REMARK SMILES C=CCCCCCCCCCC
REMARK SMILES IDX 7 1 8 2 9 3 10 4 11 5 12 6 6 7 5 8 4 9 3 10 2 11 1 12
REMARK H PARENT
REMARK Flexibility Score: inf
ROOT
ATOM      1  C   UNL     1     139.646 138.017 133.595  1.00  0.00     0.000 C 
ENDROOT
BRANCH   1   2
ATOM      2  C   UNL     1     140.950 137.205 133.551  1.00  0.00    -0.000 C 
BRANCH   2   3
ATOM      3  C   UNL     1     142.140 137.951 134.177  1.00  0.00    -0.000 C 
BRANCH   3   4
ATOM      4  C   UNL     1     143.191 138.459 133.170  1.00  0.00    -0.000 C 
BRANCH   4   5
ATOM      5  C   UNL     1     143.258 137.634 131.869  1.00  0.00    -0.003 C 
ATOM      6  C   UNL     1     144.104 138.309 130.789  1.00  0.00     0.004 C 
ENDBRANCH   4   5
ENDBRANCH   3   4
ENDBRANCH   2   3
ENDBRANCH   1   2
BRANCH   1   7
ATOM      7  C   UNL     1     139.402 138.583 135.001  1.00  0.00     0.000 C 
BRANCH   7   8
ATOM      8  C   UNL     1     138.340 139.694 135.013  1.00  0.00     0.000 C 
BRANCH   8   9
ATOM      9  C   UNL     1     137.853 140.064 133.601  1.00  0.00     0.004 C 
BRANCH   9  10
ATOM     10  C   UNL     1     137.357 141.515 133.523  1.00  0.00     0.027 C 
BRANCH  10  11
ATOM     11  C   UNL     1     138.150 142.441 134.408  1.00  0.00    -0.035 C 
ATOM     12  C   UNL     1     139.003 143.337 133.905  1.00  0.00     0.004 C 
ENDBRANCH  10  11
ENDBRANCH   9  10
ENDBRANCH   8   9
ENDBRANCH   7   8
ENDBRANCH   1   7
TORSDOF 9
ENDMDL
MODEL 5
REMARK VINA RESULT:    -3.417      3.061      4.972
REMARK INTER + INTRA:          -6.512
REMARK INTER:                  -5.578
REMARK INTRA:                  -0.934
REMARK UNBOUND:                -1.298
REMARK SMILES C=CCCCCCCCCCC
REMARK SMILES IDX 7 1 8 2 9 3 10 4 11 5 12 6 6 7 5 8 4 9 3 10 2 11 1 12
REMARK H PARENT
REMARK Flexibility Score: inf
ROOT
ATOM      1  C   UNL     1     143.825 139.601 135.327  1.00  0.00     0.000 C 
ENDROOT
BRANCH   1   2
ATOM      2  C   UNL     1     142.626 139.398 134.388  1.00  0.00    -0.000 C 
BRANCH   2   3
ATOM      3  C   UNL     1     142.570 137.984 133.787  1.00  0.00    -0.000 C 
BRANCH   3   4
ATOM      4  C   UNL     1     142.368 137.934 132.259  1.00  0.00    -0.000 C 
BRANCH   4   5
ATOM      5  C   UNL     1     143.582 137.378 131.488  1.00  0.00    -0.003 C 
ATOM      6  C   UNL     1     144.270 138.441 130.630  1.00  0.00     0.004 C 
ENDBRANCH   4   5
ENDBRANCH   3   4
ENDBRANCH   2   3
ENDBRANCH   1   2
BRANCH   1   7
ATOM      7  C   UNL     1     144.714 140.753 134.836  1.00  0.00     0.000 C 
BRANCH   7   8
ATOM      8  C   UNL     1     144.551 141.026 133.332  1.00  0.00     0.000 C 
BRANCH   8   9
ATOM      9  C   UNL     1     144.332 142.516 133.021  1.00  0.00     0.004 C 
BRANCH   9  10
ATOM     10  C   UNL     1     143.585 143.239 134.151  1.00  0.00     0.027 C 
BRANCH  10  11
ATOM     11  C   UNL     1     142.158 143.552 133.786  1.00  0.00    -0.035 C 
ATOM     12  C   UNL     1     141.755 144.798 133.523  1.00  0.00     0.004 C 
ENDBRANCH  10  11
ENDBRANCH   9  10
ENDBRANCH   8   9
ENDBRANCH   7   8
ENDBRANCH   1   7
TORSDOF 9
ENDMDL
MODEL 6
REMARK VINA RESULT:    -3.413      2.074      4.946
REMARK INTER + INTRA:          -6.506
REMARK INTER:                  -5.258
REMARK INTRA:                  -1.248
REMARK UNBOUND:                -1.298
REMARK SMILES C=CCCCCCCCCCC
REMARK SMILES IDX 7 1 8 2 9 3 10 4 11 5 12 6 6 7 5 8 4 9 3 10 2 11 1 12
REMARK H PARENT
REMARK Flexibility Score: inf
ROOT
ATOM      1  C   UNL     1     138.976 138.323 131.697  1.00  0.00     0.000 C 
ENDROOT
BRANCH   1   2
ATOM      2  C   UNL     1     140.290 138.447 132.483  1.00  0.00    -0.000 C 
BRANCH   2   3
ATOM      3  C   UNL     1     140.532 137.263 133.435  1.00  0.00    -0.000 C 
BRANCH   3   4
ATOM      4  C   UNL     1     140.902 137.655 134.879  1.00  0.00    -0.000 C 
BRANCH   4   5
ATOM      5  C   UNL     1     140.253 138.971 135.354  1.00  0.00    -0.003 C 
ATOM      6  C   UNL     1     138.880 138.750 135.991  1.00  0.00     0.004 C 
ENDBRANCH   4   5
ENDBRANCH   3   4
ENDBRANCH   2   3
ENDBRANCH   1   2
BRANCH   1   7
ATOM      7  C   UNL     1     137.837 139.061 132.416  1.00  0.00     0.000 C 
BRANCH   7   8
ATOM      8  C   UNL     1     138.091 140.572 132.528  1.00  0.00     0.000 C 
BRANCH   8   9
ATOM      9  C   UNL     1     137.182 141.250 133.568  1.00  0.00     0.004 C 
BRANCH   9  10
ATOM     10  C   UNL     1     137.981 142.097 134.569  1.00  0.00     0.027 C 
BRANCH  10  11
ATOM     11  C   UNL     1     139.190 142.740 133.941  1.00  0.00    -0.035 C 
ATOM     12  C   UNL     1     139.394 144.059 133.996  1.00  0.00     0.004 C 
ENDBRANCH  10  11
ENDBRANCH   9  10
ENDBRANCH   8   9
ENDBRANCH   7   8
ENDBRANCH   1   7
TORSDOF 9
ENDMDL
MODEL 7
REMARK VINA RESULT:    -3.406      2.294      4.290
REMARK INTER + INTRA:          -6.496
REMARK INTER:                  -4.779
REMARK INTRA:                  -1.716
REMARK UNBOUND:                -1.298
REMARK SMILES C=CCCCCCCCCCC
REMARK SMILES IDX 7 1 8 2 9 3 10 4 11 5 12 6 6 7 5 8 4 9 3 10 2 11 1 12
REMARK H PARENT
REMARK Flexibility Score: inf
ROOT
ATOM      1  C   UNL     1     137.296 141.359 133.628  1.00  0.00     0.000 C 
ENDROOT
BRANCH   1   2
ATOM      2  C   UNL     1     137.599 140.350 132.510  1.00  0.00    -0.000 C 
BRANCH   2   3
ATOM      3  C   UNL     1     138.246 139.056 133.032  1.00  0.00    -0.000 C 
BRANCH   3   4
ATOM      4  C   UNL     1     138.600 139.066 134.532  1.00  0.00    -0.000 C 
BRANCH   4   5
ATOM      5  C   UNL     1     139.815 138.185 134.891  1.00  0.00    -0.003 C 
ATOM      6  C   UNL     1     140.446 137.528 133.663  1.00  0.00     0.004 C 
ENDBRANCH   4   5
ENDBRANCH   3   4
ENDBRANCH   2   3
ENDBRANCH   1   2
BRANCH   1   7
ATOM      7  C   UNL     1     138.128 142.638 133.452  1.00  0.00     0.000 C 
BRANCH   7   8
ATOM      8  C   UNL     1     138.753 143.122 134.770  1.00  0.00     0.000 C 
BRANCH   8   9
ATOM      9  C   UNL     1     140.056 142.380 135.115  1.00  0.00     0.004 C 
BRANCH   9  10
ATOM     10  C   UNL     1     141.110 142.518 134.007  1.00  0.00     0.027 C 
BRANCH  10  11
ATOM     11  C   UNL     1     141.512 141.187 133.429  1.00  0.00    -0.035 C 
ATOM     12  C   UNL     1     141.313 140.888 132.142  1.00  0.00     0.004 C 
ENDBRANCH  10  11
ENDBRANCH   9  10
ENDBRANCH   8   9
ENDBRANCH   7   8
ENDBRANCH   1   7
TORSDOF 9
ENDMDL
MODEL 8
REMARK VINA RESULT:    -3.387      3.862      6.252
REMARK INTER + INTRA:          -6.467
REMARK INTER:                  -5.102
REMARK INTRA:                  -1.365
REMARK UNBOUND:                -1.298
REMARK SMILES C=CCCCCCCCCCC
REMARK SMILES IDX 7 1 8 2 9 3 10 4 11 5 12 6 6 7 5 8 4 9 3 10 2 11 1 12
REMARK H PARENT
REMARK Flexibility Score: inf
ROOT
ATOM      1  C   UNL     1     138.071 142.086 135.040  1.00  0.00     0.000 C 
ENDROOT
BRANCH   1   2
ATOM      2  C   UNL     1     138.753 143.459 134.946  1.00  0.00    -0.000 C 
BRANCH   2   3
ATOM      3  C   UNL     1     140.282 143.360 134.815  1.00  0.00    -0.000 C 
BRANCH   3   4
ATOM      4  C   UNL     1     141.006 144.705 134.606  1.00  0.00    -0.000 C 
BRANCH   4   5
ATOM      5  C   UNL     1     141.835 144.771 133.306  1.00  0.00    -0.003 C 
ATOM      6  C   UNL     1     142.892 143.668 133.229  1.00  0.00     0.004 C 
ENDBRANCH   4   5
ENDBRANCH   3   4
ENDBRANCH   2   3
ENDBRANCH   1   2
BRANCH   1   7
ATOM      7  C   UNL     1     137.351 141.741 133.728  1.00  0.00     0.000 C 
BRANCH   7   8
ATOM      8  C   UNL     1     138.124 140.717 132.882  1.00  0.00     0.000 C 
BRANCH   8   9
ATOM      9  C   UNL     1     138.383 141.208 131.448  1.00  0.00     0.004 C 
BRANCH   9  10
ATOM     10  C   UNL     1     139.327 142.418 131.414  1.00  0.00     0.027 C 
BRANCH  10  11
ATOM     11  C   UNL     1     138.673 143.641 130.826  1.00  0.00    -0.035 C 
ATOM     12  C   UNL     1     138.630 144.803 131.484  1.00  0.00     0.004 C 
ENDBRANCH  10  11
ENDBRANCH   9  10
ENDBRANCH   8   9
ENDBRANCH   7   8
ENDBRANCH   1   7
TORSDOF 9
ENDMDL
MODEL 9
REMARK VINA RESULT:    -3.353      4.181      5.644
REMARK INTER + INTRA:          -6.415
REMARK INTER:                  -5.038
REMARK INTRA:                  -1.376
REMARK UNBOUND:                -1.298
REMARK SMILES C=CCCCCCCCCCC
REMARK SMILES IDX 7 1 8 2 9 3 10 4 11 5 12 6 6 7 5 8 4 9 3 10 2 11 1 12
REMARK H PARENT
REMARK Flexibility Score: inf
ROOT
ATOM      1  C   UNL     1     142.233 143.974 134.649  1.00  0.00     0.000 C 
ENDROOT
BRANCH   1   2
ATOM      2  C   UNL     1     141.951 144.517 133.240  1.00  0.00    -0.000 C 
BRANCH   2   3
ATOM      3  C   UNL     1     141.406 143.443 132.284  1.00  0.00    -0.000 C 
BRANCH   3   4
ATOM      4  C   UNL     1     142.354 143.058 131.130  1.00  0.00    -0.000 C 
BRANCH   4   5
ATOM      5  C   UNL     1     143.524 144.043 130.930  1.00  0.00    -0.003 C 
ATOM      6  C   UNL     1     144.884 143.405 131.218  1.00  0.00     0.004 C 
ENDBRANCH   4   5
ENDBRANCH   3   4
ENDBRANCH   2   3
ENDBRANCH   1   2
BRANCH   1   7
ATOM      7  C   UNL     1     143.591 143.259 134.698  1.00  0.00     0.000 C 
BRANCH   7   8
ATOM      8  C   UNL     1     143.502 141.865 135.341  1.00  0.00     0.000 C 
BRANCH   8   9
ATOM      9  C   UNL     1     144.743 141.002 135.058  1.00  0.00     0.004 C 
BRANCH   9  10
ATOM     10  C   UNL     1     144.985 140.815 133.554  1.00  0.00     0.027 C 
BRANCH  10  11
ATOM     11  C   UNL     1     143.860 140.074 132.879  1.00  0.00    -0.035 C 
ATOM     12  C   UNL     1     143.983 139.581 131.644  1.00  0.00     0.004 C 
ENDBRANCH  10  11
ENDBRANCH   9  10
ENDBRANCH   8   9
ENDBRANCH   7   8
ENDBRANCH   1   7
TORSDOF 9
ENDMDL
