MODEL 1
REMARK VINA RESULT:    -4.781      0.000      0.000
REMARK INTER + INTRA:          -6.841
REMARK INTER:                  -6.458
REMARK INTRA:                  -0.382
REMARK UNBOUND:                -0.382
REMARK SMILES CC(=O)OCC=C(C)CCC=C(C)C
REMARK SMILES IDX 7 1 6 2 8 3 9 4 10 5 11 6 13 7 12 8 14 9 5 10 4 11 2 12 3 13
REMARK SMILES IDX 1 14
REMARK H PARENT
REMARK Flexibility Score: inf
ROOT
ATOM      1  C   UNL     1      17.089  -5.676 -18.834  1.00  0.00    -0.074 C 
ATOM      2  C   UNL     1      18.319  -5.401 -19.319  1.00  0.00     0.013 C 
ATOM      3  C   UNL     1      16.158  -4.576 -18.383  1.00  0.00     0.039 C 
ENDROOT
BRANCH   1   4
ATOM      4  C   UNL     1      16.632  -7.116 -18.752  1.00  0.00     0.034 C 
BRANCH   4   5
ATOM      5  C   UNL     1      17.556  -7.933 -17.841  1.00  0.00     0.032 C 
BRANCH   5   6
ATOM      6  C   UNL     1      16.919  -8.179 -16.495  1.00  0.00    -0.028 C 
ATOM      7  C   UNL     1      19.069  -9.011 -15.532  1.00  0.00     0.039 C 
ATOM      8  C   UNL     1      17.600  -8.670 -15.438  1.00  0.00    -0.080 C 
ATOM      9  C   UNL     1      16.866  -8.879 -14.138  1.00  0.00     0.039 C 
ENDBRANCH   5   6
ENDBRANCH   4   5
ENDBRANCH   1   4
BRANCH   2  10
ATOM     10  C   UNL     1      18.865  -4.000 -19.441  1.00  0.00     0.260 C 
BRANCH  10  11
ATOM     11  O   UNL     1      18.415  -3.391 -20.649  1.00  0.00    -0.462 OA
BRANCH  11  12
ATOM     12  C   UNL     1      19.165  -2.443 -21.355  1.00  0.00     0.302 C 
ATOM     13  O   UNL     1      19.208  -1.241 -20.976  1.00  0.00    -0.253 OA
ATOM     14  C   UNL     1      19.880  -2.850 -22.597  1.00  0.00     0.139 C 
ENDBRANCH  11  12
ENDBRANCH  10  11
ENDBRANCH   2  10
TORSDOF 6
ENDMDL
MODEL 2
REMARK VINA RESULT:    -4.662      2.979      7.345
REMARK INTER + INTRA:          -6.679
REMARK INTER:                  -6.356
REMARK INTRA:                  -0.323
REMARK UNBOUND:                -0.382
REMARK SMILES CC(=O)OCC=C(C)CCC=C(C)C
REMARK SMILES IDX 7 1 6 2 8 3 9 4 10 5 11 6 13 7 12 8 14 9 5 10 4 11 2 12 3 13
REMARK SMILES IDX 1 14
REMARK H PARENT
REMARK Flexibility Score: inf
ROOT
ATOM      1  C   UNL     1      17.864  -5.565 -19.107  1.00  0.00    -0.074 C 
ATOM      2  C   UNL     1      17.847  -6.868 -18.753  1.00  0.00     0.013 C 
ATOM      3  C   UNL     1      16.726  -4.639 -18.747  1.00  0.00     0.039 C 
ENDROOT
BRANCH   1   4
ATOM      4  C   UNL     1      19.051  -5.020 -19.871  1.00  0.00     0.034 C 
BRANCH   4   5
ATOM      5  C   UNL     1      19.193  -3.509 -19.656  1.00  0.00     0.032 C 
BRANCH   5   6
ATOM      6  C   UNL     1      19.607  -2.812 -20.929  1.00  0.00    -0.028 C 
ATOM      7  C   UNL     1      19.400  -0.560 -19.867  1.00  0.00     0.039 C 
ATOM      8  C   UNL     1      19.704  -1.470 -21.035  1.00  0.00    -0.080 C 
ATOM      9  C   UNL     1      20.125  -0.876 -22.354  1.00  0.00     0.039 C 
ENDBRANCH   5   6
ENDBRANCH   4   5
ENDBRANCH   1   4
BRANCH   2  10
ATOM     10  C   UNL     1      16.712  -7.503 -17.991  1.00  0.00     0.260 C 
BRANCH  10  11
ATOM     11  O   UNL     1      17.205  -8.220 -16.862  1.00  0.00    -0.462 OA
BRANCH  11  12
ATOM     12  C   UNL     1      16.440  -8.468 -15.717  1.00  0.00     0.302 C 
ATOM     13  O   UNL     1      15.220  -8.774 -15.809  1.00  0.00    -0.253 OA
ATOM     14  C   UNL     1      17.063  -8.321 -14.371  1.00  0.00     0.139 C 
ENDBRANCH  11  12
ENDBRANCH  10  11
ENDBRANCH   2  10
TORSDOF 6
ENDMDL
MODEL 3
REMARK VINA RESULT:    -4.166     19.700     21.259
REMARK INTER + INTRA:          -6.009
REMARK INTER:                  -5.430
REMARK INTRA:                  -0.580
REMARK UNBOUND:                -0.382
REMARK SMILES CC(=O)OCC=C(C)CCC=C(C)C
REMARK SMILES IDX 7 1 6 2 8 3 9 4 10 5 11 6 13 7 12 8 14 9 5 10 4 11 2 12 3 13
REMARK SMILES IDX 1 14
REMARK H PARENT
REMARK Flexibility Score: inf
ROOT
ATOM      1  C   UNL     1       0.818   8.539 -15.418  1.00  0.00    -0.074 C 
ATOM      2  C   UNL     1       0.123   7.709 -16.225  1.00  0.00     0.013 C 
ATOM      3  C   UNL     1       1.583   9.717 -15.975  1.00  0.00     0.039 C 
ENDROOT
BRANCH   1   4
ATOM      4  C   UNL     1       0.822   8.289 -13.926  1.00  0.00     0.034 C 
BRANCH   4   5
ATOM      5  C   UNL     1       0.720   6.790 -13.622  1.00  0.00     0.032 C 
BRANCH   5   6
ATOM      6  C   UNL     1       1.755   6.366 -12.608  1.00  0.00    -0.028 C 
ATOM      7  C   UNL     1       1.611   3.979 -13.329  1.00  0.00     0.039 C 
ATOM      8  C   UNL     1       2.167   5.088 -12.467  1.00  0.00    -0.080 C 
ATOM      9  C   UNL     1       3.205   4.773 -11.422  1.00  0.00     0.039 C 
ENDBRANCH   5   6
ENDBRANCH   4   5
ENDBRANCH   1   4
BRANCH   2  10
ATOM     10  C   UNL     1       0.057   7.875 -17.722  1.00  0.00     0.260 C 
BRANCH  10  11
ATOM     11  O   UNL     1       1.041   7.065 -18.361  1.00  0.00    -0.462 OA
BRANCH  11  12
ATOM     12  C   UNL     1       1.761   7.478 -19.488  1.00  0.00     0.302 C 
ATOM     13  O   UNL     1       1.946   6.694 -20.458  1.00  0.00    -0.253 OA
ATOM     14  C   UNL     1       2.357   8.844 -19.520  1.00  0.00     0.139 C 
ENDBRANCH  11  12
ENDBRANCH  10  11
ENDBRANCH   2  10
TORSDOF 6
ENDMDL
MODEL 4
REMARK VINA RESULT:    -3.978     19.461     20.937
REMARK INTER + INTRA:          -5.756
REMARK INTER:                  -5.200
REMARK INTRA:                  -0.555
REMARK UNBOUND:                -0.382
REMARK SMILES CC(=O)OCC=C(C)CCC=C(C)C
REMARK SMILES IDX 7 1 6 2 8 3 9 4 10 5 11 6 13 7 12 8 14 9 5 10 4 11 2 12 3 13
REMARK SMILES IDX 1 14
REMARK H PARENT
REMARK Flexibility Score: inf
ROOT
ATOM      1  C   UNL     1       0.191   6.058 -15.469  1.00  0.00    -0.074 C 
ATOM      2  C   UNL     1       0.223   5.901 -16.810  1.00  0.00     0.013 C 
ATOM      3  C   UNL     1       0.192   7.431 -14.838  1.00  0.00     0.039 C 
ENDROOT
BRANCH   1   4
ATOM      4  C   UNL     1       0.142   4.833 -14.581  1.00  0.00     0.034 C 
BRANCH   4   5
ATOM      5  C   UNL     1       0.185   5.229 -13.101  1.00  0.00     0.032 C 
BRANCH   5   6
ATOM      6  C   UNL     1       1.386   4.630 -12.410  1.00  0.00    -0.028 C 
ATOM      7  C   UNL     1       2.395   6.882 -12.020  1.00  0.00     0.039 C 
ATOM      8  C   UNL     1       2.397   5.374 -11.914  1.00  0.00    -0.080 C 
ATOM      9  C   UNL     1       3.551   4.674 -11.243  1.00  0.00     0.039 C 
ENDBRANCH   5   6
ENDBRANCH   4   5
ENDBRANCH   1   4
BRANCH   2  10
ATOM     10  C   UNL     1       0.271   7.058 -17.776  1.00  0.00     0.260 C 
BRANCH  10  11
ATOM     11  O   UNL     1       1.250   6.826 -18.786  1.00  0.00    -0.462 OA
BRANCH  11  12
ATOM     12  C   UNL     1       1.880   7.856 -19.495  1.00  0.00     0.302 C 
ATOM     13  O   UNL     1       3.138   7.919 -19.561  1.00  0.00    -0.253 OA
ATOM     14  C   UNL     1       1.054   8.916 -20.139  1.00  0.00     0.139 C 
ENDBRANCH  11  12
ENDBRANCH  10  11
ENDBRANCH   2  10
TORSDOF 6
ENDMDL
MODEL 5
REMARK VINA RESULT:    -3.835     20.254     21.541
REMARK INTER + INTRA:          -5.563
REMARK INTER:                  -5.043
REMARK INTRA:                  -0.520
REMARK UNBOUND:                -0.382
REMARK SMILES CC(=O)OCC=C(C)CCC=C(C)C
REMARK SMILES IDX 7 1 6 2 8 3 9 4 10 5 11 6 13 7 12 8 14 9 5 10 4 11 2 12 3 13
REMARK SMILES IDX 1 14
REMARK H PARENT
REMARK Flexibility Score: inf
ROOT
ATOM      1  C   UNL     1       0.263   6.339 -14.597  1.00  0.00    -0.074 C 
ATOM      2  C   UNL     1      -0.034   7.029 -15.719  1.00  0.00     0.013 C 
ATOM      3  C   UNL     1       0.605   4.868 -14.647  1.00  0.00     0.039 C 
ENDROOT
BRANCH   1   4
ATOM      4  C   UNL     1       0.262   7.056 -13.264  1.00  0.00     0.034 C 
BRANCH   4   5
ATOM      5  C   UNL     1       1.682   7.478 -12.869  1.00  0.00     0.032 C 
BRANCH   5   6
ATOM      6  C   UNL     1       1.835   7.545 -11.369  1.00  0.00    -0.028 C 
ATOM      7  C   UNL     1       2.894   5.283 -11.289  1.00  0.00     0.039 C 
ATOM      8  C   UNL     1       2.386   6.550 -10.641  1.00  0.00    -0.080 C 
ATOM      9  C   UNL     1       2.490   6.719  -9.147  1.00  0.00     0.039 C 
ENDBRANCH   5   6
ENDBRANCH   4   5
ENDBRANCH   1   4
BRANCH   2  10
ATOM     10  C   UNL     1      -0.059   6.405 -17.091  1.00  0.00     0.260 C 
BRANCH  10  11
ATOM     11  O   UNL     1      -0.053   7.412 -18.100  1.00  0.00    -0.462 OA
BRANCH  11  12
ATOM     12  C   UNL     1       1.097   7.786 -18.805  1.00  0.00     0.302 C 
ATOM     13  O   UNL     1       1.763   6.932 -19.453  1.00  0.00    -0.253 OA
ATOM     14  C   UNL     1       1.568   9.198 -18.748  1.00  0.00     0.139 C 
ENDBRANCH  11  12
ENDBRANCH  10  11
ENDBRANCH   2  10
TORSDOF 6
ENDMDL
MODEL 6
REMARK VINA RESULT:    -3.771     14.142     16.012
REMARK INTER + INTRA:          -5.476
REMARK INTER:                  -4.697
REMARK INTRA:                  -0.779
REMARK UNBOUND:                -0.382
REMARK SMILES CC(=O)OCC=C(C)CCC=C(C)C
REMARK SMILES IDX 7 1 6 2 8 3 9 4 10 5 11 6 13 7 12 8 14 9 5 10 4 11 2 12 3 13
REMARK SMILES IDX 1 14
REMARK H PARENT
REMARK Flexibility Score: inf
ROOT
ATOM      1  C   UNL     1       5.391  -7.224 -12.218  1.00  0.00    -0.074 C 
ATOM      2  C   UNL     1       4.319  -7.073 -13.026  1.00  0.00     0.013 C 
ATOM      3  C   UNL     1       6.678  -6.476 -12.473  1.00  0.00     0.039 C 
ENDROOT
BRANCH   1   4
ATOM      4  C   UNL     1       5.296  -8.154 -11.028  1.00  0.00     0.034 C 
BRANCH   4   5
ATOM      5  C   UNL     1       4.405  -7.554  -9.935  1.00  0.00     0.032 C 
BRANCH   5   6
ATOM      6  C   UNL     1       3.136  -8.353  -9.763  1.00  0.00    -0.028 C 
ATOM      7  C   UNL     1       1.723  -6.431 -10.506  1.00  0.00     0.039 C 
ATOM      8  C   UNL     1       1.910  -7.850 -10.020  1.00  0.00    -0.080 C 
ATOM      9  C   UNL     1       0.707  -8.734  -9.814  1.00  0.00     0.039 C 
ENDBRANCH   5   6
ENDBRANCH   4   5
ENDBRANCH   1   4
BRANCH   2  10
ATOM     10  C   UNL     1       4.315  -6.170 -14.234  1.00  0.00     0.260 C 
BRANCH  10  11
ATOM     11  O   UNL     1       3.130  -5.380 -14.265  1.00  0.00    -0.462 OA
BRANCH  11  12
ATOM     12  C   UNL     1       3.137  -3.982 -14.181  1.00  0.00     0.302 C 
ATOM     13  O   UNL     1       2.162  -3.305 -14.609  1.00  0.00    -0.253 OA
ATOM     14  C   UNL     1       4.331  -3.285 -13.625  1.00  0.00     0.139 C 
ENDBRANCH  11  12
ENDBRANCH  10  11
ENDBRANCH   2  10
TORSDOF 6
ENDMDL
MODEL 7
REMARK VINA RESULT:    -3.619     20.715     22.434
REMARK INTER + INTRA:          -5.270
REMARK INTER:                  -4.087
REMARK INTRA:                  -1.183
REMARK UNBOUND:                -0.382
REMARK SMILES CC(=O)OCC=C(C)CCC=C(C)C
REMARK SMILES IDX 7 1 6 2 8 3 9 4 10 5 11 6 13 7 12 8 14 9 5 10 4 11 2 12 3 13
REMARK SMILES IDX 1 14
REMARK H PARENT
REMARK Flexibility Score: inf
ROOT
ATOM      1  C   UNL     1       0.652   7.272 -12.613  1.00  0.00    -0.074 C 
ATOM      2  C   UNL     1      -0.083   7.633 -11.540  1.00  0.00     0.013 C 
ATOM      3  C   UNL     1       2.124   7.602 -12.705  1.00  0.00     0.039 C 
ENDROOT
BRANCH   1   4
ATOM      4  C   UNL     1      -0.010   6.512 -13.742  1.00  0.00     0.034 C 
BRANCH   4   5
ATOM      5  C   UNL     1       0.451   5.050 -13.761  1.00  0.00     0.032 C 
BRANCH   5   6
ATOM      6  C   UNL     1      -0.125   4.280 -12.596  1.00  0.00    -0.028 C 
ATOM      7  C   UNL     1       2.111   4.106 -11.494  1.00  0.00     0.039 C 
ATOM      8  C   UNL     1       0.623   3.846 -11.560  1.00  0.00    -0.080 C 
ATOM      9  C   UNL     1      -0.052   3.085 -10.448  1.00  0.00     0.039 C 
ENDBRANCH   5   6
ENDBRANCH   4   5
ENDBRANCH   1   4
BRANCH   2  10
ATOM     10  C   UNL     1       0.485   8.390 -10.366  1.00  0.00     0.260 C 
BRANCH  10  11
ATOM     11  O   UNL     1       0.403   7.608  -9.177  1.00  0.00    -0.462 OA
BRANCH  11  12
ATOM     12  C   UNL     1       1.373   6.668  -8.809  1.00  0.00     0.302 C 
ATOM     13  O   UNL     1       1.044   5.588  -8.247  1.00  0.00    -0.253 OA
ATOM     14  C   UNL     1       2.814   6.970  -9.040  1.00  0.00     0.139 C 
ENDBRANCH  11  12
ENDBRANCH  10  11
ENDBRANCH   2  10
TORSDOF 6
ENDMDL
MODEL 8
REMARK VINA RESULT:    -3.571     19.840     22.359
REMARK INTER + INTRA:          -5.206
REMARK INTER:                  -4.482
REMARK INTRA:                  -0.724
REMARK UNBOUND:                -0.382
REMARK SMILES CC(=O)OCC=C(C)CCC=C(C)C
REMARK SMILES IDX 7 1 6 2 8 3 9 4 10 5 11 6 13 7 12 8 14 9 5 10 4 11 2 12 3 13
REMARK SMILES IDX 1 14
REMARK H PARENT
REMARK Flexibility Score: inf
ROOT
ATOM      1  C   UNL     1       1.303   7.826 -13.687  1.00  0.00    -0.074 C 
ATOM      2  C   UNL     1       1.772   7.758 -12.422  1.00  0.00     0.013 C 
ATOM      3  C   UNL     1       0.326   6.803 -14.218  1.00  0.00     0.039 C 
ENDROOT
BRANCH   1   4
ATOM      4  C   UNL     1       1.759   8.954 -14.586  1.00  0.00     0.034 C 
BRANCH   4   5
ATOM      5  C   UNL     1       0.625   9.405 -15.514  1.00  0.00     0.032 C 
BRANCH   5   6
ATOM      6  C   UNL     1       1.155   9.811 -16.869  1.00  0.00    -0.028 C 
ATOM      7  C   UNL     1       0.402   7.664 -17.903  1.00  0.00     0.039 C 
ATOM      8  C   UNL     1       1.059   9.024 -17.962  1.00  0.00    -0.080 C 
ATOM      9  C   UNL     1       1.623   9.526 -19.266  1.00  0.00     0.039 C 
ENDBRANCH   5   6
ENDBRANCH   4   5
ENDBRANCH   1   4
BRANCH   2  10
ATOM     10  C   UNL     1       1.377   6.674 -11.451  1.00  0.00     0.260 C 
BRANCH  10  11
ATOM     11  O   UNL     1       2.527   5.961 -11.002  1.00  0.00    -0.462 OA
BRANCH  11  12
ATOM     12  C   UNL     1       2.843   4.667 -11.433  1.00  0.00     0.302 C 
ATOM     13  O   UNL     1       3.813   4.038 -10.929  1.00  0.00    -0.253 OA
ATOM     14  C   UNL     1       2.054   4.045 -12.534  1.00  0.00     0.139 C 
ENDBRANCH  11  12
ENDBRANCH  10  11
ENDBRANCH   2  10
TORSDOF 6
ENDMDL
MODEL 9
REMARK VINA RESULT:    -3.428     20.068     22.155
REMARK INTER + INTRA:          -5.012
REMARK INTER:                  -4.595
REMARK INTRA:                  -0.418
REMARK UNBOUND:                -0.382
REMARK SMILES CC(=O)OCC=C(C)CCC=C(C)C
REMARK SMILES IDX 7 1 6 2 8 3 9 4 10 5 11 6 13 7 12 8 14 9 5 10 4 11 2 12 3 13
REMARK SMILES IDX 1 14
REMARK H PARENT
REMARK Flexibility Score: inf
ROOT
ATOM      1  C   UNL     1       0.290   6.324 -15.401  1.00  0.00    -0.074 C 
ATOM      2  C   UNL     1       0.467   6.238 -14.065  1.00  0.00     0.013 C 
ATOM      3  C   UNL     1       0.212   5.086 -16.265  1.00  0.00     0.039 C 
ENDROOT
BRANCH   1   4
ATOM      4  C   UNL     1       0.157   7.687 -16.044  1.00  0.00     0.034 C 
BRANCH   4   5
ATOM      5  C   UNL     1       0.013   7.562 -17.565  1.00  0.00     0.032 C 
BRANCH   5   6
ATOM      6  C   UNL     1       0.421   8.839 -18.260  1.00  0.00    -0.028 C 
ATOM      7  C   UNL     1       1.956   7.613 -19.802  1.00  0.00     0.039 C 
ATOM      8  C   UNL     1       1.305   8.872 -19.279  1.00  0.00    -0.080 C 
ATOM      9  C   UNL     1       1.644  10.202 -19.901  1.00  0.00     0.039 C 
ENDBRANCH   5   6
ENDBRANCH   4   5
ENDBRANCH   1   4
BRANCH   2  10
ATOM     10  C   UNL     1       0.609   4.927 -13.333  1.00  0.00     0.260 C 
BRANCH  10  11
ATOM     11  O   UNL     1       1.970   4.697 -12.977  1.00  0.00    -0.462 OA
BRANCH  11  12
ATOM     12  C   UNL     1       2.449   4.804 -11.665  1.00  0.00     0.302 C 
ATOM     13  O   UNL     1       3.268   3.962 -11.207  1.00  0.00    -0.253 OA
ATOM     14  C   UNL     1       1.946   5.897 -10.786  1.00  0.00     0.139 C 
ENDBRANCH  11  12
ENDBRANCH  10  11
ENDBRANCH   2  10
TORSDOF 6
ENDMDL
