MODEL 1
REMARK VINA RESULT:    -3.220      0.000      0.000
REMARK INTER + INTRA:          -7.514
REMARK INTER:                  -5.573
REMARK INTRA:                  -1.941
REMARK UNBOUND:                -1.941
REMARK SMILES CCCCCCCCCCCCCCO
REMARK SMILES IDX 8 1 7 2 6 3 5 4 4 5 3 6 2 7 1 8 9 9 10 10 11 11 12 12 13 13
REMARK SMILES IDX 14 14 15 15
REMARK H PARENT 15 16
REMARK Flexibility Score: inf
ROOT
ATOM      1  C   UNL     1     168.790 165.771 170.399  1.00  0.00     0.000 C 
ENDROOT
BRANCH   1   2
ATOM      2  C   UNL     1     168.245 165.204 169.080  1.00  0.00    -0.000 C 
BRANCH   2   3
ATOM      3  C   UNL     1     168.959 165.836 167.876  1.00  0.00    -0.000 C 
BRANCH   3   4
ATOM      4  C   UNL     1     170.144 166.725 168.289  1.00  0.00    -0.000 C 
BRANCH   4   5
ATOM      5  C   UNL     1     169.951 168.195 167.878  1.00  0.00    -0.000 C 
BRANCH   5   6
ATOM      6  C   UNL     1     169.893 169.149 169.085  1.00  0.00    -0.000 C 
BRANCH   6   7
ATOM      7  C   UNL     1     170.928 168.866 170.189  1.00  0.00    -0.003 C 
ATOM      8  C   UNL     1     172.287 169.510 169.915  1.00  0.00     0.004 C 
ENDBRANCH   6   7
ENDBRANCH   5   6
ENDBRANCH   4   5
ENDBRANCH   3   4
ENDBRANCH   2   3
ENDBRANCH   1   2
BRANCH   1   9
ATOM      9  C   UNL     1     167.692 165.986 171.456  1.00  0.00     0.000 C 
BRANCH   9  10
ATOM     10  C   UNL     1     167.171 167.434 171.577  1.00  0.00     0.000 C 
BRANCH  10  11
ATOM     11  C   UNL     1     165.962 167.776 170.687  1.00  0.00     0.000 C 
BRANCH  11  12
ATOM     12  C   UNL     1     166.343 168.617 169.458  1.00  0.00     0.002 C 
BRANCH  12  13
ATOM     13  C   UNL     1     165.919 167.964 168.131  1.00  0.00     0.028 C 
BRANCH  13  14
ATOM     14  C   UNL     1     164.957 166.783 168.307  1.00  0.00     0.156 C 
BRANCH  14  15
ATOM     15  O   UNL     1     163.664 167.144 167.908  1.00  0.00    -0.396 OA
ATOM     16  H   UNL     1     163.448 166.575 167.124  1.00  0.00     0.210 HD
ENDBRANCH  14  15
ENDBRANCH  13  14
ENDBRANCH  12  13
ENDBRANCH  11  12
ENDBRANCH  10  11
ENDBRANCH   9  10
ENDBRANCH   1   9
TORSDOF 13
ENDMDL
MODEL 2
REMARK VINA RESULT:    -3.010      2.822      5.441
REMARK INTER + INTRA:          -7.150
REMARK INTER:                  -5.507
REMARK INTRA:                  -1.643
REMARK UNBOUND:                -1.941
REMARK SMILES CCCCCCCCCCCCCCO
REMARK SMILES IDX 8 1 7 2 6 3 5 4 4 5 3 6 2 7 1 8 9 9 10 10 11 11 12 12 13 13
REMARK SMILES IDX 14 14 15 15
REMARK H PARENT 15 16
REMARK Flexibility Score: inf
ROOT
ATOM      1  C   UNL     1     169.884 167.592 168.812  1.00  0.00     0.000 C 
ENDROOT
BRANCH   1   2
ATOM      2  C   UNL     1     169.228 168.617 167.875  1.00  0.00    -0.000 C 
BRANCH   2   3
ATOM      3  C   UNL     1     168.320 169.575 168.661  1.00  0.00    -0.000 C 
BRANCH   3   4
ATOM      4  C   UNL     1     167.999 169.063 170.075  1.00  0.00    -0.000 C 
BRANCH   4   5
ATOM      5  C   UNL     1     166.505 168.748 170.263  1.00  0.00    -0.000 C 
BRANCH   5   6
ATOM      6  C   UNL     1     166.220 167.238 170.361  1.00  0.00    -0.000 C 
BRANCH   6   7
ATOM      7  C   UNL     1     165.256 166.687 169.295  1.00  0.00    -0.003 C 
ATOM      8  C   UNL     1     165.164 167.574 168.054  1.00  0.00     0.004 C 
ENDBRANCH   6   7
ENDBRANCH   5   6
ENDBRANCH   4   5
ENDBRANCH   3   4
ENDBRANCH   2   3
ENDBRANCH   1   2
BRANCH   1   9
ATOM      9  C   UNL     1     169.871 166.164 168.239  1.00  0.00     0.000 C 
BRANCH   9  10
ATOM     10  C   UNL     1     168.474 165.604 167.900  1.00  0.00     0.000 C 
BRANCH  10  11
ATOM     11  C   UNL     1     168.083 164.312 168.640  1.00  0.00     0.000 C 
BRANCH  11  12
ATOM     12  C   UNL     1     169.275 163.643 169.343  1.00  0.00     0.002 C 
BRANCH  12  13
ATOM     13  C   UNL     1     169.139 163.635 170.876  1.00  0.00     0.028 C 
BRANCH  13  14
ATOM     14  C   UNL     1     169.891 162.484 171.554  1.00  0.00     0.156 C 
BRANCH  14  15
ATOM     15  O   UNL     1     170.614 161.749 170.606  1.00  0.00    -0.396 OA
ATOM     16  H   UNL     1     170.701 162.335 169.810  1.00  0.00     0.210 HD
ENDBRANCH  14  15
ENDBRANCH  13  14
ENDBRANCH  12  13
ENDBRANCH  11  12
ENDBRANCH  10  11
ENDBRANCH   9  10
ENDBRANCH   1   9
TORSDOF 13
ENDMDL
MODEL 3
REMARK VINA RESULT:    -2.999      1.756      3.897
REMARK INTER + INTRA:          -7.132
REMARK INTER:                  -5.681
REMARK INTRA:                  -1.451
REMARK UNBOUND:                -1.941
REMARK SMILES CCCCCCCCCCCCCCO
REMARK SMILES IDX 8 1 7 2 6 3 5 4 4 5 3 6 2 7 1 8 9 9 10 10 11 11 12 12 13 13
REMARK SMILES IDX 14 14 15 15
REMARK H PARENT 15 16
REMARK Flexibility Score: inf
ROOT
ATOM      1  C   UNL     1     167.607 169.812 168.672  1.00  0.00     0.000 C 
ENDROOT
BRANCH   1   2
ATOM      2  C   UNL     1     168.870 169.454 167.876  1.00  0.00    -0.000 C 
BRANCH   2   3
ATOM      3  C   UNL     1     169.771 168.503 168.677  1.00  0.00    -0.000 C 
BRANCH   3   4
ATOM      4  C   UNL     1     169.237 168.232 170.094  1.00  0.00    -0.000 C 
BRANCH   4   5
ATOM      5  C   UNL     1     169.006 166.735 170.362  1.00  0.00    -0.000 C 
BRANCH   5   6
ATOM      6  C   UNL     1     169.102 165.878 169.086  1.00  0.00    -0.000 C 
BRANCH   6   7
ATOM      7  C   UNL     1     168.686 164.406 169.257  1.00  0.00    -0.003 C 
ATOM      8  C   UNL     1     169.060 163.833 170.623  1.00  0.00     0.004 C 
ENDBRANCH   6   7
ENDBRANCH   5   6
ENDBRANCH   4   5
ENDBRANCH   3   4
ENDBRANCH   2   3
ENDBRANCH   1   2
BRANCH   1   9
ATOM      9  C   UNL     1     166.320 169.260 168.034  1.00  0.00     0.000 C 
BRANCH   9  10
ATOM     10  C   UNL     1     166.235 167.722 167.952  1.00  0.00     0.000 C 
BRANCH  10  11
ATOM     11  C   UNL     1     165.026 167.089 168.666  1.00  0.00     0.000 C 
BRANCH  11  12
ATOM     12  C   UNL     1     165.278 166.843 170.163  1.00  0.00     0.002 C 
BRANCH  12  13
ATOM     13  C   UNL     1     164.039 166.302 170.897  1.00  0.00     0.028 C 
BRANCH  13  14
ATOM     14  C   UNL     1     163.018 165.633 169.970  1.00  0.00     0.156 C 
BRANCH  14  15
ATOM     15  O   UNL     1     161.731 165.720 170.518  1.00  0.00    -0.396 OA
ATOM     16  H   UNL     1     161.285 166.476 170.055  1.00  0.00     0.210 HD
ENDBRANCH  14  15
ENDBRANCH  13  14
ENDBRANCH  12  13
ENDBRANCH  11  12
ENDBRANCH  10  11
ENDBRANCH   9  10
ENDBRANCH   1   9
TORSDOF 13
ENDMDL
MODEL 4
REMARK VINA RESULT:    -2.989      1.187      3.167
REMARK INTER + INTRA:          -7.114
REMARK INTER:                  -5.455
REMARK INTRA:                  -1.660
REMARK UNBOUND:                -1.941
REMARK SMILES CCCCCCCCCCCCCCO
REMARK SMILES IDX 8 1 7 2 6 3 5 4 4 5 3 6 2 7 1 8 9 9 10 10 11 11 12 12 13 13
REMARK SMILES IDX 14 14 15 15
REMARK H PARENT 15 16
REMARK Flexibility Score: inf
ROOT
ATOM      1  C   UNL     1     169.992 169.124 169.106  1.00  0.00     0.000 C 
ENDROOT
BRANCH   1   2
ATOM      2  C   UNL     1     170.392 167.665 168.842  1.00  0.00    -0.000 C 
BRANCH   2   3
ATOM      3  C   UNL     1     169.405 166.992 167.877  1.00  0.00    -0.000 C 
BRANCH   3   4
ATOM      4  C   UNL     1     169.127 165.523 168.241  1.00  0.00    -0.000 C 
BRANCH   4   5
ATOM      5  C   UNL     1     168.267 165.382 169.508  1.00  0.00    -0.000 C 
BRANCH   5   6
ATOM      6  C   UNL     1     168.863 164.394 170.528  1.00  0.00    -0.000 C 
BRANCH   6   7
ATOM      7  C   UNL     1     168.829 164.870 171.991  1.00  0.00    -0.003 C 
ATOM      8  C   UNL     1     168.732 166.389 172.125  1.00  0.00     0.004 C 
ENDBRANCH   6   7
ENDBRANCH   5   6
ENDBRANCH   4   5
ENDBRANCH   3   4
ENDBRANCH   2   3
ENDBRANCH   1   2
BRANCH   1   9
ATOM      9  C   UNL     1     168.499 169.391 168.846  1.00  0.00     0.000 C 
BRANCH   9  10
ATOM     10  C   UNL     1     167.578 169.223 170.073  1.00  0.00     0.000 C 
BRANCH  10  11
ATOM     11  C   UNL     1     166.097 168.950 169.753  1.00  0.00     0.000 C 
BRANCH  11  12
ATOM     12  C   UNL     1     165.878 168.451 168.315  1.00  0.00     0.002 C 
BRANCH  12  13
ATOM     13  C   UNL     1     165.458 166.973 168.252  1.00  0.00     0.028 C 
BRANCH  13  14
ATOM     14  C   UNL     1     164.126 166.681 168.953  1.00  0.00     0.156 C 
BRANCH  14  15
ATOM     15  O   UNL     1     163.052 167.057 168.135  1.00  0.00    -0.396 OA
ATOM     16  H   UNL     1     162.311 167.300 168.749  1.00  0.00     0.210 HD
ENDBRANCH  14  15
ENDBRANCH  13  14
ENDBRANCH  12  13
ENDBRANCH  11  12
ENDBRANCH  10  11
ENDBRANCH   9  10
ENDBRANCH   1   9
TORSDOF 13
ENDMDL
MODEL 5
REMARK VINA RESULT:    -2.988      2.835      4.684
REMARK INTER + INTRA:          -7.112
REMARK INTER:                  -5.633
REMARK INTRA:                  -1.479
REMARK UNBOUND:                -1.941
REMARK SMILES CCCCCCCCCCCCCCO
REMARK SMILES IDX 8 1 7 2 6 3 5 4 4 5 3 6 2 7 1 8 9 9 10 10 11 11 12 12 13 13
REMARK SMILES IDX 14 14 15 15
REMARK H PARENT 15 16
REMARK Flexibility Score: inf
ROOT
ATOM      1  C   UNL     1     165.814 167.135 169.075  1.00  0.00     0.000 C 
ENDROOT
BRANCH   1   2
ATOM      2  C   UNL     1     165.957 168.156 167.936  1.00  0.00    -0.000 C 
BRANCH   2   3
ATOM      3  C   UNL     1     166.137 169.576 168.493  1.00  0.00    -0.000 C 
BRANCH   3   4
ATOM      4  C   UNL     1     167.393 169.715 169.370  1.00  0.00    -0.000 C 
BRANCH   4   5
ATOM      5  C   UNL     1     168.695 169.586 168.560  1.00  0.00    -0.000 C 
BRANCH   5   6
ATOM      6  C   UNL     1     169.583 168.422 169.037  1.00  0.00    -0.000 C 
BRANCH   6   7
ATOM      7  C   UNL     1     169.261 167.893 170.446  1.00  0.00    -0.003 C 
ATOM      8  C   UNL     1     170.185 168.460 171.524  1.00  0.00     0.004 C 
ENDBRANCH   6   7
ENDBRANCH   5   6
ENDBRANCH   4   5
ENDBRANCH   3   4
ENDBRANCH   2   3
ENDBRANCH   1   2
BRANCH   1   9
ATOM      9  C   UNL     1     166.133 165.696 168.632  1.00  0.00     0.000 C 
BRANCH   9  10
ATOM     10  C   UNL     1     167.522 165.498 167.990  1.00  0.00     0.000 C 
BRANCH  10  11
ATOM     11  C   UNL     1     168.232 164.180 168.349  1.00  0.00     0.000 C 
BRANCH  11  12
ATOM     12  C   UNL     1     169.360 164.370 169.376  1.00  0.00     0.002 C 
BRANCH  12  13
ATOM     13  C   UNL     1     169.159 163.529 170.649  1.00  0.00     0.028 C 
BRANCH  13  14
ATOM     14  C   UNL     1     170.197 162.413 170.820  1.00  0.00     0.156 C 
BRANCH  14  15
ATOM     15  O   UNL     1     169.697 161.203 170.322  1.00  0.00    -0.396 OA
ATOM     16  H   UNL     1     168.814 161.413 169.921  1.00  0.00     0.210 HD
ENDBRANCH  14  15
ENDBRANCH  13  14
ENDBRANCH  12  13
ENDBRANCH  11  12
ENDBRANCH  10  11
ENDBRANCH   9  10
ENDBRANCH   1   9
TORSDOF 13
ENDMDL
MODEL 6
REMARK VINA RESULT:    -2.962      3.262      5.943
REMARK INTER + INTRA:          -7.067
REMARK INTER:                  -5.700
REMARK INTRA:                  -1.367
REMARK UNBOUND:                -1.941
REMARK SMILES CCCCCCCCCCCCCCO
REMARK SMILES IDX 8 1 7 2 6 3 5 4 4 5 3 6 2 7 1 8 9 9 10 10 11 11 12 12 13 13
REMARK SMILES IDX 14 14 15 15
REMARK H PARENT 15 16
REMARK Flexibility Score: inf
ROOT
ATOM      1  C   UNL     1     167.250 170.247 167.971  1.00  0.00     0.000 C 
ENDROOT
BRANCH   1   2
ATOM      2  C   UNL     1     166.397 169.473 168.987  1.00  0.00    -0.000 C 
BRANCH   2   3
ATOM      3  C   UNL     1     165.332 168.626 168.276  1.00  0.00    -0.000 C 
BRANCH   3   4
ATOM      4  C   UNL     1     165.423 167.133 168.635  1.00  0.00    -0.000 C 
BRANCH   4   5
ATOM      5  C   UNL     1     166.550 166.411 167.875  1.00  0.00    -0.000 C 
BRANCH   5   6
ATOM      6  C   UNL     1     167.552 165.715 168.814  1.00  0.00    -0.000 C 
BRANCH   6   7
ATOM      7  C   UNL     1     167.381 166.043 170.308  1.00  0.00    -0.003 C 
ATOM      8  C   UNL     1     168.636 165.756 171.132  1.00  0.00     0.004 C 
ENDBRANCH   6   7
ENDBRANCH   5   6
ENDBRANCH   4   5
ENDBRANCH   3   4
ENDBRANCH   2   3
ENDBRANCH   1   2
BRANCH   1   9
ATOM      9  C   UNL     1     168.759 170.141 168.253  1.00  0.00     0.000 C 
BRANCH   9  10
ATOM     10  C   UNL     1     169.190 168.905 169.070  1.00  0.00     0.000 C 
BRANCH  10  11
ATOM     11  C   UNL     1     170.681 168.855 169.453  1.00  0.00     0.000 C 
BRANCH  11  12
ATOM     12  C   UNL     1     170.904 168.742 170.970  1.00  0.00     0.002 C 
BRANCH  12  13
ATOM     13  C   UNL     1     172.161 169.492 171.447  1.00  0.00     0.028 C 
BRANCH  13  14
ATOM     14  C   UNL     1     173.132 169.846 170.315  1.00  0.00     0.156 C 
BRANCH  14  15
ATOM     15  O   UNL     1     174.396 170.152 170.836  1.00  0.00    -0.396 OA
ATOM     16  H   UNL     1     175.008 170.211 170.056  1.00  0.00     0.210 HD
ENDBRANCH  14  15
ENDBRANCH  13  14
ENDBRANCH  12  13
ENDBRANCH  11  12
ENDBRANCH  10  11
ENDBRANCH   9  10
ENDBRANCH   1   9
TORSDOF 13
ENDMDL
MODEL 7
REMARK VINA RESULT:    -2.922      2.861      5.304
REMARK INTER + INTRA:          -6.998
REMARK INTER:                  -5.082
REMARK INTRA:                  -1.916
REMARK UNBOUND:                -1.941
REMARK SMILES CCCCCCCCCCCCCCO
REMARK SMILES IDX 8 1 7 2 6 3 5 4 4 5 3 6 2 7 1 8 9 9 10 10 11 11 12 12 13 13
REMARK SMILES IDX 14 14 15 15
REMARK H PARENT 15 16
REMARK Flexibility Score: inf
ROOT
ATOM      1  C   UNL     1     166.915 170.553 171.118  1.00  0.00     0.000 C 
ENDROOT
BRANCH   1   2
ATOM      2  C   UNL     1     166.231 170.782 169.762  1.00  0.00    -0.000 C 
BRANCH   2   3
ATOM      3  C   UNL     1     167.187 170.456 168.605  1.00  0.00    -0.000 C 
BRANCH   3   4
ATOM      4  C   UNL     1     166.816 169.153 167.878  1.00  0.00    -0.000 C 
BRANCH   4   5
ATOM      5  C   UNL     1     165.356 168.735 168.125  1.00  0.00    -0.000 C 
BRANCH   5   6
ATOM      6  C   UNL     1     165.147 167.212 168.029  1.00  0.00    -0.000 C 
BRANCH   6   7
ATOM      7  C   UNL     1     166.096 166.369 168.898  1.00  0.00    -0.003 C 
ATOM      8  C   UNL     1     166.908 165.358 168.091  1.00  0.00     0.004 C 
ENDBRANCH   6   7
ENDBRANCH   5   6
ENDBRANCH   4   5
ENDBRANCH   3   4
ENDBRANCH   2   3
ENDBRANCH   1   2
BRANCH   1   9
ATOM      9  C   UNL     1     166.483 169.238 171.791  1.00  0.00     0.000 C 
BRANCH   9  10
ATOM     10  C   UNL     1     167.445 168.049 171.588  1.00  0.00     0.000 C 
BRANCH  10  11
ATOM     11  C   UNL     1     168.877 168.424 171.163  1.00  0.00     0.000 C 
BRANCH  11  12
ATOM     12  C   UNL     1     169.412 167.544 170.022  1.00  0.00     0.002 C 
BRANCH  12  13
ATOM     13  C   UNL     1     170.336 168.309 169.058  1.00  0.00     0.028 C 
BRANCH  13  14
ATOM     14  C   UNL     1     171.449 169.091 169.765  1.00  0.00     0.156 C 
BRANCH  14  15
ATOM     15  O   UNL     1     172.608 169.109 168.978  1.00  0.00    -0.396 OA
ATOM     16  H   UNL     1     172.395 168.584 168.163  1.00  0.00     0.210 HD
ENDBRANCH  14  15
ENDBRANCH  13  14
ENDBRANCH  12  13
ENDBRANCH  11  12
ENDBRANCH  10  11
ENDBRANCH   9  10
ENDBRANCH   1   9
TORSDOF 13
ENDMDL
MODEL 8
REMARK VINA RESULT:    -2.909      2.310      4.824
REMARK INTER + INTRA:          -6.976
REMARK INTER:                  -5.402
REMARK INTRA:                  -1.574
REMARK UNBOUND:                -1.941
REMARK SMILES CCCCCCCCCCCCCCO
REMARK SMILES IDX 8 1 7 2 6 3 5 4 4 5 3 6 2 7 1 8 9 9 10 10 11 11 12 12 13 13
REMARK SMILES IDX 14 14 15 15
REMARK H PARENT 15 16
REMARK Flexibility Score: inf
ROOT
ATOM      1  C   UNL     1     170.882 168.866 170.127  1.00  0.00     0.000 C 
ENDROOT
BRANCH   1   2
ATOM      2  C   UNL     1     170.358 168.451 171.510  1.00  0.00    -0.000 C 
BRANCH   2   3
ATOM      3  C   UNL     1     168.848 168.172 171.462  1.00  0.00    -0.000 C 
BRANCH   3   4
ATOM      4  C   UNL     1     168.498 166.728 171.861  1.00  0.00    -0.000 C 
BRANCH   4   5
ATOM      5  C   UNL     1     167.216 166.221 171.178  1.00  0.00    -0.000 C 
BRANCH   5   6
ATOM      6  C   UNL     1     167.037 166.779 169.754  1.00  0.00    -0.000 C 
BRANCH   6   7
ATOM      7  C   UNL     1     165.589 166.785 169.234  1.00  0.00    -0.003 C 
ATOM      8  C   UNL     1     164.553 166.619 170.345  1.00  0.00     0.004 C 
ENDBRANCH   6   7
ENDBRANCH   5   6
ENDBRANCH   4   5
ENDBRANCH   3   4
ENDBRANCH   2   3
ENDBRANCH   1   2
BRANCH   1   9
ATOM      9  C   UNL     1     170.417 167.924 169.003  1.00  0.00     0.000 C 
BRANCH   9  10
ATOM     10  C   UNL     1     169.604 168.596 167.877  1.00  0.00     0.000 C 
BRANCH  10  11
ATOM     11  C   UNL     1     168.946 169.938 168.248  1.00  0.00     0.000 C 
BRANCH  11  12
ATOM     12  C   UNL     1     167.437 169.965 167.954  1.00  0.00     0.002 C 
BRANCH  12  13
ATOM     13  C   UNL     1     166.607 170.495 169.136  1.00  0.00     0.028 C 
BRANCH  13  14
ATOM     14  C   UNL     1     166.514 172.025 169.185  1.00  0.00     0.156 C 
BRANCH  14  15
ATOM     15  O   UNL     1     166.937 172.578 167.969  1.00  0.00    -0.396 OA
ATOM     16  H   UNL     1     166.110 172.803 167.467  1.00  0.00     0.210 HD
ENDBRANCH  14  15
ENDBRANCH  13  14
ENDBRANCH  12  13
ENDBRANCH  11  12
ENDBRANCH  10  11
ENDBRANCH   9  10
ENDBRANCH   1   9
TORSDOF 13
ENDMDL
MODEL 9
REMARK VINA RESULT:    -2.880      2.637      5.209
REMARK INTER + INTRA:          -6.925
REMARK INTER:                  -5.776
REMARK INTRA:                  -1.149
REMARK UNBOUND:                -1.941
REMARK SMILES CCCCCCCCCCCCCCO
REMARK SMILES IDX 8 1 7 2 6 3 5 4 4 5 3 6 2 7 1 8 9 9 10 10 11 11 12 12 13 13
REMARK SMILES IDX 14 14 15 15
REMARK H PARENT 15 16
REMARK Flexibility Score: inf
ROOT
ATOM      1  C   UNL     1     169.063 166.999 167.881  1.00  0.00     0.000 C 
ENDROOT
BRANCH   1   2
ATOM      2  C   UNL     1     168.790 165.531 168.242  1.00  0.00    -0.000 C 
BRANCH   2   3
ATOM      3  C   UNL     1     167.625 165.419 169.237  1.00  0.00    -0.000 C 
BRANCH   3   4
ATOM      4  C   UNL     1     166.294 165.918 168.652  1.00  0.00    -0.000 C 
BRANCH   4   5
ATOM      5  C   UNL     1     165.335 166.447 169.732  1.00  0.00    -0.000 C 
BRANCH   5   6
ATOM      6  C   UNL     1     163.880 166.552 169.241  1.00  0.00    -0.000 C 
BRANCH   6   7
ATOM      7  C   UNL     1     162.852 165.768 170.077  1.00  0.00    -0.003 C 
ATOM      8  C   UNL     1     163.093 165.880 171.581  1.00  0.00     0.004 C 
ENDBRANCH   6   7
ENDBRANCH   5   6
ENDBRANCH   4   5
ENDBRANCH   3   4
ENDBRANCH   2   3
ENDBRANCH   1   2
BRANCH   1   9
ATOM      9  C   UNL     1     169.504 167.841 169.091  1.00  0.00     0.000 C 
BRANCH   9  10
ATOM     10  C   UNL     1     169.095 169.328 169.041  1.00  0.00     0.000 C 
BRANCH  10  11
ATOM     11  C   UNL     1     167.841 169.640 168.204  1.00  0.00     0.000 C 
BRANCH  11  12
ATOM     12  C   UNL     1     166.563 169.730 169.055  1.00  0.00     0.002 C 
BRANCH  12  13
ATOM     13  C   UNL     1     166.651 170.802 170.155  1.00  0.00     0.028 C 
BRANCH  13  14
ATOM     14  C   UNL     1     166.028 172.145 169.755  1.00  0.00     0.156 C 
BRANCH  14  15
ATOM     15  O   UNL     1     165.826 172.945 170.888  1.00  0.00    -0.396 OA
ATOM     16  H   UNL     1     164.848 172.940 171.057  1.00  0.00     0.210 HD
ENDBRANCH  14  15
ENDBRANCH  13  14
ENDBRANCH  12  13
ENDBRANCH  11  12
ENDBRANCH  10  11
ENDBRANCH   9  10
ENDBRANCH   1   9
TORSDOF 13
ENDMDL
