MODEL 1
REMARK VINA RESULT:    25.493      0.000      0.000
REMARK INTER + INTRA:          31.323
REMARK INTER:                  32.200
REMARK INTRA:                  -0.877
REMARK UNBOUND:                -0.877
REMARK SMILES O=C(C=Cc1ccc(O)cc1)c1ccc(O)cc1O
REMARK SMILES IDX 4 1 3 2 5 3 6 4 7 5 8 6 11 7 10 8 9 9 2 11 1 12 12 13 18 14
REMARK SMILES IDX 13 15 17 16 14 17 15 18 19 19 16 21
REMARK H PARENT 9 10 19 20 16 22
REMARK Flexibility Score: inf
ROOT
ATOM      1  C   UNL     1      29.632   3.585  -1.555  1.00  0.00     0.012 C 
ATOM      2  C   UNL     1      28.740   2.635  -1.231  1.00  0.00     0.053 C 
ENDROOT
BRANCH   1   3
ATOM      3  C   UNL     1      29.521   5.015  -1.205  1.00  0.00    -0.025 A 
ATOM      4  C   UNL     1      28.965   5.909  -2.132  1.00  0.00     0.012 A 
ATOM      5  C   UNL     1      28.893   7.274  -1.838  1.00  0.00     0.047 A 
ATOM      6  C   UNL     1      29.395   7.763  -0.628  1.00  0.00     0.115 A 
ATOM      7  C   UNL     1      30.054   5.513  -0.002  1.00  0.00     0.012 A 
ATOM      8  C   UNL     1      29.980   6.878   0.290  1.00  0.00     0.047 A 
BRANCH   6   9
ATOM      9  O   UNL     1      29.315   9.125  -0.348  1.00  0.00    -0.508 OA
ATOM     10  H   UNL     1      30.010   9.778  -0.691  1.00  0.00     0.293 HD
ENDBRANCH   6   9
ENDBRANCH   1   3
BRANCH   2  11
ATOM     11  C   UNL     1      27.406   2.878  -0.632  1.00  0.00     0.189 C 
ATOM     12  O   UNL     1      27.294   3.138   0.597  1.00  0.00    -0.289 OA
BRANCH  11  13
ATOM     13  C   UNL     1      26.196   2.898  -1.482  1.00  0.00     0.064 A 
ATOM     14  C   UNL     1      24.982   3.471  -1.030  1.00  0.00     0.130 A 
ATOM     15  C   UNL     1      26.260   2.372  -2.784  1.00  0.00     0.020 A 
ATOM     16  C   UNL     1      23.878   3.523  -1.888  1.00  0.00     0.093 A 
ATOM     17  C   UNL     1      25.147   2.421  -3.626  1.00  0.00     0.047 A 
ATOM     18  C   UNL     1      23.953   3.000  -3.181  1.00  0.00     0.119 A 
BRANCH  14  19
ATOM     19  O   UNL     1      24.833   3.973   0.266  1.00  0.00    -0.507 OA
ATOM     20  H   UNL     1      24.357   4.840   0.472  1.00  0.00     0.293 HD
ENDBRANCH  14  19
BRANCH  18  21
ATOM     21  O   UNL     1      22.838   3.059  -4.014  1.00  0.00    -0.508 OA
ATOM     22  H   UNL     1      21.912   2.822  -3.676  1.00  0.00     0.293 HD
ENDBRANCH  18  21
ENDBRANCH  11  13
ENDBRANCH   2  11
TORSDOF 6
ENDMDL
MODEL 2
REMARK VINA RESULT:    25.640      2.479      6.508
REMARK INTER + INTRA:          31.508
REMARK INTER:                  32.462
REMARK INTRA:                  -0.954
REMARK UNBOUND:                -0.877
REMARK SMILES O=C(C=Cc1ccc(O)cc1)c1ccc(O)cc1O
REMARK SMILES IDX 4 1 3 2 5 3 6 4 7 5 8 6 11 7 10 8 9 9 2 11 1 12 12 13 18 14
REMARK SMILES IDX 13 15 17 16 14 17 15 18 19 19 16 21
REMARK H PARENT 9 10 19 20 16 22
REMARK Flexibility Score: inf
ROOT
ATOM      1  C   UNL     1      24.132   2.607  -2.866  1.00  0.00     0.012 C 
ATOM      2  C   UNL     1      24.696   3.439  -1.976  1.00  0.00     0.053 C 
ENDROOT
BRANCH   1   3
ATOM      3  C   UNL     1      24.669   2.296  -4.206  1.00  0.00    -0.025 A 
ATOM      4  C   UNL     1      25.744   1.405  -4.327  1.00  0.00     0.012 A 
ATOM      5  C   UNL     1      26.296   1.133  -5.582  1.00  0.00     0.047 A 
ATOM      6  C   UNL     1      25.796   1.766  -6.725  1.00  0.00     0.115 A 
ATOM      7  C   UNL     1      24.187   2.955  -5.352  1.00  0.00     0.012 A 
ATOM      8  C   UNL     1      24.740   2.681  -6.606  1.00  0.00     0.047 A 
BRANCH   6   9
ATOM      9  O   UNL     1      26.354   1.484  -7.970  1.00  0.00    -0.508 OA
ATOM     10  H   UNL     1      25.775   1.318  -8.785  1.00  0.00     0.293 HD
ENDBRANCH   6   9
ENDBRANCH   1   3
BRANCH   2  11
ATOM     11  C   UNL     1      25.851   4.329  -2.245  1.00  0.00     0.189 C 
ATOM     12  O   UNL     1      25.683   5.441  -2.815  1.00  0.00    -0.289 OA
BRANCH  11  13
ATOM     13  C   UNL     1      27.204   3.960  -1.779  1.00  0.00     0.064 A 
ATOM     14  C   UNL     1      28.322   4.799  -2.008  1.00  0.00     0.130 A 
ATOM     15  C   UNL     1      27.383   2.768  -1.055  1.00  0.00     0.020 A 
ATOM     16  C   UNL     1      29.575   4.442  -1.497  1.00  0.00     0.093 A 
ATOM     17  C   UNL     1      28.641   2.418  -0.560  1.00  0.00     0.047 A 
ATOM     18  C   UNL     1      29.740   3.257  -0.777  1.00  0.00     0.119 A 
BRANCH  14  19
ATOM     19  O   UNL     1      28.228   5.977  -2.755  1.00  0.00    -0.507 OA
ATOM     20  H   UNL     1      28.547   6.874  -2.417  1.00  0.00     0.293 HD
ENDBRANCH  14  19
BRANCH  18  21
ATOM     21  O   UNL     1      30.999   2.920  -0.284  1.00  0.00    -0.508 OA
ATOM     22  H   UNL     1      31.269   1.954  -0.136  1.00  0.00     0.293 HD
ENDBRANCH  18  21
ENDBRANCH  11  13
ENDBRANCH   2  11
TORSDOF 6
ENDMDL
MODEL 3
REMARK VINA RESULT:    25.947      1.446      6.053
REMARK INTER + INTRA:          31.897
REMARK INTER:                  32.739
REMARK INTRA:                  -0.842
REMARK UNBOUND:                -0.877
REMARK SMILES O=C(C=Cc1ccc(O)cc1)c1ccc(O)cc1O
REMARK SMILES IDX 4 1 3 2 5 3 6 4 7 5 8 6 11 7 10 8 9 9 2 11 1 12 12 13 18 14
REMARK SMILES IDX 13 15 17 16 14 17 15 18 19 19 16 21
REMARK H PARENT 9 10 19 20 16 22
REMARK Flexibility Score: inf
ROOT
ATOM      1  C   UNL     1      27.554   2.369  -0.249  1.00  0.00     0.012 C 
ATOM      2  C   UNL     1      28.835   2.750  -0.375  1.00  0.00     0.053 C 
ENDROOT
BRANCH   1   3
ATOM      3  C   UNL     1      26.457   2.740  -1.165  1.00  0.00    -0.025 A 
ATOM      4  C   UNL     1      25.420   3.560  -0.700  1.00  0.00     0.012 A 
ATOM      5  C   UNL     1      24.349   3.886  -1.538  1.00  0.00     0.047 A 
ATOM      6  C   UNL     1      24.293   3.378  -2.840  1.00  0.00     0.115 A 
ATOM      7  C   UNL     1      26.383   2.205  -2.464  1.00  0.00     0.012 A 
ATOM      8  C   UNL     1      25.312   2.532  -3.301  1.00  0.00     0.047 A 
BRANCH   6   9
ATOM      9  O   UNL     1      23.221   3.712  -3.665  1.00  0.00    -0.508 OA
ATOM     10  H   UNL     1      22.497   4.352  -3.360  1.00  0.00     0.293 HD
ENDBRANCH   6   9
ENDBRANCH   1   3
BRANCH   2  11
ATOM     11  C   UNL     1      29.340   3.753  -1.344  1.00  0.00     0.189 C 
ATOM     12  O   UNL     1      29.539   3.436  -2.549  1.00  0.00    -0.289 OA
BRANCH  11  13
ATOM     13  C   UNL     1      29.543   5.157  -0.929  1.00  0.00     0.064 A 
ATOM     14  C   UNL     1      29.073   6.237  -1.715  1.00  0.00     0.130 A 
ATOM     15  C   UNL     1      30.183   5.430   0.293  1.00  0.00     0.020 A 
ATOM     16  C   UNL     1      29.232   7.551  -1.256  1.00  0.00     0.093 A 
ATOM     17  C   UNL     1      30.344   6.745   0.734  1.00  0.00     0.047 A 
ATOM     18  C   UNL     1      29.866   7.809  -0.039  1.00  0.00     0.119 A 
BRANCH  14  19
ATOM     19  O   UNL     1      28.468   6.045  -2.960  1.00  0.00    -0.507 OA
ATOM     20  H   UNL     1      27.554   5.627  -3.072  1.00  0.00     0.293 HD
ENDBRANCH  14  19
BRANCH  18  21
ATOM     21  O   UNL     1      30.017   9.125   0.393  1.00  0.00    -0.508 OA
ATOM     22  H   UNL     1      30.934   9.540   0.515  1.00  0.00     0.293 HD
ENDBRANCH  18  21
ENDBRANCH  11  13
ENDBRANCH   2  11
TORSDOF 6
ENDMDL
MODEL 4
REMARK VINA RESULT:    25.987      1.606      5.545
REMARK INTER + INTRA:          31.947
REMARK INTER:                  32.701
REMARK INTRA:                  -0.754
REMARK UNBOUND:                -0.877
REMARK SMILES O=C(C=Cc1ccc(O)cc1)c1ccc(O)cc1O
REMARK SMILES IDX 4 1 3 2 5 3 6 4 7 5 8 6 11 7 10 8 9 9 2 11 1 12 12 13 18 14
REMARK SMILES IDX 13 15 17 16 14 17 15 18 19 19 16 21
REMARK H PARENT 9 10 19 20 16 22
REMARK Flexibility Score: inf
ROOT
ATOM      1  C   UNL     1      27.714   2.720   0.167  1.00  0.00     0.012 C 
ATOM      2  C   UNL     1      29.014   3.015   0.011  1.00  0.00     0.053 C 
ENDROOT
BRANCH   1   3
ATOM      3  C   UNL     1      26.673   2.868  -0.871  1.00  0.00    -0.025 A 
ATOM      4  C   UNL     1      25.488   3.551  -0.565  1.00  0.00     0.012 A 
ATOM      5  C   UNL     1      24.472   3.663  -1.519  1.00  0.00     0.047 A 
ATOM      6  C   UNL     1      24.620   3.074  -2.779  1.00  0.00     0.115 A 
ATOM      7  C   UNL     1      26.807   2.250  -2.128  1.00  0.00     0.012 A 
ATOM      8  C   UNL     1      25.791   2.364  -3.080  1.00  0.00     0.047 A 
BRANCH   6   9
ATOM      9  O   UNL     1      23.601   3.195  -3.720  1.00  0.00    -0.508 OA
ATOM     10  H   UNL     1      22.787   3.773  -3.549  1.00  0.00     0.293 HD
ENDBRANCH   6   9
ENDBRANCH   1   3
BRANCH   2  11
ATOM     11  C   UNL     1      29.602   3.709  -1.160  1.00  0.00     0.189 C 
ATOM     12  O   UNL     1      30.349   3.089  -1.965  1.00  0.00    -0.289 OA
BRANCH  11  13
ATOM     13  C   UNL     1      29.257   5.119  -1.445  1.00  0.00     0.064 A 
ATOM     14  C   UNL     1      29.639   6.166  -0.571  1.00  0.00     0.130 A 
ATOM     15  C   UNL     1      28.569   5.435  -2.629  1.00  0.00     0.020 A 
ATOM     16  C   UNL     1      29.346   7.493  -0.907  1.00  0.00     0.093 A 
ATOM     17  C   UNL     1      28.274   6.763  -2.947  1.00  0.00     0.047 A 
ATOM     18  C   UNL     1      28.665   7.796  -2.088  1.00  0.00     0.119 A 
BRANCH  14  19
ATOM     19  O   UNL     1      30.286   5.923   0.644  1.00  0.00    -0.507 OA
ATOM     20  H   UNL     1      31.143   6.384   0.917  1.00  0.00     0.293 HD
ENDBRANCH  14  19
BRANCH  18  21
ATOM     21  O   UNL     1      28.379   9.123  -2.397  1.00  0.00    -0.508 OA
ATOM     22  H   UNL     1      27.828   9.371  -3.211  1.00  0.00     0.293 HD
ENDBRANCH  18  21
ENDBRANCH  11  13
ENDBRANCH   2  11
TORSDOF 6
ENDMDL
MODEL 5
REMARK VINA RESULT:    26.254      4.089      7.296
REMARK INTER + INTRA:          32.284
REMARK INTER:                  33.096
REMARK INTRA:                  -0.812
REMARK UNBOUND:                -0.877
REMARK SMILES O=C(C=Cc1ccc(O)cc1)c1ccc(O)cc1O
REMARK SMILES IDX 4 1 3 2 5 3 6 4 7 5 8 6 11 7 10 8 9 9 2 11 1 12 12 13 18 14
REMARK SMILES IDX 13 15 17 16 14 17 15 18 19 19 16 21
REMARK H PARENT 9 10 19 20 16 22
REMARK Flexibility Score: inf
ROOT
ATOM      1  C   UNL     1      29.545   3.650  -0.013  1.00  0.00     0.012 C 
ATOM      2  C   UNL     1      30.587   2.820  -0.180  1.00  0.00     0.053 C 
ENDROOT
BRANCH   1   3
ATOM      3  C   UNL     1      29.439   5.012  -0.574  1.00  0.00    -0.025 A 
ATOM      4  C   UNL     1      29.830   6.110   0.206  1.00  0.00     0.012 A 
ATOM      5  C   UNL     1      29.695   7.410  -0.290  1.00  0.00     0.047 A 
ATOM      6  C   UNL     1      29.147   7.628  -1.558  1.00  0.00     0.115 A 
ATOM      7  C   UNL     1      28.860   5.235  -1.836  1.00  0.00     0.012 A 
ATOM      8  C   UNL     1      28.726   6.536  -2.330  1.00  0.00     0.047 A 
BRANCH   6   9
ATOM      9  O   UNL     1      29.020   8.929  -2.040  1.00  0.00    -0.508 OA
ATOM     10  H   UNL     1      29.817   9.442  -2.398  1.00  0.00     0.293 HD
ENDBRANCH   6   9
ENDBRANCH   1   3
BRANCH   2  11
ATOM     11  C   UNL     1      31.885   3.185  -0.798  1.00  0.00     0.189 C 
ATOM     12  O   UNL     1      31.971   3.378  -2.041  1.00  0.00    -0.289 OA
BRANCH  11  13
ATOM     13  C   UNL     1      33.079   3.406   0.047  1.00  0.00     0.064 A 
ATOM     14  C   UNL     1      34.225   4.074  -0.451  1.00  0.00     0.130 A 
ATOM     15  C   UNL     1      33.064   2.981   1.387  1.00  0.00     0.020 A 
ATOM     16  C   UNL     1      35.310   4.317   0.399  1.00  0.00     0.093 A 
ATOM     17  C   UNL     1      34.159   3.220   2.221  1.00  0.00     0.047 A 
ATOM     18  C   UNL     1      35.284   3.892   1.730  1.00  0.00     0.119 A 
BRANCH  14  19
ATOM     19  O   UNL     1      34.327   4.486  -1.782  1.00  0.00    -0.507 OA
ATOM     20  H   UNL     1      33.937   3.964  -2.554  1.00  0.00     0.293 HD
ENDBRANCH  14  19
BRANCH  18  21
ATOM     21  O   UNL     1      36.379   4.140   2.554  1.00  0.00    -0.508 OA
ATOM     22  H   UNL     1      37.157   4.710   2.243  1.00  0.00     0.293 HD
ENDBRANCH  18  21
ENDBRANCH  11  13
ENDBRANCH   2  11
TORSDOF 6
ENDMDL
