MODEL 1
REMARK VINA RESULT:    -4.855      0.000      0.000
REMARK INTER + INTRA:          -5.521
REMARK INTER:                  -5.281
REMARK INTRA:                  -0.240
REMARK UNBOUND:                -0.240
REMARK SMILES O=C([O-])c1ccccc1O
REMARK SMILES IDX 4 1 9 2 5 3 8 4 6 5 7 6 2 7 1 8 3 9 10 10
REMARK H PARENT 10 11
REMARK Flexibility Score: inf
ROOT
ATOM      1  C   UNL     1       6.915  -2.230  16.518  1.00  0.00     0.039 A 
ATOM      2  C   UNL     1       6.048  -2.109  15.407  1.00  0.00     0.124 A 
ATOM      3  C   UNL     1       6.361  -2.503  17.784  1.00  0.00     0.014 A 
ATOM      4  C   UNL     1       4.663  -2.260  15.580  1.00  0.00     0.047 A 
ATOM      5  C   UNL     1       4.981  -2.651  17.943  1.00  0.00     0.001 A 
ATOM      6  C   UNL     1       4.133  -2.530  16.842  1.00  0.00     0.004 A 
ENDROOT
BRANCH   1   7
ATOM      7  C   UNL     1       8.386  -2.078  16.380  1.00  0.00     0.075 C 
ATOM      8  O   UNL     1       9.159  -3.003  16.748  1.00  0.00    -0.545 OA
ATOM      9  O   UNL     1       8.942  -0.921  15.847  1.00  0.00    -0.545 OA
ENDBRANCH   1   7
BRANCH   2  10
ATOM     10  O   UNL     1       6.550  -1.840  14.134  1.00  0.00    -0.507 OA
ATOM     11  H   UNL     1       7.542  -1.883  13.931  1.00  0.00     0.293 HD
ENDBRANCH   2  10
TORSDOF 2
ENDMDL
MODEL 2
REMARK VINA RESULT:    -4.853      1.371      2.360
REMARK INTER + INTRA:          -5.518
REMARK INTER:                  -5.295
REMARK INTRA:                  -0.224
REMARK UNBOUND:                -0.240
REMARK SMILES O=C([O-])c1ccccc1O
REMARK SMILES IDX 4 1 9 2 5 3 8 4 6 5 7 6 2 7 1 8 3 9 10 10
REMARK H PARENT 10 11
REMARK Flexibility Score: inf
ROOT
ATOM      1  C   UNL     1       7.021  -2.143  16.928  1.00  0.00     0.039 A 
ATOM      2  C   UNL     1       6.209  -2.414  18.055  1.00  0.00     0.124 A 
ATOM      3  C   UNL     1       6.413  -2.054  15.660  1.00  0.00     0.014 A 
ATOM      4  C   UNL     1       4.826  -2.588  17.895  1.00  0.00     0.047 A 
ATOM      5  C   UNL     1       5.036  -2.229  15.514  1.00  0.00     0.001 A 
ATOM      6  C   UNL     1       4.242  -2.496  16.630  1.00  0.00     0.004 A 
ENDROOT
BRANCH   1   7
ATOM      7  C   UNL     1       8.489  -1.951  17.051  1.00  0.00     0.075 C 
ATOM      8  O   UNL     1       9.284  -2.727  16.456  1.00  0.00    -0.545 OA
ATOM      9  O   UNL     1       9.016  -0.920  17.820  1.00  0.00    -0.545 OA
ENDBRANCH   1   7
BRANCH   2  10
ATOM     10  O   UNL     1       6.765  -2.511  19.330  1.00  0.00    -0.507 OA
ATOM     11  H   UNL     1       7.499  -1.885  19.641  1.00  0.00     0.293 HD
ENDBRANCH   2  10
TORSDOF 2
ENDMDL
MODEL 3
REMARK VINA RESULT:    -4.728      1.767      3.614
REMARK INTER + INTRA:          -5.382
REMARK INTER:                  -5.137
REMARK INTRA:                  -0.246
REMARK UNBOUND:                -0.240
REMARK SMILES O=C([O-])c1ccccc1O
REMARK SMILES IDX 4 1 9 2 5 3 8 4 6 5 7 6 2 7 1 8 3 9 10 10
REMARK H PARENT 10 11
REMARK Flexibility Score: inf
ROOT
ATOM      1  C   UNL     1       5.131  -2.258  15.867  1.00  0.00     0.039 A 
ATOM      2  C   UNL     1       6.397  -2.184  15.237  1.00  0.00     0.124 A 
ATOM      3  C   UNL     1       5.077  -2.500  17.254  1.00  0.00     0.014 A 
ATOM      4  C   UNL     1       7.566  -2.350  15.995  1.00  0.00     0.047 A 
ATOM      5  C   UNL     1       6.249  -2.663  17.996  1.00  0.00     0.001 A 
ATOM      6  C   UNL     1       7.492  -2.588  17.368  1.00  0.00     0.004 A 
ENDROOT
BRANCH   1   7
ATOM      7  C   UNL     1       3.868  -2.088  15.103  1.00  0.00     0.075 C 
ATOM      8  O   UNL     1       3.769  -1.184  14.231  1.00  0.00    -0.545 OA
ATOM      9  O   UNL     1       2.774  -2.915  15.332  1.00  0.00    -0.545 OA
ENDBRANCH   1   7
BRANCH   2  10
ATOM     10  O   UNL     1       6.501  -1.946  13.867  1.00  0.00    -0.507 OA
ATOM     11  H   UNL     1       7.353  -1.589  13.450  1.00  0.00     0.293 HD
ENDBRANCH   2  10
TORSDOF 2
ENDMDL
MODEL 4
REMARK VINA RESULT:    -4.486      8.197      9.318
REMARK INTER + INTRA:          -5.119
REMARK INTER:                  -4.868
REMARK INTRA:                  -0.251
REMARK UNBOUND:                -0.240
REMARK SMILES O=C([O-])c1ccccc1O
REMARK SMILES IDX 4 1 9 2 5 3 8 4 6 5 7 6 2 7 1 8 3 9 10 10
REMARK H PARENT 10 11
REMARK Flexibility Score: inf
ROOT
ATOM      1  C   UNL     1       8.779   1.541  23.649  1.00  0.00     0.039 A 
ATOM      2  C   UNL     1       7.862   1.663  24.720  1.00  0.00     0.124 A 
ATOM      3  C   UNL     1      10.089   1.102  23.925  1.00  0.00     0.014 A 
ATOM      4  C   UNL     1       8.266   1.348  26.027  1.00  0.00     0.047 A 
ATOM      5  C   UNL     1      10.478   0.792  25.230  1.00  0.00     0.001 A 
ATOM      6  C   UNL     1       9.568   0.915  26.280  1.00  0.00     0.004 A 
ENDROOT
BRANCH   1   7
ATOM      7  C   UNL     1       8.393   1.864  22.251  1.00  0.00     0.075 C 
ATOM      8  O   UNL     1       7.814   2.951  21.985  1.00  0.00    -0.545 OA
ATOM      9  O   UNL     1       8.660   0.981  21.211  1.00  0.00    -0.545 OA
ENDBRANCH   1   7
BRANCH   2  10
ATOM     10  O   UNL     1       6.554   2.093  24.497  1.00  0.00    -0.507 OA
ATOM     11  H   UNL     1       6.334   2.791  23.795  1.00  0.00     0.293 HD
ENDBRANCH   2  10
TORSDOF 2
ENDMDL
MODEL 5
REMARK VINA RESULT:    -4.359      1.210      1.593
REMARK INTER + INTRA:          -4.981
REMARK INTER:                  -4.740
REMARK INTRA:                  -0.241
REMARK UNBOUND:                -0.240
REMARK SMILES O=C([O-])c1ccccc1O
REMARK SMILES IDX 4 1 9 2 5 3 8 4 6 5 7 6 2 7 1 8 3 9 10 10
REMARK H PARENT 10 11
REMARK Flexibility Score: inf
ROOT
ATOM      1  C   UNL     1       5.852  -2.286  16.904  1.00  0.00     0.039 A 
ATOM      2  C   UNL     1       5.520  -2.212  15.530  1.00  0.00     0.124 A 
ATOM      3  C   UNL     1       4.810  -2.323  17.852  1.00  0.00     0.014 A 
ATOM      4  C   UNL     1       4.173  -2.176  15.137  1.00  0.00     0.047 A 
ATOM      5  C   UNL     1       3.475  -2.286  17.447  1.00  0.00     0.001 A 
ATOM      6  C   UNL     1       3.156  -2.213  16.091  1.00  0.00     0.004 A 
ENDROOT
BRANCH   1   7
ATOM      7  C   UNL     1       7.264  -2.327  17.365  1.00  0.00     0.075 C 
ATOM      8  O   UNL     1       7.693  -1.463  18.177  1.00  0.00    -0.545 OA
ATOM      9  O   UNL     1       8.138  -3.310  16.916  1.00  0.00    -0.545 OA
ENDBRANCH   1   7
BRANCH   2  10
ATOM     10  O   UNL     1       6.516  -2.174  14.555  1.00  0.00    -0.507 OA
ATOM     11  H   UNL     1       7.027  -1.324  14.347  1.00  0.00     0.293 HD
ENDBRANCH   2  10
TORSDOF 2
ENDMDL
MODEL 6
REMARK VINA RESULT:    -4.327      4.188      5.536
REMARK INTER + INTRA:          -4.946
REMARK INTER:                  -4.777
REMARK INTRA:                  -0.169
REMARK UNBOUND:                -0.240
REMARK SMILES O=C([O-])c1ccccc1O
REMARK SMILES IDX 4 1 9 2 5 3 8 4 6 5 7 6 2 7 1 8 3 9 10 10
REMARK H PARENT 10 11
REMARK Flexibility Score: inf
ROOT
ATOM      1  C   UNL     1       4.879  -4.378  20.231  1.00  0.00     0.039 A 
ATOM      2  C   UNL     1       5.755  -3.266  20.239  1.00  0.00     0.124 A 
ATOM      3  C   UNL     1       3.957  -4.506  19.174  1.00  0.00     0.014 A 
ATOM      4  C   UNL     1       5.693  -2.318  19.205  1.00  0.00     0.047 A 
ATOM      5  C   UNL     1       3.905  -3.556  18.152  1.00  0.00     0.001 A 
ATOM      6  C   UNL     1       4.772  -2.463  18.167  1.00  0.00     0.004 A 
ENDROOT
BRANCH   1   7
ATOM      7  C   UNL     1       4.911  -5.404  21.304  1.00  0.00     0.075 C 
ATOM      8  O   UNL     1       3.944  -6.198  21.454  1.00  0.00    -0.545 OA
ATOM      9  O   UNL     1       5.999  -5.513  22.162  1.00  0.00    -0.545 OA
ENDBRANCH   1   7
BRANCH   2  10
ATOM     10  O   UNL     1       6.686  -3.096  21.264  1.00  0.00    -0.507 OA
ATOM     11  H   UNL     1       7.289  -2.283  21.308  1.00  0.00     0.293 HD
ENDBRANCH   2  10
TORSDOF 2
ENDMDL
MODEL 7
REMARK VINA RESULT:    -4.317      8.446      9.602
REMARK INTER + INTRA:          -4.936
REMARK INTER:                  -4.725
REMARK INTRA:                  -0.210
REMARK UNBOUND:                -0.240
REMARK SMILES O=C([O-])c1ccccc1O
REMARK SMILES IDX 4 1 9 2 5 3 8 4 6 5 7 6 2 7 1 8 3 9 10 10
REMARK H PARENT 10 11
REMARK Flexibility Score: inf
ROOT
ATOM      1  C   UNL     1       8.398   1.595  24.279  1.00  0.00     0.039 A 
ATOM      2  C   UNL     1       9.727   1.135  24.118  1.00  0.00     0.124 A 
ATOM      3  C   UNL     1       7.858   1.662  25.579  1.00  0.00     0.014 A 
ATOM      4  C   UNL     1      10.478   0.757  25.241  1.00  0.00     0.047 A 
ATOM      5  C   UNL     1       8.616   1.283  26.688  1.00  0.00     0.001 A 
ATOM      6  C   UNL     1       9.925   0.831  26.520  1.00  0.00     0.004 A 
ENDROOT
BRANCH   1   7
ATOM      7  C   UNL     1       7.567   2.006  23.119  1.00  0.00     0.075 C 
ATOM      8  O   UNL     1       6.310   2.012  23.206  1.00  0.00    -0.545 OA
ATOM      9  O   UNL     1       8.152   2.389  21.917  1.00  0.00    -0.545 OA
ENDBRANCH   1   7
BRANCH   2  10
ATOM     10  O   UNL     1      10.305   1.052  22.851  1.00  0.00    -0.507 OA
ATOM     11  H   UNL     1      10.619   0.169  22.465  1.00  0.00     0.293 HD
ENDBRANCH   2  10
TORSDOF 2
ENDMDL
MODEL 8
REMARK VINA RESULT:    -4.275      8.467     10.019
REMARK INTER + INTRA:          -4.890
REMARK INTER:                  -4.660
REMARK INTRA:                  -0.229
REMARK UNBOUND:                -0.240
REMARK SMILES O=C([O-])c1ccccc1O
REMARK SMILES IDX 4 1 9 2 5 3 8 4 6 5 7 6 2 7 1 8 3 9 10 10
REMARK H PARENT 10 11
REMARK Flexibility Score: inf
ROOT
ATOM      1  C   UNL     1      -0.973  -5.289  11.319  1.00  0.00     0.039 A 
ATOM      2  C   UNL     1      -0.102  -5.011  10.239  1.00  0.00     0.124 A 
ATOM      3  C   UNL     1      -1.976  -6.264  11.147  1.00  0.00     0.014 A 
ATOM      4  C   UNL     1      -0.248  -5.702   9.026  1.00  0.00     0.047 A 
ATOM      5  C   UNL     1      -2.110  -6.944   9.935  1.00  0.00     0.001 A 
ATOM      6  C   UNL     1      -1.247  -6.664   8.875  1.00  0.00     0.004 A 
ENDROOT
BRANCH   1   7
ATOM      7  C   UNL     1      -0.855  -4.582  12.620  1.00  0.00     0.075 C 
ATOM      8  O   UNL     1      -1.871  -4.408  13.345  1.00  0.00    -0.545 OA
ATOM      9  O   UNL     1       0.370  -4.098  13.065  1.00  0.00    -0.545 OA
ENDBRANCH   1   7
BRANCH   2  10
ATOM     10  O   UNL     1       0.906  -4.055  10.362  1.00  0.00    -0.507 OA
ATOM     11  H   UNL     1       1.680  -4.009   9.709  1.00  0.00     0.293 HD
ENDBRANCH   2  10
TORSDOF 2
ENDMDL
MODEL 9
REMARK VINA RESULT:    -4.255      8.338      9.322
REMARK INTER + INTRA:          -4.868
REMARK INTER:                  -4.613
REMARK INTRA:                  -0.255
REMARK UNBOUND:                -0.240
REMARK SMILES O=C([O-])c1ccccc1O
REMARK SMILES IDX 4 1 9 2 5 3 8 4 6 5 7 6 2 7 1 8 3 9 10 10
REMARK H PARENT 10 11
REMARK Flexibility Score: inf
ROOT
ATOM      1  C   UNL     1      -0.469  -4.042  11.463  1.00  0.00     0.039 A 
ATOM      2  C   UNL     1      -0.454  -5.036  12.471  1.00  0.00     0.124 A 
ATOM      3  C   UNL     1      -0.651  -4.438  10.123  1.00  0.00     0.014 A 
ATOM      4  C   UNL     1      -0.619  -6.387  12.124  1.00  0.00     0.047 A 
ATOM      5  C   UNL     1      -0.814  -5.785   9.792  1.00  0.00     0.001 A 
ATOM      6  C   UNL     1      -0.797  -6.759  10.791  1.00  0.00     0.004 A 
ENDROOT
BRANCH   1   7
ATOM      7  C   UNL     1      -0.299  -2.602  11.785  1.00  0.00     0.075 C 
ATOM      8  O   UNL     1       0.514  -1.896  11.132  1.00  0.00    -0.545 OA
ATOM      9  O   UNL     1      -1.028  -2.004  12.807  1.00  0.00    -0.545 OA
ENDBRANCH   1   7
BRANCH   2  10
ATOM     10  O   UNL     1      -0.277  -4.694  13.811  1.00  0.00    -0.507 OA
ATOM     11  H   UNL     1      -0.829  -5.118  14.548  1.00  0.00     0.293 HD
ENDBRANCH   2  10
TORSDOF 2
ENDMDL
