MODEL 1
REMARK VINA RESULT:    -4.125      0.000      0.000
REMARK INTER + INTRA:          -7.604
REMARK INTER:                  -7.019
REMARK INTRA:                  -0.585
REMARK UNBOUND:                -0.585
REMARK SMILES CCCCCCCCCCCCCC(=O)[O-]
REMARK SMILES IDX 8 1 9 2 10 3 11 4 12 5 13 6 14 7 15 8 16 9 7 10 6 11 5 12
REMARK SMILES IDX 4 13 3 14 2 15 1 16
REMARK H PARENT
REMARK Flexibility Score: inf
ROOT
ATOM      1  C   UNL     1       5.156  13.672  34.778  1.00  0.00     0.000 C 
ENDROOT
BRANCH   1   2
ATOM      2  C   UNL     1       4.875  13.054  33.399  1.00  0.00     0.000 C 
BRANCH   2   3
ATOM      3  C   UNL     1       5.169  11.545  33.353  1.00  0.00     0.000 C 
BRANCH   3   4
ATOM      4  C   UNL     1       5.184  10.900  34.749  1.00  0.00     0.000 C 
BRANCH   4   5
ATOM      5  C   UNL     1       5.672   9.434  34.748  1.00  0.00     0.006 C 
BRANCH   5   6
ATOM      6  C   UNL     1       6.481   9.063  33.495  1.00  0.00     0.053 C 
BRANCH   6   7
ATOM      7  C   UNL     1       6.969   7.647  33.547  1.00  0.00     0.041 C 
ATOM      8  O   UNL     1       8.182   7.403  33.775  1.00  0.00    -0.550 OA
ATOM      9  O   UNL     1       6.087   6.598  33.319  1.00  0.00    -0.550 OA
ENDBRANCH   6   7
ENDBRANCH   5   6
ENDBRANCH   4   5
ENDBRANCH   3   4
ENDBRANCH   2   3
ENDBRANCH   1   2
BRANCH   1  10
ATOM     10  C   UNL     1       5.143  15.210  34.749  1.00  0.00     0.000 C 
BRANCH  10  11
ATOM     11  C   UNL     1       6.556  15.809  34.659  1.00  0.00    -0.000 C 
BRANCH  11  12
ATOM     12  C   UNL     1       6.555  17.345  34.701  1.00  0.00    -0.000 C 
BRANCH  12  13
ATOM     13  C   UNL     1       5.238  17.907  34.146  1.00  0.00    -0.000 C 
BRANCH  13  14
ATOM     14  C   UNL     1       5.458  19.013  33.101  1.00  0.00    -0.000 C 
BRANCH  14  15
ATOM     15  C   UNL     1       6.472  20.069  33.563  1.00  0.00    -0.003 C 
ATOM     16  C   UNL     1       7.233  20.655  32.377  1.00  0.00     0.004 C 
ENDBRANCH  14  15
ENDBRANCH  13  14
ENDBRANCH  12  13
ENDBRANCH  11  12
ENDBRANCH  10  11
ENDBRANCH   1  10
TORSDOF 12
ENDMDL
MODEL 2
REMARK VINA RESULT:    -3.967      3.797      7.219
REMARK INTER + INTRA:          -7.335
REMARK INTER:                  -6.405
REMARK INTRA:                  -0.930
REMARK UNBOUND:                -0.585
REMARK SMILES CCCCCCCCCCCCCC(=O)[O-]
REMARK SMILES IDX 8 1 9 2 10 3 11 4 12 5 13 6 14 7 15 8 16 9 7 10 6 11 5 12
REMARK SMILES IDX 4 13 3 14 2 15 1 16
REMARK H PARENT
REMARK Flexibility Score: inf
ROOT
ATOM      1  C   UNL     1       5.828   6.487  33.092  1.00  0.00     0.000 C 
ENDROOT
BRANCH   1   2
ATOM      2  C   UNL     1       5.146   5.217  33.626  1.00  0.00     0.000 C 
BRANCH   2   3
ATOM      3  C   UNL     1       5.549   4.889  35.073  1.00  0.00     0.000 C 
BRANCH   3   4
ATOM      4  C   UNL     1       5.817   3.390  35.290  1.00  0.00     0.000 C 
BRANCH   4   5
ATOM      5  C   UNL     1       7.136   3.100  36.040  1.00  0.00     0.006 C 
BRANCH   5   6
ATOM      6  C   UNL     1       7.887   4.372  36.467  1.00  0.00     0.053 C 
BRANCH   6   7
ATOM      7  C   UNL     1       9.293   4.386  35.951  1.00  0.00     0.041 C 
ATOM      8  O   UNL     1       9.767   5.431  35.431  1.00  0.00    -0.550 OA
ATOM      9  O   UNL     1      10.074   3.239  36.023  1.00  0.00    -0.550 OA
ENDBRANCH   6   7
ENDBRANCH   5   6
ENDBRANCH   4   5
ENDBRANCH   3   4
ENDBRANCH   2   3
ENDBRANCH   1   2
BRANCH   1  10
ATOM     10  C   UNL     1       7.052   6.895  33.930  1.00  0.00     0.000 C 
BRANCH  10  11
ATOM     11  C   UNL     1       7.705   8.193  33.426  1.00  0.00    -0.000 C 
BRANCH  11  12
ATOM     12  C   UNL     1       6.714   9.364  33.340  1.00  0.00    -0.000 C 
BRANCH  12  13
ATOM     13  C   UNL     1       6.105   9.668  34.717  1.00  0.00    -0.000 C 
BRANCH  13  14
ATOM     14  C   UNL     1       5.098  10.828  34.678  1.00  0.00    -0.000 C 
BRANCH  14  15
ATOM     15  C   UNL     1       5.294  11.740  33.458  1.00  0.00    -0.003 C 
ATOM     16  C   UNL     1       5.295  13.210  33.866  1.00  0.00     0.004 C 
ENDBRANCH  14  15
ENDBRANCH  13  14
ENDBRANCH  12  13
ENDBRANCH  11  12
ENDBRANCH  10  11
ENDBRANCH   1  10
TORSDOF 12
ENDMDL
MODEL 3
REMARK VINA RESULT:    -3.894      2.471      4.963
REMARK INTER + INTRA:          -7.210
REMARK INTER:                  -6.192
REMARK INTRA:                  -1.018
REMARK UNBOUND:                -0.585
REMARK SMILES CCCCCCCCCCCCCC(=O)[O-]
REMARK SMILES IDX 8 1 9 2 10 3 11 4 12 5 13 6 14 7 15 8 16 9 7 10 6 11 5 12
REMARK SMILES IDX 4 13 3 14 2 15 1 16
REMARK H PARENT
REMARK Flexibility Score: inf
ROOT
ATOM      1  C   UNL     1       6.944   9.168  33.976  1.00  0.00     0.000 C 
ENDROOT
BRANCH   1   2
ATOM      2  C   UNL     1       7.283   7.817  33.328  1.00  0.00     0.000 C 
BRANCH   2   3
ATOM      3  C   UNL     1       6.143   6.793  33.458  1.00  0.00     0.000 C 
BRANCH   3   4
ATOM      4  C   UNL     1       5.370   6.930  34.780  1.00  0.00     0.000 C 
BRANCH   4   5
ATOM      5  C   UNL     1       5.964   6.091  35.934  1.00  0.00     0.006 C 
BRANCH   5   6
ATOM      6  C   UNL     1       6.707   4.835  35.453  1.00  0.00     0.053 C 
BRANCH   6   7
ATOM      7  C   UNL     1       8.149   4.852  35.859  1.00  0.00     0.041 C 
ATOM      8  O   UNL     1       8.791   5.935  35.871  1.00  0.00    -0.550 OA
ATOM      9  O   UNL     1       8.791   3.668  36.201  1.00  0.00    -0.550 OA
ENDBRANCH   6   7
ENDBRANCH   5   6
ENDBRANCH   4   5
ENDBRANCH   3   4
ENDBRANCH   2   3
ENDBRANCH   1   2
BRANCH   1  10
ATOM     10  C   UNL     1       6.409  10.192  32.960  1.00  0.00     0.000 C 
BRANCH  10  11
ATOM     11  C   UNL     1       5.222  11.001  33.507  1.00  0.00    -0.000 C 
BRANCH  11  12
ATOM     12  C   UNL     1       5.226  11.101  35.041  1.00  0.00    -0.000 C 
BRANCH  12  13
ATOM     13  C   UNL     1       5.284  12.567  35.494  1.00  0.00    -0.000 C 
BRANCH  13  14
ATOM     14  C   UNL     1       5.272  13.554  34.316  1.00  0.00    -0.000 C 
BRANCH  14  15
ATOM     15  C   UNL     1       5.088  15.010  34.766  1.00  0.00    -0.003 C 
ATOM     16  C   UNL     1       6.399  15.784  34.669  1.00  0.00     0.004 C 
ENDBRANCH  14  15
ENDBRANCH  13  14
ENDBRANCH  12  13
ENDBRANCH  11  12
ENDBRANCH  10  11
ENDBRANCH   1  10
TORSDOF 12
ENDMDL
MODEL 4
REMARK VINA RESULT:    -3.862      6.625     10.257
REMARK INTER + INTRA:          -7.156
REMARK INTER:                  -5.749
REMARK INTRA:                  -1.407
REMARK UNBOUND:                -0.585
REMARK SMILES CCCCCCCCCCCCCC(=O)[O-]
REMARK SMILES IDX 8 1 9 2 10 3 11 4 12 5 13 6 14 7 15 8 16 9 7 10 6 11 5 12
REMARK SMILES IDX 4 13 3 14 2 15 1 16
REMARK H PARENT
REMARK Flexibility Score: inf
ROOT
ATOM      1  C   UNL     1       5.786   3.140  35.559  1.00  0.00     0.000 C 
ENDROOT
BRANCH   1   2
ATOM      2  C   UNL     1       5.280   2.855  34.136  1.00  0.00     0.000 C 
BRANCH   2   3
ATOM      3  C   UNL     1       4.993   4.139  33.340  1.00  0.00     0.000 C 
BRANCH   3   4
ATOM      4  C   UNL     1       5.210   5.415  34.171  1.00  0.00     0.000 C 
BRANCH   4   5
ATOM      5  C   UNL     1       5.929   6.543  33.397  1.00  0.00     0.006 C 
BRANCH   5   6
ATOM      6  C   UNL     1       5.908   7.893  34.131  1.00  0.00     0.053 C 
BRANCH   6   7
ATOM      7  C   UNL     1       6.839   8.883  33.500  1.00  0.00     0.041 C 
ATOM      8  O   UNL     1       6.427  10.031  33.189  1.00  0.00    -0.550 OA
ATOM      9  O   UNL     1       8.156   8.529  33.232  1.00  0.00    -0.550 OA
ENDBRANCH   6   7
ENDBRANCH   5   6
ENDBRANCH   4   5
ENDBRANCH   3   4
ENDBRANCH   2   3
ENDBRANCH   1   2
BRANCH   1  10
ATOM     10  C   UNL     1       7.104   2.411  35.873  1.00  0.00     0.000 C 
BRANCH  10  11
ATOM     11  C   UNL     1       8.146   3.332  36.529  1.00  0.00    -0.000 C 
BRANCH  11  12
ATOM     12  C   UNL     1       7.635   4.770  36.715  1.00  0.00    -0.000 C 
BRANCH  12  13
ATOM     13  C   UNL     1       8.511   5.766  35.942  1.00  0.00    -0.000 C 
BRANCH  13  14
ATOM     14  C   UNL     1       9.795   5.125  35.391  1.00  0.00    -0.000 C 
BRANCH  14  15
ATOM     15  C   UNL     1      10.365   5.885  34.185  1.00  0.00    -0.003 C 
ATOM     16  C   UNL     1      11.599   5.183  33.626  1.00  0.00     0.004 C 
ENDBRANCH  14  15
ENDBRANCH  13  14
ENDBRANCH  12  13
ENDBRANCH  11  12
ENDBRANCH  10  11
ENDBRANCH   1  10
TORSDOF 12
ENDMDL
MODEL 5
REMARK VINA RESULT:    -3.830      4.600      9.299
REMARK INTER + INTRA:          -7.101
REMARK INTER:                  -5.142
REMARK INTRA:                  -1.959
REMARK UNBOUND:                -0.585
REMARK SMILES CCCCCCCCCCCCCC(=O)[O-]
REMARK SMILES IDX 8 1 9 2 10 3 11 4 12 5 13 6 14 7 15 8 16 9 7 10 6 11 5 12
REMARK SMILES IDX 4 13 3 14 2 15 1 16
REMARK H PARENT
REMARK Flexibility Score: inf
ROOT
ATOM      1  C   UNL     1       6.564   6.599  33.452  1.00  0.00     0.000 C 
ENDROOT
BRANCH   1   2
ATOM      2  C   UNL     1       6.647   8.133  33.393  1.00  0.00     0.000 C 
BRANCH   2   3
ATOM      3  C   UNL     1       7.461   8.729  34.553  1.00  0.00     0.000 C 
BRANCH   3   4
ATOM      4  C   UNL     1       6.574   9.219  35.710  1.00  0.00     0.000 C 
BRANCH   4   5
ATOM      5  C   UNL     1       5.246   9.857  35.245  1.00  0.00     0.006 C 
BRANCH   5   6
ATOM      6  C   UNL     1       5.205  11.382  35.432  1.00  0.00     0.053 C 
BRANCH   6   7
ATOM      7  C   UNL     1       5.312  12.105  34.125  1.00  0.00     0.041 C 
ATOM      8  O   UNL     1       5.345  13.364  34.097  1.00  0.00    -0.550 OA
ATOM      9  O   UNL     1       5.350  11.390  32.934  1.00  0.00    -0.550 OA
ENDBRANCH   6   7
ENDBRANCH   5   6
ENDBRANCH   4   5
ENDBRANCH   3   4
ENDBRANCH   2   3
ENDBRANCH   1   2
BRANCH   1  10
ATOM     10  C   UNL     1       5.164   6.099  33.851  1.00  0.00     0.000 C 
BRANCH  10  11
ATOM     11  C   UNL     1       5.014   5.918  35.370  1.00  0.00    -0.000 C 
BRANCH  11  12
ATOM     12  C   UNL     1       5.989   4.880  35.946  1.00  0.00    -0.000 C 
BRANCH  12  13
ATOM     13  C   UNL     1       6.780   5.466  37.125  1.00  0.00    -0.000 C 
BRANCH  13  14
ATOM     14  C   UNL     1       8.187   5.936  36.721  1.00  0.00    -0.000 C 
BRANCH  14  15
ATOM     15  C   UNL     1       8.927   4.908  35.853  1.00  0.00    -0.003 C 
ATOM     16  C   UNL     1       9.860   5.596  34.862  1.00  0.00     0.004 C 
ENDBRANCH  14  15
ENDBRANCH  13  14
ENDBRANCH  12  13
ENDBRANCH  11  12
ENDBRANCH  10  11
ENDBRANCH   1  10
TORSDOF 12
ENDMDL
MODEL 6
REMARK VINA RESULT:    -3.751      4.985      9.902
REMARK INTER + INTRA:          -6.967
REMARK INTER:                  -5.714
REMARK INTRA:                  -1.252
REMARK UNBOUND:                -0.585
REMARK SMILES CCCCCCCCCCCCCC(=O)[O-]
REMARK SMILES IDX 8 1 9 2 10 3 11 4 12 5 13 6 14 7 15 8 16 9 7 10 6 11 5 12
REMARK SMILES IDX 4 13 3 14 2 15 1 16
REMARK H PARENT
REMARK Flexibility Score: inf
ROOT
ATOM      1  C   UNL     1       6.028   6.252  35.886  1.00  0.00     0.000 C 
ENDROOT
BRANCH   1   2
ATOM      2  C   UNL     1       6.085   5.712  34.448  1.00  0.00     0.000 C 
BRANCH   2   3
ATOM      3  C   UNL     1       6.245   6.826  33.400  1.00  0.00     0.000 C 
BRANCH   3   4
ATOM      4  C   UNL     1       7.036   8.033  33.933  1.00  0.00     0.000 C 
BRANCH   4   5
ATOM      5  C   UNL     1       6.502   9.393  33.430  1.00  0.00     0.006 C 
BRANCH   5   6
ATOM      6  C   UNL     1       5.725  10.175  34.502  1.00  0.00     0.053 C 
BRANCH   6   7
ATOM      7  C   UNL     1       5.347  11.544  34.025  1.00  0.00     0.041 C 
ATOM      8  O   UNL     1       5.106  11.747  32.806  1.00  0.00    -0.550 OA
ATOM      9  O   UNL     1       5.283  12.602  34.924  1.00  0.00    -0.550 OA
ENDBRANCH   6   7
ENDBRANCH   5   6
ENDBRANCH   4   5
ENDBRANCH   3   4
ENDBRANCH   2   3
ENDBRANCH   1   2
BRANCH   1  10
ATOM     10  C   UNL     1       6.640   5.277  36.907  1.00  0.00     0.000 C 
BRANCH  10  11
ATOM     11  C   UNL     1       7.371   4.102  36.236  1.00  0.00    -0.000 C 
BRANCH  11  12
ATOM     12  C   UNL     1       8.796   3.902  36.775  1.00  0.00    -0.000 C 
BRANCH  12  13
ATOM     13  C   UNL     1       9.839   4.232  35.697  1.00  0.00    -0.000 C 
BRANCH  13  14
ATOM     14  C   UNL     1       9.733   5.679  35.191  1.00  0.00    -0.000 C 
BRANCH  14  15
ATOM     15  C   UNL     1      10.417   5.882  33.832  1.00  0.00    -0.003 C 
ATOM     16  C   UNL     1      11.726   5.102  33.754  1.00  0.00     0.004 C 
ENDBRANCH  14  15
ENDBRANCH  13  14
ENDBRANCH  12  13
ENDBRANCH  11  12
ENDBRANCH  10  11
ENDBRANCH   1  10
TORSDOF 12
ENDMDL
MODEL 7
REMARK VINA RESULT:    -3.543      3.877      7.532
REMARK INTER + INTRA:          -6.613
REMARK INTER:                  -5.722
REMARK INTRA:                  -0.890
REMARK UNBOUND:                -0.585
REMARK SMILES CCCCCCCCCCCCCC(=O)[O-]
REMARK SMILES IDX 8 1 9 2 10 3 11 4 12 5 13 6 14 7 15 8 16 9 7 10 6 11 5 12
REMARK SMILES IDX 4 13 3 14 2 15 1 16
REMARK H PARENT
REMARK Flexibility Score: inf
ROOT
ATOM      1  C   UNL     1       8.986   6.256  34.710  1.00  0.00     0.000 C 
ENDROOT
BRANCH   1   2
ATOM      2  C   UNL     1       8.763   5.641  36.101  1.00  0.00     0.000 C 
BRANCH   2   3
ATOM      3  C   UNL     1       8.942   4.114  36.111  1.00  0.00     0.000 C 
BRANCH   3   4
ATOM      4  C   UNL     1       7.721   3.376  36.686  1.00  0.00     0.000 C 
BRANCH   4   5
ATOM      5  C   UNL     1       6.453   4.255  36.776  1.00  0.00     0.006 C 
BRANCH   5   6
ATOM      6  C   UNL     1       5.213   3.600  36.147  1.00  0.00     0.053 C 
BRANCH   6   7
ATOM      7  C   UNL     1       5.376   3.405  34.670  1.00  0.00     0.041 C 
ATOM      8  O   UNL     1       5.368   4.397  33.895  1.00  0.00    -0.550 OA
ATOM      9  O   UNL     1       5.511   2.125  34.147  1.00  0.00    -0.550 OA
ENDBRANCH   6   7
ENDBRANCH   5   6
ENDBRANCH   4   5
ENDBRANCH   3   4
ENDBRANCH   2   3
ENDBRANCH   1   2
BRANCH   1  10
ATOM     10  C   UNL     1       7.735   6.976  34.177  1.00  0.00     0.000 C 
BRANCH  10  11
ATOM     11  C   UNL     1       8.073   8.296  33.464  1.00  0.00    -0.000 C 
BRANCH  11  12
ATOM     12  C   UNL     1       6.852   9.214  33.301  1.00  0.00    -0.000 C 
BRANCH  12  13
ATOM     13  C   UNL     1       6.195   9.498  34.660  1.00  0.00    -0.000 C 
BRANCH  13  14
ATOM     14  C   UNL     1       5.119  10.593  34.582  1.00  0.00    -0.000 C 
BRANCH  14  15
ATOM     15  C   UNL     1       5.325  11.540  33.392  1.00  0.00    -0.003 C 
ATOM     16  C   UNL     1       5.303  12.998  33.840  1.00  0.00     0.004 C 
ENDBRANCH  14  15
ENDBRANCH  13  14
ENDBRANCH  12  13
ENDBRANCH  11  12
ENDBRANCH  10  11
ENDBRANCH   1  10
TORSDOF 12
ENDMDL
MODEL 8
REMARK VINA RESULT:    -3.507      5.467     10.297
REMARK INTER + INTRA:          -6.553
REMARK INTER:                  -5.134
REMARK INTRA:                  -1.419
REMARK UNBOUND:                -0.585
REMARK SMILES CCCCCCCCCCCCCC(=O)[O-]
REMARK SMILES IDX 8 1 9 2 10 3 11 4 12 5 13 6 14 7 15 8 16 9 7 10 6 11 5 12
REMARK SMILES IDX 4 13 3 14 2 15 1 16
REMARK H PARENT
REMARK Flexibility Score: inf
ROOT
ATOM      1  C   UNL     1       8.856   5.391  36.205  1.00  0.00     0.000 C 
ENDROOT
BRANCH   1   2
ATOM      2  C   UNL     1       8.686   6.177  34.895  1.00  0.00     0.000 C 
BRANCH   2   3
ATOM      3  C   UNL     1       7.834   7.445  35.069  1.00  0.00     0.000 C 
BRANCH   3   4
ATOM      4  C   UNL     1       7.852   8.348  33.824  1.00  0.00     0.000 C 
BRANCH   4   5
ATOM      5  C   UNL     1       6.445   8.776  33.350  1.00  0.00     0.006 C 
BRANCH   5   6
ATOM      6  C   UNL     1       5.537   9.257  34.494  1.00  0.00     0.053 C 
BRANCH   6   7
ATOM      7  C   UNL     1       5.345  10.743  34.464  1.00  0.00     0.041 C 
ATOM      8  O   UNL     1       5.420  11.413  35.527  1.00  0.00    -0.550 OA
ATOM      9  O   UNL     1       5.059  11.384  33.265  1.00  0.00    -0.550 OA
ENDBRANCH   6   7
ENDBRANCH   5   6
ENDBRANCH   4   5
ENDBRANCH   3   4
ENDBRANCH   2   3
ENDBRANCH   1   2
BRANCH   1  10
ATOM     10  C   UNL     1       9.433   3.983  35.977  1.00  0.00     0.000 C 
BRANCH  10  11
ATOM     11  C   UNL     1       8.480   2.872  36.446  1.00  0.00    -0.000 C 
BRANCH  11  12
ATOM     12  C   UNL     1       7.038   3.368  36.641  1.00  0.00    -0.000 C 
BRANCH  12  13
ATOM     13  C   UNL     1       6.209   3.154  35.366  1.00  0.00    -0.000 C 
BRANCH  13  14
ATOM     14  C   UNL     1       4.876   3.918  35.390  1.00  0.00    -0.000 C 
BRANCH  14  15
ATOM     15  C   UNL     1       4.980   5.310  34.751  1.00  0.00    -0.003 C 
ATOM     16  C   UNL     1       5.241   5.207  33.251  1.00  0.00     0.004 C 
ENDBRANCH  14  15
ENDBRANCH  13  14
ENDBRANCH  12  13
ENDBRANCH  11  12
ENDBRANCH  10  11
ENDBRANCH   1  10
TORSDOF 12
ENDMDL
MODEL 9
REMARK VINA RESULT:    -3.422      6.181     11.368
REMARK INTER + INTRA:          -6.407
REMARK INTER:                  -5.187
REMARK INTRA:                  -1.220
REMARK UNBOUND:                -0.585
REMARK SMILES CCCCCCCCCCCCCC(=O)[O-]
REMARK SMILES IDX 8 1 9 2 10 3 11 4 12 5 13 6 14 7 15 8 16 9 7 10 6 11 5 12
REMARK SMILES IDX 4 13 3 14 2 15 1 16
REMARK H PARENT
REMARK Flexibility Score: inf
ROOT
ATOM      1  C   UNL     1       9.739   4.463  35.632  1.00  0.00     0.000 C 
ENDROOT
BRANCH   1   2
ATOM      2  C   UNL     1       8.785   5.575  36.097  1.00  0.00     0.000 C 
BRANCH   2   3
ATOM      3  C   UNL     1       8.042   6.247  34.931  1.00  0.00     0.000 C 
BRANCH   3   4
ATOM      4  C   UNL     1       6.522   6.316  35.156  1.00  0.00     0.000 C 
BRANCH   4   5
ATOM      5  C   UNL     1       5.780   7.180  34.111  1.00  0.00     0.006 C 
BRANCH   5   6
ATOM      6  C   UNL     1       5.797   8.681  34.440  1.00  0.00     0.053 C 
BRANCH   6   7
ATOM      7  C   UNL     1       6.560   9.466  33.417  1.00  0.00     0.041 C 
ATOM      8  O   UNL     1       7.667   9.044  32.990  1.00  0.00    -0.550 OA
ATOM      9  O   UNL     1       6.060  10.676  32.953  1.00  0.00    -0.550 OA
ENDBRANCH   6   7
ENDBRANCH   5   6
ENDBRANCH   4   5
ENDBRANCH   3   4
ENDBRANCH   2   3
ENDBRANCH   1   2
BRANCH   1  10
ATOM     10  C   UNL     1       9.525   3.145  36.397  1.00  0.00     0.000 C 
BRANCH  10  11
ATOM     11  C   UNL     1       8.037   2.806  36.584  1.00  0.00    -0.000 C 
BRANCH  11  12
ATOM     12  C   UNL     1       7.676   1.404  36.069  1.00  0.00    -0.000 C 
BRANCH  12  13
ATOM     13  C   UNL     1       6.311   1.414  35.366  1.00  0.00    -0.000 C 
BRANCH  13  14
ATOM     14  C   UNL     1       5.728   2.829  35.220  1.00  0.00    -0.000 C 
BRANCH  14  15
ATOM     15  C   UNL     1       5.155   3.090  33.820  1.00  0.00    -0.003 C 
ATOM     16  C   UNL     1       5.175   1.822  32.972  1.00  0.00     0.004 C 
ENDBRANCH  14  15
ENDBRANCH  13  14
ENDBRANCH  12  13
ENDBRANCH  11  12
ENDBRANCH  10  11
ENDBRANCH   1  10
TORSDOF 12
ENDMDL
