MODEL 1
REMARK VINA RESULT:    -4.560      0.000      0.000
REMARK INTER + INTRA:          -5.524
REMARK INTER:                  -5.226
REMARK INTRA:                  -0.298
REMARK UNBOUND:                -0.298
REMARK SMILES O=C([O-])C=Cc1ccc(O)cc1
REMARK SMILES IDX 6 1 7 2 12 3 8 4 11 5 9 6 5 7 4 8 2 9 1 10 3 11 10 12
REMARK H PARENT 10 13
REMARK Flexibility Score: inf
ROOT
ATOM      1  C   UNL     1      11.554  -9.963 -43.710  1.00  0.00    -0.025 A 
ATOM      2  C   UNL     1      11.310  -8.908 -44.608  1.00  0.00     0.012 A 
ATOM      3  C   UNL     1      11.075  -9.869 -42.396  1.00  0.00     0.012 A 
ATOM      4  C   UNL     1      10.553  -7.802 -44.208  1.00  0.00     0.047 A 
ATOM      5  C   UNL     1      10.319  -8.762 -41.997  1.00  0.00     0.047 A 
ATOM      6  C   UNL     1      10.053  -7.729 -42.901  1.00  0.00     0.115 A 
ENDROOT
BRANCH   1   7
ATOM      7  C   UNL     1      12.394 -11.115 -44.094  1.00  0.00     0.010 C 
ATOM      8  C   UNL     1      11.968 -12.205 -44.751  1.00  0.00     0.025 C 
BRANCH   8   9
ATOM      9  C   UNL     1      10.558 -12.533 -45.036  1.00  0.00     0.064 C 
ATOM     10  O   UNL     1       9.910 -13.229 -44.211  1.00  0.00    -0.545 OA
ATOM     11  O   UNL     1       9.908 -12.034 -46.158  1.00  0.00    -0.545 OA
ENDBRANCH   8   9
ENDBRANCH   1   7
BRANCH   6  12
ATOM     12  O   UNL     1       9.296  -6.632 -42.490  1.00  0.00    -0.508 OA
ATOM     13  H   UNL     1       8.298  -6.588 -42.655  1.00  0.00     0.293 HD
ENDBRANCH   6  12
TORSDOF 3
ENDMDL
MODEL 2
REMARK VINA RESULT:    -4.412      2.252      4.822
REMARK INTER + INTRA:          -5.355
REMARK INTER:                  -5.551
REMARK INTRA:                   0.196
REMARK UNBOUND:                -0.298
REMARK SMILES O=C([O-])C=Cc1ccc(O)cc1
REMARK SMILES IDX 6 1 7 2 12 3 8 4 11 5 9 6 5 7 4 8 2 9 1 10 3 11 10 12
REMARK H PARENT 10 13
REMARK Flexibility Score: inf
ROOT
ATOM      1  C   UNL     1       9.979 -11.098 -44.808  1.00  0.00    -0.025 A 
ATOM      2  C   UNL     1       8.787 -10.396 -45.059  1.00  0.00     0.012 A 
ATOM      3  C   UNL     1      10.271 -12.244 -45.561  1.00  0.00     0.012 A 
ATOM      4  C   UNL     1       7.929 -10.806 -46.084  1.00  0.00     0.047 A 
ATOM      5  C   UNL     1       9.412 -12.654 -46.586  1.00  0.00     0.047 A 
ATOM      6  C   UNL     1       8.242 -11.935 -46.853  1.00  0.00     0.115 A 
ENDROOT
BRANCH   1   7
ATOM      7  C   UNL     1      10.873 -10.715 -43.696  1.00  0.00     0.010 C 
ATOM      8  C   UNL     1      11.154  -9.458 -43.322  1.00  0.00     0.025 C 
BRANCH   8   9
ATOM      9  C   UNL     1      10.778  -8.240 -44.066  1.00  0.00     0.064 C 
ATOM     10  O   UNL     1      11.375  -7.967 -45.140  1.00  0.00    -0.545 OA
ATOM     11  O   UNL     1       9.732  -7.427 -43.647  1.00  0.00    -0.545 OA
ENDBRANCH   8   9
ENDBRANCH   1   7
BRANCH   6  12
ATOM     12  O   UNL     1       7.396 -12.353 -47.878  1.00  0.00    -0.508 OA
ATOM     13  H   UNL     1       6.413 -12.108 -47.886  1.00  0.00     0.293 HD
ENDBRANCH   6  12
TORSDOF 3
ENDMDL
MODEL 3
REMARK VINA RESULT:    -4.194      1.674      4.738
REMARK INTER + INTRA:          -5.104
REMARK INTER:                  -4.878
REMARK INTRA:                  -0.226
REMARK UNBOUND:                -0.298
REMARK SMILES O=C([O-])C=Cc1ccc(O)cc1
REMARK SMILES IDX 6 1 7 2 12 3 8 4 11 5 9 6 5 7 4 8 2 9 1 10 3 11 10 12
REMARK H PARENT 10 13
REMARK Flexibility Score: inf
ROOT
ATOM      1  C   UNL     1      11.582 -10.652 -44.271  1.00  0.00    -0.025 A 
ATOM      2  C   UNL     1      12.336 -11.433 -43.378  1.00  0.00     0.012 A 
ATOM      3  C   UNL     1      10.464 -11.217 -44.900  1.00  0.00     0.012 A 
ATOM      4  C   UNL     1      11.944 -12.742 -43.081  1.00  0.00     0.047 A 
ATOM      5  C   UNL     1      10.072 -12.525 -44.602  1.00  0.00     0.047 A 
ATOM      6  C   UNL     1      10.807 -13.290 -43.691  1.00  0.00     0.115 A 
ENDROOT
BRANCH   1   7
ATOM      7  C   UNL     1      12.008  -9.287 -44.641  1.00  0.00     0.010 C 
ATOM      8  C   UNL     1      11.473  -8.150 -44.169  1.00  0.00     0.025 C 
BRANCH   8   9
ATOM      9  C   UNL     1      10.248  -8.058 -43.352  1.00  0.00     0.064 C 
ATOM     10  O   UNL     1       9.129  -7.998 -43.926  1.00  0.00    -0.545 OA
ATOM     11  O   UNL     1      10.295  -8.106 -41.964  1.00  0.00    -0.545 OA
ENDBRANCH   8   9
ENDBRANCH   1   7
BRANCH   6  12
ATOM     12  O   UNL     1      10.404 -14.593 -43.402  1.00  0.00    -0.508 OA
ATOM     13  H   UNL     1       9.489 -14.935 -43.671  1.00  0.00     0.293 HD
ENDBRANCH   6  12
TORSDOF 3
ENDMDL
MODEL 4
REMARK VINA RESULT:    -4.152     12.793     14.128
REMARK INTER + INTRA:          -5.056
REMARK INTER:                  -4.763
REMARK INTRA:                  -0.293
REMARK UNBOUND:                -0.298
REMARK SMILES O=C([O-])C=Cc1ccc(O)cc1
REMARK SMILES IDX 6 1 7 2 12 3 8 4 11 5 9 6 5 7 4 8 2 9 1 10 3 11 10 12
REMARK H PARENT 10 13
REMARK Flexibility Score: inf
ROOT
ATOM      1  C   UNL     1       7.821 -21.722 -35.743  1.00  0.00    -0.025 A 
ATOM      2  C   UNL     1       7.908 -20.326 -35.604  1.00  0.00     0.012 A 
ATOM      3  C   UNL     1       6.800 -22.270 -36.533  1.00  0.00     0.012 A 
ATOM      4  C   UNL     1       7.017 -19.492 -36.288  1.00  0.00     0.047 A 
ATOM      5  C   UNL     1       5.910 -21.436 -37.216  1.00  0.00     0.047 A 
ATOM      6  C   UNL     1       6.018 -20.046 -37.099  1.00  0.00     0.115 A 
ENDROOT
BRANCH   1   7
ATOM      7  C   UNL     1       8.716 -22.623 -34.989  1.00  0.00     0.010 C 
ATOM      8  C   UNL     1       9.962 -22.963 -35.350  1.00  0.00     0.025 C 
BRANCH   8   9
ATOM      9  C   UNL     1      10.588 -22.656 -36.651  1.00  0.00     0.064 C 
ATOM     10  O   UNL     1      10.481 -23.482 -37.595  1.00  0.00    -0.545 OA
ATOM     11  O   UNL     1      11.233 -21.447 -36.879  1.00  0.00    -0.545 OA
ENDBRANCH   8   9
ENDBRANCH   1   7
BRANCH   6  12
ATOM     12  O   UNL     1       5.125 -19.226 -37.788  1.00  0.00    -0.508 OA
ATOM     13  H   UNL     1       4.486 -18.612 -37.297  1.00  0.00     0.293 HD
ENDBRANCH   6  12
TORSDOF 3
ENDMDL
MODEL 5
REMARK VINA RESULT:    -4.098      2.025      5.049
REMARK INTER + INTRA:          -4.995
REMARK INTER:                  -4.807
REMARK INTRA:                  -0.188
REMARK UNBOUND:                -0.298
REMARK SMILES O=C([O-])C=Cc1ccc(O)cc1
REMARK SMILES IDX 6 1 7 2 12 3 8 4 11 5 9 6 5 7 4 8 2 9 1 10 3 11 10 12
REMARK H PARENT 10 13
REMARK Flexibility Score: inf
ROOT
ATOM      1  C   UNL     1      10.838 -11.916 -44.548  1.00  0.00    -0.025 A 
ATOM      2  C   UNL     1       9.642 -11.775 -45.274  1.00  0.00     0.012 A 
ATOM      3  C   UNL     1      11.858 -12.732 -45.059  1.00  0.00     0.012 A 
ATOM      4  C   UNL     1       9.492 -12.399 -46.516  1.00  0.00     0.047 A 
ATOM      5  C   UNL     1      11.707 -13.355 -46.302  1.00  0.00     0.047 A 
ATOM      6  C   UNL     1      10.528 -13.189 -47.035  1.00  0.00     0.115 A 
ENDROOT
BRANCH   1   7
ATOM      7  C   UNL     1      10.997 -11.310 -43.210  1.00  0.00     0.010 C 
ATOM      8  C   UNL     1      11.054  -9.995 -42.954  1.00  0.00     0.025 C 
BRANCH   8   9
ATOM      9  C   UNL     1      11.160  -8.930 -43.970  1.00  0.00     0.064 C 
ATOM     10  O   UNL     1      10.206  -8.121 -44.115  1.00  0.00    -0.545 OA
ATOM     11  O   UNL     1      12.316  -8.755 -44.721  1.00  0.00    -0.545 OA
ENDBRANCH   8   9
ENDBRANCH   1   7
BRANCH   6  12
ATOM     12  O   UNL     1      10.392 -13.815 -48.273  1.00  0.00    -0.508 OA
ATOM     13  H   UNL     1      11.200 -14.066 -48.829  1.00  0.00     0.293 HD
ENDBRANCH   6  12
TORSDOF 3
ENDMDL
MODEL 6
REMARK VINA RESULT:    -4.097      2.493      4.620
REMARK INTER + INTRA:          -4.994
REMARK INTER:                  -5.070
REMARK INTRA:                   0.076
REMARK UNBOUND:                -0.298
REMARK SMILES O=C([O-])C=Cc1ccc(O)cc1
REMARK SMILES IDX 6 1 7 2 12 3 8 4 11 5 9 6 5 7 4 8 2 9 1 10 3 11 10 12
REMARK H PARENT 10 13
REMARK Flexibility Score: inf
ROOT
ATOM      1  C   UNL     1       9.711 -10.731 -45.322  1.00  0.00    -0.025 A 
ATOM      2  C   UNL     1      10.202 -11.902 -45.927  1.00  0.00     0.012 A 
ATOM      3  C   UNL     1       8.346 -10.428 -45.425  1.00  0.00     0.012 A 
ATOM      4  C   UNL     1       9.329 -12.779 -46.580  1.00  0.00     0.047 A 
ATOM      5  C   UNL     1       7.474 -11.305 -46.077  1.00  0.00     0.047 A 
ATOM      6  C   UNL     1       7.961 -12.483 -46.652  1.00  0.00     0.115 A 
ENDROOT
BRANCH   1   7
ATOM      7  C   UNL     1      10.621  -9.765 -44.675  1.00  0.00     0.010 C 
ATOM      8  C   UNL     1      11.560 -10.069 -43.766  1.00  0.00     0.025 C 
BRANCH   8   9
ATOM      9  C   UNL     1      11.722 -11.381 -43.111  1.00  0.00     0.064 C 
ATOM     10  O   UNL     1      12.853 -11.935 -43.115  1.00  0.00    -0.545 OA
ATOM     11  O   UNL     1      10.674 -11.988 -42.429  1.00  0.00    -0.545 OA
ENDBRANCH   8   9
ENDBRANCH   1   7
BRANCH   6  12
ATOM     12  O   UNL     1       7.080 -13.349 -47.298  1.00  0.00    -0.508 OA
ATOM     13  H   UNL     1       6.338 -13.001 -47.893  1.00  0.00     0.293 HD
ENDBRANCH   6  12
TORSDOF 3
ENDMDL
MODEL 7
REMARK VINA RESULT:    -4.012     13.096     14.895
REMARK INTER + INTRA:          -4.896
REMARK INTER:                  -4.596
REMARK INTRA:                  -0.299
REMARK UNBOUND:                -0.298
REMARK SMILES O=C([O-])C=Cc1ccc(O)cc1
REMARK SMILES IDX 6 1 7 2 12 3 8 4 11 5 9 6 5 7 4 8 2 9 1 10 3 11 10 12
REMARK H PARENT 10 13
REMARK Flexibility Score: inf
ROOT
ATOM      1  C   UNL     1       8.917 -21.564 -35.888  1.00  0.00    -0.025 A 
ATOM      2  C   UNL     1       8.681 -22.731 -35.140  1.00  0.00     0.012 A 
ATOM      3  C   UNL     1       9.969 -21.545 -36.815  1.00  0.00     0.012 A 
ATOM      4  C   UNL     1       9.454 -23.876 -35.356  1.00  0.00     0.047 A 
ATOM      5  C   UNL     1      10.741 -22.691 -37.030  1.00  0.00     0.047 A 
ATOM      6  C   UNL     1      10.484 -23.859 -36.306  1.00  0.00     0.115 A 
ENDROOT
BRANCH   1   7
ATOM      7  C   UNL     1       8.149 -20.327 -35.639  1.00  0.00     0.010 C 
ATOM      8  C   UNL     1       6.987 -20.002 -36.225  1.00  0.00     0.025 C 
BRANCH   8   9
ATOM      9  C   UNL     1       6.369 -20.722 -37.355  1.00  0.00     0.064 C 
ATOM     10  O   UNL     1       6.686 -20.407 -38.532  1.00  0.00    -0.545 OA
ATOM     11  O   UNL     1       5.499 -21.786 -37.151  1.00  0.00    -0.545 OA
ENDBRANCH   8   9
ENDBRANCH   1   7
BRANCH   6  12
ATOM     12  O   UNL     1      11.261 -24.994 -36.532  1.00  0.00    -0.508 OA
ATOM     13  H   UNL     1      11.432 -25.672 -35.799  1.00  0.00     0.293 HD
ENDBRANCH   6  12
TORSDOF 3
ENDMDL
MODEL 8
REMARK VINA RESULT:    -3.942      1.632      2.245
REMARK INTER + INTRA:          -4.816
REMARK INTER:                  -4.571
REMARK INTRA:                  -0.244
REMARK UNBOUND:                -0.298
REMARK SMILES O=C([O-])C=Cc1ccc(O)cc1
REMARK SMILES IDX 6 1 7 2 12 3 8 4 11 5 9 6 5 7 4 8 2 9 1 10 3 11 10 12
REMARK H PARENT 10 13
REMARK Flexibility Score: inf
ROOT
ATOM      1  C   UNL     1      10.675 -11.196 -44.885  1.00  0.00    -0.025 A 
ATOM      2  C   UNL     1       9.417 -10.621 -45.142  1.00  0.00     0.012 A 
ATOM      3  C   UNL     1      11.637 -10.455 -44.185  1.00  0.00     0.012 A 
ATOM      4  C   UNL     1       9.113  -9.344 -44.658  1.00  0.00     0.047 A 
ATOM      5  C   UNL     1      11.333  -9.179 -43.702  1.00  0.00     0.047 A 
ATOM      6  C   UNL     1      10.070  -8.622 -43.933  1.00  0.00     0.115 A 
ENDROOT
BRANCH   1   7
ATOM      7  C   UNL     1      11.036 -12.520 -45.432  1.00  0.00     0.010 C 
ATOM      8  C   UNL     1      10.737 -13.701 -44.871  1.00  0.00     0.025 C 
BRANCH   8   9
ATOM      9  C   UNL     1      10.167 -13.887 -43.523  1.00  0.00     0.064 C 
ATOM     10  O   UNL     1       9.058 -14.471 -43.400  1.00  0.00    -0.545 OA
ATOM     11  O   UNL     1      10.857 -13.496 -42.382  1.00  0.00    -0.545 OA
ENDBRANCH   8   9
ENDBRANCH   1   7
BRANCH   6  12
ATOM     12  O   UNL     1       9.780  -7.349 -43.444  1.00  0.00    -0.508 OA
ATOM     13  H   UNL     1       9.108  -6.747 -43.904  1.00  0.00     0.293 HD
ENDBRANCH   6  12
TORSDOF 3
ENDMDL
MODEL 9
REMARK VINA RESULT:    -3.844      2.954      4.264
REMARK INTER + INTRA:          -4.704
REMARK INTER:                  -4.724
REMARK INTRA:                   0.021
REMARK UNBOUND:                -0.298
REMARK SMILES O=C([O-])C=Cc1ccc(O)cc1
REMARK SMILES IDX 6 1 7 2 12 3 8 4 11 5 9 6 5 7 4 8 2 9 1 10 3 11 10 12
REMARK H PARENT 10 13
REMARK Flexibility Score: inf
ROOT
ATOM      1  C   UNL     1      10.452 -11.274 -45.061  1.00  0.00    -0.025 A 
ATOM      2  C   UNL     1       9.271 -10.511 -45.067  1.00  0.00     0.012 A 
ATOM      3  C   UNL     1      10.511 -12.453 -45.818  1.00  0.00     0.012 A 
ATOM      4  C   UNL     1       8.185 -10.898 -45.860  1.00  0.00     0.047 A 
ATOM      5  C   UNL     1       9.425 -12.838 -46.610  1.00  0.00     0.047 A 
ATOM      6  C   UNL     1       8.262 -12.062 -46.637  1.00  0.00     0.115 A 
ENDROOT
BRANCH   1   7
ATOM      7  C   UNL     1      11.590 -10.914 -44.191  1.00  0.00     0.010 C 
ATOM      8  C   UNL     1      12.164 -11.722 -43.287  1.00  0.00     0.025 C 
BRANCH   8   9
ATOM      9  C   UNL     1      11.646 -13.038 -42.866  1.00  0.00     0.064 C 
ATOM     10  O   UNL     1      10.607 -13.091 -42.157  1.00  0.00    -0.545 OA
ATOM     11  O   UNL     1      12.235 -14.222 -43.292  1.00  0.00    -0.545 OA
ENDBRANCH   8   9
ENDBRANCH   1   7
BRANCH   6  12
ATOM     12  O   UNL     1       7.188 -12.457 -47.432  1.00  0.00    -0.508 OA
ATOM     13  H   UNL     1       7.325 -12.772 -48.386  1.00  0.00     0.293 HD
ENDBRANCH   6  12
TORSDOF 3
ENDMDL
