MODEL 1
REMARK VINA RESULT:    -5.480      0.000      0.000
REMARK INTER + INTRA:          -5.961
REMARK INTER:                  -5.961
REMARK INTRA:                   0.000
REMARK UNBOUND:                 0.000
REMARK SMILES Cc1cc(O)c2c(c1)C(=O)c1cc(O)cc(O)c1C2=O
REMARK SMILES IDX 1 1 2 2 8 3 7 4 6 5 4 6 3 7 19 8 20 9 18 10 11 11 9 12 10 13
REMARK SMILES IDX 12 14 13 15 15 16 16 17 5 18 17 20 14 22
REMARK H PARENT 5 19 17 21 14 23
REMARK Flexibility Score: inf
ROOT
ATOM      1  C   UNL     1      43.353 -96.471  26.407  1.00  0.00     0.044 C 
ATOM      2  C   UNL     1      42.485 -96.064  27.561  1.00  0.00    -0.047 A 
ATOM      3  C   UNL     1      42.972 -96.145  28.871  1.00  0.00     0.016 A 
ATOM      4  C   UNL     1      42.177 -95.741  29.957  1.00  0.00     0.038 A 
ATOM      5  C   UNL     1      40.873 -95.245  29.728  1.00  0.00     0.076 A 
ATOM      6  C   UNL     1      40.418 -95.086  28.393  1.00  0.00     0.127 A 
ATOM      7  C   UNL     1      41.219 -95.516  27.330  1.00  0.00     0.050 A 
ATOM      8  C   UNL     1      40.010 -94.968  30.905  1.00  0.00     0.201 C 
ATOM      9  O   UNL     1      38.760 -95.089  30.808  1.00  0.00    -0.288 OA
ATOM     10  C   UNL     1      40.630 -94.734  32.235  1.00  0.00     0.076 A 
ATOM     11  C   UNL     1      41.935 -95.227  32.460  1.00  0.00     0.041 A 
ATOM     12  C   UNL     1      42.702 -95.822  31.340  1.00  0.00     0.194 C 
ATOM     13  O   UNL     1      43.814 -96.376  31.561  1.00  0.00    -0.289 OA
ATOM     14  C   UNL     1      42.502 -95.147  33.744  1.00  0.00     0.059 A 
ATOM     15  C   UNL     1      41.789 -94.569  34.797  1.00  0.00     0.120 A 
ATOM     16  C   UNL     1      40.518 -94.044  34.570  1.00  0.00     0.093 A 
ATOM     17  C   UNL     1      39.940 -94.092  33.297  1.00  0.00     0.131 A 
ENDROOT
BRANCH   6  18
ATOM     18  O   UNL     1      39.201 -94.478  28.078  1.00  0.00    -0.507 OA
ATOM     19  H   UNL     1      39.061 -93.898  27.262  1.00  0.00     0.293 HD
ENDBRANCH   6  18
BRANCH  17  20
ATOM     20  O   UNL     1      38.703 -93.466  33.126  1.00  0.00    -0.507 OA
ATOM     21  H   UNL     1      37.963 -93.840  32.549  1.00  0.00     0.293 HD
ENDBRANCH  17  20
BRANCH  15  22
ATOM     22  O   UNL     1      42.343 -94.498  36.075  1.00  0.00    -0.508 OA
ATOM     23  H   UNL     1      41.941 -93.909  36.794  1.00  0.00     0.293 HD
ENDBRANCH  15  22
TORSDOF 3
ENDMDL
MODEL 2
REMARK VINA RESULT:    -5.178      2.465      4.474
REMARK INTER + INTRA:          -5.632
REMARK INTER:                  -5.632
REMARK INTRA:                   0.000
REMARK UNBOUND:                 0.000
REMARK SMILES Cc1cc(O)c2c(c1)C(=O)c1cc(O)cc(O)c1C2=O
REMARK SMILES IDX 1 1 2 2 8 3 7 4 6 5 4 6 3 7 19 8 20 9 18 10 11 11 9 12 10 13
REMARK SMILES IDX 12 14 13 15 15 16 16 17 5 18 17 20 14 22
REMARK H PARENT 5 19 17 21 14 23
REMARK Flexibility Score: inf
ROOT
ATOM      1  C   UNL     1      40.789 -94.891  29.980  1.00  0.00     0.044 C 
ATOM      2  C   UNL     1      40.513 -94.881  31.455  1.00  0.00    -0.047 A 
ATOM      3  C   UNL     1      41.532 -95.187  32.363  1.00  0.00     0.016 A 
ATOM      4  C   UNL     1      41.292 -95.153  33.748  1.00  0.00     0.038 A 
ATOM      5  C   UNL     1      40.010 -94.807  34.230  1.00  0.00     0.076 A 
ATOM      6  C   UNL     1      39.005 -94.416  33.307  1.00  0.00     0.127 A 
ATOM      7  C   UNL     1      39.262 -94.478  31.934  1.00  0.00     0.050 A 
ATOM      8  C   UNL     1      39.753 -94.926  35.689  1.00  0.00     0.201 C 
ATOM      9  O   UNL     1      38.593 -95.197  36.101  1.00  0.00    -0.288 OA
ATOM     10  C   UNL     1      40.892 -94.914  36.642  1.00  0.00     0.076 A 
ATOM     11  C   UNL     1      42.173 -95.257  36.156  1.00  0.00     0.041 A 
ATOM     12  C   UNL     1      42.379 -95.471  34.704  1.00  0.00     0.194 C 
ATOM     13  O   UNL     1      43.488 -95.899  34.280  1.00  0.00    -0.289 OA
ATOM     14  C   UNL     1      43.249 -95.390  37.051  1.00  0.00     0.059 A 
ATOM     15  C   UNL     1      43.064 -95.171  38.418  1.00  0.00     0.120 A 
ATOM     16  C   UNL     1      41.811 -94.792  38.897  1.00  0.00     0.093 A 
ATOM     17  C   UNL     1      40.728 -94.632  38.024  1.00  0.00     0.131 A 
ENDROOT
BRANCH   6  18
ATOM     18  O   UNL     1      37.760 -93.930  33.709  1.00  0.00    -0.507 OA
ATOM     19  H   UNL     1      36.890 -94.180  33.258  1.00  0.00     0.293 HD
ENDBRANCH   6  18
BRANCH  17  20
ATOM     20  O   UNL     1      39.529 -94.163  38.564  1.00  0.00    -0.507 OA
ATOM     21  H   UNL     1      38.620 -94.512  38.292  1.00  0.00     0.293 HD
ENDBRANCH  17  20
BRANCH  15  22
ATOM     22  O   UNL     1      44.125 -95.313  39.311  1.00  0.00    -0.508 OA
ATOM     23  H   UNL     1      43.982 -95.280  40.313  1.00  0.00     0.293 HD
ENDBRANCH  15  22
TORSDOF 3
ENDMDL
MODEL 3
REMARK VINA RESULT:    -5.164     18.422     18.887
REMARK INTER + INTRA:          -5.617
REMARK INTER:                  -5.617
REMARK INTRA:                   0.000
REMARK UNBOUND:                 0.000
REMARK SMILES Cc1cc(O)c2c(c1)C(=O)c1cc(O)cc(O)c1C2=O
REMARK SMILES IDX 1 1 2 2 8 3 7 4 6 5 4 6 3 7 19 8 20 9 18 10 11 11 9 12 10 13
REMARK SMILES IDX 12 14 13 15 15 16 16 17 5 18 17 20 14 22
REMARK H PARENT 5 19 17 21 14 23
REMARK Flexibility Score: inf
ROOT
ATOM      1  C   UNL     1      34.909 -77.084  34.524  1.00  0.00     0.044 C 
ATOM      2  C   UNL     1      36.216 -77.231  35.247  1.00  0.00    -0.047 A 
ATOM      3  C   UNL     1      36.235 -77.613  36.593  1.00  0.00     0.016 A 
ATOM      4  C   UNL     1      37.454 -77.780  37.272  1.00  0.00     0.038 A 
ATOM      5  C   UNL     1      38.674 -77.563  36.592  1.00  0.00     0.076 A 
ATOM      6  C   UNL     1      38.648 -77.258  35.206  1.00  0.00     0.127 A 
ATOM      7  C   UNL     1      37.423 -77.076  34.558  1.00  0.00     0.050 A 
ATOM      8  C   UNL     1      39.933 -77.604  37.379  1.00  0.00     0.201 C 
ATOM      9  O   UNL     1      40.916 -76.899  37.026  1.00  0.00    -0.288 OA
ATOM     10  C   UNL     1      39.969 -78.325  38.677  1.00  0.00     0.076 A 
ATOM     11  C   UNL     1      38.748 -78.545  39.353  1.00  0.00     0.041 A 
ATOM     12  C   UNL     1      37.467 -78.193  38.696  1.00  0.00     0.194 C 
ATOM     13  O   UNL     1      36.385 -78.269  39.340  1.00  0.00    -0.289 OA
ATOM     14  C   UNL     1      38.753 -79.099  40.644  1.00  0.00     0.059 A 
ATOM     15  C   UNL     1      39.957 -79.450  41.260  1.00  0.00     0.120 A 
ATOM     16  C   UNL     1      41.161 -79.273  40.580  1.00  0.00     0.093 A 
ATOM     17  C   UNL     1      41.182 -78.742  39.286  1.00  0.00     0.131 A 
ENDROOT
BRANCH   6  18
ATOM     18  O   UNL     1      39.807 -77.164  34.433  1.00  0.00    -0.507 OA
ATOM     19  H   UNL     1      40.239 -76.287  34.178  1.00  0.00     0.293 HD
ENDBRANCH   6  18
BRANCH  17  20
ATOM     20  O   UNL     1      42.416 -78.680  38.635  1.00  0.00    -0.507 OA
ATOM     21  H   UNL     1      43.045 -77.892  38.704  1.00  0.00     0.293 HD
ENDBRANCH  17  20
BRANCH  15  22
ATOM     22  O   UNL     1      39.967 -79.990  42.545  1.00  0.00    -0.508 OA
ATOM     23  H   UNL     1      39.702 -80.952  42.717  1.00  0.00     0.293 HD
ENDBRANCH  15  22
TORSDOF 3
ENDMDL
MODEL 4
REMARK VINA RESULT:    -5.162     18.411     19.052
REMARK INTER + INTRA:          -5.615
REMARK INTER:                  -5.615
REMARK INTRA:                   0.000
REMARK UNBOUND:                 0.000
REMARK SMILES Cc1cc(O)c2c(c1)C(=O)c1cc(O)cc(O)c1C2=O
REMARK SMILES IDX 1 1 2 2 8 3 7 4 6 5 4 6 3 7 19 8 20 9 18 10 11 11 9 12 10 13
REMARK SMILES IDX 12 14 13 15 15 16 16 17 5 18 17 20 14 22
REMARK H PARENT 5 19 17 21 14 23
REMARK Flexibility Score: inf
ROOT
ATOM      1  C   UNL     1      43.944 -78.862  39.812  1.00  0.00     0.044 C 
ATOM      2  C   UNL     1      42.469 -78.757  39.558  1.00  0.00    -0.047 A 
ATOM      3  C   UNL     1      41.999 -78.189  38.369  1.00  0.00     0.016 A 
ATOM      4  C   UNL     1      40.620 -78.111  38.109  1.00  0.00     0.038 A 
ATOM      5  C   UNL     1      39.697 -78.613  39.055  1.00  0.00     0.076 A 
ATOM      6  C   UNL     1      40.183 -79.264  40.218  1.00  0.00     0.127 A 
ATOM      7  C   UNL     1      41.558 -79.310  40.464  1.00  0.00     0.050 A 
ATOM      8  C   UNL     1      38.249 -78.380  38.814  1.00  0.00     0.201 C 
ATOM      9  O   UNL     1      37.462 -78.265  39.792  1.00  0.00    -0.288 OA
ATOM     10  C   UNL     1      37.766 -78.098  37.438  1.00  0.00     0.076 A 
ATOM     11  C   UNL     1      38.691 -77.600  36.494  1.00  0.00     0.041 A 
ATOM     12  C   UNL     1      40.129 -77.514  36.844  1.00  0.00     0.194 C 
ATOM     13  O   UNL     1      40.939 -76.955  36.055  1.00  0.00    -0.289 OA
ATOM     14  C   UNL     1      38.246 -77.192  35.225  1.00  0.00     0.059 A 
ATOM     15  C   UNL     1      36.895 -77.289  34.884  1.00  0.00     0.120 A 
ATOM     16  C   UNL     1      35.985 -77.818  35.798  1.00  0.00     0.093 A 
ATOM     17  C   UNL     1      36.406 -78.251  37.060  1.00  0.00     0.131 A 
ENDROOT
BRANCH   6  18
ATOM     18  O   UNL     1      39.343 -79.906  41.130  1.00  0.00    -0.507 OA
ATOM     19  H   UNL     1      38.573 -79.448  41.599  1.00  0.00     0.293 HD
ENDBRANCH   6  18
BRANCH  17  20
ATOM     20  O   UNL     1      35.454 -78.853  37.886  1.00  0.00    -0.507 OA
ATOM     21  H   UNL     1      35.635 -79.683  38.433  1.00  0.00     0.293 HD
ENDBRANCH  17  20
BRANCH  15  22
ATOM     22  O   UNL     1      36.447 -76.875  33.631  1.00  0.00    -0.508 OA
ATOM     23  H   UNL     1      36.087 -75.940  33.480  1.00  0.00     0.293 HD
ENDBRANCH  15  22
TORSDOF 3
ENDMDL
MODEL 5
REMARK VINA RESULT:    -5.127     18.505     19.230
REMARK INTER + INTRA:          -5.577
REMARK INTER:                  -5.577
REMARK INTRA:                   0.000
REMARK UNBOUND:                 0.000
REMARK SMILES Cc1cc(O)c2c(c1)C(=O)c1cc(O)cc(O)c1C2=O
REMARK SMILES IDX 1 1 2 2 8 3 7 4 6 5 4 6 3 7 19 8 20 9 18 10 11 11 9 12 10 13
REMARK SMILES IDX 12 14 13 15 15 16 16 17 5 18 17 20 14 22
REMARK H PARENT 5 19 17 21 14 23
REMARK Flexibility Score: inf
ROOT
ATOM      1  C   UNL     1      39.973 -79.962  42.821  1.00  0.00     0.044 C 
ATOM      2  C   UNL     1      39.832 -79.353  41.457  1.00  0.00    -0.047 A 
ATOM      3  C   UNL     1      40.969 -78.982  40.732  1.00  0.00     0.016 A 
ATOM      4  C   UNL     1      40.850 -78.436  39.442  1.00  0.00     0.038 A 
ATOM      5  C   UNL     1      39.570 -78.262  38.868  1.00  0.00     0.076 A 
ATOM      6  C   UNL     1      38.427 -78.718  39.574  1.00  0.00     0.127 A 
ATOM      7  C   UNL     1      38.570 -79.238  40.865  1.00  0.00     0.050 A 
ATOM      8  C   UNL     1      39.475 -77.547  37.569  1.00  0.00     0.201 C 
ATOM      9  O   UNL     1      38.444 -76.875  37.297  1.00  0.00    -0.288 OA
ATOM     10  C   UNL     1      40.662 -77.472  36.679  1.00  0.00     0.076 A 
ATOM     11  C   UNL     1      41.940 -77.651  37.255  1.00  0.00     0.041 A 
ATOM     12  C   UNL     1      42.060 -78.052  38.676  1.00  0.00     0.194 C 
ATOM     13  O   UNL     1      43.194 -78.091  39.228  1.00  0.00    -0.289 OA
ATOM     14  C   UNL     1      43.093 -77.452  36.475  1.00  0.00     0.059 A 
ATOM     15  C   UNL     1      42.984 -77.093  35.130  1.00  0.00     0.120 A 
ATOM     16  C   UNL     1      41.725 -76.955  34.547  1.00  0.00     0.093 A 
ATOM     17  C   UNL     1      40.562 -77.168  35.296  1.00  0.00     0.131 A 
ENDROOT
BRANCH   6  18
ATOM     18  O   UNL     1      37.145 -78.708  39.022  1.00  0.00    -0.507 OA
ATOM     19  H   UNL     1      36.305 -78.548  39.561  1.00  0.00     0.293 HD
ENDBRANCH   6  18
BRANCH  17  20
ATOM     20  O   UNL     1      39.341 -77.102  34.622  1.00  0.00    -0.507 OA
ATOM     21  H   UNL     1      39.190 -76.545  33.792  1.00  0.00     0.293 HD
ENDBRANCH  17  20
BRANCH  15  22
ATOM     22  O   UNL     1      44.124 -76.883  34.356  1.00  0.00    -0.508 OA
ATOM     23  H   UNL     1      44.444 -75.950  34.127  1.00  0.00     0.293 HD
ENDBRANCH  15  22
TORSDOF 3
ENDMDL
MODEL 6
REMARK VINA RESULT:    -4.888      2.079      4.127
REMARK INTER + INTRA:          -5.316
REMARK INTER:                  -5.316
REMARK INTRA:                   0.000
REMARK UNBOUND:                 0.000
REMARK SMILES Cc1cc(O)c2c(c1)C(=O)c1cc(O)cc(O)c1C2=O
REMARK SMILES IDX 1 1 2 2 8 3 7 4 6 5 4 6 3 7 19 8 20 9 18 10 11 11 9 12 10 13
REMARK SMILES IDX 12 14 13 15 15 16 16 17 5 18 17 20 14 22
REMARK H PARENT 5 19 17 21 14 23
REMARK Flexibility Score: inf
ROOT
ATOM      1  C   UNL     1      35.014 -95.184  29.611  1.00  0.00     0.044 C 
ATOM      2  C   UNL     1      36.487 -95.246  29.888  1.00  0.00    -0.047 A 
ATOM      3  C   UNL     1      36.989 -94.824  31.124  1.00  0.00     0.016 A 
ATOM      4  C   UNL     1      38.364 -94.904  31.405  1.00  0.00     0.038 A 
ATOM      5  C   UNL     1      39.251 -95.416  30.431  1.00  0.00     0.076 A 
ATOM      6  C   UNL     1      38.726 -95.920  29.213  1.00  0.00     0.127 A 
ATOM      7  C   UNL     1      37.357 -95.810  28.949  1.00  0.00     0.050 A 
ATOM      8  C   UNL     1      40.709 -95.347  30.705  1.00  0.00     0.201 C 
ATOM      9  O   UNL     1      41.522 -95.231  29.749  1.00  0.00    -0.288 OA
ATOM     10  C   UNL     1      41.192 -95.227  32.105  1.00  0.00     0.076 A 
ATOM     11  C   UNL     1      40.302 -94.718  33.077  1.00  0.00     0.041 A 
ATOM     12  C   UNL     1      38.886 -94.463  32.720  1.00  0.00     0.194 C 
ATOM     13  O   UNL     1      38.120 -93.893  33.544  1.00  0.00    -0.289 OA
ATOM     14  C   UNL     1      40.761 -94.460  34.380  1.00  0.00     0.059 A 
ATOM     15  C   UNL     1      42.090 -94.717  34.726  1.00  0.00     0.120 A 
ATOM     16  C   UNL     1      42.961 -95.257  33.782  1.00  0.00     0.093 A 
ATOM     17  C   UNL     1      42.524 -95.543  32.484  1.00  0.00     0.131 A 
ENDROOT
BRANCH   6  18
ATOM     18  O   UNL     1      39.516 -96.565  28.260  1.00  0.00    -0.507 OA
ATOM     19  H   UNL     1      40.231 -97.241  28.492  1.00  0.00     0.293 HD
ENDBRANCH   6  18
BRANCH  17  20
ATOM     20  O   UNL     1      43.428 -96.167  31.621  1.00  0.00    -0.507 OA
ATOM     21  H   UNL     1      44.236 -95.703  31.229  1.00  0.00     0.293 HD
ENDBRANCH  17  20
BRANCH  15  22
ATOM     22  O   UNL     1      42.553 -94.452  36.014  1.00  0.00    -0.508 OA
ATOM     23  H   UNL     1      42.788 -95.199  36.656  1.00  0.00     0.293 HD
ENDBRANCH  15  22
TORSDOF 3
ENDMDL
MODEL 7
REMARK VINA RESULT:    -4.767      2.296      4.499
REMARK INTER + INTRA:          -5.185
REMARK INTER:                  -5.185
REMARK INTRA:                   0.000
REMARK UNBOUND:                 0.000
REMARK SMILES Cc1cc(O)c2c(c1)C(=O)c1cc(O)cc(O)c1C2=O
REMARK SMILES IDX 1 1 2 2 8 3 7 4 6 5 4 6 3 7 19 8 20 9 18 10 11 11 9 12 10 13
REMARK SMILES IDX 12 14 13 15 15 16 16 17 5 18 17 20 14 22
REMARK H PARENT 5 19 17 21 14 23
REMARK Flexibility Score: inf
ROOT
ATOM      1  C   UNL     1      39.606 -95.544  29.343  1.00  0.00     0.044 C 
ATOM      2  C   UNL     1      40.428 -95.422  30.591  1.00  0.00    -0.047 A 
ATOM      3  C   UNL     1      39.833 -95.007  31.788  1.00  0.00     0.016 A 
ATOM      4  C   UNL     1      40.589 -94.915  32.970  1.00  0.00     0.038 A 
ATOM      5  C   UNL     1      41.963 -95.246  32.953  1.00  0.00     0.076 A 
ATOM      6  C   UNL     1      42.540 -95.746  31.757  1.00  0.00     0.127 A 
ATOM      7  C   UNL     1      41.773 -95.808  30.589  1.00  0.00     0.050 A 
ATOM      8  C   UNL     1      42.760 -94.996  34.181  1.00  0.00     0.201 C 
ATOM      9  O   UNL     1      43.985 -94.716  34.087  1.00  0.00    -0.288 OA
ATOM     10  C   UNL     1      42.076 -94.890  35.496  1.00  0.00     0.076 A 
ATOM     11  C   UNL     1      40.702 -94.563  35.510  1.00  0.00     0.041 A 
ATOM     12  C   UNL     1      39.950 -94.483  34.235  1.00  0.00     0.194 C 
ATOM     13  O   UNL     1      38.758 -94.070  34.231  1.00  0.00    -0.289 OA
ATOM     14  C   UNL     1      40.053 -94.320  36.732  1.00  0.00     0.059 A 
ATOM     15  C   UNL     1      40.753 -94.414  37.937  1.00  0.00     0.120 A 
ATOM     16  C   UNL     1      42.099 -94.776  37.931  1.00  0.00     0.093 A 
ATOM     17  C   UNL     1      42.764 -95.044  36.729  1.00  0.00     0.131 A 
ENDROOT
BRANCH   6  18
ATOM     18  O   UNL     1      43.850 -96.223  31.693  1.00  0.00    -0.507 OA
ATOM     19  H   UNL     1      44.585 -95.769  31.168  1.00  0.00     0.293 HD
ENDBRANCH   6  18
BRANCH  17  20
ATOM     20  O   UNL     1      44.085 -95.489  36.808  1.00  0.00    -0.507 OA
ATOM     21  H   UNL     1      44.721 -95.494  36.022  1.00  0.00     0.293 HD
ENDBRANCH  17  20
BRANCH  15  22
ATOM     22  O   UNL     1      40.116 -94.162  39.151  1.00  0.00    -0.508 OA
ATOM     23  H   UNL     1      39.966 -93.217  39.483  1.00  0.00     0.293 HD
ENDBRANCH  15  22
TORSDOF 3
ENDMDL
MODEL 8
REMARK VINA RESULT:    -4.759      8.047     10.153
REMARK INTER + INTRA:          -5.176
REMARK INTER:                  -5.176
REMARK INTRA:                   0.000
REMARK UNBOUND:                 0.000
REMARK SMILES Cc1cc(O)c2c(c1)C(=O)c1cc(O)cc(O)c1C2=O
REMARK SMILES IDX 1 1 2 2 8 3 7 4 6 5 4 6 3 7 19 8 20 9 18 10 11 11 9 12 10 13
REMARK SMILES IDX 12 14 13 15 15 16 16 17 5 18 17 20 14 22
REMARK H PARENT 5 19 17 21 14 23
REMARK Flexibility Score: inf
ROOT
ATOM      1  C   UNL     1      37.397 -95.517  30.412  1.00  0.00     0.044 C 
ATOM      2  C   UNL     1      36.135 -95.650  29.611  1.00  0.00    -0.047 A 
ATOM      3  C   UNL     1      34.897 -95.723  30.258  1.00  0.00     0.016 A 
ATOM      4  C   UNL     1      33.706 -95.819  29.517  1.00  0.00     0.038 A 
ATOM      5  C   UNL     1      33.757 -95.841  28.105  1.00  0.00     0.076 A 
ATOM      6  C   UNL     1      35.008 -95.681  27.455  1.00  0.00     0.127 A 
ATOM      7  C   UNL     1      36.180 -95.609  28.214  1.00  0.00     0.050 A 
ATOM      8  C   UNL     1      32.496 -96.092  27.361  1.00  0.00     0.201 C 
ATOM      9  O   UNL     1      32.532 -96.674  26.244  1.00  0.00    -0.288 OA
ATOM     10  C   UNL     1      31.188 -95.830  28.016  1.00  0.00     0.076 A 
ATOM     11  C   UNL     1      31.141 -95.805  29.428  1.00  0.00     0.041 A 
ATOM     12  C   UNL     1      32.397 -95.888  30.210  1.00  0.00     0.194 C 
ATOM     13  O   UNL     1      32.353 -95.993  31.466  1.00  0.00    -0.289 OA
ATOM     14  C   UNL     1      29.903 -95.697  30.085  1.00  0.00     0.059 A 
ATOM     15  C   UNL     1      28.719 -95.598  29.352  1.00  0.00     0.120 A 
ATOM     16  C   UNL     1      28.764 -95.581  27.959  1.00  0.00     0.093 A 
ATOM     17  C   UNL     1      29.985 -95.667  27.280  1.00  0.00     0.131 A 
ENDROOT
BRANCH   6  18
ATOM     18  O   UNL     1      35.128 -95.554  26.070  1.00  0.00    -0.507 OA
ATOM     19  H   UNL     1      34.767 -96.232  25.413  1.00  0.00     0.293 HD
ENDBRANCH   6  18
BRANCH  17  20
ATOM     20  O   UNL     1      29.958 -95.551  25.889  1.00  0.00    -0.507 OA
ATOM     21  H   UNL     1      30.386 -94.787  25.384  1.00  0.00     0.293 HD
ENDBRANCH  17  20
BRANCH  15  22
ATOM     22  O   UNL     1      27.488 -95.503  29.999  1.00  0.00    -0.508 OA
ATOM     23  H   UNL     1      26.642 -95.876  29.586  1.00  0.00     0.293 HD
ENDBRANCH  15  22
TORSDOF 3
ENDMDL
