MODEL 1
REMARK VINA RESULT:    -4.430      0.000      0.000
REMARK INTER + INTRA:          -8.239
REMARK INTER:                  -7.797
REMARK INTRA:                  -0.443
REMARK UNBOUND:                -0.443
REMARK SMILES CCCCCCCCCCCCCCC(=O)[O-]
REMARK SMILES IDX 9 1 10 2 11 3 12 4 13 5 14 6 15 7 16 8 17 9 8 10 7 11 6 12
REMARK SMILES IDX 5 13 4 14 3 15 2 16 1 17
REMARK H PARENT
REMARK Flexibility Score: inf
ROOT
ATOM      1  C   UNL     1     -30.158 -19.608  13.500  1.00  0.00     0.000 C 
ENDROOT
BRANCH   1   2
ATOM      2  C   UNL     1     -30.781 -21.002  13.287  1.00  0.00     0.000 C 
BRANCH   2   3
ATOM      3  C   UNL     1     -30.986 -21.774  14.600  1.00  0.00     0.000 C 
BRANCH   3   4
ATOM      4  C   UNL     1     -31.116 -23.295  14.389  1.00  0.00     0.000 C 
BRANCH   4   5
ATOM      5  C   UNL     1     -30.359 -24.165  15.410  1.00  0.00     0.006 C 
BRANCH   5   6
ATOM      6  C   UNL     1     -30.991 -25.549  15.604  1.00  0.00     0.053 C 
BRANCH   6   7
ATOM      7  C   UNL     1     -30.160 -26.379  16.531  1.00  0.00     0.041 C 
ATOM      8  O   UNL     1     -30.048 -26.054  17.743  1.00  0.00    -0.550 OA
ATOM      9  O   UNL     1     -29.468 -27.481  16.047  1.00  0.00    -0.550 OA
ENDBRANCH   6   7
ENDBRANCH   5   6
ENDBRANCH   4   5
ENDBRANCH   3   4
ENDBRANCH   2   3
ENDBRANCH   1   2
BRANCH   1  10
ATOM     10  C   UNL     1     -31.125 -18.425  13.314  1.00  0.00     0.000 C 
BRANCH  10  11
ATOM     11  C   UNL     1     -30.600 -17.119  13.935  1.00  0.00    -0.000 C 
BRANCH  11  12
ATOM     12  C   UNL     1     -30.191 -16.083  12.874  1.00  0.00    -0.000 C 
BRANCH  12  13
ATOM     13  C   UNL     1     -31.099 -14.843  12.882  1.00  0.00    -0.000 C 
BRANCH  13  14
ATOM     14  C   UNL     1     -31.055 -14.140  14.246  1.00  0.00    -0.000 C 
BRANCH  14  15
ATOM     15  C   UNL     1     -30.816 -12.623  14.133  1.00  0.00    -0.000 C 
BRANCH  15  16
ATOM     16  C   UNL     1     -30.997 -12.043  12.719  1.00  0.00    -0.003 C 
ATOM     17  C   UNL     1     -29.785 -11.245  12.240  1.00  0.00     0.004 C 
ENDBRANCH  15  16
ENDBRANCH  14  15
ENDBRANCH  13  14
ENDBRANCH  12  13
ENDBRANCH  11  12
ENDBRANCH  10  11
ENDBRANCH   1  10
TORSDOF 13
ENDMDL
MODEL 2
REMARK VINA RESULT:    -3.747     17.820     18.724
REMARK INTER + INTRA:          -7.038
REMARK INTER:                  -5.860
REMARK INTRA:                  -1.177
REMARK UNBOUND:                -0.443
REMARK SMILES CCCCCCCCCCCCCCC(=O)[O-]
REMARK SMILES IDX 9 1 10 2 11 3 12 4 13 5 14 6 15 7 16 8 17 9 8 10 7 11 6 12
REMARK SMILES IDX 5 13 4 14 3 15 2 16 1 17
REMARK H PARENT
REMARK Flexibility Score: inf
ROOT
ATOM      1  C   UNL     1     -13.555 -22.379  21.632  1.00  0.00     0.000 C 
ENDROOT
BRANCH   1   2
ATOM      2  C   UNL     1     -13.504 -21.560  22.936  1.00  0.00     0.000 C 
BRANCH   2   3
ATOM      3  C   UNL     1     -14.419 -22.124  24.035  1.00  0.00     0.000 C 
BRANCH   3   4
ATOM      4  C   UNL     1     -15.440 -23.147  23.500  1.00  0.00     0.000 C 
BRANCH   4   5
ATOM      5  C   UNL     1     -16.862 -23.015  24.075  1.00  0.00     0.006 C 
BRANCH   5   6
ATOM      6  C   UNL     1     -16.888 -22.392  25.476  1.00  0.00     0.053 C 
BRANCH   6   7
ATOM      7  C   UNL     1     -18.209 -22.639  26.134  1.00  0.00     0.041 C 
ATOM      8  O   UNL     1     -18.632 -21.849  27.019  1.00  0.00    -0.550 OA
ATOM      9  O   UNL     1     -18.950 -23.767  25.806  1.00  0.00    -0.550 OA
ENDBRANCH   6   7
ENDBRANCH   5   6
ENDBRANCH   4   5
ENDBRANCH   3   4
ENDBRANCH   2   3
ENDBRANCH   1   2
BRANCH   1  10
ATOM     10  C   UNL     1     -12.657 -21.857  20.496  1.00  0.00     0.000 C 
BRANCH  10  11
ATOM     11  C   UNL     1     -13.430 -21.603  19.190  1.00  0.00    -0.000 C 
BRANCH  11  12
ATOM     12  C   UNL     1     -12.499 -21.364  17.990  1.00  0.00    -0.000 C 
BRANCH  12  13
ATOM     13  C   UNL     1     -11.303 -20.465  18.341  1.00  0.00    -0.000 C 
BRANCH  13  14
ATOM     14  C   UNL     1     -11.489 -19.055  17.760  1.00  0.00    -0.000 C 
BRANCH  14  15
ATOM     15  C   UNL     1     -12.284 -18.123  18.692  1.00  0.00    -0.000 C 
BRANCH  15  16
ATOM     16  C   UNL     1     -11.742 -18.026  20.128  1.00  0.00    -0.003 C 
ATOM     17  C   UNL     1     -12.826 -18.205  21.191  1.00  0.00     0.004 C 
ENDBRANCH  15  16
ENDBRANCH  14  15
ENDBRANCH  13  14
ENDBRANCH  12  13
ENDBRANCH  11  12
ENDBRANCH  10  11
ENDBRANCH   1  10
TORSDOF 13
ENDMDL
MODEL 3
REMARK VINA RESULT:    -3.707     18.449     18.957
REMARK INTER + INTRA:          -6.968
REMARK INTER:                  -6.162
REMARK INTRA:                  -0.806
REMARK UNBOUND:                -0.443
REMARK SMILES CCCCCCCCCCCCCCC(=O)[O-]
REMARK SMILES IDX 9 1 10 2 11 3 12 4 13 5 14 6 15 7 16 8 17 9 8 10 7 11 6 12
REMARK SMILES IDX 5 13 4 14 3 15 2 16 1 17
REMARK H PARENT
REMARK Flexibility Score: inf
ROOT
ATOM      1  C   UNL     1     -12.701 -18.731  18.858  1.00  0.00     0.000 C 
ENDROOT
BRANCH   1   2
ATOM      2  C   UNL     1     -12.305 -20.216  18.734  1.00  0.00     0.000 C 
BRANCH   2   3
ATOM      3  C   UNL     1     -13.463 -21.174  19.059  1.00  0.00     0.000 C 
BRANCH   3   4
ATOM      4  C   UNL     1     -12.989 -22.497  19.690  1.00  0.00     0.000 C 
BRANCH   4   5
ATOM      5  C   UNL     1     -13.108 -22.572  21.223  1.00  0.00     0.006 C 
BRANCH   5   6
ATOM      6  C   UNL     1     -13.921 -21.416  21.819  1.00  0.00     0.053 C 
BRANCH   6   7
ATOM      7  C   UNL     1     -13.072 -20.600  22.742  1.00  0.00     0.041 C 
ATOM      8  O   UNL     1     -13.333 -20.560  23.973  1.00  0.00    -0.550 OA
ATOM      9  O   UNL     1     -12.023 -19.843  22.236  1.00  0.00    -0.550 OA
ENDBRANCH   6   7
ENDBRANCH   5   6
ENDBRANCH   4   5
ENDBRANCH   3   4
ENDBRANCH   2   3
ENDBRANCH   1   2
BRANCH   1  10
ATOM     10  C   UNL     1     -11.689 -17.733  18.267  1.00  0.00     0.000 C 
BRANCH  10  11
ATOM     11  C   UNL     1     -11.228 -18.116  16.850  1.00  0.00    -0.000 C 
BRANCH  11  12
ATOM     12  C   UNL     1     -10.998 -16.888  15.952  1.00  0.00    -0.000 C 
BRANCH  12  13
ATOM     13  C   UNL     1     -12.276 -16.445  15.223  1.00  0.00    -0.000 C 
BRANCH  13  14
ATOM     14  C   UNL     1     -11.958 -15.979  13.795  1.00  0.00    -0.000 C 
BRANCH  14  15
ATOM     15  C   UNL     1     -11.905 -14.445  13.662  1.00  0.00    -0.000 C 
BRANCH  15  16
ATOM     16  C   UNL     1     -12.487 -13.671  14.858  1.00  0.00    -0.003 C 
ATOM     17  C   UNL     1     -12.203 -12.171  14.795  1.00  0.00     0.004 C 
ENDBRANCH  15  16
ENDBRANCH  14  15
ENDBRANCH  13  14
ENDBRANCH  12  13
ENDBRANCH  11  12
ENDBRANCH  10  11
ENDBRANCH   1  10
TORSDOF 13
ENDMDL
MODEL 4
REMARK VINA RESULT:    -3.694     18.478     19.138
REMARK INTER + INTRA:          -6.944
REMARK INTER:                  -5.873
REMARK INTRA:                  -1.071
REMARK UNBOUND:                -0.443
REMARK SMILES CCCCCCCCCCCCCCC(=O)[O-]
REMARK SMILES IDX 9 1 10 2 11 3 12 4 13 5 14 6 15 7 16 8 17 9 8 10 7 11 6 12
REMARK SMILES IDX 5 13 4 14 3 15 2 16 1 17
REMARK H PARENT
REMARK Flexibility Score: inf
ROOT
ATOM      1  C   UNL     1     -11.267 -15.559  15.956  1.00  0.00     0.000 C 
ENDROOT
BRANCH   1   2
ATOM      2  C   UNL     1     -11.016 -16.440  17.196  1.00  0.00     0.000 C 
BRANCH   2   3
ATOM      3  C   UNL     1     -11.965 -17.647  17.275  1.00  0.00     0.000 C 
BRANCH   3   4
ATOM      4  C   UNL     1     -11.571 -18.649  18.377  1.00  0.00     0.000 C 
BRANCH   4   5
ATOM      5  C   UNL     1     -12.243 -18.420  19.742  1.00  0.00     0.006 C 
BRANCH   5   6
ATOM      6  C   UNL     1     -13.501 -19.274  19.943  1.00  0.00     0.053 C 
BRANCH   6   7
ATOM      7  C   UNL     1     -13.169 -20.729  19.833  1.00  0.00     0.041 C 
ATOM      8  O   UNL     1     -12.396 -21.266  20.669  1.00  0.00    -0.550 OA
ATOM      9  O   UNL     1     -13.674 -21.480  18.780  1.00  0.00    -0.550 OA
ENDBRANCH   6   7
ENDBRANCH   5   6
ENDBRANCH   4   5
ENDBRANCH   3   4
ENDBRANCH   2   3
ENDBRANCH   1   2
BRANCH   1  10
ATOM     10  C   UNL     1     -12.116 -16.213  14.851  1.00  0.00     0.000 C 
BRANCH  10  11
ATOM     11  C   UNL     1     -11.278 -16.669  13.644  1.00  0.00    -0.000 C 
BRANCH  11  12
ATOM     12  C   UNL     1     -11.123 -15.567  12.582  1.00  0.00    -0.000 C 
BRANCH  12  13
ATOM     13  C   UNL     1     -12.358 -14.657  12.493  1.00  0.00    -0.000 C 
BRANCH  13  14
ATOM     14  C   UNL     1     -11.946 -13.180  12.411  1.00  0.00    -0.000 C 
BRANCH  14  15
ATOM     15  C   UNL     1     -11.170 -12.704  13.653  1.00  0.00    -0.000 C 
BRANCH  15  16
ATOM     16  C   UNL     1     -12.039 -12.090  14.764  1.00  0.00    -0.003 C 
ATOM     17  C   UNL     1     -11.914 -10.569  14.849  1.00  0.00     0.004 C 
ENDBRANCH  15  16
ENDBRANCH  14  15
ENDBRANCH  13  14
ENDBRANCH  12  13
ENDBRANCH  11  12
ENDBRANCH  10  11
ENDBRANCH   1  10
TORSDOF 13
ENDMDL
MODEL 5
REMARK VINA RESULT:    -3.680     17.766     19.783
REMARK INTER + INTRA:          -6.920
REMARK INTER:                  -5.137
REMARK INTRA:                  -1.783
REMARK UNBOUND:                -0.443
REMARK SMILES CCCCCCCCCCCCCCC(=O)[O-]
REMARK SMILES IDX 9 1 10 2 11 3 12 4 13 5 14 6 15 7 16 8 17 9 8 10 7 11 6 12
REMARK SMILES IDX 5 13 4 14 3 15 2 16 1 17
REMARK H PARENT
REMARK Flexibility Score: inf
ROOT
ATOM      1  C   UNL     1     -14.850 -21.753  25.472  1.00  0.00     0.000 C 
ENDROOT
BRANCH   1   2
ATOM      2  C   UNL     1     -13.475 -21.063  25.376  1.00  0.00     0.000 C 
BRANCH   2   3
ATOM      3  C   UNL     1     -13.163 -20.543  23.963  1.00  0.00     0.000 C 
BRANCH   3   4
ATOM      4  C   UNL     1     -12.155 -21.429  23.207  1.00  0.00     0.000 C 
BRANCH   4   5
ATOM      5  C   UNL     1     -12.531 -21.750  21.748  1.00  0.00     0.006 C 
BRANCH   5   6
ATOM      6  C   UNL     1     -13.825 -21.062  21.297  1.00  0.00     0.053 C 
BRANCH   6   7
ATOM      7  C   UNL     1     -13.673 -20.517  19.911  1.00  0.00     0.041 C 
ATOM      8  O   UNL     1     -13.465 -19.288  19.735  1.00  0.00    -0.550 OA
ATOM      9  O   UNL     1     -13.810 -21.357  18.814  1.00  0.00    -0.550 OA
ENDBRANCH   6   7
ENDBRANCH   5   6
ENDBRANCH   4   5
ENDBRANCH   3   4
ENDBRANCH   2   3
ENDBRANCH   1   2
BRANCH   1  10
ATOM     10  C   UNL     1     -14.867 -23.236  25.060  1.00  0.00     0.000 C 
BRANCH  10  11
ATOM     11  C   UNL     1     -15.498 -23.465  23.675  1.00  0.00    -0.000 C 
BRANCH  11  12
ATOM     12  C   UNL     1     -17.018 -23.231  23.673  1.00  0.00    -0.000 C 
BRANCH  12  13
ATOM     13  C   UNL     1     -17.798 -24.417  24.260  1.00  0.00    -0.000 C 
BRANCH  13  14
ATOM     14  C   UNL     1     -18.746 -23.951  25.375  1.00  0.00    -0.000 C 
BRANCH  14  15
ATOM     15  C   UNL     1     -18.211 -24.261  26.786  1.00  0.00    -0.000 C 
BRANCH  15  16
ATOM     16  C   UNL     1     -17.690 -23.040  27.563  1.00  0.00    -0.003 C 
ATOM     17  C   UNL     1     -18.263 -21.717  27.054  1.00  0.00     0.004 C 
ENDBRANCH  15  16
ENDBRANCH  14  15
ENDBRANCH  13  14
ENDBRANCH  12  13
ENDBRANCH  11  12
ENDBRANCH  10  11
ENDBRANCH   1  10
TORSDOF 13
ENDMDL
MODEL 6
REMARK VINA RESULT:    -3.653     17.946     19.769
REMARK INTER + INTRA:          -6.871
REMARK INTER:                  -5.440
REMARK INTRA:                  -1.431
REMARK UNBOUND:                -0.443
REMARK SMILES CCCCCCCCCCCCCCC(=O)[O-]
REMARK SMILES IDX 9 1 10 2 11 3 12 4 13 5 14 6 15 7 16 8 17 9 8 10 7 11 6 12
REMARK SMILES IDX 5 13 4 14 3 15 2 16 1 17
REMARK H PARENT
REMARK Flexibility Score: inf
ROOT
ATOM      1  C   UNL     1     -16.281 -22.884  23.631  1.00  0.00     0.000 C 
ENDROOT
BRANCH   1   2
ATOM      2  C   UNL     1     -14.790 -22.524  23.783  1.00  0.00     0.000 C 
BRANCH   2   3
ATOM      3  C   UNL     1     -13.879 -23.341  22.852  1.00  0.00     0.000 C 
BRANCH   3   4
ATOM      4  C   UNL     1     -13.458 -22.564  21.590  1.00  0.00     0.000 C 
BRANCH   4   5
ATOM      5  C   UNL     1     -13.811 -21.066  21.594  1.00  0.00     0.006 C 
BRANCH   5   6
ATOM      6  C   UNL     1     -13.786 -20.440  20.194  1.00  0.00     0.053 C 
BRANCH   6   7
ATOM      7  C   UNL     1     -13.128 -19.096  20.233  1.00  0.00     0.041 C 
ATOM      8  O   UNL     1     -12.952 -18.510  21.333  1.00  0.00    -0.550 OA
ATOM      9  O   UNL     1     -12.754 -18.471  19.051  1.00  0.00    -0.550 OA
ENDBRANCH   6   7
ENDBRANCH   5   6
ENDBRANCH   4   5
ENDBRANCH   3   4
ENDBRANCH   2   3
ENDBRANCH   1   2
BRANCH   1  10
ATOM     10  C   UNL     1     -16.677 -24.269  24.174  1.00  0.00     0.000 C 
BRANCH  10  11
ATOM     11  C   UNL     1     -18.193 -24.417  24.389  1.00  0.00    -0.000 C 
BRANCH  11  12
ATOM     12  C   UNL     1     -18.597 -24.274  25.866  1.00  0.00    -0.000 C 
BRANCH  12  13
ATOM     13  C   UNL     1     -18.720 -22.807  26.304  1.00  0.00    -0.000 C 
BRANCH  13  14
ATOM     14  C   UNL     1     -17.967 -22.562  27.620  1.00  0.00    -0.000 C 
BRANCH  14  15
ATOM     15  C   UNL     1     -16.799 -23.543  27.834  1.00  0.00    -0.000 C 
BRANCH  15  16
ATOM     16  C   UNL     1     -15.409 -22.979  27.491  1.00  0.00    -0.003 C 
ATOM     17  C   UNL     1     -15.402 -21.458  27.335  1.00  0.00     0.004 C 
ENDBRANCH  15  16
ENDBRANCH  14  15
ENDBRANCH  13  14
ENDBRANCH  12  13
ENDBRANCH  11  12
ENDBRANCH  10  11
ENDBRANCH   1  10
TORSDOF 13
ENDMDL
MODEL 7
REMARK VINA RESULT:    -3.630     17.729     19.578
REMARK INTER + INTRA:          -6.831
REMARK INTER:                  -5.435
REMARK INTRA:                  -1.396
REMARK UNBOUND:                -0.443
REMARK SMILES CCCCCCCCCCCCCCC(=O)[O-]
REMARK SMILES IDX 9 1 10 2 11 3 12 4 13 5 14 6 15 7 16 8 17 9 8 10 7 11 6 12
REMARK SMILES IDX 5 13 4 14 3 15 2 16 1 17
REMARK H PARENT
REMARK Flexibility Score: inf
ROOT
ATOM      1  C   UNL     1     -15.153 -22.862  23.220  1.00  0.00     0.000 C 
ENDROOT
BRANCH   1   2
ATOM      2  C   UNL     1     -13.939 -22.302  22.453  1.00  0.00     0.000 C 
BRANCH   2   3
ATOM      3  C   UNL     1     -13.351 -21.039  23.102  1.00  0.00     0.000 C 
BRANCH   3   4
ATOM      4  C   UNL     1     -12.948 -19.966  22.072  1.00  0.00     0.000 C 
BRANCH   4   5
ATOM      5  C   UNL     1     -13.916 -19.799  20.887  1.00  0.00     0.006 C 
BRANCH   5   6
ATOM      6  C   UNL     1     -13.195 -19.603  19.547  1.00  0.00     0.053 C 
BRANCH   6   7
ATOM      7  C   UNL     1     -12.694 -20.913  19.025  1.00  0.00     0.041 C 
ATOM      8  O   UNL     1     -11.463 -21.086  18.827  1.00  0.00    -0.550 OA
ATOM      9  O   UNL     1     -13.591 -21.925  18.711  1.00  0.00    -0.550 OA
ENDBRANCH   6   7
ENDBRANCH   5   6
ENDBRANCH   4   5
ENDBRANCH   3   4
ENDBRANCH   2   3
ENDBRANCH   1   2
BRANCH   1  10
ATOM     10  C   UNL     1     -14.946 -24.255  23.843  1.00  0.00     0.000 C 
BRANCH  10  11
ATOM     11  C   UNL     1     -16.263 -24.912  24.291  1.00  0.00    -0.000 C 
BRANCH  11  12
ATOM     12  C   UNL     1     -17.477 -23.985  24.112  1.00  0.00    -0.000 C 
BRANCH  12  13
ATOM     13  C   UNL     1     -18.611 -24.301  25.099  1.00  0.00    -0.000 C 
BRANCH  13  14
ATOM     14  C   UNL     1     -18.738 -23.198  26.159  1.00  0.00    -0.000 C 
BRANCH  14  15
ATOM     15  C   UNL     1     -17.699 -22.075  25.985  1.00  0.00    -0.000 C 
BRANCH  15  16
ATOM     16  C   UNL     1     -16.713 -21.918  27.155  1.00  0.00    -0.003 C 
ATOM     17  C   UNL     1     -15.262 -21.764  26.699  1.00  0.00     0.004 C 
ENDBRANCH  15  16
ENDBRANCH  14  15
ENDBRANCH  13  14
ENDBRANCH  12  13
ENDBRANCH  11  12
ENDBRANCH  10  11
ENDBRANCH   1  10
TORSDOF 13
ENDMDL
