MODEL 1
REMARK VINA RESULT:    -7.470      0.000      0.000
REMARK INTER + INTRA:          -9.398
REMARK INTER:                  -8.999
REMARK INTRA:                  -0.399
REMARK UNBOUND:                -0.399
REMARK SMILES O=c1c(O)c(-c2ccc(O)cc2O)oc2cc(O)cc(O)c12
REMARK SMILES IDX 5 1 3 2 2 3 1 4 22 5 20 6 19 7 17 8 16 9 15 10 14 11 6 12
REMARK SMILES IDX 8 13 7 14 9 15 11 16 12 17 10 18 13 20 4 22 21 24 18 26
REMARK H PARENT 10 19 13 21 4 23 21 25 18 27
REMARK Flexibility Score: inf
ROOT
ATOM      1  C   UNL     1      26.146  37.211  26.365  1.00  0.00     0.184 A 
ATOM      2  C   UNL     1      26.221  38.431  27.056  1.00  0.00     0.208 A 
ATOM      3  C   UNL     1      25.034  39.032  27.505  1.00  0.00     0.238 A 
ATOM      4  O   UNL     1      25.111  40.097  28.171  1.00  0.00    -0.285 OA
ATOM      5  C   UNL     1      23.788  38.413  27.241  1.00  0.00     0.111 A 
ATOM      6  C   UNL     1      22.521  38.952  27.613  1.00  0.00     0.134 A 
ATOM      7  C   UNL     1      21.361  38.192  27.417  1.00  0.00     0.093 A 
ATOM      8  C   UNL     1      21.418  36.939  26.800  1.00  0.00     0.123 A 
ATOM      9  C   UNL     1      22.644  36.430  26.381  1.00  0.00     0.094 A 
ATOM     10  C   UNL     1      23.822  37.149  26.596  1.00  0.00     0.146 A 
ATOM     11  O   UNL     1      24.970  36.621  26.190  1.00  0.00    -0.451 OA
ENDROOT
BRANCH   1  12
ATOM     12  C   UNL     1      27.356  36.535  25.852  1.00  0.00     0.063 A 
ATOM     13  C   UNL     1      29.026  36.312  24.098  1.00  0.00     0.047 A 
ATOM     14  C   UNL     1      27.880  36.927  24.610  1.00  0.00     0.020 A 
ATOM     15  C   UNL     1      29.670  35.309  24.827  1.00  0.00     0.119 A 
ATOM     16  C   UNL     1      29.169  34.928  26.079  1.00  0.00     0.093 A 
ATOM     17  C   UNL     1      28.023  35.543  26.602  1.00  0.00     0.130 A 
BRANCH  15  18
ATOM     18  O   UNL     1      30.810  34.702  24.302  1.00  0.00    -0.508 OA
ATOM     19  H   UNL     1      31.541  35.244  23.856  1.00  0.00     0.293 HD
ENDBRANCH  15  18
BRANCH  17  20
ATOM     20  O   UNL     1      27.564  35.189  27.870  1.00  0.00    -0.507 OA
ATOM     21  H   UNL     1      27.020  35.828  28.436  1.00  0.00     0.293 HD
ENDBRANCH  17  20
ENDBRANCH   1  12
BRANCH   2  22
ATOM     22  O   UNL     1      27.465  39.010  27.319  1.00  0.00    -0.502 OA
ATOM     23  H   UNL     1      28.308  38.459  27.432  1.00  0.00     0.293 HD
ENDBRANCH   2  22
BRANCH   6  24
ATOM     24  O   UNL     1      22.344  40.231  28.150  1.00  0.00    -0.507 OA
ATOM     25  H   UNL     1      22.739  41.076  27.765  1.00  0.00     0.293 HD
ENDBRANCH   6  24
BRANCH   8  26
ATOM     26  O   UNL     1      20.258  36.195  26.595  1.00  0.00    -0.508 OA
ATOM     27  H   UNL     1      19.656  36.361  25.798  1.00  0.00     0.293 HD
ENDBRANCH   8  26
TORSDOF 6
ENDMDL
MODEL 2
REMARK VINA RESULT:    -7.168      1.893      6.762
REMARK INTER + INTRA:          -9.034
REMARK INTER:                  -8.628
REMARK INTRA:                  -0.406
REMARK UNBOUND:                -0.399
REMARK SMILES O=c1c(O)c(-c2ccc(O)cc2O)oc2cc(O)cc(O)c12
REMARK SMILES IDX 5 1 3 2 2 3 1 4 22 5 20 6 19 7 17 8 16 9 15 10 14 11 6 12
REMARK SMILES IDX 8 13 7 14 9 15 11 16 12 17 10 18 13 20 4 22 21 24 18 26
REMARK H PARENT 10 19 13 21 4 23 21 25 18 27
REMARK Flexibility Score: inf
ROOT
ATOM      1  C   UNL     1      25.895  37.198  26.250  1.00  0.00     0.184 A 
ATOM      2  C   UNL     1      26.451  37.361  24.971  1.00  0.00     0.208 A 
ATOM      3  C   UNL     1      27.843  37.269  24.817  1.00  0.00     0.238 A 
ATOM      4  O   UNL     1      28.330  37.362  23.661  1.00  0.00    -0.285 OA
ATOM      5  C   UNL     1      28.662  37.033  25.948  1.00  0.00     0.111 A 
ATOM      6  C   UNL     1      30.087  36.960  25.916  1.00  0.00     0.134 A 
ATOM      7  C   UNL     1      30.787  36.593  27.071  1.00  0.00     0.093 A 
ATOM      8  C   UNL     1      30.116  36.359  28.275  1.00  0.00     0.123 A 
ATOM      9  C   UNL     1      28.731  36.484  28.331  1.00  0.00     0.094 A 
ATOM     10  C   UNL     1      28.002  36.814  27.185  1.00  0.00     0.146 A 
ATOM     11  O   UNL     1      26.681  36.911  27.281  1.00  0.00    -0.451 OA
ENDROOT
BRANCH   1  12
ATOM     12  C   UNL     1      24.440  37.299  26.483  1.00  0.00     0.063 A 
ATOM     13  C   UNL     1      22.223  36.331  26.229  1.00  0.00     0.047 A 
ATOM     14  C   UNL     1      23.603  36.270  26.020  1.00  0.00     0.020 A 
ATOM     15  C   UNL     1      21.663  37.412  26.913  1.00  0.00     0.119 A 
ATOM     16  C   UNL     1      22.491  38.432  27.400  1.00  0.00     0.093 A 
ATOM     17  C   UNL     1      23.878  38.376  27.200  1.00  0.00     0.130 A 
BRANCH  15  18
ATOM     18  O   UNL     1      20.284  37.461  27.110  1.00  0.00    -0.508 OA
ATOM     19  H   UNL     1      19.642  36.995  26.480  1.00  0.00     0.293 HD
ENDBRANCH  15  18
BRANCH  17  20
ATOM     20  O   UNL     1      24.696  39.372  27.732  1.00  0.00    -0.507 OA
ATOM     21  H   UNL     1      25.307  39.194  28.519  1.00  0.00     0.293 HD
ENDBRANCH  17  20
ENDBRANCH   1  12
BRANCH   2  22
ATOM     22  O   UNL     1      25.617  37.575  23.869  1.00  0.00    -0.502 OA
ATOM     23  H   UNL     1      25.881  37.306  22.929  1.00  0.00     0.293 HD
ENDBRANCH   2  22
BRANCH   6  24
ATOM     24  O   UNL     1      30.858  37.266  24.790  1.00  0.00    -0.507 OA
ATOM     25  H   UNL     1      31.190  36.589  24.119  1.00  0.00     0.293 HD
ENDBRANCH   6  24
BRANCH   8  26
ATOM     26  O   UNL     1      30.822  36.008  29.424  1.00  0.00    -0.508 OA
ATOM     27  H   UNL     1      30.846  36.611  30.237  1.00  0.00     0.293 HD
ENDBRANCH   8  26
TORSDOF 6
ENDMDL
MODEL 3
REMARK VINA RESULT:    -7.163      2.234      3.850
REMARK INTER + INTRA:          -9.027
REMARK INTER:                  -8.618
REMARK INTRA:                  -0.409
REMARK UNBOUND:                -0.399
REMARK SMILES O=c1c(O)c(-c2ccc(O)cc2O)oc2cc(O)cc(O)c12
REMARK SMILES IDX 5 1 3 2 2 3 1 4 22 5 20 6 19 7 17 8 16 9 15 10 14 11 6 12
REMARK SMILES IDX 8 13 7 14 9 15 11 16 12 17 10 18 13 20 4 22 21 24 18 26
REMARK H PARENT 10 19 13 21 4 23 21 25 18 27
REMARK Flexibility Score: inf
ROOT
ATOM      1  C   UNL     1      25.618  38.230  26.825  1.00  0.00     0.184 A 
ATOM      2  C   UNL     1      24.322  37.971  27.301  1.00  0.00     0.208 A 
ATOM      3  C   UNL     1      23.405  39.030  27.387  1.00  0.00     0.238 A 
ATOM      4  O   UNL     1      22.230  38.783  27.762  1.00  0.00    -0.285 OA
ATOM      5  C   UNL     1      23.802  40.337  27.012  1.00  0.00     0.111 A 
ATOM      6  C   UNL     1      22.968  41.493  27.096  1.00  0.00     0.134 A 
ATOM      7  C   UNL     1      23.421  42.711  26.576  1.00  0.00     0.093 A 
ATOM      8  C   UNL     1      24.704  42.830  26.035  1.00  0.00     0.123 A 
ATOM      9  C   UNL     1      25.547  41.722  26.002  1.00  0.00     0.094 A 
ATOM     10  C   UNL     1      25.110  40.484  26.479  1.00  0.00     0.146 A 
ATOM     11  O   UNL     1      25.941  39.451  26.418  1.00  0.00    -0.451 OA
ENDROOT
BRANCH   1  12
ATOM     12  C   UNL     1      26.635  37.163  26.726  1.00  0.00     0.063 A 
ATOM     13  C   UNL     1      28.390  35.860  27.792  1.00  0.00     0.047 A 
ATOM     14  C   UNL     1      27.423  36.867  27.850  1.00  0.00     0.020 A 
ATOM     15  C   UNL     1      28.573  35.128  26.616  1.00  0.00     0.119 A 
ATOM     16  C   UNL     1      27.775  35.399  25.496  1.00  0.00     0.093 A 
ATOM     17  C   UNL     1      26.799  36.404  25.548  1.00  0.00     0.130 A 
BRANCH  15  18
ATOM     18  O   UNL     1      29.544  34.129  26.572  1.00  0.00    -0.508 OA
ATOM     19  H   UNL     1      29.979  33.852  25.700  1.00  0.00     0.293 HD
ENDBRANCH  15  18
BRANCH  17  20
ATOM     20  O   UNL     1      25.978  36.631  24.443  1.00  0.00    -0.507 OA
ATOM     21  H   UNL     1      26.294  36.446  23.499  1.00  0.00     0.293 HD
ENDBRANCH  17  20
ENDBRANCH   1  12
BRANCH   2  22
ATOM     22  O   UNL     1      23.952  36.669  27.646  1.00  0.00    -0.502 OA
ATOM     23  H   UNL     1      23.146  36.208  27.241  1.00  0.00     0.293 HD
ENDBRANCH   2  22
BRANCH   6  24
ATOM     24  O   UNL     1      21.708  41.503  27.701  1.00  0.00    -0.507 OA
ATOM     25  H   UNL     1      21.283  42.311  28.130  1.00  0.00     0.293 HD
ENDBRANCH   6  24
BRANCH   8  26
ATOM     26  O   UNL     1      25.153  44.050  25.533  1.00  0.00    -0.508 OA
ATOM     27  H   UNL     1      24.889  44.373  24.609  1.00  0.00     0.293 HD
ENDBRANCH   8  26
TORSDOF 6
ENDMDL
MODEL 4
REMARK VINA RESULT:    -7.117      3.133      4.439
REMARK INTER + INTRA:          -8.973
REMARK INTER:                  -8.668
REMARK INTRA:                  -0.304
REMARK UNBOUND:                -0.399
REMARK SMILES O=c1c(O)c(-c2ccc(O)cc2O)oc2cc(O)cc(O)c12
REMARK SMILES IDX 5 1 3 2 2 3 1 4 22 5 20 6 19 7 17 8 16 9 15 10 14 11 6 12
REMARK SMILES IDX 8 13 7 14 9 15 11 16 12 17 10 18 13 20 4 22 21 24 18 26
REMARK H PARENT 10 19 13 21 4 23 21 25 18 27
REMARK Flexibility Score: inf
ROOT
ATOM      1  C   UNL     1      26.526  38.196  27.519  1.00  0.00     0.184 A 
ATOM      2  C   UNL     1      26.013  37.589  26.362  1.00  0.00     0.208 A 
ATOM      3  C   UNL     1      25.176  38.334  25.516  1.00  0.00     0.238 A 
ATOM      4  O   UNL     1      24.763  37.802  24.454  1.00  0.00    -0.285 OA
ATOM      5  C   UNL     1      24.850  39.671  25.850  1.00  0.00     0.111 A 
ATOM      6  C   UNL     1      23.980  40.507  25.087  1.00  0.00     0.134 A 
ATOM      7  C   UNL     1      23.832  41.854  25.439  1.00  0.00     0.093 A 
ATOM      8  C   UNL     1      24.472  42.379  26.566  1.00  0.00     0.123 A 
ATOM      9  C   UNL     1      25.277  41.556  27.349  1.00  0.00     0.094 A 
ATOM     10  C   UNL     1      25.473  40.217  27.003  1.00  0.00     0.146 A 
ATOM     11  O   UNL     1      26.257  39.472  27.772  1.00  0.00    -0.451 OA
ENDROOT
BRANCH   1  12
ATOM     12  C   UNL     1      27.398  37.462  28.459  1.00  0.00     0.063 A 
ATOM     13  C   UNL     1      29.583  37.206  29.497  1.00  0.00     0.047 A 
ATOM     14  C   UNL     1      28.733  37.874  28.612  1.00  0.00     0.020 A 
ATOM     15  C   UNL     1      29.109  36.129  30.249  1.00  0.00     0.119 A 
ATOM     16  C   UNL     1      27.773  35.725  30.122  1.00  0.00     0.093 A 
ATOM     17  C   UNL     1      26.911  36.394  29.241  1.00  0.00     0.130 A 
BRANCH  15  18
ATOM     18  O   UNL     1      29.970  35.470  31.125  1.00  0.00    -0.508 OA
ATOM     19  H   UNL     1      30.957  35.696  31.168  1.00  0.00     0.293 HD
ENDBRANCH  15  18
BRANCH  17  20
ATOM     20  O   UNL     1      25.571  36.014  29.160  1.00  0.00    -0.507 OA
ATOM     21  H   UNL     1      25.064  36.040  28.284  1.00  0.00     0.293 HD
ENDBRANCH  17  20
ENDBRANCH   1  12
BRANCH   2  22
ATOM     22  O   UNL     1      26.366  36.273  26.048  1.00  0.00    -0.502 OA
ATOM     23  H   UNL     1      25.755  35.488  26.238  1.00  0.00     0.293 HD
ENDBRANCH   2  22
BRANCH   6  24
ATOM     24  O   UNL     1      23.222  40.060  24.001  1.00  0.00    -0.507 OA
ATOM     25  H   UNL     1      22.827  40.657  23.290  1.00  0.00     0.293 HD
ENDBRANCH   6  24
BRANCH   8  26
ATOM     26  O   UNL     1      24.307  43.717  26.917  1.00  0.00    -0.508 OA
ATOM     27  H   UNL     1      23.994  43.988  27.842  1.00  0.00     0.293 HD
ENDBRANCH   8  26
TORSDOF 6
ENDMDL
MODEL 5
REMARK VINA RESULT:    -7.007      3.843      6.680
REMARK INTER + INTRA:          -8.840
REMARK INTER:                  -8.433
REMARK INTRA:                  -0.407
REMARK UNBOUND:                -0.399
REMARK SMILES O=c1c(O)c(-c2ccc(O)cc2O)oc2cc(O)cc(O)c12
REMARK SMILES IDX 5 1 3 2 2 3 1 4 22 5 20 6 19 7 17 8 16 9 15 10 14 11 6 12
REMARK SMILES IDX 8 13 7 14 9 15 11 16 12 17 10 18 13 20 4 22 21 24 18 26
REMARK H PARENT 10 19 13 21 4 23 21 25 18 27
REMARK Flexibility Score: inf
ROOT
ATOM      1  C   UNL     1      28.171  40.281  27.697  1.00  0.00     0.184 A 
ATOM      2  C   UNL     1      28.708  39.854  28.922  1.00  0.00     0.208 A 
ATOM      3  C   UNL     1      28.837  38.477  29.166  1.00  0.00     0.238 A 
ATOM      4  O   UNL     1      29.368  38.102  30.242  1.00  0.00    -0.285 OA
ATOM      5  C   UNL     1      28.409  37.547  28.188  1.00  0.00     0.111 A 
ATOM      6  C   UNL     1      28.455  36.129  28.343  1.00  0.00     0.134 A 
ATOM      7  C   UNL     1      28.128  35.304  27.260  1.00  0.00     0.093 A 
ATOM      8  C   UNL     1      27.693  35.846  26.048  1.00  0.00     0.123 A 
ATOM      9  C   UNL     1      27.590  37.227  25.905  1.00  0.00     0.094 A 
ATOM     10  C   UNL     1      27.944  38.077  26.955  1.00  0.00     0.146 A 
ATOM     11  O   UNL     1      27.841  39.388  26.772  1.00  0.00    -0.451 OA
ENDROOT
BRANCH   1  12
ATOM     12  C   UNL     1      27.994  41.714  27.385  1.00  0.00     0.063 A 
ATOM     13  C   UNL     1      26.622  43.718  27.527  1.00  0.00     0.047 A 
ATOM     14  C   UNL     1      26.819  42.362  27.800  1.00  0.00     0.020 A 
ATOM     15  C   UNL     1      27.602  44.447  26.848  1.00  0.00     0.119 A 
ATOM     16  C   UNL     1      28.788  43.817  26.451  1.00  0.00     0.093 A 
ATOM     17  C   UNL     1      28.996  42.457  26.726  1.00  0.00     0.130 A 
BRANCH  15  18
ATOM     18  O   UNL     1      27.390  45.798  26.579  1.00  0.00    -0.508 OA
ATOM     19  H   UNL     1      26.566  46.282  26.913  1.00  0.00     0.293 HD
ENDBRANCH  15  18
BRANCH  17  20
ATOM     20  O   UNL     1      30.202  41.854  26.369  1.00  0.00    -0.507 OA
ATOM     21  H   UNL     1      30.564  41.052  26.870  1.00  0.00     0.293 HD
ENDBRANCH  17  20
ENDBRANCH   1  12
BRANCH   2  22
ATOM     22  O   UNL     1      29.139  40.795  29.862  1.00  0.00    -0.502 OA
ATOM     23  H   UNL     1      29.080  41.792  29.697  1.00  0.00     0.293 HD
ENDBRANCH   2  22
BRANCH   6  24
ATOM     24  O   UNL     1      28.785  35.486  29.540  1.00  0.00    -0.507 OA
ATOM     25  H   UNL     1      28.261  34.727  29.949  1.00  0.00     0.293 HD
ENDBRANCH   6  24
BRANCH   8  26
ATOM     26  O   UNL     1      27.356  35.016  24.980  1.00  0.00    -0.508 OA
ATOM     27  H   UNL     1      27.375  35.349  24.024  1.00  0.00     0.293 HD
ENDBRANCH   8  26
TORSDOF 6
ENDMDL
MODEL 6
REMARK VINA RESULT:    -6.953      4.530      6.628
REMARK INTER + INTRA:          -8.775
REMARK INTER:                  -8.366
REMARK INTRA:                  -0.408
REMARK UNBOUND:                -0.399
REMARK SMILES O=c1c(O)c(-c2ccc(O)cc2O)oc2cc(O)cc(O)c12
REMARK SMILES IDX 5 1 3 2 2 3 1 4 22 5 20 6 19 7 17 8 16 9 15 10 14 11 6 12
REMARK SMILES IDX 8 13 7 14 9 15 11 16 12 17 10 18 13 20 4 22 21 24 18 26
REMARK H PARENT 10 19 13 21 4 23 21 25 18 27
REMARK Flexibility Score: inf
ROOT
ATOM      1  C   UNL     1      29.193  38.813  26.634  1.00  0.00     0.184 A 
ATOM      2  C   UNL     1      28.820  38.327  25.371  1.00  0.00     0.208 A 
ATOM      3  C   UNL     1      28.669  39.233  24.309  1.00  0.00     0.238 A 
ATOM      4  O   UNL     1      28.387  38.785  23.168  1.00  0.00    -0.285 OA
ATOM      5  C   UNL     1      28.877  40.616  24.531  1.00  0.00     0.111 A 
ATOM      6  C   UNL     1      28.714  41.629  23.539  1.00  0.00     0.134 A 
ATOM      7  C   UNL     1      29.073  42.950  23.834  1.00  0.00     0.093 A 
ATOM      8  C   UNL     1      29.527  43.305  25.107  1.00  0.00     0.123 A 
ATOM      9  C   UNL     1      29.635  42.334  26.099  1.00  0.00     0.094 A 
ATOM     10  C   UNL     1      29.319  41.001  25.824  1.00  0.00     0.146 A 
ATOM     11  O   UNL     1      29.446  40.106  26.796  1.00  0.00    -0.451 OA
ENDROOT
BRANCH   1  12
ATOM     12  C   UNL     1      29.352  37.914  27.796  1.00  0.00     0.063 A 
ATOM     13  C   UNL     1      30.648  36.198  28.932  1.00  0.00     0.047 A 
ATOM     14  C   UNL     1      30.463  37.056  27.845  1.00  0.00     0.020 A 
ATOM     15  C   UNL     1      29.734  36.196  29.989  1.00  0.00     0.119 A 
ATOM     16  C   UNL     1      28.635  37.065  29.961  1.00  0.00     0.093 A 
ATOM     17  C   UNL     1      28.446  37.934  28.876  1.00  0.00     0.130 A 
BRANCH  15  18
ATOM     18  O   UNL     1      29.929  35.331  31.065  1.00  0.00    -0.508 OA
ATOM     19  H   UNL     1      29.487  35.494  31.962  1.00  0.00     0.293 HD
ENDBRANCH  15  18
BRANCH  17  20
ATOM     20  O   UNL     1      27.376  38.829  28.883  1.00  0.00    -0.507 OA
ATOM     21  H   UNL     1      27.514  39.824  28.759  1.00  0.00     0.293 HD
ENDBRANCH  17  20
ENDBRANCH   1  12
BRANCH   2  22
ATOM     22  O   UNL     1      28.638  36.954  25.176  1.00  0.00    -0.502 OA
ATOM     23  H   UNL     1      28.516  36.309  25.947  1.00  0.00     0.293 HD
ENDBRANCH   2  22
BRANCH   6  24
ATOM     24  O   UNL     1      28.181  41.397  22.267  1.00  0.00    -0.507 OA
ATOM     25  H   UNL     1      28.594  40.796  21.571  1.00  0.00     0.293 HD
ENDBRANCH   6  24
BRANCH   8  26
ATOM     26  O   UNL     1      29.868  44.625  25.396  1.00  0.00    -0.508 OA
ATOM     27  H   UNL     1      30.819  44.960  25.299  1.00  0.00     0.293 HD
ENDBRANCH   8  26
TORSDOF 6
ENDMDL
MODEL 7
REMARK VINA RESULT:    -6.897      3.334      3.627
REMARK INTER + INTRA:          -8.707
REMARK INTER:                  -8.585
REMARK INTRA:                  -0.122
REMARK UNBOUND:                -0.399
REMARK SMILES O=c1c(O)c(-c2ccc(O)cc2O)oc2cc(O)cc(O)c12
REMARK SMILES IDX 5 1 3 2 2 3 1 4 22 5 20 6 19 7 17 8 16 9 15 10 14 11 6 12
REMARK SMILES IDX 8 13 7 14 9 15 11 16 12 17 10 18 13 20 4 22 21 24 18 26
REMARK H PARENT 10 19 13 21 4 23 21 25 18 27
REMARK Flexibility Score: inf
ROOT
ATOM      1  C   UNL     1      26.598  38.599  27.789  1.00  0.00     0.184 A 
ATOM      2  C   UNL     1      26.577  39.994  27.948  1.00  0.00     0.208 A 
ATOM      3  C   UNL     1      25.755  40.762  27.108  1.00  0.00     0.238 A 
ATOM      4  O   UNL     1      25.699  42.006  27.291  1.00  0.00    -0.285 OA
ATOM      5  C   UNL     1      24.979  40.125  26.110  1.00  0.00     0.111 A 
ATOM      6  C   UNL     1      24.141  40.807  25.177  1.00  0.00     0.134 A 
ATOM      7  C   UNL     1      23.318  40.068  24.318  1.00  0.00     0.093 A 
ATOM      8  C   UNL     1      23.352  38.671  24.314  1.00  0.00     0.123 A 
ATOM      9  C   UNL     1      24.210  37.997  25.180  1.00  0.00     0.094 A 
ATOM     10  C   UNL     1      25.016  38.706  26.074  1.00  0.00     0.146 A 
ATOM     11  O   UNL     1      25.810  38.024  26.890  1.00  0.00    -0.451 OA
ENDROOT
BRANCH   1  12
ATOM     12  C   UNL     1      27.454  37.735  28.630  1.00  0.00     0.063 A 
ATOM     13  C   UNL     1      29.620  37.325  29.657  1.00  0.00     0.047 A 
ATOM     14  C   UNL     1      28.786  38.116  28.862  1.00  0.00     0.020 A 
ATOM     15  C   UNL     1      29.131  36.154  30.240  1.00  0.00     0.119 A 
ATOM     16  C   UNL     1      27.797  35.778  30.035  1.00  0.00     0.093 A 
ATOM     17  C   UNL     1      26.951  36.569  29.243  1.00  0.00     0.130 A 
BRANCH  15  18
ATOM     18  O   UNL     1      29.976  35.373  31.027  1.00  0.00    -0.508 OA
ATOM     19  H   UNL     1      29.816  34.381  31.153  1.00  0.00     0.293 HD
ENDBRANCH  15  18
BRANCH  17  20
ATOM     20  O   UNL     1      25.612  36.210  29.087  1.00  0.00    -0.507 OA
ATOM     21  H   UNL     1      24.864  36.881  29.210  1.00  0.00     0.293 HD
ENDBRANCH  17  20
ENDBRANCH   1  12
BRANCH   2  22
ATOM     22  O   UNL     1      27.340  40.595  28.954  1.00  0.00    -0.502 OA
ATOM     23  H   UNL     1      27.839  41.464  28.811  1.00  0.00     0.293 HD
ENDBRANCH   2  22
BRANCH   6  24
ATOM     24  O   UNL     1      24.101  42.197  25.036  1.00  0.00    -0.507 OA
ATOM     25  H   UNL     1      23.262  42.756  25.077  1.00  0.00     0.293 HD
ENDBRANCH   6  24
BRANCH   8  26
ATOM     26  O   UNL     1      22.541  37.944  23.446  1.00  0.00    -0.508 OA
ATOM     27  H   UNL     1      22.741  36.978  23.217  1.00  0.00     0.293 HD
ENDBRANCH   8  26
TORSDOF 6
ENDMDL
MODEL 8
REMARK VINA RESULT:    -6.835      2.748      7.037
REMARK INTER + INTRA:          -8.632
REMARK INTER:                  -8.210
REMARK INTRA:                  -0.422
REMARK UNBOUND:                -0.399
REMARK SMILES O=c1c(O)c(-c2ccc(O)cc2O)oc2cc(O)cc(O)c12
REMARK SMILES IDX 5 1 3 2 2 3 1 4 22 5 20 6 19 7 17 8 16 9 15 10 14 11 6 12
REMARK SMILES IDX 8 13 7 14 9 15 11 16 12 17 10 18 13 20 4 22 21 24 18 26
REMARK H PARENT 10 19 13 21 4 23 21 25 18 27
REMARK Flexibility Score: inf
ROOT
ATOM      1  C   UNL     1      26.838  39.471  26.968  1.00  0.00     0.184 A 
ATOM      2  C   UNL     1      27.512  39.100  25.794  1.00  0.00     0.208 A 
ATOM      3  C   UNL     1      28.629  38.255  25.887  1.00  0.00     0.238 A 
ATOM      4  O   UNL     1      29.196  37.883  24.828  1.00  0.00    -0.285 OA
ATOM      5  C   UNL     1      29.066  37.806  27.157  1.00  0.00     0.111 A 
ATOM      6  C   UNL     1      30.208  36.979  27.375  1.00  0.00     0.134 A 
ATOM      7  C   UNL     1      30.472  36.488  28.660  1.00  0.00     0.093 A 
ATOM      8  C   UNL     1      29.671  36.849  29.747  1.00  0.00     0.123 A 
ATOM      9  C   UNL     1      28.588  37.702  29.554  1.00  0.00     0.094 A 
ATOM     10  C   UNL     1      28.278  38.179  28.278  1.00  0.00     0.146 A 
ATOM     11  O   UNL     1      27.230  38.981  28.138  1.00  0.00    -0.451 OA
ENDROOT
BRANCH   1  12
ATOM     12  C   UNL     1      25.666  40.371  26.940  1.00  0.00     0.063 A 
ATOM     13  C   UNL     1      24.776  42.614  26.637  1.00  0.00     0.047 A 
ATOM     14  C   UNL     1      25.863  41.737  26.677  1.00  0.00     0.020 A 
ATOM     15  C   UNL     1      23.480  42.137  26.845  1.00  0.00     0.119 A 
ATOM     16  C   UNL     1      23.270  40.772  27.084  1.00  0.00     0.093 A 
ATOM     17  C   UNL     1      24.355  39.884  27.120  1.00  0.00     0.130 A 
BRANCH  15  18
ATOM     18  O   UNL     1      22.406  43.025  26.806  1.00  0.00    -0.508 OA
ATOM     19  H   UNL     1      21.679  42.946  26.105  1.00  0.00     0.293 HD
ENDBRANCH  15  18
BRANCH  17  20
ATOM     20  O   UNL     1      24.128  38.521  27.310  1.00  0.00    -0.507 OA
ATOM     21  H   UNL     1      23.830  37.920  26.551  1.00  0.00     0.293 HD
ENDBRANCH  17  20
ENDBRANCH   1  12
BRANCH   2  22
ATOM     22  O   UNL     1      27.048  39.544  24.552  1.00  0.00    -0.502 OA
ATOM     23  H   UNL     1      26.870  40.522  24.357  1.00  0.00     0.293 HD
ENDBRANCH   2  22
BRANCH   6  24
ATOM     24  O   UNL     1      31.125  36.636  26.376  1.00  0.00    -0.507 OA
ATOM     25  H   UNL     1      31.573  37.294  25.756  1.00  0.00     0.293 HD
ENDBRANCH   6  24
BRANCH   8  26
ATOM     26  O   UNL     1      29.949  36.367  31.024  1.00  0.00    -0.508 OA
ATOM     27  H   UNL     1      29.375  36.616  31.821  1.00  0.00     0.293 HD
ENDBRANCH   8  26
TORSDOF 6
ENDMDL
MODEL 9
REMARK VINA RESULT:    -6.822      4.283      7.543
REMARK INTER + INTRA:          -8.617
REMARK INTER:                  -8.217
REMARK INTRA:                  -0.400
REMARK UNBOUND:                -0.399
REMARK SMILES O=c1c(O)c(-c2ccc(O)cc2O)oc2cc(O)cc(O)c12
REMARK SMILES IDX 5 1 3 2 2 3 1 4 22 5 20 6 19 7 17 8 16 9 15 10 14 11 6 12
REMARK SMILES IDX 8 13 7 14 9 15 11 16 12 17 10 18 13 20 4 22 21 24 18 26
REMARK H PARENT 10 19 13 21 4 23 21 25 18 27
REMARK Flexibility Score: inf
ROOT
ATOM      1  C   UNL     1      28.254  40.683  27.108  1.00  0.00     0.184 A 
ATOM      2  C   UNL     1      28.684  40.077  25.917  1.00  0.00     0.208 A 
ATOM      3  C   UNL     1      29.335  38.835  25.981  1.00  0.00     0.238 A 
ATOM      4  O   UNL     1      29.670  38.272  24.907  1.00  0.00    -0.285 OA
ATOM      5  C   UNL     1      29.561  38.224  27.238  1.00  0.00     0.111 A 
ATOM      6  C   UNL     1      30.246  36.986  27.426  1.00  0.00     0.134 A 
ATOM      7  C   UNL     1      30.298  36.411  28.702  1.00  0.00     0.093 A 
ATOM      8  C   UNL     1      29.747  37.063  29.808  1.00  0.00     0.123 A 
ATOM      9  C   UNL     1      29.128  38.300  29.645  1.00  0.00     0.094 A 
ATOM     10  C   UNL     1      29.028  38.881  28.378  1.00  0.00     0.146 A 
ATOM     11  O   UNL     1      28.420  40.056  28.266  1.00  0.00    -0.451 OA
ENDROOT
BRANCH   1  12
ATOM     12  C   UNL     1      27.578  41.997  27.111  1.00  0.00     0.063 A 
ATOM     13  C   UNL     1      27.696  44.395  26.725  1.00  0.00     0.047 A 
ATOM     14  C   UNL     1      28.307  43.138  26.739  1.00  0.00     0.020 A 
ATOM     15  C   UNL     1      26.348  44.526  27.067  1.00  0.00     0.119 A 
ATOM     16  C   UNL     1      25.606  43.390  27.416  1.00  0.00     0.093 A 
ATOM     17  C   UNL     1      26.209  42.124  27.428  1.00  0.00     0.130 A 
BRANCH  15  18
ATOM     18  O   UNL     1      25.754  45.786  27.052  1.00  0.00    -0.508 OA
ATOM     19  H   UNL     1      25.246  46.142  27.853  1.00  0.00     0.293 HD
ENDBRANCH  15  18
BRANCH  17  20
ATOM     20  O   UNL     1      25.447  40.995  27.729  1.00  0.00    -0.507 OA
ATOM     21  H   UNL     1      25.735  40.067  27.444  1.00  0.00     0.293 HD
ENDBRANCH  17  20
ENDBRANCH   1  12
BRANCH   2  22
ATOM     22  O   UNL     1      28.431  40.695  24.688  1.00  0.00    -0.502 OA
ATOM     23  H   UNL     1      27.493  40.838  24.336  1.00  0.00     0.293 HD
ENDBRANCH   2  22
BRANCH   6  24
ATOM     24  O   UNL     1      30.910  36.300  26.405  1.00  0.00    -0.507 OA
ATOM     25  H   UNL     1      30.887  36.556  25.430  1.00  0.00     0.293 HD
ENDBRANCH   6  24
BRANCH   8  26
ATOM     26  O   UNL     1      29.816  36.491  31.077  1.00  0.00    -0.508 OA
ATOM     27  H   UNL     1      29.906  37.059  31.910  1.00  0.00     0.293 HD
ENDBRANCH   8  26
TORSDOF 6
ENDMDL
