MODEL 1
REMARK VINA RESULT:    -5.097      0.000      0.000
REMARK INTER + INTRA:          -5.097
REMARK INTER:                  -5.097
REMARK INTRA:                   0.000
REMARK UNBOUND:                 0.000
REMARK SMILES CC1=CC[C@]23C[C@H]1C(C)(C)[C@H]2CC[C@@H]3C
REMARK SMILES IDX 15 1 14 2 13 3 12 4 11 5 5 6 4 7 3 8 2 9 7 10 6 11 8 12 9 13
REMARK SMILES IDX 10 14 1 15
REMARK H PARENT
REMARK Flexibility Score: inf
ROOT
ATOM      1  C   UNL     1     137.343 140.693 133.573  1.00  0.00     0.008 C 
ATOM      2  C   UNL     1     137.936 140.126 134.871  1.00  0.00    -0.007 C 
ATOM      3  C   UNL     1     136.859 139.965 135.946  1.00  0.00     0.004 C 
ATOM      4  C   UNL     1     137.397 138.897 136.880  1.00  0.00     0.005 C 
ATOM      5  C   UNL     1     138.093 137.897 135.948  1.00  0.00     0.002 C 
ATOM      6  C   UNL     1     138.634 138.734 134.766  1.00  0.00    -0.020 C 
ATOM      7  C   UNL     1     138.426 137.963 133.419  1.00  0.00     0.035 C 
ATOM      8  C   UNL     1     139.301 136.724 133.319  1.00  0.00    -0.027 C 
ATOM      9  C   UNL     1     140.290 136.476 134.212  1.00  0.00    -0.074 C 
ATOM     10  C   UNL     1     140.427 137.357 135.456  1.00  0.00     0.021 C 
ATOM     11  C   UNL     1     140.144 138.797 135.032  1.00  0.00     0.016 C 
ATOM     12  C   UNL     1     139.307 137.068 136.501  1.00  0.00    -0.025 C 
ATOM     13  C   UNL     1     139.795 137.504 137.907  1.00  0.00     0.012 C 
ATOM     14  C   UNL     1     138.942 135.565 136.598  1.00  0.00     0.012 C 
ATOM     15  C   UNL     1     141.210 135.307 134.002  1.00  0.00     0.039 C 
ENDROOT
TORSDOF 0
ENDMDL
MODEL 2
REMARK VINA RESULT:    -5.057      3.287      5.163
REMARK INTER + INTRA:          -5.057
REMARK INTER:                  -5.057
REMARK INTRA:                   0.000
REMARK UNBOUND:                 0.000
REMARK SMILES CC1=CC[C@]23C[C@H]1C(C)(C)[C@H]2CC[C@@H]3C
REMARK SMILES IDX 15 1 14 2 13 3 12 4 11 5 5 6 4 7 3 8 2 9 7 10 6 11 8 12 9 13
REMARK SMILES IDX 10 14 1 15
REMARK H PARENT
REMARK Flexibility Score: inf
ROOT
ATOM      1  C   UNL     1     140.717 135.273 133.543  1.00  0.00     0.008 C 
ATOM      2  C   UNL     1     140.144 134.715 134.855  1.00  0.00    -0.007 C 
ATOM      3  C   UNL     1     139.981 135.819 135.901  1.00  0.00     0.004 C 
ATOM      4  C   UNL     1     138.909 135.309 136.844  1.00  0.00     0.005 C 
ATOM      5  C   UNL     1     137.910 134.592 135.928  1.00  0.00     0.002 C 
ATOM      6  C   UNL     1     138.750 134.018 134.763  1.00  0.00    -0.020 C 
ATOM      7  C   UNL     1     137.984 134.193 133.409  1.00  0.00     0.035 C 
ATOM      8  C   UNL     1     136.743 133.319 133.327  1.00  0.00    -0.027 C 
ATOM      9  C   UNL     1     136.490 132.355 134.243  1.00  0.00    -0.074 C 
ATOM     10  C   UNL     1     137.366 132.247 135.494  1.00  0.00     0.021 C 
ATOM     11  C   UNL     1     138.808 132.515 135.068  1.00  0.00     0.016 C 
ATOM     12  C   UNL     1     137.077 133.395 136.508  1.00  0.00    -0.025 C 
ATOM     13  C   UNL     1     137.506 132.941 137.928  1.00  0.00     0.012 C 
ATOM     14  C   UNL     1     135.574 133.766 136.591  1.00  0.00     0.012 C 
ATOM     15  C   UNL     1     135.318 131.432 134.053  1.00  0.00     0.039 C 
ENDROOT
TORSDOF 0
ENDMDL
MODEL 3
REMARK VINA RESULT:    -5.056      3.217      5.801
REMARK INTER + INTRA:          -5.056
REMARK INTER:                  -5.056
REMARK INTRA:                   0.000
REMARK UNBOUND:                 0.000
REMARK SMILES CC1=CC[C@]23C[C@H]1C(C)(C)[C@H]2CC[C@@H]3C
REMARK SMILES IDX 15 1 14 2 13 3 12 4 11 5 5 6 4 7 3 8 2 9 7 10 6 11 8 12 9 13
REMARK SMILES IDX 10 14 1 15
REMARK H PARENT
REMARK Flexibility Score: inf
ROOT
ATOM      1  C   UNL     1     135.422 131.619 134.073  1.00  0.00     0.008 C 
ATOM      2  C   UNL     1     136.799 132.289 133.956  1.00  0.00    -0.007 C 
ATOM      3  C   UNL     1     136.791 133.387 132.890  1.00  0.00     0.004 C 
ATOM      4  C   UNL     1     137.922 134.318 133.281  1.00  0.00     0.005 C 
ATOM      5  C   UNL     1     137.866 134.358 134.813  1.00  0.00     0.002 C 
ATOM      6  C   UNL     1     137.355 132.965 135.249  1.00  0.00    -0.020 C 
ATOM      7  C   UNL     1     136.345 133.108 136.436  1.00  0.00     0.035 C 
ATOM      8  C   UNL     1     137.016 133.581 137.715  1.00  0.00    -0.027 C 
ATOM      9  C   UNL     1     138.364 133.645 137.831  1.00  0.00    -0.074 C 
ATOM     10  C   UNL     1     139.243 133.410 136.600  1.00  0.00     0.021 C 
ATOM     11  C   UNL     1     138.612 132.275 135.795  1.00  0.00     0.016 C 
ATOM     12  C   UNL     1     139.194 134.615 135.611  1.00  0.00    -0.025 C 
ATOM     13  C   UNL     1     140.478 134.614 134.741  1.00  0.00     0.012 C 
ATOM     14  C   UNL     1     139.141 135.987 136.331  1.00  0.00     0.012 C 
ATOM     15  C   UNL     1     138.985 133.997 139.153  1.00  0.00     0.039 C 
ENDROOT
TORSDOF 0
ENDMDL
MODEL 4
REMARK VINA RESULT:    -5.046      5.481      7.295
REMARK INTER + INTRA:          -5.046
REMARK INTER:                  -5.046
REMARK INTRA:                   0.000
REMARK UNBOUND:                 0.000
REMARK SMILES CC1=CC[C@]23C[C@H]1C(C)(C)[C@H]2CC[C@@H]3C
REMARK SMILES IDX 15 1 14 2 13 3 12 4 11 5 5 6 4 7 3 8 2 9 7 10 6 11 8 12 9 13
REMARK SMILES IDX 10 14 1 15
REMARK H PARENT
REMARK Flexibility Score: inf
ROOT
ATOM      1  C   UNL     1     135.396 131.888 133.651  1.00  0.00     0.008 C 
ATOM      2  C   UNL     1     134.814 132.478 134.944  1.00  0.00    -0.007 C 
ATOM      3  C   UNL     1     135.905 132.687 135.996  1.00  0.00     0.004 C 
ATOM      4  C   UNL     1     135.364 133.769 136.910  1.00  0.00     0.005 C 
ATOM      5  C   UNL     1     134.636 134.732 135.965  1.00  0.00     0.002 C 
ATOM      6  C   UNL     1     134.091 133.856 134.814  1.00  0.00    -0.020 C 
ATOM      7  C   UNL     1     134.263 134.595 133.445  1.00  0.00     0.035 C 
ATOM      8  C   UNL     1     133.365 135.815 133.327  1.00  0.00    -0.027 C 
ATOM      9  C   UNL     1     132.387 136.070 134.229  1.00  0.00    -0.074 C 
ATOM     10  C   UNL     1     132.285 135.219 135.498  1.00  0.00     0.021 C 
ATOM     11  C   UNL     1     132.587 133.774 135.106  1.00  0.00     0.016 C 
ATOM     12  C   UNL     1     133.417 135.554 136.516  1.00  0.00    -0.025 C 
ATOM     13  C   UNL     1     132.959 135.148 137.941  1.00  0.00     0.012 C 
ATOM     14  C   UNL     1     133.757 137.066 136.568  1.00  0.00     0.012 C 
ATOM     15  C   UNL     1     131.444 137.217 134.004  1.00  0.00     0.039 C 
ENDROOT
TORSDOF 0
ENDMDL
MODEL 5
REMARK VINA RESULT:    -5.046      1.061      4.106
REMARK INTER + INTRA:          -5.046
REMARK INTER:                  -5.046
REMARK INTRA:                   0.000
REMARK UNBOUND:                 0.000
REMARK SMILES CC1=CC[C@]23C[C@H]1C(C)(C)[C@H]2CC[C@@H]3C
REMARK SMILES IDX 15 1 14 2 13 3 12 4 11 5 5 6 4 7 3 8 2 9 7 10 6 11 8 12 9 13
REMARK SMILES IDX 10 14 1 15
REMARK H PARENT
REMARK Flexibility Score: inf
ROOT
ATOM      1  C   UNL     1     140.877 135.436 134.012  1.00  0.00     0.008 C 
ATOM      2  C   UNL     1     140.198 136.810 133.910  1.00  0.00    -0.007 C 
ATOM      3  C   UNL     1     139.071 136.795 132.875  1.00  0.00     0.004 C 
ATOM      4  C   UNL     1     138.146 137.923 133.289  1.00  0.00     0.005 C 
ATOM      5  C   UNL     1     138.149 137.870 134.821  1.00  0.00     0.002 C 
ATOM      6  C   UNL     1     139.555 137.366 135.220  1.00  0.00    -0.020 C 
ATOM      7  C   UNL     1     139.449 136.358 136.413  1.00  0.00     0.035 C 
ATOM      8  C   UNL     1     139.009 137.030 137.703  1.00  0.00    -0.027 C 
ATOM      9  C   UNL     1     138.943 138.378 137.817  1.00  0.00    -0.074 C 
ATOM     10  C   UNL     1     139.139 139.255 136.578  1.00  0.00     0.021 C 
ATOM     11  C   UNL     1     140.255 138.627 135.744  1.00  0.00     0.016 C 
ATOM     12  C   UNL     1     137.908 139.199 135.623  1.00  0.00    -0.025 C 
ATOM     13  C   UNL     1     137.880 140.481 134.750  1.00  0.00     0.012 C 
ATOM     14  C   UNL     1     136.556 139.142 136.380  1.00  0.00     0.012 C 
ATOM     15  C   UNL     1     138.624 139.000 139.147  1.00  0.00     0.039 C 
ENDROOT
TORSDOF 0
ENDMDL
MODEL 6
REMARK VINA RESULT:    -5.043      3.342      5.202
REMARK INTER + INTRA:          -5.043
REMARK INTER:                  -5.043
REMARK INTRA:                   0.000
REMARK UNBOUND:                 0.000
REMARK SMILES CC1=CC[C@]23C[C@H]1C(C)(C)[C@H]2CC[C@@H]3C
REMARK SMILES IDX 15 1 14 2 13 3 12 4 11 5 5 6 4 7 3 8 2 9 7 10 6 11 8 12 9 13
REMARK SMILES IDX 10 14 1 15
REMARK H PARENT
REMARK Flexibility Score: inf
ROOT
ATOM      1  C   UNL     1     131.885 137.298 133.641  1.00  0.00     0.008 C 
ATOM      2  C   UNL     1     132.485 137.860 134.938  1.00  0.00    -0.007 C 
ATOM      3  C   UNL     1     132.689 136.755 135.977  1.00  0.00     0.004 C 
ATOM      4  C   UNL     1     133.779 137.277 136.893  1.00  0.00     0.005 C 
ATOM      5  C   UNL     1     134.745 138.008 135.952  1.00  0.00     0.002 C 
ATOM      6  C   UNL     1     133.868 138.574 134.812  1.00  0.00    -0.020 C 
ATOM      7  C   UNL     1     134.600 138.412 133.437  1.00  0.00     0.035 C 
ATOM      8  C   UNL     1     135.827 139.301 133.324  1.00  0.00    -0.027 C 
ATOM      9  C   UNL     1     136.093 140.266 134.237  1.00  0.00    -0.074 C 
ATOM     10  C   UNL     1     135.249 140.360 135.510  1.00  0.00     0.021 C 
ATOM     11  C   UNL     1     133.799 140.075 135.122  1.00  0.00     0.016 C 
ATOM     12  C   UNL     1     135.579 139.213 136.514  1.00  0.00    -0.025 C 
ATOM     13  C   UNL     1     135.182 139.658 137.946  1.00  0.00     0.012 C 
ATOM     14  C   UNL     1     137.088 138.861 136.555  1.00  0.00     0.012 C 
ATOM     15  C   UNL     1     137.248 141.203 134.018  1.00  0.00     0.039 C 
ENDROOT
TORSDOF 0
ENDMDL
MODEL 7
REMARK VINA RESULT:    -5.030      5.601      7.068
REMARK INTER + INTRA:          -5.030
REMARK INTER:                  -5.030
REMARK INTRA:                   0.000
REMARK UNBOUND:                 0.000
REMARK SMILES CC1=CC[C@]23C[C@H]1C(C)(C)[C@H]2CC[C@@H]3C
REMARK SMILES IDX 15 1 14 2 13 3 12 4 11 5 5 6 4 7 3 8 2 9 7 10 6 11 8 12 9 13
REMARK SMILES IDX 10 14 1 15
REMARK H PARENT
REMARK Flexibility Score: inf
ROOT
ATOM      1  C   UNL     1     131.566 137.222 134.003  1.00  0.00     0.008 C 
ATOM      2  C   UNL     1     132.275 135.864 133.901  1.00  0.00    -0.007 C 
ATOM      3  C   UNL     1     133.410 135.907 132.875  1.00  0.00     0.004 C 
ATOM      4  C   UNL     1     134.356 134.798 133.292  1.00  0.00     0.005 C 
ATOM      5  C   UNL     1     134.340 134.844 134.825  1.00  0.00     0.002 C 
ATOM      6  C   UNL     1     132.920 135.317 135.214  1.00  0.00    -0.020 C 
ATOM      7  C   UNL     1     132.996 136.323 136.411  1.00  0.00     0.035 C 
ATOM      8  C   UNL     1     133.440 135.656 137.702  1.00  0.00    -0.027 C 
ATOM      9  C   UNL     1     133.535 134.309 137.812  1.00  0.00    -0.074 C 
ATOM     10  C   UNL     1     133.367 133.432 136.569  1.00  0.00     0.021 C 
ATOM     11  C   UNL     1     132.244 134.039 135.728  1.00  0.00     0.016 C 
ATOM     12  C   UNL     1     134.604 133.519 135.624  1.00  0.00    -0.025 C 
ATOM     13  C   UNL     1     134.666 132.241 134.746  1.00  0.00     0.012 C 
ATOM     14  C   UNL     1     135.948 133.602 136.392  1.00  0.00     0.012 C 
ATOM     15  C   UNL     1     133.856 133.689 139.143  1.00  0.00     0.039 C 
ENDROOT
TORSDOF 0
ENDMDL
MODEL 8
REMARK VINA RESULT:    -5.020      3.630      5.742
REMARK INTER + INTRA:          -5.020
REMARK INTER:                  -5.020
REMARK INTRA:                   0.000
REMARK UNBOUND:                 0.000
REMARK SMILES CC1=CC[C@]23C[C@H]1C(C)(C)[C@H]2CC[C@@H]3C
REMARK SMILES IDX 15 1 14 2 13 3 12 4 11 5 5 6 4 7 3 8 2 9 7 10 6 11 8 12 9 13
REMARK SMILES IDX 10 14 1 15
REMARK H PARENT
REMARK Flexibility Score: inf
ROOT
ATOM      1  C   UNL     1     137.414 140.880 134.293  1.00  0.00     0.008 C 
ATOM      2  C   UNL     1     136.021 140.257 134.115  1.00  0.00    -0.007 C 
ATOM      3  C   UNL     1     136.038 139.157 133.052  1.00  0.00     0.004 C 
ATOM      4  C   UNL     1     134.859 138.266 133.393  1.00  0.00     0.005 C 
ATOM      5  C   UNL     1     134.845 138.229 134.926  1.00  0.00     0.002 C 
ATOM      6  C   UNL     1     135.384 139.604 135.382  1.00  0.00    -0.020 C 
ATOM      7  C   UNL     1     136.335 139.430 136.614  1.00  0.00     0.035 C 
ATOM      8  C   UNL     1     135.591 138.985 137.862  1.00  0.00    -0.027 C 
ATOM      9  C   UNL     1     134.238 138.968 137.917  1.00  0.00    -0.074 C 
ATOM     10  C   UNL     1     133.423 139.229 136.647  1.00  0.00     0.021 C 
ATOM     11  C   UNL     1     134.129 140.339 135.871  1.00  0.00     0.016 C 
ATOM     12  C   UNL     1     133.475 138.020 135.664  1.00  0.00    -0.025 C 
ATOM     13  C   UNL     1     132.232 138.064 134.737  1.00  0.00     0.012 C 
ATOM     14  C   UNL     1     133.447 136.650 136.387  1.00  0.00     0.012 C 
ATOM     15  C   UNL     1     133.546 138.641 139.211  1.00  0.00     0.039 C 
ENDROOT
TORSDOF 0
ENDMDL
MODEL 9
REMARK VINA RESULT:    -4.896      4.746      6.815
REMARK INTER + INTRA:          -4.896
REMARK INTER:                  -4.896
REMARK INTRA:                   0.000
REMARK UNBOUND:                 0.000
REMARK SMILES CC1=CC[C@]23C[C@H]1C(C)(C)[C@H]2CC[C@@H]3C
REMARK SMILES IDX 15 1 14 2 13 3 12 4 11 5 5 6 4 7 3 8 2 9 7 10 6 11 8 12 9 13
REMARK SMILES IDX 10 14 1 15
REMARK H PARENT
REMARK Flexibility Score: inf
ROOT
ATOM      1  C   UNL     1     136.296 133.729 138.790  1.00  0.00     0.008 C 
ATOM      2  C   UNL     1     136.983 133.549 137.428  1.00  0.00    -0.007 C 
ATOM      3  C   UNL     1     137.787 132.248 137.382  1.00  0.00     0.004 C 
ATOM      4  C   UNL     1     137.885 131.901 135.909  1.00  0.00     0.005 C 
ATOM      5  C   UNL     1     136.519 132.299 135.336  1.00  0.00     0.002 C 
ATOM      6  C   UNL     1     136.048 133.507 136.178  1.00  0.00    -0.020 C 
ATOM      7  C   UNL     1     134.515 133.395 136.473  1.00  0.00     0.035 C 
ATOM      8  C   UNL     1     133.669 133.569 135.223  1.00  0.00    -0.027 C 
ATOM      9  C   UNL     1     134.206 133.992 134.053  1.00  0.00    -0.074 C 
ATOM     10  C   UNL     1     135.725 134.129 133.921  1.00  0.00     0.021 C 
ATOM     11  C   UNL     1     136.249 134.702 135.237  1.00  0.00     0.016 C 
ATOM     12  C   UNL     1     136.430 132.742 133.833  1.00  0.00    -0.025 C 
ATOM     13  C   UNL     1     137.803 132.911 133.130  1.00  0.00     0.012 C 
ATOM     14  C   UNL     1     135.627 131.706 133.005  1.00  0.00     0.012 C 
ATOM     15  C   UNL     1     133.312 134.270 132.878  1.00  0.00     0.039 C 
ENDROOT
TORSDOF 0
ENDMDL
