MODEL 1
REMARK VINA RESULT:    -4.227      0.000      0.000
REMARK INTER + INTRA:          -4.664
REMARK INTER:                  -4.474
REMARK INTRA:                  -0.189
REMARK UNBOUND:                -0.189
REMARK SMILES CC1=CC[C@@H](C(C)C)C=C1
REMARK SMILES IDX 1 1 2 2 3 3 4 4 5 5 9 6 10 7 6 8 7 9 8 10
REMARK H PARENT
REMARK Flexibility Score: inf
ROOT
ATOM      1  C   UNL     1      13.871  65.797  16.644  1.00  0.00     0.044 C 
ATOM      2  C   UNL     1      15.240  65.279  16.319  1.00  0.00    -0.055 C 
ATOM      3  C   UNL     1      16.221  65.337  17.233  1.00  0.00    -0.023 C 
ATOM      4  C   UNL     1      17.579  64.755  16.940  1.00  0.00     0.035 C 
ATOM      5  C   UNL     1      17.957  64.964  15.452  1.00  0.00     0.018 C 
ATOM      6  C   UNL     1      16.797  64.583  14.557  1.00  0.00    -0.023 C 
ATOM      7  C   UNL     1      15.535  64.782  14.955  1.00  0.00    -0.001 C 
ENDROOT
BRANCH   5   8
ATOM      8  C   UNL     1      19.271  64.247  15.025  1.00  0.00    -0.010 C 
ATOM      9  C   UNL     1      20.097  63.796  16.238  1.00  0.00     0.008 C 
ATOM     10  C   UNL     1      19.041  63.064  14.069  1.00  0.00     0.008 C 
ENDBRANCH   5   8
TORSDOF 1
ENDMDL
MODEL 2
REMARK VINA RESULT:    -4.058      4.024      5.673
REMARK INTER + INTRA:          -4.485
REMARK INTER:                  -4.295
REMARK INTRA:                  -0.190
REMARK UNBOUND:                -0.189
REMARK SMILES CC1=CC[C@@H](C(C)C)C=C1
REMARK SMILES IDX 1 1 2 2 3 3 4 4 5 5 9 6 10 7 6 8 7 9 8 10
REMARK H PARENT
REMARK Flexibility Score: inf
ROOT
ATOM      1  C   UNL     1      22.124  63.244  20.409  1.00  0.00     0.044 C 
ATOM      2  C   UNL     1      21.950  63.164  18.922  1.00  0.00    -0.055 C 
ATOM      3  C   UNL     1      23.021  63.055  18.120  1.00  0.00    -0.023 C 
ATOM      4  C   UNL     1      22.852  62.903  16.631  1.00  0.00     0.035 C 
ATOM      5  C   UNL     1      21.648  63.737  16.127  1.00  0.00     0.018 C 
ATOM      6  C   UNL     1      20.444  63.513  17.018  1.00  0.00    -0.023 C 
ATOM      7  C   UNL     1      20.599  63.297  18.330  1.00  0.00    -0.001 C 
ENDROOT
BRANCH   5   8
ATOM      8  C   UNL     1      21.300  63.507  14.627  1.00  0.00    -0.010 C 
ATOM      9  C   UNL     1      22.424  62.768  13.887  1.00  0.00     0.008 C 
ATOM     10  C   UNL     1      19.958  62.787  14.412  1.00  0.00     0.008 C 
ENDBRANCH   5   8
TORSDOF 1
ENDMDL
MODEL 3
REMARK VINA RESULT:    -3.925      2.339      5.370
REMARK INTER + INTRA:          -4.343
REMARK INTER:                  -4.154
REMARK INTRA:                  -0.189
REMARK UNBOUND:                -0.189
REMARK SMILES CC1=CC[C@@H](C(C)C)C=C1
REMARK SMILES IDX 1 1 2 2 3 3 4 4 5 5 9 6 10 7 6 8 7 9 8 10
REMARK H PARENT
REMARK Flexibility Score: inf
ROOT
ATOM      1  C   UNL     1      22.888  63.082  19.251  1.00  0.00     0.044 C 
ATOM      2  C   UNL     1      22.036  63.184  18.022  1.00  0.00    -0.055 C 
ATOM      3  C   UNL     1      22.604  63.217  16.805  1.00  0.00    -0.023 C 
ATOM      4  C   UNL     1      21.755  63.248  15.563  1.00  0.00     0.035 C 
ATOM      5  C   UNL     1      20.477  64.094  15.792  1.00  0.00     0.018 C 
ATOM      6  C   UNL     1      19.825  63.715  17.105  1.00  0.00    -0.023 C 
ATOM      7  C   UNL     1      20.570  63.341  18.152  1.00  0.00    -0.001 C 
ENDROOT
BRANCH   5   8
ATOM      8  C   UNL     1      19.462  64.042  14.612  1.00  0.00    -0.010 C 
ATOM      9  C   UNL     1      19.398  62.647  13.974  1.00  0.00     0.008 C 
ATOM     10  C   UNL     1      18.050  64.517  14.996  1.00  0.00     0.008 C 
ENDBRANCH   5   8
TORSDOF 1
ENDMDL
MODEL 4
REMARK VINA RESULT:    -3.921      1.304      4.927
REMARK INTER + INTRA:          -4.339
REMARK INTER:                  -4.151
REMARK INTRA:                  -0.188
REMARK UNBOUND:                -0.189
REMARK SMILES CC1=CC[C@@H](C(C)C)C=C1
REMARK SMILES IDX 1 1 2 2 3 3 4 4 5 5 9 6 10 7 6 8 7 9 8 10
REMARK H PARENT
REMARK Flexibility Score: inf
ROOT
ATOM      1  C   UNL     1      22.248  62.744  14.551  1.00  0.00     0.044 C 
ATOM      2  C   UNL     1      20.865  63.255  14.823  1.00  0.00    -0.055 C 
ATOM      3  C   UNL     1      19.906  63.144  13.890  1.00  0.00    -0.023 C 
ATOM      4  C   UNL     1      18.497  63.591  14.181  1.00  0.00     0.035 C 
ATOM      5  C   UNL     1      18.495  64.853  15.079  1.00  0.00     0.018 C 
ATOM      6  C   UNL     1      19.451  64.672  16.240  1.00  0.00    -0.023 C 
ATOM      7  C   UNL     1      20.578  63.966  16.090  1.00  0.00    -0.001 C 
ENDROOT
BRANCH   5   8
ATOM      8  C   UNL     1      17.080  65.283  15.565  1.00  0.00    -0.010 C 
ATOM      9  C   UNL     1      15.969  64.668  14.703  1.00  0.00     0.008 C 
ATOM     10  C   UNL     1      16.825  64.987  17.053  1.00  0.00     0.008 C 
ENDBRANCH   5   8
TORSDOF 1
ENDMDL
MODEL 5
REMARK VINA RESULT:    -3.902      1.381      2.304
REMARK INTER + INTRA:          -4.320
REMARK INTER:                  -4.171
REMARK INTRA:                  -0.148
REMARK UNBOUND:                -0.189
REMARK SMILES CC1=CC[C@@H](C(C)C)C=C1
REMARK SMILES IDX 1 1 2 2 3 3 4 4 5 5 9 6 10 7 6 8 7 9 8 10
REMARK H PARENT
REMARK Flexibility Score: inf
ROOT
ATOM      1  C   UNL     1      13.506  64.617  15.389  1.00  0.00     0.044 C 
ATOM      2  C   UNL     1      14.950  64.884  15.695  1.00  0.00    -0.055 C 
ATOM      3  C   UNL     1      15.866  64.858  14.714  1.00  0.00    -0.023 C 
ATOM      4  C   UNL     1      17.306  65.194  15.000  1.00  0.00     0.035 C 
ATOM      5  C   UNL     1      17.723  64.678  16.399  1.00  0.00     0.018 C 
ATOM      6  C   UNL     1      16.676  65.046  17.429  1.00  0.00    -0.023 C 
ATOM      7  C   UNL     1      15.380  65.089  17.097  1.00  0.00    -0.001 C 
ENDROOT
BRANCH   5   8
ATOM      8  C   UNL     1      19.146  65.128  16.843  1.00  0.00    -0.010 C 
ATOM      9  C   UNL     1      19.099  66.023  18.090  1.00  0.00     0.008 C 
ATOM     10  C   UNL     1      20.119  63.958  17.064  1.00  0.00     0.008 C 
ENDBRANCH   5   8
TORSDOF 1
ENDMDL
MODEL 6
REMARK VINA RESULT:    -3.889      2.990      5.059
REMARK INTER + INTRA:          -4.306
REMARK INTER:                  -4.114
REMARK INTRA:                  -0.192
REMARK UNBOUND:                -0.189
REMARK SMILES CC1=CC[C@@H](C(C)C)C=C1
REMARK SMILES IDX 1 1 2 2 3 3 4 4 5 5 9 6 10 7 6 8 7 9 8 10
REMARK H PARENT
REMARK Flexibility Score: inf
ROOT
ATOM      1  C   UNL     1      18.533  64.317  15.005  1.00  0.00     0.044 C 
ATOM      2  C   UNL     1      19.889  63.717  15.230  1.00  0.00    -0.055 C 
ATOM      3  C   UNL     1      20.474  63.800  16.435  1.00  0.00    -0.023 C 
ATOM      4  C   UNL     1      21.803  63.139  16.689  1.00  0.00     0.035 C 
ATOM      5  C   UNL     1      22.707  63.222  15.434  1.00  0.00     0.018 C 
ATOM      6  C   UNL     1      21.927  62.826  14.198  1.00  0.00    -0.023 C 
ATOM      7  C   UNL     1      20.623  63.109  14.096  1.00  0.00    -0.001 C 
ENDROOT
BRANCH   5   8
ATOM      8  C   UNL     1      24.035  62.418  15.554  1.00  0.00    -0.010 C 
ATOM      9  C   UNL     1      24.076  61.570  16.834  1.00  0.00     0.008 C 
ATOM     10  C   UNL     1      24.336  61.542  14.326  1.00  0.00     0.008 C 
ENDBRANCH   5   8
TORSDOF 1
ENDMDL
MODEL 7
REMARK VINA RESULT:    -3.877      1.008      4.344
REMARK INTER + INTRA:          -4.293
REMARK INTER:                  -4.173
REMARK INTRA:                  -0.119
REMARK UNBOUND:                -0.189
REMARK SMILES CC1=CC[C@@H](C(C)C)C=C1
REMARK SMILES IDX 1 1 2 2 3 3 4 4 5 5 9 6 10 7 6 8 7 9 8 10
REMARK H PARENT
REMARK Flexibility Score: inf
ROOT
ATOM      1  C   UNL     1      20.258  64.073  15.929  1.00  0.00     0.044 C 
ATOM      2  C   UNL     1      18.859  64.607  15.998  1.00  0.00    -0.055 C 
ATOM      3  C   UNL     1      18.381  65.108  17.148  1.00  0.00    -0.023 C 
ATOM      4  C   UNL     1      17.002  65.710  17.209  1.00  0.00     0.035 C 
ATOM      5  C   UNL     1      16.023  64.935  16.291  1.00  0.00     0.018 C 
ATOM      6  C   UNL     1      16.652  64.700  14.933  1.00  0.00    -0.023 C 
ATOM      7  C   UNL     1      17.970  64.498  14.819  1.00  0.00    -0.001 C 
ENDROOT
BRANCH   5   8
ATOM      8  C   UNL     1      14.617  65.591  16.166  1.00  0.00    -0.010 C 
ATOM      9  C   UNL     1      13.601  64.645  15.511  1.00  0.00     0.008 C 
ATOM     10  C   UNL     1      14.067  66.123  17.500  1.00  0.00     0.008 C 
ENDBRANCH   5   8
TORSDOF 1
ENDMDL
MODEL 8
REMARK VINA RESULT:    -3.780     21.293     22.581
REMARK INTER + INTRA:          -4.191
REMARK INTER:                  -4.004
REMARK INTRA:                  -0.186
REMARK UNBOUND:                -0.189
REMARK SMILES CC1=CC[C@@H](C(C)C)C=C1
REMARK SMILES IDX 1 1 2 2 3 3 4 4 5 5 9 6 10 7 6 8 7 9 8 10
REMARK H PARENT
REMARK Flexibility Score: inf
ROOT
ATOM      1  C   UNL     1       5.921  46.477   2.465  1.00  0.00     0.044 C 
ATOM      2  C   UNL     1       7.300  47.041   2.635  1.00  0.00    -0.055 C 
ATOM      3  C   UNL     1       8.152  46.493   3.516  1.00  0.00    -0.023 C 
ATOM      4  C   UNL     1       9.562  47.008   3.643  1.00  0.00     0.035 C 
ATOM      5  C   UNL     1       9.604  48.545   3.449  1.00  0.00     0.018 C 
ATOM      6  C   UNL     1       8.795  48.943   2.233  1.00  0.00    -0.023 C 
ATOM      7  C   UNL     1       7.693  48.262   1.895  1.00  0.00    -0.001 C 
ENDROOT
BRANCH   5   8
ATOM      8  C   UNL     1      11.043  49.138   3.399  1.00  0.00    -0.010 C 
ATOM      9  C   UNL     1      11.949  48.359   2.434  1.00  0.00     0.008 C 
ATOM     10  C   UNL     1      11.076  50.639   3.065  1.00  0.00     0.008 C 
ENDBRANCH   5   8
TORSDOF 1
ENDMDL
MODEL 9
REMARK VINA RESULT:    -3.708      4.226      7.346
REMARK INTER + INTRA:          -4.114
REMARK INTER:                  -3.922
REMARK INTRA:                  -0.192
REMARK UNBOUND:                -0.189
REMARK SMILES CC1=CC[C@@H](C(C)C)C=C1
REMARK SMILES IDX 1 1 2 2 3 3 4 4 5 5 9 6 10 7 6 8 7 9 8 10
REMARK H PARENT
REMARK Flexibility Score: inf
ROOT
ATOM      1  C   UNL     1      24.802  61.512  13.059  1.00  0.00     0.044 C 
ATOM      2  C   UNL     1      23.902  61.979  14.164  1.00  0.00    -0.055 C 
ATOM      3  C   UNL     1      22.810  62.708  13.885  1.00  0.00    -0.023 C 
ATOM      4  C   UNL     1      21.863  63.120  14.981  1.00  0.00     0.035 C 
ATOM      5  C   UNL     1      22.636  63.438  16.285  1.00  0.00     0.018 C 
ATOM      6  C   UNL     1      23.647  62.348  16.574  1.00  0.00    -0.023 C 
ATOM      7  C   UNL     1      24.267  61.711  15.574  1.00  0.00    -0.001 C 
ENDROOT
BRANCH   5   8
ATOM      8  C   UNL     1      21.721  63.711  17.514  1.00  0.00    -0.010 C 
ATOM      9  C   UNL     1      20.239  63.486  17.185  1.00  0.00     0.008 C 
ATOM     10  C   UNL     1      22.117  62.907  18.765  1.00  0.00     0.008 C 
ENDBRANCH   5   8
TORSDOF 1
ENDMDL
