MODEL 1
REMARK VINA RESULT:    -2.766      0.000      0.000
REMARK INTER + INTRA:          -3.345
REMARK INTER:                  -3.251
REMARK INTRA:                  -0.094
REMARK UNBOUND:                -0.094
REMARK SMILES CCCCC(=O)[O-]
REMARK SMILES IDX 4 1 5 2 6 3 7 4 3 5 2 6 1 7
REMARK H PARENT
REMARK Flexibility Score: inf
ROOT
ATOM      1  C   UNL     1      -1.838   9.536  38.222  1.00  0.00     0.053 C 
ENDROOT
BRANCH   1   2
ATOM      2  C   UNL     1      -1.242   9.124  36.912  1.00  0.00     0.041 C 
ATOM      3  O   UNL     1      -1.535   9.748  35.859  1.00  0.00    -0.550 OA
ATOM      4  O   UNL     1      -0.390   8.030  36.848  1.00  0.00    -0.550 OA
ENDBRANCH   1   2
BRANCH   1   5
ATOM      5  C   UNL     1      -1.377   8.627  39.370  1.00  0.00     0.006 C 
BRANCH   5   6
ATOM      6  C   UNL     1      -2.548   7.874  40.019  1.00  0.00    -0.003 C 
ATOM      7  C   UNL     1      -2.593   6.422  39.552  1.00  0.00     0.004 C 
ENDBRANCH   5   6
ENDBRANCH   1   5
TORSDOF 3
ENDMDL
MODEL 2
REMARK VINA RESULT:    -2.747      0.146      1.227
REMARK INTER + INTRA:          -3.322
REMARK INTER:                  -3.256
REMARK INTRA:                  -0.066
REMARK UNBOUND:                -0.094
REMARK SMILES CCCCC(=O)[O-]
REMARK SMILES IDX 4 1 5 2 6 3 7 4 3 5 2 6 1 7
REMARK H PARENT
REMARK Flexibility Score: inf
ROOT
ATOM      1  C   UNL     1      -1.744   9.532  38.245  1.00  0.00     0.053 C 
ENDROOT
BRANCH   1   2
ATOM      2  C   UNL     1      -1.130   9.132  36.940  1.00  0.00     0.041 C 
ATOM      3  O   UNL     1      -0.227   8.255  36.907  1.00  0.00    -0.550 OA
ATOM      4  O   UNL     1      -1.529   9.752  35.762  1.00  0.00    -0.550 OA
ENDBRANCH   1   2
BRANCH   1   5
ATOM      5  C   UNL     1      -1.373   8.560  39.373  1.00  0.00     0.006 C 
BRANCH   5   6
ATOM      6  C   UNL     1      -2.608   7.870  39.973  1.00  0.00    -0.003 C 
ATOM      7  C   UNL     1      -2.585   6.369  39.702  1.00  0.00     0.004 C 
ENDBRANCH   5   6
ENDBRANCH   1   5
TORSDOF 3
ENDMDL
MODEL 3
REMARK VINA RESULT:    -2.692      2.645      3.676
REMARK INTER + INTRA:          -3.257
REMARK INTER:                  -3.189
REMARK INTRA:                  -0.068
REMARK UNBOUND:                -0.094
REMARK SMILES CCCCC(=O)[O-]
REMARK SMILES IDX 4 1 5 2 6 3 7 4 3 5 2 6 1 7
REMARK H PARENT
REMARK Flexibility Score: inf
ROOT
ATOM      1  C   UNL     1      -1.329   7.719  38.846  1.00  0.00     0.053 C 
ENDROOT
BRANCH   1   2
ATOM      2  C   UNL     1      -2.468   7.257  39.701  1.00  0.00     0.041 C 
ATOM      3  O   UNL     1      -2.791   7.906  40.730  1.00  0.00    -0.550 OA
ATOM      4  O   UNL     1      -3.152   6.091  39.380  1.00  0.00    -0.550 OA
ENDBRANCH   1   2
BRANCH   1   5
ATOM      5  C   UNL     1      -1.122   9.237  38.943  1.00  0.00     0.006 C 
BRANCH   5   6
ATOM      6  C   UNL     1      -1.971  10.004  37.918  1.00  0.00    -0.003 C 
ATOM      7  C   UNL     1      -1.499   9.726  36.494  1.00  0.00     0.004 C 
ENDBRANCH   5   6
ENDBRANCH   1   5
TORSDOF 3
ENDMDL
MODEL 4
REMARK VINA RESULT:    -2.645      8.798     10.624
REMARK INTER + INTRA:          -3.202
REMARK INTER:                  -3.118
REMARK INTRA:                  -0.084
REMARK UNBOUND:                -0.094
REMARK SMILES CCCCC(=O)[O-]
REMARK SMILES IDX 4 1 5 2 6 3 7 4 3 5 2 6 1 7
REMARK H PARENT
REMARK Flexibility Score: inf
ROOT
ATOM      1  C   UNL     1       2.824   8.303  29.118  1.00  0.00     0.053 C 
ENDROOT
BRANCH   1   2
ATOM      2  C   UNL     1       2.179   8.721  30.404  1.00  0.00     0.041 C 
ATOM      3  O   UNL     1       2.147   9.936  30.730  1.00  0.00    -0.550 OA
ATOM      4  O   UNL     1       1.645   7.764  31.258  1.00  0.00    -0.550 OA
ENDBRANCH   1   2
BRANCH   1   5
ATOM      5  C   UNL     1       4.215   8.928  28.948  1.00  0.00     0.006 C 
BRANCH   5   6
ATOM      6  C   UNL     1       4.462   9.411  27.510  1.00  0.00    -0.003 C 
ATOM      7  C   UNL     1       3.234  10.124  26.951  1.00  0.00     0.004 C 
ENDBRANCH   5   6
ENDBRANCH   1   5
TORSDOF 3
ENDMDL
MODEL 5
REMARK VINA RESULT:    -2.631      1.648      2.279
REMARK INTER + INTRA:          -3.186
REMARK INTER:                  -3.126
REMARK INTRA:                  -0.061
REMARK UNBOUND:                -0.094
REMARK SMILES CCCCC(=O)[O-]
REMARK SMILES IDX 4 1 5 2 6 3 7 4 3 5 2 6 1 7
REMARK H PARENT
REMARK Flexibility Score: inf
ROOT
ATOM      1  C   UNL     1      -1.158   8.018  39.436  1.00  0.00     0.053 C 
ENDROOT
BRANCH   1   2
ATOM      2  C   UNL     1      -1.092   9.393  38.848  1.00  0.00     0.041 C 
ATOM      3  O   UNL     1      -0.088  10.123  39.056  1.00  0.00    -0.550 OA
ATOM      4  O   UNL     1      -2.155   9.882  38.099  1.00  0.00    -0.550 OA
ENDBRANCH   1   2
BRANCH   1   5
ATOM      5  C   UNL     1      -2.574   7.667  39.912  1.00  0.00     0.006 C 
BRANCH   5   6
ATOM      6  C   UNL     1      -2.924   6.193  39.655  1.00  0.00    -0.003 C 
ATOM      7  C   UNL     1      -2.023   5.594  38.580  1.00  0.00     0.004 C 
ENDBRANCH   5   6
ENDBRANCH   1   5
TORSDOF 3
ENDMDL
MODEL 6
REMARK VINA RESULT:    -2.622      1.956      2.621
REMARK INTER + INTRA:          -3.175
REMARK INTER:                  -3.122
REMARK INTRA:                  -0.053
REMARK UNBOUND:                -0.094
REMARK SMILES CCCCC(=O)[O-]
REMARK SMILES IDX 4 1 5 2 6 3 7 4 3 5 2 6 1 7
REMARK H PARENT
REMARK Flexibility Score: inf
ROOT
ATOM      1  C   UNL     1      -1.705   7.834  39.056  1.00  0.00     0.053 C 
ENDROOT
BRANCH   1   2
ATOM      2  C   UNL     1      -1.346   9.264  38.798  1.00  0.00     0.041 C 
ATOM      3  O   UNL     1      -0.339   9.775  39.354  1.00  0.00    -0.550 OA
ATOM      4  O   UNL     1      -2.143  10.043  37.969  1.00  0.00    -0.550 OA
ENDBRANCH   1   2
BRANCH   1   5
ATOM      5  C   UNL     1      -2.615   7.687  40.283  1.00  0.00     0.006 C 
BRANCH   5   6
ATOM      6  C   UNL     1      -1.827   7.318  41.550  1.00  0.00    -0.003 C 
ATOM      7  C   UNL     1      -2.561   7.775  42.806  1.00  0.00     0.004 C 
ENDBRANCH   5   6
ENDBRANCH   1   5
TORSDOF 3
ENDMDL
MODEL 7
REMARK VINA RESULT:    -2.610      9.862     11.315
REMARK INTER + INTRA:          -3.161
REMARK INTER:                  -3.082
REMARK INTRA:                  -0.079
REMARK UNBOUND:                -0.094
REMARK SMILES CCCCC(=O)[O-]
REMARK SMILES IDX 4 1 5 2 6 3 7 4 3 5 2 6 1 7
REMARK H PARENT
REMARK Flexibility Score: inf
ROOT
ATOM      1  C   UNL     1       4.338   9.226  28.981  1.00  0.00     0.053 C 
ENDROOT
BRANCH   1   2
ATOM      2  C   UNL     1       2.886   9.354  29.323  1.00  0.00     0.041 C 
ATOM      3  O   UNL     1       2.142  10.114  28.650  1.00  0.00    -0.550 OA
ATOM      4  O   UNL     1       2.361   8.659  30.405  1.00  0.00    -0.550 OA
ENDBRANCH   1   2
BRANCH   1   5
ATOM      5  C   UNL     1       4.549   8.496  27.648  1.00  0.00     0.006 C 
BRANCH   5   6
ATOM      6  C   UNL     1       3.890   7.108  27.635  1.00  0.00    -0.003 C 
ATOM      7  C   UNL     1       4.739   6.104  26.862  1.00  0.00     0.004 C 
ENDBRANCH   5   6
ENDBRANCH   1   5
TORSDOF 3
ENDMDL
MODEL 8
REMARK VINA RESULT:    -2.570      2.675      3.703
REMARK INTER + INTRA:          -3.114
REMARK INTER:                  -3.038
REMARK INTRA:                  -0.077
REMARK UNBOUND:                -0.094
REMARK SMILES CCCCC(=O)[O-]
REMARK SMILES IDX 4 1 5 2 6 3 7 4 3 5 2 6 1 7
REMARK H PARENT
REMARK Flexibility Score: inf
ROOT
ATOM      1  C   UNL     1      -0.208   8.251  39.250  1.00  0.00     0.053 C 
ENDROOT
BRANCH   1   2
ATOM      2  C   UNL     1      -1.617   8.717  39.057  1.00  0.00     0.041 C 
ATOM      3  O   UNL     1      -2.558   8.170  39.690  1.00  0.00    -0.550 OA
ATOM      4  O   UNL     1      -1.897   9.734  38.153  1.00  0.00    -0.550 OA
ENDBRANCH   1   2
BRANCH   1   5
ATOM      5  C   UNL     1       0.520   9.065  40.330  1.00  0.00     0.006 C 
BRANCH   5   6
ATOM      6  C   UNL     1       1.454  10.125  39.726  1.00  0.00    -0.003 C 
ATOM      7  C   UNL     1       2.332   9.524  38.632  1.00  0.00     0.004 C 
ENDBRANCH   5   6
ENDBRANCH   1   5
TORSDOF 3
ENDMDL
MODEL 9
REMARK VINA RESULT:    -2.555      1.355      1.728
REMARK INTER + INTRA:          -3.097
REMARK INTER:                  -3.014
REMARK INTRA:                  -0.083
REMARK UNBOUND:                -0.094
REMARK SMILES CCCCC(=O)[O-]
REMARK SMILES IDX 4 1 5 2 6 3 7 4 3 5 2 6 1 7
REMARK H PARENT
REMARK Flexibility Score: inf
ROOT
ATOM      1  C   UNL     1      -1.234   9.667  37.225  1.00  0.00     0.053 C 
ENDROOT
BRANCH   1   2
ATOM      2  C   UNL     1       0.239   9.399  37.225  1.00  0.00     0.041 C 
ATOM      3  O   UNL     1       1.013  10.117  37.913  1.00  0.00    -0.550 OA
ATOM      4  O   UNL     1       0.763   8.380  36.441  1.00  0.00    -0.550 OA
ENDBRANCH   1   2
BRANCH   1   5
ATOM      5  C   UNL     1      -1.869   9.369  38.590  1.00  0.00     0.006 C 
BRANCH   5   6
ATOM      6  C   UNL     1      -1.646   7.914  39.028  1.00  0.00    -0.003 C 
ATOM      7  C   UNL     1      -2.642   7.508  40.112  1.00  0.00     0.004 C 
ENDBRANCH   5   6
ENDBRANCH   1   5
TORSDOF 3
ENDMDL
