MODEL 1
REMARK VINA RESULT:    -5.131      0.000      0.000
REMARK INTER + INTRA:          -5.454
REMARK INTER:                  -5.431
REMARK INTRA:                  -0.023
REMARK UNBOUND:                -0.023
REMARK SMILES O=C([O-])c1cccnc1
REMARK SMILES IDX 4 1 5 2 9 3 6 4 8 5 7 6 2 7 1 8 3 9
REMARK H PARENT
REMARK Flexibility Score: inf
ROOT
ATOM      1  C   UNL     1      32.418  10.466  27.962  1.00  0.00     0.016 A 
ATOM      2  C   UNL     1      33.368  11.261  27.297  1.00  0.00     0.013 A 
ATOM      3  C   UNL     1      31.742  11.015  29.065  1.00  0.00     0.120 A 
ATOM      4  C   UNL     1      33.621  12.562  27.734  1.00  0.00     0.021 A 
ATOM      5  N   UNL     1      32.008  12.286  29.471  1.00  0.00    -0.264 NA
ATOM      6  C   UNL     1      32.924  13.063  28.835  1.00  0.00     0.111 A 
ENDROOT
BRANCH   1   7
ATOM      7  C   UNL     1      32.134   9.085  27.515  1.00  0.00     0.073 C 
ATOM      8  O   UNL     1      32.983   8.444  26.839  1.00  0.00    -0.545 OA
ATOM      9  O   UNL     1      30.926   8.476  27.835  1.00  0.00    -0.545 OA
ENDBRANCH   1   7
TORSDOF 1
ENDMDL
MODEL 2
REMARK VINA RESULT:    -4.881      2.945      3.663
REMARK INTER + INTRA:          -5.189
REMARK INTER:                  -5.172
REMARK INTRA:                  -0.018
REMARK UNBOUND:                -0.023
REMARK SMILES O=C([O-])c1cccnc1
REMARK SMILES IDX 4 1 5 2 9 3 6 4 8 5 7 6 2 7 1 8 3 9
REMARK H PARENT
REMARK Flexibility Score: inf
ROOT
ATOM      1  C   UNL     1      32.655  11.779  28.494  1.00  0.00     0.016 A 
ATOM      2  C   UNL     1      33.307  11.220  27.381  1.00  0.00     0.013 A 
ATOM      3  C   UNL     1      31.701  11.000  29.171  1.00  0.00     0.120 A 
ATOM      4  C   UNL     1      33.004   9.921  26.972  1.00  0.00     0.021 A 
ATOM      5  N   UNL     1      31.425   9.735  28.751  1.00  0.00    -0.264 NA
ATOM      6  C   UNL     1      32.051   9.185  27.678  1.00  0.00     0.111 A 
ENDROOT
BRANCH   1   7
ATOM      7  C   UNL     1      32.961  13.154  28.944  1.00  0.00     0.073 C 
ATOM      8  O   UNL     1      34.121  13.459  29.329  1.00  0.00    -0.545 OA
ATOM      9  O   UNL     1      31.970  14.130  28.948  1.00  0.00    -0.545 OA
ENDBRANCH   1   7
TORSDOF 1
ENDMDL
MODEL 3
REMARK VINA RESULT:    -4.849     21.106     21.660
REMARK INTER + INTRA:          -5.156
REMARK INTER:                  -5.132
REMARK INTRA:                  -0.024
REMARK UNBOUND:                -0.023
REMARK SMILES O=C([O-])c1cccnc1
REMARK SMILES IDX 4 1 5 2 9 3 6 4 8 5 7 6 2 7 1 8 3 9
REMARK H PARENT
REMARK Flexibility Score: inf
ROOT
ATOM      1  C   UNL     1      17.563   5.818  13.482  1.00  0.00     0.016 A 
ATOM      2  C   UNL     1      16.635   6.462  14.319  1.00  0.00     0.013 A 
ATOM      3  C   UNL     1      17.827   6.379  12.221  1.00  0.00     0.120 A 
ATOM      4  C   UNL     1      16.002   7.630  13.894  1.00  0.00     0.021 A 
ATOM      5  N   UNL     1      17.195   7.519  11.831  1.00  0.00    -0.264 NA
ATOM      6  C   UNL     1      16.298   8.150  12.633  1.00  0.00     0.111 A 
ENDROOT
BRANCH   1   7
ATOM      7  C   UNL     1      18.245   4.579  13.914  1.00  0.00     0.073 C 
ATOM      8  O   UNL     1      18.174   4.192  15.110  1.00  0.00    -0.545 OA
ATOM      9  O   UNL     1      18.975   3.824  13.002  1.00  0.00    -0.545 OA
ENDBRANCH   1   7
TORSDOF 1
ENDMDL
MODEL 4
REMARK VINA RESULT:    -4.721     20.950     21.939
REMARK INTER + INTRA:          -5.020
REMARK INTER:                  -5.003
REMARK INTRA:                  -0.016
REMARK UNBOUND:                -0.023
REMARK SMILES O=C([O-])c1cccnc1
REMARK SMILES IDX 4 1 5 2 9 3 6 4 8 5 7 6 2 7 1 8 3 9
REMARK H PARENT
REMARK Flexibility Score: inf
ROOT
ATOM      1  C   UNL     1      17.627   5.813  12.708  1.00  0.00     0.016 A 
ATOM      2  C   UNL     1      17.180   5.071  13.815  1.00  0.00     0.013 A 
ATOM      3  C   UNL     1      18.997   5.789  12.396  1.00  0.00     0.120 A 
ATOM      4  C   UNL     1      18.088   4.332  14.575  1.00  0.00     0.021 A 
ATOM      5  N   UNL     1      19.861   5.060  13.154  1.00  0.00    -0.264 NA
ATOM      6  C   UNL     1      19.439   4.338  14.225  1.00  0.00     0.111 A 
ENDROOT
BRANCH   1   7
ATOM      7  C   UNL     1      16.681   6.602  11.890  1.00  0.00     0.073 C 
ATOM      8  O   UNL     1      16.020   6.054  10.968  1.00  0.00    -0.545 OA
ATOM      9  O   UNL     1      16.509   7.961  12.128  1.00  0.00    -0.545 OA
ENDBRANCH   1   7
TORSDOF 1
ENDMDL
MODEL 5
REMARK VINA RESULT:    -4.706     21.142     21.552
REMARK INTER + INTRA:          -5.004
REMARK INTER:                  -4.982
REMARK INTRA:                  -0.022
REMARK UNBOUND:                -0.023
REMARK SMILES O=C([O-])c1cccnc1
REMARK SMILES IDX 4 1 5 2 9 3 6 4 8 5 7 6 2 7 1 8 3 9
REMARK H PARENT
REMARK Flexibility Score: inf
ROOT
ATOM      1  C   UNL     1      18.039   6.223  12.947  1.00  0.00     0.016 A 
ATOM      2  C   UNL     1      17.752   7.322  12.118  1.00  0.00     0.013 A 
ATOM      3  C   UNL     1      17.214   5.993  14.061  1.00  0.00     0.120 A 
ATOM      4  C   UNL     1      16.669   8.154  12.408  1.00  0.00     0.021 A 
ATOM      5  N   UNL     1      16.165   6.819  14.321  1.00  0.00    -0.264 NA
ATOM      6  C   UNL     1      15.878   7.883  13.526  1.00  0.00     0.111 A 
ENDROOT
BRANCH   1   7
ATOM      7  C   UNL     1      19.181   5.329  12.657  1.00  0.00     0.073 C 
ATOM      8  O   UNL     1      19.185   4.140  13.072  1.00  0.00    -0.545 OA
ATOM      9  O   UNL     1      20.267   5.791  11.921  1.00  0.00    -0.545 OA
ENDBRANCH   1   7
TORSDOF 1
ENDMDL
MODEL 6
REMARK VINA RESULT:    -4.588     13.413     14.092
REMARK INTER + INTRA:          -4.879
REMARK INTER:                  -4.860
REMARK INTRA:                  -0.019
REMARK UNBOUND:                -0.023
REMARK SMILES O=C([O-])c1cccnc1
REMARK SMILES IDX 4 1 5 2 9 3 6 4 8 5 7 6 2 7 1 8 3 9
REMARK H PARENT
REMARK Flexibility Score: inf
ROOT
ATOM      1  C   UNL     1      19.527  13.419  23.913  1.00  0.00     0.016 A 
ATOM      2  C   UNL     1      19.057  12.232  23.326  1.00  0.00     0.013 A 
ATOM      3  C   UNL     1      20.912  13.570  24.099  1.00  0.00     0.120 A 
ATOM      4  C   UNL     1      19.956  11.236  22.941  1.00  0.00     0.021 A 
ATOM      5  N   UNL     1      21.767  12.583  23.716  1.00  0.00    -0.264 NA
ATOM      6  C   UNL     1      21.323  11.432  23.146  1.00  0.00     0.111 A 
ENDROOT
BRANCH   1   7
ATOM      7  C   UNL     1      18.591  14.486  24.327  1.00  0.00     0.073 C 
ATOM      8  O   UNL     1      17.750  14.952  23.513  1.00  0.00    -0.545 OA
ATOM      9  O   UNL     1      18.626  14.990  25.622  1.00  0.00    -0.545 OA
ENDBRANCH   1   7
TORSDOF 1
ENDMDL
MODEL 7
REMARK VINA RESULT:    -4.516     12.452     13.023
REMARK INTER + INTRA:          -4.802
REMARK INTER:                  -4.785
REMARK INTRA:                  -0.017
REMARK UNBOUND:                -0.023
REMARK SMILES O=C([O-])c1cccnc1
REMARK SMILES IDX 4 1 5 2 9 3 6 4 8 5 7 6 2 7 1 8 3 9
REMARK H PARENT
REMARK Flexibility Score: inf
ROOT
ATOM      1  C   UNL     1      20.382  10.325  24.064  1.00  0.00     0.016 A 
ATOM      2  C   UNL     1      19.994  11.258  23.087  1.00  0.00     0.013 A 
ATOM      3  C   UNL     1      19.780  10.395  25.332  1.00  0.00     0.120 A 
ATOM      4  C   UNL     1      19.031  12.223  23.384  1.00  0.00     0.021 A 
ATOM      5  N   UNL     1      18.844  11.347  25.595  1.00  0.00    -0.264 NA
ATOM      6  C   UNL     1      18.460  12.252  24.657  1.00  0.00     0.111 A 
ENDROOT
BRANCH   1   7
ATOM      7  C   UNL     1      21.401   9.294  23.770  1.00  0.00     0.073 C 
ATOM      8  O   UNL     1      22.595   9.621  23.540  1.00  0.00    -0.545 OA
ATOM      9  O   UNL     1      21.052   7.948  23.743  1.00  0.00    -0.545 OA
ENDBRANCH   1   7
TORSDOF 1
ENDMDL
MODEL 8
REMARK VINA RESULT:    -4.501     20.936     21.391
REMARK INTER + INTRA:          -4.787
REMARK INTER:                  -4.764
REMARK INTRA:                  -0.022
REMARK UNBOUND:                -0.023
REMARK SMILES O=C([O-])c1cccnc1
REMARK SMILES IDX 4 1 5 2 9 3 6 4 8 5 7 6 2 7 1 8 3 9
REMARK H PARENT
REMARK Flexibility Score: inf
ROOT
ATOM      1  C   UNL     1      18.139   6.671  12.889  1.00  0.00     0.016 A 
ATOM      2  C   UNL     1      19.049   7.431  12.135  1.00  0.00     0.013 A 
ATOM      3  C   UNL     1      18.489   5.352  13.228  1.00  0.00     0.120 A 
ATOM      4  C   UNL     1      20.268   6.876  11.742  1.00  0.00     0.021 A 
ATOM      5  N   UNL     1      19.683   4.836  12.832  1.00  0.00    -0.264 NA
ATOM      6  C   UNL     1      20.571   5.563  12.104  1.00  0.00     0.111 A 
ENDROOT
BRANCH   1   7
ATOM      7  C   UNL     1      16.842   7.240  13.316  1.00  0.00     0.073 C 
ATOM      8  O   UNL     1      16.251   6.794  14.336  1.00  0.00    -0.545 OA
ATOM      9  O   UNL     1      16.258   8.276  12.597  1.00  0.00    -0.545 OA
ENDBRANCH   1   7
TORSDOF 1
ENDMDL
MODEL 9
REMARK VINA RESULT:    -4.473     20.382     21.124
REMARK INTER + INTRA:          -4.757
REMARK INTER:                  -4.737
REMARK INTRA:                  -0.021
REMARK UNBOUND:                -0.023
REMARK SMILES O=C([O-])c1cccnc1
REMARK SMILES IDX 4 1 5 2 9 3 6 4 8 5 7 6 2 7 1 8 3 9
REMARK H PARENT
REMARK Flexibility Score: inf
ROOT
ATOM      1  C   UNL     1      18.816   5.225  13.302  1.00  0.00     0.016 A 
ATOM      2  C   UNL     1      17.592   5.191  13.992  1.00  0.00     0.013 A 
ATOM      3  C   UNL     1      19.035   6.262  12.380  1.00  0.00     0.120 A 
ATOM      4  C   UNL     1      16.627   6.172  13.756  1.00  0.00     0.021 A 
ATOM      5  N   UNL     1      18.078   7.206  12.168  1.00  0.00    -0.264 NA
ATOM      6  C   UNL     1      16.891   7.183  12.830  1.00  0.00     0.111 A 
ENDROOT
BRANCH   1   7
ATOM      7  C   UNL     1      19.851   4.196  13.539  1.00  0.00     0.073 C 
ATOM      8  O   UNL     1      20.068   3.760  14.701  1.00  0.00    -0.545 OA
ATOM      9  O   UNL     1      20.599   3.694  12.479  1.00  0.00    -0.545 OA
ENDBRANCH   1   7
TORSDOF 1
ENDMDL
