MODEL 1
REMARK VINA RESULT:    -4.549      0.000      0.000
REMARK INTER + INTRA:          -7.290
REMARK INTER:                  -6.144
REMARK INTRA:                  -1.145
REMARK UNBOUND:                -1.145
REMARK SMILES C=CC(C)=CCC=C(C)CCC=C(C)C
REMARK SMILES IDX 8 1 7 2 9 3 10 4 11 5 12 6 14 7 13 8 15 9 6 10 5 11 3 12
REMARK SMILES IDX 4 13 2 14 1 15
REMARK H PARENT
REMARK Flexibility Score: inf
ROOT
ATOM      1  C   UNL     1      31.736   9.415  32.545  1.00  0.00    -0.077 C 
ATOM      2  C   UNL     1      30.746  10.043  31.869  1.00  0.00    -0.024 C 
ATOM      3  C   UNL     1      32.893  10.171  33.153  1.00  0.00     0.039 C 
ENDROOT
BRANCH   1   4
ATOM      4  C   UNL     1      31.690   7.909  32.685  1.00  0.00     0.034 C 
BRANCH   4   5
ATOM      5  C   UNL     1      30.649   7.306  31.735  1.00  0.00     0.032 C 
BRANCH   5   6
ATOM      6  C   UNL     1      31.310   6.762  30.493  1.00  0.00    -0.028 C 
ATOM      7  C   UNL     1      31.826   6.587  28.097  1.00  0.00     0.039 C 
ATOM      8  C   UNL     1      31.057   7.198  29.239  1.00  0.00    -0.080 C 
ATOM      9  C   UNL     1      30.020   8.260  28.955  1.00  0.00     0.039 C 
ENDBRANCH   5   6
ENDBRANCH   4   5
ENDBRANCH   1   4
BRANCH   2  10
ATOM     10  C   UNL     1      30.679  11.533  31.640  1.00  0.00     0.055 C 
BRANCH  10  11
ATOM     11  C   UNL     1      30.479  11.867  30.185  1.00  0.00    -0.020 C 
ATOM     12  C   UNL     1      29.285  11.934  29.562  1.00  0.00    -0.055 C 
ATOM     13  C   UNL     1      27.987  11.637  30.280  1.00  0.00     0.044 C 
BRANCH  12  14
ATOM     14  C   UNL     1      29.279  12.229  28.106  1.00  0.00    -0.005 C 
ATOM     15  C   UNL     1      30.357  12.620  27.426  1.00  0.00     0.009 C 
ENDBRANCH  12  14
ENDBRANCH  10  11
ENDBRANCH   2  10
TORSDOF 6
ENDMDL
MODEL 2
REMARK VINA RESULT:    -4.520      1.196      5.422
REMARK INTER + INTRA:          -7.251
REMARK INTER:                  -6.337
REMARK INTRA:                  -0.914
REMARK UNBOUND:                -1.145
REMARK SMILES C=CC(C)=CCC=C(C)CCC=C(C)C
REMARK SMILES IDX 8 1 7 2 9 3 10 4 11 5 12 6 14 7 13 8 15 9 6 10 5 11 3 12
REMARK SMILES IDX 4 13 2 14 1 15
REMARK H PARENT
REMARK Flexibility Score: inf
ROOT
ATOM      1  C   UNL     1      30.618   7.618  28.142  1.00  0.00    -0.077 C 
ATOM      2  C   UNL     1      30.158   7.985  29.360  1.00  0.00    -0.024 C 
ATOM      3  C   UNL     1      31.750   6.631  27.979  1.00  0.00     0.039 C 
ENDROOT
BRANCH   1   4
ATOM      4  C   UNL     1      29.991   8.224  26.906  1.00  0.00     0.034 C 
BRANCH   4   5
ATOM      5  C   UNL     1      28.932   9.264  27.287  1.00  0.00     0.032 C 
BRANCH   5   6
ATOM      6  C   UNL     1      29.399  10.656  26.940  1.00  0.00    -0.028 C 
ATOM      7  C   UNL     1      30.136  12.964  27.354  1.00  0.00     0.039 C 
ATOM      8  C   UNL     1      29.632  11.631  27.846  1.00  0.00    -0.080 C 
ATOM      9  C   UNL     1      29.385  11.428  29.323  1.00  0.00     0.039 C 
ENDBRANCH   5   6
ENDBRANCH   4   5
ENDBRANCH   1   4
BRANCH   2  10
ATOM     10  C   UNL     1      30.704   7.474  30.671  1.00  0.00     0.055 C 
BRANCH  10  11
ATOM     11  C   UNL     1      31.208   8.594  31.543  1.00  0.00    -0.020 C 
ATOM     12  C   UNL     1      31.654   8.450  32.807  1.00  0.00    -0.055 C 
ATOM     13  C   UNL     1      31.662   7.110  33.508  1.00  0.00     0.044 C 
BRANCH  12  14
ATOM     14  C   UNL     1      32.068   9.675  33.539  1.00  0.00    -0.005 C 
ATOM     15  C   UNL     1      33.122  10.418  33.202  1.00  0.00     0.009 C 
ENDBRANCH  12  14
ENDBRANCH  10  11
ENDBRANCH   2  10
TORSDOF 6
ENDMDL
MODEL 3
REMARK VINA RESULT:    -4.480      3.611      6.414
REMARK INTER + INTRA:          -7.197
REMARK INTER:                  -5.371
REMARK INTRA:                  -1.826
REMARK UNBOUND:                -1.145
REMARK SMILES C=CC(C)=CCC=C(C)CCC=C(C)C
REMARK SMILES IDX 8 1 7 2 9 3 10 4 11 5 12 6 14 7 13 8 15 9 6 10 5 11 3 12
REMARK SMILES IDX 4 13 2 14 1 15
REMARK H PARENT
REMARK Flexibility Score: inf
ROOT
ATOM      1  C   UNL     1      31.381   9.385  33.146  1.00  0.00    -0.077 C 
ATOM      2  C   UNL     1      30.261   9.671  33.849  1.00  0.00    -0.024 C 
ATOM      3  C   UNL     1      32.677  10.128  33.371  1.00  0.00     0.039 C 
ENDROOT
BRANCH   1   4
ATOM      4  C   UNL     1      31.332   8.299  32.095  1.00  0.00     0.034 C 
BRANCH   4   5
ATOM      5  C   UNL     1      30.892   6.965  32.710  1.00  0.00     0.032 C 
BRANCH   5   6
ATOM      6  C   UNL     1      31.642   6.693  33.990  1.00  0.00    -0.028 C 
ATOM      7  C   UNL     1      31.936   6.119  36.361  1.00  0.00     0.039 C 
ATOM      8  C   UNL     1      31.055   6.409  35.173  1.00  0.00    -0.080 C 
ATOM      9  C   UNL     1      29.553   6.393  35.339  1.00  0.00     0.039 C 
ENDBRANCH   5   6
ENDBRANCH   4   5
ENDBRANCH   1   4
BRANCH   2  10
ATOM     10  C   UNL     1      30.166  10.740  34.910  1.00  0.00     0.055 C 
BRANCH  10  11
ATOM     11  C   UNL     1      29.732  10.174  36.237  1.00  0.00    -0.020 C 
ATOM     12  C   UNL     1      30.566   9.761  37.213  1.00  0.00    -0.055 C 
ATOM     13  C   UNL     1      32.069   9.794  37.051  1.00  0.00     0.044 C 
BRANCH  12  14
ATOM     14  C   UNL     1      29.962   9.182  38.441  1.00  0.00    -0.005 C 
ATOM     15  C   UNL     1      29.971   7.880  38.727  1.00  0.00     0.009 C 
ENDBRANCH  12  14
ENDBRANCH  10  11
ENDBRANCH   2  10
TORSDOF 6
ENDMDL
MODEL 4
REMARK VINA RESULT:    -4.467      1.391      4.054
REMARK INTER + INTRA:          -7.180
REMARK INTER:                  -6.054
REMARK INTRA:                  -1.126
REMARK UNBOUND:                -1.145
REMARK SMILES C=CC(C)=CCC=C(C)CCC=C(C)C
REMARK SMILES IDX 8 1 7 2 9 3 10 4 11 5 12 6 14 7 13 8 15 9 6 10 5 11 3 12
REMARK SMILES IDX 4 13 2 14 1 15
REMARK H PARENT
REMARK Flexibility Score: inf
ROOT
ATOM      1  C   UNL     1      30.930   7.213  29.244  1.00  0.00    -0.077 C 
ATOM      2  C   UNL     1      29.873   8.029  29.033  1.00  0.00    -0.024 C 
ATOM      3  C   UNL     1      31.747   6.652  28.105  1.00  0.00     0.039 C 
ENDROOT
BRANCH   1   4
ATOM      4  C   UNL     1      31.299   6.840  30.663  1.00  0.00     0.034 C 
BRANCH   4   5
ATOM      5  C   UNL     1      30.611   7.771  31.668  1.00  0.00     0.032 C 
BRANCH   5   6
ATOM      6  C   UNL     1      31.630   8.569  32.442  1.00  0.00    -0.028 C 
ATOM      7  C   UNL     1      32.795  10.580  33.244  1.00  0.00     0.039 C 
ATOM      8  C   UNL     1      31.754   9.914  32.381  1.00  0.00    -0.080 C 
ATOM      9  C   UNL     1      30.897  10.756  31.465  1.00  0.00     0.039 C 
ENDBRANCH   5   6
ENDBRANCH   4   5
ENDBRANCH   1   4
BRANCH   2  10
ATOM     10  C   UNL     1      29.386   8.465  27.672  1.00  0.00     0.055 C 
BRANCH  10  11
ATOM     11  C   UNL     1      29.520   9.953  27.480  1.00  0.00    -0.020 C 
ATOM     12  C   UNL     1      30.127  10.547  26.432  1.00  0.00    -0.055 C 
ATOM     13  C   UNL     1      30.784   9.750  25.328  1.00  0.00     0.044 C 
BRANCH  12  14
ATOM     14  C   UNL     1      30.210  12.031  26.430  1.00  0.00    -0.005 C 
ATOM     15  C   UNL     1      30.116  12.778  27.530  1.00  0.00     0.009 C 
ENDBRANCH  12  14
ENDBRANCH  10  11
ENDBRANCH   2  10
TORSDOF 6
ENDMDL
MODEL 5
REMARK VINA RESULT:    -4.452      3.315      6.629
REMARK INTER + INTRA:          -7.159
REMARK INTER:                  -5.468
REMARK INTRA:                  -1.691
REMARK UNBOUND:                -1.145
REMARK SMILES C=CC(C)=CCC=C(C)CCC=C(C)C
REMARK SMILES IDX 8 1 7 2 9 3 10 4 11 5 12 6 14 7 13 8 15 9 6 10 5 11 3 12
REMARK SMILES IDX 4 13 2 14 1 15
REMARK H PARENT
REMARK Flexibility Score: inf
ROOT
ATOM      1  C   UNL     1      30.585   6.672  33.451  1.00  0.00    -0.077 C 
ATOM      2  C   UNL     1      31.519   6.607  34.428  1.00  0.00    -0.024 C 
ATOM      3  C   UNL     1      29.127   6.381  33.718  1.00  0.00     0.039 C 
ENDROOT
BRANCH   1   4
ATOM      4  C   UNL     1      31.014   7.033  32.046  1.00  0.00     0.034 C 
BRANCH   4   5
ATOM      5  C   UNL     1      30.804   8.528  31.780  1.00  0.00     0.032 C 
BRANCH   5   6
ATOM      6  C   UNL     1      31.930   9.340  32.369  1.00  0.00    -0.028 C 
ATOM      7  C   UNL     1      33.037  10.851  33.960  1.00  0.00     0.039 C 
ATOM      8  C   UNL     1      31.813  10.128  33.461  1.00  0.00    -0.080 C 
ATOM      9  C   UNL     1      30.495  10.316  34.175  1.00  0.00     0.039 C 
ENDBRANCH   5   6
ENDBRANCH   4   5
ENDBRANCH   1   4
BRANCH   2  10
ATOM     10  C   UNL     1      31.231   6.242  35.864  1.00  0.00     0.055 C 
BRANCH  10  11
ATOM     11  C   UNL     1      31.543   7.377  36.803  1.00  0.00    -0.020 C 
ATOM     12  C   UNL     1      30.626   8.198  37.357  1.00  0.00    -0.055 C 
ATOM     13  C   UNL     1      29.150   8.075  37.051  1.00  0.00     0.044 C 
BRANCH  12  14
ATOM     14  C   UNL     1      31.118   9.299  38.224  1.00  0.00    -0.005 C 
ATOM     15  C   UNL     1      31.182  10.574  37.837  1.00  0.00     0.009 C 
ENDBRANCH  12  14
ENDBRANCH  10  11
ENDBRANCH   2  10
TORSDOF 6
ENDMDL
MODEL 6
REMARK VINA RESULT:    -4.445      3.264      5.776
REMARK INTER + INTRA:          -7.149
REMARK INTER:                  -6.013
REMARK INTRA:                  -1.136
REMARK UNBOUND:                -1.145
REMARK SMILES C=CC(C)=CCC=C(C)CCC=C(C)C
REMARK SMILES IDX 8 1 7 2 9 3 10 4 11 5 12 6 14 7 13 8 15 9 6 10 5 11 3 12
REMARK SMILES IDX 4 13 2 14 1 15
REMARK H PARENT
REMARK Flexibility Score: inf
ROOT
ATOM      1  C   UNL     1      30.406   7.463  34.403  1.00  0.00    -0.077 C 
ATOM      2  C   UNL     1      31.465   7.546  33.566  1.00  0.00    -0.024 C 
ATOM      3  C   UNL     1      29.224   8.397  34.292  1.00  0.00     0.039 C 
ENDROOT
BRANCH   1   4
ATOM      4  C   UNL     1      30.410   6.413  35.492  1.00  0.00     0.034 C 
BRANCH   4   5
ATOM      5  C   UNL     1      31.492   6.713  36.534  1.00  0.00     0.032 C 
BRANCH   5   6
ATOM      6  C   UNL     1      30.922   7.500  37.687  1.00  0.00    -0.028 C 
ATOM      7  C   UNL     1      30.447   9.486  39.056  1.00  0.00     0.039 C 
ATOM      8  C   UNL     1      31.114   8.824  37.878  1.00  0.00    -0.080 C 
ATOM      9  C   UNL     1      31.988   9.646  36.959  1.00  0.00     0.039 C 
ENDBRANCH   5   6
ENDBRANCH   4   5
ENDBRANCH   1   4
BRANCH   2  10
ATOM     10  C   UNL     1      31.599   8.556  32.452  1.00  0.00     0.055 C 
BRANCH  10  11
ATOM     11  C   UNL     1      31.157   7.990  31.128  1.00  0.00    -0.020 C 
ATOM     12  C   UNL     1      30.461   8.665  30.191  1.00  0.00    -0.055 C 
ATOM     13  C   UNL     1      30.010  10.093  30.399  1.00  0.00     0.044 C 
BRANCH  12  14
ATOM     14  C   UNL     1      30.066   7.932  28.960  1.00  0.00    -0.005 C 
ATOM     15  C   UNL     1      30.829   7.013  28.369  1.00  0.00     0.009 C 
ENDBRANCH  12  14
ENDBRANCH  10  11
ENDBRANCH   2  10
TORSDOF 6
ENDMDL
MODEL 7
REMARK VINA RESULT:    -4.444      3.282      5.973
REMARK INTER + INTRA:          -7.148
REMARK INTER:                  -5.351
REMARK INTRA:                  -1.797
REMARK UNBOUND:                -1.145
REMARK SMILES C=CC(C)=CCC=C(C)CCC=C(C)C
REMARK SMILES IDX 8 1 7 2 9 3 10 4 11 5 12 6 14 7 13 8 15 9 6 10 5 11 3 12
REMARK SMILES IDX 4 13 2 14 1 15
REMARK H PARENT
REMARK Flexibility Score: inf
ROOT
ATOM      1  C   UNL     1      30.231   6.396  34.977  1.00  0.00    -0.077 C 
ATOM      2  C   UNL     1      31.385   6.810  34.406  1.00  0.00    -0.024 C 
ATOM      3  C   UNL     1      28.917   6.420  34.232  1.00  0.00     0.039 C 
ENDROOT
BRANCH   1   4
ATOM      4  C   UNL     1      30.253   5.906  36.408  1.00  0.00     0.034 C 
BRANCH   4   5
ATOM      5  C   UNL     1      30.845   6.970  37.339  1.00  0.00     0.032 C 
BRANCH   5   6
ATOM      6  C   UNL     1      30.026   8.236  37.294  1.00  0.00    -0.028 C 
ATOM      7  C   UNL     1      29.584  10.634  36.993  1.00  0.00     0.039 C 
ATOM      8  C   UNL     1      30.532   9.464  37.047  1.00  0.00    -0.080 C 
ATOM      9  C   UNL     1      32.012   9.695  36.843  1.00  0.00     0.039 C 
ENDBRANCH   5   6
ENDBRANCH   4   5
ENDBRANCH   1   4
BRANCH   2  10
ATOM     10  C   UNL     1      31.503   7.338  32.997  1.00  0.00     0.055 C 
BRANCH  10  11
ATOM     11  C   UNL     1      32.050   8.740  32.969  1.00  0.00    -0.020 C 
ATOM     12  C   UNL     1      31.316   9.862  33.114  1.00  0.00    -0.055 C 
ATOM     13  C   UNL     1      29.814   9.821  33.291  1.00  0.00     0.044 C 
BRANCH  12  14
ATOM     14  C   UNL     1      32.017  11.168  33.008  1.00  0.00    -0.005 C 
ATOM     15  C   UNL     1      31.990  11.937  31.920  1.00  0.00     0.009 C 
ENDBRANCH  12  14
ENDBRANCH  10  11
ENDBRANCH   2  10
TORSDOF 6
ENDMDL
MODEL 8
REMARK VINA RESULT:    -4.435      2.593      5.364
REMARK INTER + INTRA:          -7.136
REMARK INTER:                  -6.089
REMARK INTRA:                  -1.047
REMARK UNBOUND:                -1.145
REMARK SMILES C=CC(C)=CCC=C(C)CCC=C(C)C
REMARK SMILES IDX 8 1 7 2 9 3 10 4 11 5 12 6 14 7 13 8 15 9 6 10 5 11 3 12
REMARK SMILES IDX 4 13 2 14 1 15
REMARK H PARENT
REMARK Flexibility Score: inf
ROOT
ATOM      1  C   UNL     1      30.876   7.134  30.708  1.00  0.00    -0.077 C 
ATOM      2  C   UNL     1      31.556   6.281  29.909  1.00  0.00    -0.024 C 
ATOM      3  C   UNL     1      30.509   8.529  30.259  1.00  0.00     0.039 C 
ENDROOT
BRANCH   1   4
ATOM      4  C   UNL     1      30.481   6.685  32.098  1.00  0.00     0.034 C 
BRANCH   4   5
ATOM      5  C   UNL     1      31.601   6.978  33.103  1.00  0.00     0.032 C 
BRANCH   5   6
ATOM      6  C   UNL     1      31.164   8.020  34.102  1.00  0.00    -0.028 C 
ATOM      7  C   UNL     1      31.005  10.250  35.122  1.00  0.00     0.039 C 
ATOM      8  C   UNL     1      31.557   9.313  34.079  1.00  0.00    -0.080 C 
ATOM      9  C   UNL     1      32.540   9.833  33.057  1.00  0.00     0.039 C 
ENDBRANCH   5   6
ENDBRANCH   4   5
ENDBRANCH   1   4
BRANCH   2  10
ATOM     10  C   UNL     1      32.025   6.606  28.512  1.00  0.00     0.055 C 
BRANCH  10  11
ATOM     11  C   UNL     1      31.116   6.017  27.465  1.00  0.00    -0.020 C 
ATOM     12  C   UNL     1      30.451   6.726  26.530  1.00  0.00    -0.055 C 
ATOM     13  C   UNL     1      30.528   8.234  26.460  1.00  0.00     0.044 C 
BRANCH  12  14
ATOM     14  C   UNL     1      29.556   5.983  25.605  1.00  0.00    -0.005 C 
ATOM     15  C   UNL     1      29.748   5.912  24.287  1.00  0.00     0.009 C 
ENDBRANCH  12  14
ENDBRANCH  10  11
ENDBRANCH   2  10
TORSDOF 6
ENDMDL
MODEL 9
REMARK VINA RESULT:    -4.414      2.395      5.167
REMARK INTER + INTRA:          -7.108
REMARK INTER:                  -6.193
REMARK INTRA:                  -0.915
REMARK UNBOUND:                -1.145
REMARK SMILES C=CC(C)=CCC=C(C)CCC=C(C)C
REMARK SMILES IDX 8 1 7 2 9 3 10 4 11 5 12 6 14 7 13 8 15 9 6 10 5 11 3 12
REMARK SMILES IDX 4 13 2 14 1 15
REMARK H PARENT
REMARK Flexibility Score: inf
ROOT
ATOM      1  C   UNL     1      31.804   8.501  32.635  1.00  0.00    -0.077 C 
ATOM      2  C   UNL     1      31.142   8.683  31.469  1.00  0.00    -0.024 C 
ATOM      3  C   UNL     1      31.967   7.133  33.256  1.00  0.00     0.039 C 
ENDROOT
BRANCH   1   4
ATOM      4  C   UNL     1      32.388   9.702  33.345  1.00  0.00     0.034 C 
BRANCH   4   5
ATOM      5  C   UNL     1      31.351  10.343  34.274  1.00  0.00     0.032 C 
BRANCH   5   6
ATOM      6  C   UNL     1      31.601   9.948  35.708  1.00  0.00    -0.028 C 
ATOM      7  C   UNL     1      31.245   8.736  37.816  1.00  0.00     0.039 C 
ATOM      8  C   UNL     1      30.850   9.062  36.399  1.00  0.00    -0.080 C 
ATOM      9  C   UNL     1      29.627   8.410  35.798  1.00  0.00     0.039 C 
ENDBRANCH   5   6
ENDBRANCH   4   5
ENDBRANCH   1   4
BRANCH   2  10
ATOM     10  C   UNL     1      30.497   7.578  30.669  1.00  0.00     0.055 C 
BRANCH  10  11
ATOM     11  C   UNL     1      30.110   8.039  29.289  1.00  0.00    -0.020 C 
ATOM     12  C   UNL     1      30.678   7.612  28.142  1.00  0.00    -0.055 C 
ATOM     13  C   UNL     1      31.820   6.621  28.132  1.00  0.00     0.044 C 
BRANCH  12  14
ATOM     14  C   UNL     1      30.203   8.213  26.868  1.00  0.00    -0.005 C 
ATOM     15  C   UNL     1      29.805   9.480  26.751  1.00  0.00     0.009 C 
ENDBRANCH  12  14
ENDBRANCH  10  11
ENDBRANCH   2  10
TORSDOF 6
ENDMDL
