MODEL 1
REMARK VINA RESULT:    -3.595      0.000      0.000
REMARK INTER + INTRA:          -4.365
REMARK INTER:                  -4.226
REMARK INTRA:                  -0.139
REMARK UNBOUND:                -0.139
REMARK SMILES CCCCC(=O)[O-]
REMARK SMILES IDX 4 1 5 2 6 3 7 4 3 5 2 6 1 7
REMARK H PARENT
REMARK Flexibility Score: inf
ROOT
ATOM      1  C   UNL     1      10.234  13.446  20.202  1.00  0.00     0.053 C 
ENDROOT
BRANCH   1   2
ATOM      2  C   UNL     1      10.150  14.807  19.582  1.00  0.00     0.041 C 
ATOM      3  O   UNL     1      11.001  15.166  18.725  1.00  0.00    -0.550 OA
ATOM      4  O   UNL     1       9.115  15.668  19.927  1.00  0.00    -0.550 OA
ENDBRANCH   1   2
BRANCH   1   5
ATOM      5  C   UNL     1      10.160  13.507  21.735  1.00  0.00     0.006 C 
BRANCH   5   6
ATOM      6  C   UNL     1      11.306  14.300  22.391  1.00  0.00    -0.003 C 
ATOM      7  C   UNL     1      10.807  15.454  23.260  1.00  0.00     0.004 C 
ENDBRANCH   5   6
ENDBRANCH   1   5
TORSDOF 3
ENDMDL
MODEL 2
REMARK VINA RESULT:    -3.568      1.363      1.795
REMARK INTER + INTRA:          -4.333
REMARK INTER:                  -4.208
REMARK INTRA:                  -0.126
REMARK UNBOUND:                -0.139
REMARK SMILES CCCCC(=O)[O-]
REMARK SMILES IDX 4 1 5 2 6 3 7 4 3 5 2 6 1 7
REMARK H PARENT
REMARK Flexibility Score: inf
ROOT
ATOM      1  C   UNL     1       9.750  15.142  20.372  1.00  0.00     0.053 C 
ENDROOT
BRANCH   1   2
ATOM      2  C   UNL     1      10.687  14.765  19.264  1.00  0.00     0.041 C 
ATOM      3  O   UNL     1      11.302  15.658  18.625  1.00  0.00    -0.550 OA
ATOM      4  O   UNL     1      10.903  13.426  18.960  1.00  0.00    -0.550 OA
ENDBRANCH   1   2
BRANCH   1   5
ATOM      5  C   UNL     1      10.491  15.765  21.565  1.00  0.00     0.006 C 
BRANCH   5   6
ATOM      6  C   UNL     1      11.331  14.763  22.378  1.00  0.00    -0.003 C 
ATOM      7  C   UNL     1      10.545  13.512  22.773  1.00  0.00     0.004 C 
ENDBRANCH   5   6
ENDBRANCH   1   5
TORSDOF 3
ENDMDL
MODEL 3
REMARK VINA RESULT:    -3.288      1.420      2.237
REMARK INTER + INTRA:          -4.005
REMARK INTER:                  -3.956
REMARK INTRA:                  -0.049
REMARK UNBOUND:                -0.139
REMARK SMILES CCCCC(=O)[O-]
REMARK SMILES IDX 4 1 5 2 6 3 7 4 3 5 2 6 1 7
REMARK H PARENT
REMARK Flexibility Score: inf
ROOT
ATOM      1  C   UNL     1      10.890  14.956  21.194  1.00  0.00     0.053 C 
ENDROOT
BRANCH   1   2
ATOM      2  C   UNL     1      10.242  15.168  19.859  1.00  0.00     0.041 C 
ATOM      3  O   UNL     1       9.019  15.462  19.789  1.00  0.00    -0.550 OA
ATOM      4  O   UNL     1      10.995  15.071  18.696  1.00  0.00    -0.550 OA
ENDBRANCH   1   2
BRANCH   1   5
ATOM      5  C   UNL     1      10.261  15.835  22.285  1.00  0.00     0.006 C 
BRANCH   5   6
ATOM      6  C   UNL     1      11.257  16.770  22.994  1.00  0.00    -0.003 C 
ATOM      7  C   UNL     1      11.254  18.187  22.418  1.00  0.00     0.004 C 
ENDBRANCH   5   6
ENDBRANCH   1   5
TORSDOF 3
ENDMDL
MODEL 4
REMARK VINA RESULT:    -3.074      2.698      3.624
REMARK INTER + INTRA:          -3.753
REMARK INTER:                  -3.642
REMARK INTRA:                  -0.111
REMARK UNBOUND:                -0.139
REMARK SMILES CCCCC(=O)[O-]
REMARK SMILES IDX 4 1 5 2 6 3 7 4 3 5 2 6 1 7
REMARK H PARENT
REMARK Flexibility Score: inf
ROOT
ATOM      1  C   UNL     1      11.105  14.419  22.365  1.00  0.00     0.053 C 
ENDROOT
BRANCH   1   2
ATOM      2  C   UNL     1      10.571  13.094  22.817  1.00  0.00     0.041 C 
ATOM      3  O   UNL     1      10.525  12.124  22.016  1.00  0.00    -0.550 OA
ATOM      4  O   UNL     1      10.153  12.923  24.131  1.00  0.00    -0.550 OA
ENDBRANCH   1   2
BRANCH   1   5
ATOM      5  C   UNL     1       9.987  15.353  21.876  1.00  0.00     0.006 C 
BRANCH   5   6
ATOM      6  C   UNL     1       9.643  15.197  20.384  1.00  0.00    -0.003 C 
ATOM      7  C   UNL     1      10.873  14.932  19.515  1.00  0.00     0.004 C 
ENDBRANCH   5   6
ENDBRANCH   1   5
TORSDOF 3
ENDMDL
MODEL 5
REMARK VINA RESULT:    -3.017      3.104      4.035
REMARK INTER + INTRA:          -3.685
REMARK INTER:                  -3.652
REMARK INTRA:                  -0.034
REMARK UNBOUND:                -0.139
REMARK SMILES CCCCC(=O)[O-]
REMARK SMILES IDX 4 1 5 2 6 3 7 4 3 5 2 6 1 7
REMARK H PARENT
REMARK Flexibility Score: inf
ROOT
ATOM      1  C   UNL     1      10.320  17.169  21.750  1.00  0.00     0.053 C 
ENDROOT
BRANCH   1   2
ATOM      2  C   UNL     1      11.265  17.471  22.873  1.00  0.00     0.041 C 
ATOM      3  O   UNL     1      11.981  18.507  22.836  1.00  0.00    -0.550 OA
ATOM      4  O   UNL     1      11.332  16.626  23.974  1.00  0.00    -0.550 OA
ENDBRANCH   1   2
BRANCH   1   5
ATOM      5  C   UNL     1       9.923  15.686  21.716  1.00  0.00     0.006 C 
BRANCH   5   6
ATOM      6  C   UNL     1       9.662  15.135  20.302  1.00  0.00    -0.003 C 
ATOM      7  C   UNL     1      10.928  15.068  19.447  1.00  0.00     0.004 C 
ENDBRANCH   5   6
ENDBRANCH   1   5
TORSDOF 3
ENDMDL
MODEL 6
REMARK VINA RESULT:    -3.003     13.138     14.064
REMARK INTER + INTRA:          -3.670
REMARK INTER:                  -3.572
REMARK INTRA:                  -0.098
REMARK UNBOUND:                -0.139
REMARK SMILES CCCCC(=O)[O-]
REMARK SMILES IDX 4 1 5 2 6 3 7 4 3 5 2 6 1 7
REMARK H PARENT
REMARK Flexibility Score: inf
ROOT
ATOM      1  C   UNL     1      24.222  19.415  24.668  1.00  0.00     0.053 C 
ENDROOT
BRANCH   1   2
ATOM      2  C   UNL     1      23.643  19.712  23.318  1.00  0.00     0.041 C 
ATOM      3  O   UNL     1      23.612  18.817  22.432  1.00  0.00    -0.550 OA
ATOM      4  O   UNL     1      23.110  20.967  23.049  1.00  0.00    -0.550 OA
ENDBRANCH   1   2
BRANCH   1   5
ATOM      5  C   UNL     1      23.213  19.676  25.796  1.00  0.00     0.006 C 
BRANCH   5   6
ATOM      6  C   UNL     1      21.886  18.911  25.645  1.00  0.00    -0.003 C 
ATOM      7  C   UNL     1      20.706  19.633  26.296  1.00  0.00     0.004 C 
ENDBRANCH   5   6
ENDBRANCH   1   5
TORSDOF 3
ENDMDL
MODEL 7
REMARK VINA RESULT:    -2.976     16.313     17.176
REMARK INTER + INTRA:          -3.637
REMARK INTER:                  -3.508
REMARK INTRA:                  -0.129
REMARK UNBOUND:                -0.139
REMARK SMILES CCCCC(=O)[O-]
REMARK SMILES IDX 4 1 5 2 6 3 7 4 3 5 2 6 1 7
REMARK H PARENT
REMARK Flexibility Score: inf
ROOT
ATOM      1  C   UNL     1      24.337   7.369  27.129  1.00  0.00     0.053 C 
ENDROOT
BRANCH   1   2
ATOM      2  C   UNL     1      23.555   6.682  26.050  1.00  0.00     0.041 C 
ATOM      3  O   UNL     1      24.137   6.273  25.010  1.00  0.00    -0.550 OA
ATOM      4  O   UNL     1      22.192   6.468  26.207  1.00  0.00    -0.550 OA
ENDBRANCH   1   2
BRANCH   1   5
ATOM      5  C   UNL     1      24.272   6.605  28.460  1.00  0.00     0.006 C 
BRANCH   5   6
ATOM      6  C   UNL     1      24.635   5.113  28.350  1.00  0.00    -0.003 C 
ATOM      7  C   UNL     1      23.488   4.191  28.763  1.00  0.00     0.004 C 
ENDBRANCH   5   6
ENDBRANCH   1   5
TORSDOF 3
ENDMDL
MODEL 8
REMARK VINA RESULT:    -2.829     15.035     15.875
REMARK INTER + INTRA:          -3.465
REMARK INTER:                  -3.366
REMARK INTRA:                  -0.099
REMARK UNBOUND:                -0.139
REMARK SMILES CCCCC(=O)[O-]
REMARK SMILES IDX 4 1 5 2 6 3 7 4 3 5 2 6 1 7
REMARK H PARENT
REMARK Flexibility Score: inf
ROOT
ATOM      1  C   UNL     1      24.667  19.381  24.330  1.00  0.00     0.053 C 
ENDROOT
BRANCH   1   2
ATOM      2  C   UNL     1      23.722  19.624  23.192  1.00  0.00     0.041 C 
ATOM      3  O   UNL     1      23.090  20.711  23.116  1.00  0.00    -0.550 OA
ATOM      4  O   UNL     1      23.563  18.664  22.201  1.00  0.00    -0.550 OA
ENDBRANCH   1   2
BRANCH   1   5
ATOM      5  C   UNL     1      26.042  18.902  23.842  1.00  0.00     0.006 C 
BRANCH   5   6
ATOM      6  C   UNL     1      27.001  20.038  23.441  1.00  0.00    -0.003 C 
ATOM      7  C   UNL     1      27.415  19.974  21.971  1.00  0.00     0.004 C 
ENDBRANCH   5   6
ENDBRANCH   1   5
TORSDOF 3
ENDMDL
MODEL 9
REMARK VINA RESULT:    -2.714     14.646     15.411
REMARK INTER + INTRA:          -3.330
REMARK INTER:                  -3.233
REMARK INTRA:                  -0.097
REMARK UNBOUND:                -0.139
REMARK SMILES CCCCC(=O)[O-]
REMARK SMILES IDX 4 1 5 2 6 3 7 4 3 5 2 6 1 7
REMARK H PARENT
REMARK Flexibility Score: inf
ROOT
ATOM      1  C   UNL     1      24.141  18.895  23.326  1.00  0.00     0.053 C 
ENDROOT
BRANCH   1   2
ATOM      2  C   UNL     1      23.293  20.091  23.638  1.00  0.00     0.041 C 
ATOM      3  O   UNL     1      23.343  21.111  22.901  1.00  0.00    -0.550 OA
ATOM      4  O   UNL     1      22.426  20.066  24.723  1.00  0.00    -0.550 OA
ENDBRANCH   1   2
BRANCH   1   5
ATOM      5  C   UNL     1      25.637  19.182  23.525  1.00  0.00     0.006 C 
BRANCH   5   6
ATOM      6  C   UNL     1      26.008  19.633  24.950  1.00  0.00    -0.003 C 
ATOM      7  C   UNL     1      26.494  18.482  25.830  1.00  0.00     0.004 C 
ENDBRANCH   5   6
ENDBRANCH   1   5
TORSDOF 3
ENDMDL
