MODEL 1
REMARK VINA RESULT:    20.585      0.000      0.000
REMARK INTER + INTRA:          26.183
REMARK INTER:                  25.399
REMARK INTRA:                   0.784
REMARK UNBOUND:                 0.784
REMARK SMILES C=C1[C@@H]2CC[C@H]3[C@@H]2C(C)(C)CCC[C@@]13C
REMARK SMILES IDX 14 1 6 2 7 3 3 4 2 5 1 6 4 7 5 8 15 9 8 10 9 11 10 12 11 13
REMARK SMILES IDX 13 15 12 16
REMARK H PARENT
REMARK Flexibility Score: 80.00
ROOT
ATOM      1  C   UNL     1     144.687 145.866 159.252  1.00  0.00    -0.008 C 
ATOM      2  C   UNL     1     144.015 144.881 160.286  1.00  0.00     0.003 C 
ATOM      3  C   UNL     1     145.142 144.544 161.290  1.00  0.00     0.006 C 
ATOM      4  C   UNL     1     146.132 144.135 160.207  1.00  0.00     0.019 C 
ATOM      5  C   UNL     1     146.100 145.328 159.294  1.00  0.00    -0.068 C 
ATOM      6  C   UNL     1     147.137 145.758 158.565  1.00  0.00     0.009 C 
ATOM      7  C   UNL     1     145.340 143.012 159.499  1.00  0.00     0.008 C 
ATOM      8  C   UNL     1     143.867 143.476 159.641  1.00  0.00     0.005 C 
ATOM      9  C   UNL     1     144.121 145.752 157.810  1.00  0.00     0.016 C 
ENDROOT
BRANCH   3  10
ATOM     10  C   UNL     1     145.593 145.594 162.375  1.00  0.00    -0.032 C 
ATOM     11  C   UNL     1     147.134 145.743 162.317  1.00  0.00     0.011 C 
ATOM     12  C   UNL     1     145.254 145.022 163.777  1.00  0.00     0.011 C 
BRANCH  10  13
ATOM     13  C   UNL     1     144.991 147.019 162.225  1.00  0.00     0.007 CG0
ATOM     14  G   UNL     1     145.377 147.738 160.931  1.00  0.00     0.000 G0
ENDBRANCH  10  13
ENDBRANCH   3  10
BRANCH   1  15
ATOM     15  C   UNL     1     144.594 147.365 159.661  1.00  0.00     0.011 C 
BRANCH  15  16
ATOM     16  C   UNL     1     145.367 147.795 160.905  1.00  0.00     0.001 CG0
ATOM     17  G   UNL     1     144.968 147.014 162.158  1.00  0.00     0.000 G0
ENDBRANCH  15  16
ENDBRANCH   1  15
TORSDOF 0
ENDMDL
MODEL 2
REMARK VINA RESULT:    20.704      1.717      3.355
REMARK INTER + INTRA:          26.330
REMARK INTER:                  25.544
REMARK INTRA:                   0.786
REMARK UNBOUND:                 0.784
REMARK SMILES C=C1[C@@H]2CC[C@H]3[C@@H]2C(C)(C)CCC[C@@]13C
REMARK SMILES IDX 14 1 6 2 7 3 3 4 2 5 1 6 4 7 5 8 15 9 8 10 9 11 10 12 11 13
REMARK SMILES IDX 13 15 12 16
REMARK H PARENT
REMARK Flexibility Score: 80.00
ROOT
ATOM      1  C   UNL     1     146.064 144.884 159.250  1.00  0.00    -0.008 C 
ATOM      2  C   UNL     1     146.732 145.867 160.289  1.00  0.00     0.003 C 
ATOM      3  C   UNL     1     145.602 146.201 161.290  1.00  0.00     0.006 C 
ATOM      4  C   UNL     1     144.615 146.611 160.205  1.00  0.00     0.019 C 
ATOM      5  C   UNL     1     144.651 145.420 159.289  1.00  0.00    -0.068 C 
ATOM      6  C   UNL     1     143.616 144.992 158.555  1.00  0.00     0.009 C 
ATOM      7  C   UNL     1     145.409 147.737 159.502  1.00  0.00     0.008 C 
ATOM      8  C   UNL     1     146.881 147.274 159.647  1.00  0.00     0.005 C 
ATOM      9  C   UNL     1     146.634 145.000 157.811  1.00  0.00     0.016 C 
ENDROOT
BRANCH   3  10
ATOM     10  C   UNL     1     145.148 145.148 162.371  1.00  0.00    -0.032 C 
ATOM     11  C   UNL     1     143.607 145.000 162.309  1.00  0.00     0.011 C 
ATOM     12  C   UNL     1     145.484 145.716 163.776  1.00  0.00     0.011 C 
BRANCH  10  13
ATOM     13  C   UNL     1     145.750 143.723 162.219  1.00  0.00     0.007 CG0
ATOM     14  G   UNL     1     145.365 143.007 160.924  1.00  0.00     0.000 G0
ENDBRANCH  10  13
ENDBRANCH   3  10
BRANCH   1  15
ATOM     15  C   UNL     1     146.157 143.383 159.657  1.00  0.00     0.011 C 
BRANCH  15  16
ATOM     16  C   UNL     1     145.376 142.950 160.895  1.00  0.00     0.001 CG0
ATOM     17  G   UNL     1     145.770 143.724 162.153  1.00  0.00     0.000 G0
ENDBRANCH  15  16
ENDBRANCH   1  15
TORSDOF 0
ENDMDL
MODEL 3
REMARK VINA RESULT:    21.448      9.514     11.363
REMARK INTER + INTRA:          27.248
REMARK INTER:                  26.495
REMARK INTRA:                   0.753
REMARK UNBOUND:                 0.784
REMARK SMILES C=C1[C@@H]2CC[C@H]3[C@@H]2C(C)(C)CCC[C@@]13C
REMARK SMILES IDX 14 1 6 2 7 3 3 4 2 5 1 6 4 7 5 8 15 9 8 10 9 11 10 12 11 13
REMARK SMILES IDX 13 15 12 16
REMARK H PARENT
REMARK Flexibility Score: 80.00
ROOT
ATOM      1  C   UNL     1     137.383 137.885 161.529  1.00  0.00    -0.008 C 
ATOM      2  C   UNL     1     135.947 138.485 161.270  1.00  0.00     0.003 C 
ATOM      3  C   UNL     1     135.458 138.938 162.665  1.00  0.00     0.006 C 
ATOM      4  C   UNL     1     135.739 137.591 163.320  1.00  0.00     0.019 C 
ATOM      5  C   UNL     1     137.170 137.352 162.928  1.00  0.00    -0.068 C 
ATOM      6  C   UNL     1     138.060 136.678 163.667  1.00  0.00     0.009 C 
ATOM      7  C   UNL     1     134.875 136.657 162.442  1.00  0.00     0.008 C 
ATOM      8  C   UNL     1     134.935 137.328 161.046  1.00  0.00     0.005 C 
ATOM      9  C   UNL     1     137.765 136.722 160.573  1.00  0.00     0.016 C 
ENDROOT
BRANCH   3  10
ATOM     10  C   UNL     1     136.033 140.243 163.335  1.00  0.00    -0.032 C 
ATOM     11  C   UNL     1     136.461 139.914 164.787  1.00  0.00     0.011 C 
ATOM     12  C   UNL     1     134.887 141.285 163.435  1.00  0.00     0.011 C 
BRANCH  10  13
ATOM     13  C   UNL     1     137.265 140.876 162.629  1.00  0.00     0.007 CG0
ATOM     14  G   UNL     1     138.500 139.976 162.579  1.00  0.00     0.000 G0
ENDBRANCH  10  13
ENDBRANCH   3  10
BRANCH   1  15
ATOM     15  C   UNL     1     138.528 138.937 161.446  1.00  0.00     0.011 C 
BRANCH  15  16
ATOM     16  C   UNL     1     138.568 140.006 162.535  1.00  0.00     0.001 CG0
ATOM     17  G   UNL     1     137.267 140.804 162.640  1.00  0.00     0.000 G0
ENDBRANCH  15  16
ENDBRANCH   1  15
TORSDOF 0
ENDMDL
MODEL 4
REMARK VINA RESULT:    22.714      1.348      3.189
REMARK INTER + INTRA:          28.809
REMARK INTER:                  27.816
REMARK INTRA:                   0.993
REMARK UNBOUND:                 0.784
REMARK SMILES C=C1[C@@H]2CC[C@H]3[C@@H]2C(C)(C)CCC[C@@]13C
REMARK SMILES IDX 14 1 6 2 7 3 3 4 2 5 1 6 4 7 5 8 15 9 8 10 9 11 10 12 11 13
REMARK SMILES IDX 13 15 12 16
REMARK H PARENT
REMARK Flexibility Score: 80.00
ROOT
ATOM      1  C   UNL     1     146.015 144.949 159.855  1.00  0.00    -0.008 C 
ATOM      2  C   UNL     1     144.628 145.552 159.405  1.00  0.00     0.003 C 
ATOM      3  C   UNL     1     144.402 146.756 160.349  1.00  0.00     0.006 C 
ATOM      4  C   UNL     1     144.635 145.944 161.617  1.00  0.00     0.019 C 
ATOM      5  C   UNL     1     145.958 145.293 161.327  1.00  0.00    -0.068 C 
ATOM      6  C   UNL     1     146.872 144.980 162.254  1.00  0.00     0.009 C 
ATOM      7  C   UNL     1     143.556 144.848 161.460  1.00  0.00     0.008 C 
ATOM      8  C   UNL     1     143.477 144.647 159.925  1.00  0.00     0.005 C 
ATOM      9  C   UNL     1     146.125 143.411 159.676  1.00  0.00     0.016 C 
ENDROOT
BRANCH   3  10
ATOM     10  C   UNL     1     145.206 148.097 160.148  1.00  0.00    -0.032 C 
ATOM     11  C   UNL     1     145.018 148.986 161.403  1.00  0.00     0.011 C 
ATOM     12  C   UNL     1     144.575 148.869 158.958  1.00  0.00     0.011 C 
BRANCH  10  13
ATOM     13  C   UNL     1     146.736 147.939 159.925  1.00  0.00     0.007 CG0
ATOM     14  G   UNL     1     147.116 147.048 158.742  1.00  0.00     0.000 G0
ENDBRANCH  10  13
ENDBRANCH   3  10
BRANCH   1  15
ATOM     15  C   UNL     1     147.239 145.582 159.130  1.00  0.00     0.011 C 
BRANCH  15  16
ATOM     16  C   UNL     1     147.132 147.054 158.741  1.00  0.00     0.001 CG0
ATOM     17  G   UNL     1     146.742 147.956 159.912  1.00  0.00     0.000 G0
ENDBRANCH  15  16
ENDBRANCH   1  15
TORSDOF 0
ENDMDL
MODEL 5
REMARK VINA RESULT:    22.880      2.033      3.846
REMARK INTER + INTRA:          29.015
REMARK INTER:                  28.017
REMARK INTRA:                   0.998
REMARK UNBOUND:                 0.784
REMARK SMILES C=C1[C@@H]2CC[C@H]3[C@@H]2C(C)(C)CCC[C@@]13C
REMARK SMILES IDX 14 1 6 2 7 3 3 4 2 5 1 6 4 7 5 8 15 9 8 10 9 11 10 12 11 13
REMARK SMILES IDX 13 15 12 16
REMARK H PARENT
REMARK Flexibility Score: 80.00
ROOT
ATOM      1  C   UNL     1     144.735 145.705 159.850  1.00  0.00    -0.008 C 
ATOM      2  C   UNL     1     146.121 145.087 159.417  1.00  0.00     0.003 C 
ATOM      3  C   UNL     1     146.346 143.913 160.398  1.00  0.00     0.006 C 
ATOM      4  C   UNL     1     146.116 144.764 161.640  1.00  0.00     0.019 C 
ATOM      5  C   UNL     1     144.793 145.407 161.331  1.00  0.00    -0.068 C 
ATOM      6  C   UNL     1     143.880 145.750 162.248  1.00  0.00     0.009 C 
ATOM      7  C   UNL     1     147.196 145.854 161.448  1.00  0.00     0.008 C 
ATOM      8  C   UNL     1     147.273 146.007 159.908  1.00  0.00     0.005 C 
ATOM      9  C   UNL     1     144.626 147.237 159.622  1.00  0.00     0.016 C 
ENDROOT
BRANCH   3  10
ATOM     10  C   UNL     1     145.542 142.567 160.239  1.00  0.00    -0.032 C 
ATOM     11  C   UNL     1     145.735 141.715 161.518  1.00  0.00     0.011 C 
ATOM     12  C   UNL     1     146.166 141.761 159.069  1.00  0.00     0.011 C 
BRANCH  10  13
ATOM     13  C   UNL     1     144.010 142.719 160.020  1.00  0.00     0.007 CG0
ATOM     14  G   UNL     1     143.624 143.558 158.801  1.00  0.00     0.000 G0
ENDBRANCH  10  13
ENDBRANCH   3  10
BRANCH   1  15
ATOM     15  C   UNL     1     143.509 145.052 159.145  1.00  0.00     0.011 C 
BRANCH  15  16
ATOM     16  C   UNL     1     143.604 143.562 158.827  1.00  0.00     0.001 CG0
ATOM     17  G   UNL     1     144.008 142.715 160.035  1.00  0.00     0.000 G0
ENDBRANCH  15  16
ENDBRANCH   1  15
TORSDOF 0
ENDMDL
