MODEL 1
REMARK VINA RESULT:    -3.592      0.000      0.000
REMARK INTER + INTRA:          -4.233
REMARK INTER:                  -4.011
REMARK INTRA:                  -0.221
REMARK UNBOUND:                -0.221
REMARK SMILES O=C([O-])c1ccccc1C(=O)[O-]
REMARK SMILES IDX 4 1 9 2 5 3 8 4 6 5 7 6 2 7 1 8 3 9 10 10 11 11 12 12
REMARK H PARENT
REMARK Flexibility Score: inf
ROOT
ATOM      1  C   UNL     1      16.928  -2.960  16.791  1.00  0.00     0.006 A 
ATOM      2  C   UNL     1      17.974  -2.127  17.277  1.00  0.00     0.006 A 
ATOM      3  C   UNL     1      15.709  -2.372  16.405  1.00  0.00     0.010 A 
ATOM      4  C   UNL     1      17.741  -0.746  17.418  1.00  0.00     0.010 A 
ATOM      5  C   UNL     1      15.507  -0.997  16.532  1.00  0.00     0.001 A 
ATOM      6  C   UNL     1      16.517  -0.188  17.049  1.00  0.00     0.001 A 
ENDROOT
BRANCH   1   7
ATOM      7  C   UNL     1      17.039  -4.436  16.744  1.00  0.00     0.072 C 
ATOM      8  O   UNL     1      16.772  -5.125  17.764  1.00  0.00    -0.545 OA
ATOM      9  O   UNL     1      17.501  -5.075  15.600  1.00  0.00    -0.545 OA
ENDBRANCH   1   7
BRANCH   2  10
ATOM     10  C   UNL     1      19.331  -2.640  17.573  1.00  0.00     0.072 C 
ATOM     11  O   UNL     1      20.235  -2.583  16.698  1.00  0.00    -0.545 OA
ATOM     12  O   UNL     1      19.608  -3.248  18.792  1.00  0.00    -0.545 OA
ENDBRANCH   2  10
TORSDOF 2
ENDMDL
MODEL 2
REMARK VINA RESULT:    -3.582      0.069      3.123
REMARK INTER + INTRA:          -4.221
REMARK INTER:                  -4.019
REMARK INTRA:                  -0.203
REMARK UNBOUND:                -0.221
REMARK SMILES O=C([O-])c1ccccc1C(=O)[O-]
REMARK SMILES IDX 4 1 9 2 5 3 8 4 6 5 7 6 2 7 1 8 3 9 10 10 11 11 12 12
REMARK H PARENT
REMARK Flexibility Score: inf
ROOT
ATOM      1  C   UNL     1      17.979  -2.131  17.234  1.00  0.00     0.006 A 
ATOM      2  C   UNL     1      16.939  -2.978  16.761  1.00  0.00     0.006 A 
ATOM      3  C   UNL     1      17.733  -0.750  17.360  1.00  0.00     0.010 A 
ATOM      4  C   UNL     1      15.713  -2.407  16.372  1.00  0.00     0.010 A 
ATOM      5  C   UNL     1      16.502  -0.208  16.989  1.00  0.00     0.001 A 
ATOM      6  C   UNL     1      15.498  -1.033  16.485  1.00  0.00     0.001 A 
ENDROOT
BRANCH   1   7
ATOM      7  C   UNL     1      19.342  -2.629  17.531  1.00  0.00     0.072 C 
ATOM      8  O   UNL     1      20.246  -2.561  16.656  1.00  0.00    -0.545 OA
ATOM      9  O   UNL     1      19.625  -3.235  18.748  1.00  0.00    -0.545 OA
ENDBRANCH   1   7
BRANCH   2  10
ATOM     10  C   UNL     1      17.063  -4.454  16.730  1.00  0.00     0.072 C 
ATOM     11  O   UNL     1      16.913  -5.125  17.785  1.00  0.00    -0.545 OA
ATOM     12  O   UNL     1      17.408  -5.111  15.555  1.00  0.00    -0.545 OA
ENDBRANCH   2  10
TORSDOF 2
ENDMDL
MODEL 3
REMARK VINA RESULT:    -3.438      2.217      4.232
REMARK INTER + INTRA:          -4.061
REMARK INTER:                  -3.851
REMARK INTRA:                  -0.210
REMARK UNBOUND:                -0.221
REMARK SMILES O=C([O-])c1ccccc1C(=O)[O-]
REMARK SMILES IDX 4 1 9 2 5 3 8 4 6 5 7 6 2 7 1 8 3 9 10 10 11 11 12 12
REMARK H PARENT
REMARK Flexibility Score: inf
ROOT
ATOM      1  C   UNL     1      18.030  -1.880  16.758  1.00  0.00     0.006 A 
ATOM      2  C   UNL     1      17.454  -3.170  16.926  1.00  0.00     0.006 A 
ATOM      3  C   UNL     1      19.432  -1.750  16.777  1.00  0.00     0.010 A 
ATOM      4  C   UNL     1      18.296  -4.271  17.169  1.00  0.00     0.010 A 
ATOM      5  C   UNL     1      20.249  -2.860  16.998  1.00  0.00     0.001 A 
ATOM      6  C   UNL     1      19.682  -4.115  17.205  1.00  0.00     0.001 A 
ENDROOT
BRANCH   1   7
ATOM      7  C   UNL     1      17.215  -0.650  16.638  1.00  0.00     0.072 C 
ATOM      8  O   UNL     1      16.981   0.057  17.655  1.00  0.00    -0.545 OA
ATOM      9  O   UNL     1      16.644  -0.293  15.423  1.00  0.00    -0.545 OA
ENDBRANCH   1   7
BRANCH   2  10
ATOM     10  C   UNL     1      16.001  -3.419  16.780  1.00  0.00     0.072 C 
ATOM     11  O   UNL     1      15.268  -3.509  17.800  1.00  0.00    -0.545 OA
ATOM     12  O   UNL     1      15.439  -3.621  15.525  1.00  0.00    -0.545 OA
ENDBRANCH   2  10
TORSDOF 2
ENDMDL
MODEL 4
REMARK VINA RESULT:    -3.435      2.337      4.038
REMARK INTER + INTRA:          -4.058
REMARK INTER:                  -3.840
REMARK INTRA:                  -0.218
REMARK UNBOUND:                -0.221
REMARK SMILES O=C([O-])c1ccccc1C(=O)[O-]
REMARK SMILES IDX 4 1 9 2 5 3 8 4 6 5 7 6 2 7 1 8 3 9 10 10 11 11 12 12
REMARK H PARENT
REMARK Flexibility Score: inf
ROOT
ATOM      1  C   UNL     1      18.009  -1.837  17.066  1.00  0.00     0.006 A 
ATOM      2  C   UNL     1      17.571  -2.923  17.873  1.00  0.00     0.006 A 
ATOM      3  C   UNL     1      19.348  -1.802  16.635  1.00  0.00     0.010 A 
ATOM      4  C   UNL     1      18.503  -3.900  18.273  1.00  0.00     0.010 A 
ATOM      5  C   UNL     1      20.250  -2.793  17.024  1.00  0.00     0.001 A 
ATOM      6  C   UNL     1      19.831  -3.833  17.851  1.00  0.00     0.001 A 
ENDROOT
BRANCH   1   7
ATOM      7  C   UNL     1      17.131  -0.696  16.718  1.00  0.00     0.072 C 
ATOM      8  O   UNL     1      16.910   0.214  17.561  1.00  0.00    -0.545 OA
ATOM      9  O   UNL     1      16.489  -0.645  15.487  1.00  0.00    -0.545 OA
ENDBRANCH   1   7
BRANCH   2  10
ATOM     10  C   UNL     1      16.152  -3.114  18.254  1.00  0.00     0.072 C 
ATOM     11  O   UNL     1      15.375  -3.759  17.502  1.00  0.00    -0.545 OA
ATOM     12  O   UNL     1      15.645  -2.532  19.410  1.00  0.00    -0.545 OA
ENDBRANCH   2  10
TORSDOF 2
ENDMDL
MODEL 5
REMARK VINA RESULT:    -3.414      2.302      3.490
REMARK INTER + INTRA:          -4.034
REMARK INTER:                  -3.829
REMARK INTRA:                  -0.205
REMARK UNBOUND:                -0.221
REMARK SMILES O=C([O-])c1ccccc1C(=O)[O-]
REMARK SMILES IDX 4 1 9 2 5 3 8 4 6 5 7 6 2 7 1 8 3 9 10 10 11 11 12 12
REMARK H PARENT
REMARK Flexibility Score: inf
ROOT
ATOM      1  C   UNL     1      17.206  -3.103  16.956  1.00  0.00     0.006 A 
ATOM      2  C   UNL     1      17.800  -1.820  16.799  1.00  0.00     0.006 A 
ATOM      3  C   UNL     1      18.025  -4.202  17.279  1.00  0.00     0.010 A 
ATOM      4  C   UNL     1      19.198  -1.695  16.908  1.00  0.00     0.010 A 
ATOM      5  C   UNL     1      19.406  -4.050  17.404  1.00  0.00     0.001 A 
ATOM      6  C   UNL     1      19.993  -2.802  17.207  1.00  0.00     0.001 A 
ENDROOT
BRANCH   1   7
ATOM      7  C   UNL     1      15.765  -3.349  16.721  1.00  0.00     0.072 C 
ATOM      8  O   UNL     1      15.345  -3.594  15.558  1.00  0.00    -0.545 OA
ATOM      9  O   UNL     1      14.849  -3.250  17.762  1.00  0.00    -0.545 OA
ENDBRANCH   1   7
BRANCH   2  10
ATOM     10  C   UNL     1      17.002  -0.589  16.599  1.00  0.00     0.072 C 
ATOM     11  O   UNL     1      16.741   0.163  17.575  1.00  0.00    -0.545 OA
ATOM     12  O   UNL     1      16.478  -0.280  15.349  1.00  0.00    -0.545 OA
ENDBRANCH   2  10
TORSDOF 2
ENDMDL
MODEL 6
REMARK VINA RESULT:    -3.398      1.963      3.491
REMARK INTER + INTRA:          -4.016
REMARK INTER:                  -3.957
REMARK INTRA:                  -0.059
REMARK UNBOUND:                -0.221
REMARK SMILES O=C([O-])c1ccccc1C(=O)[O-]
REMARK SMILES IDX 4 1 9 2 5 3 8 4 6 5 7 6 2 7 1 8 3 9 10 10 11 11 12 12
REMARK H PARENT
REMARK Flexibility Score: inf
ROOT
ATOM      1  C   UNL     1      17.724  -3.142  16.965  1.00  0.00     0.006 A 
ATOM      2  C   UNL     1      16.611  -2.310  16.665  1.00  0.00     0.006 A 
ATOM      3  C   UNL     1      17.550  -4.540  16.977  1.00  0.00     0.010 A 
ATOM      4  C   UNL     1      15.351  -2.901  16.449  1.00  0.00     0.010 A 
ATOM      5  C   UNL     1      16.297  -5.105  16.738  1.00  0.00     0.001 A 
ATOM      6  C   UNL     1      15.198  -4.287  16.487  1.00  0.00     0.001 A 
ENDROOT
BRANCH   1   7
ATOM      7  C   UNL     1      19.049  -2.599  17.342  1.00  0.00     0.072 C 
ATOM      8  O   UNL     1      19.514  -2.804  18.496  1.00  0.00    -0.545 OA
ATOM      9  O   UNL     1      19.767  -1.804  16.457  1.00  0.00    -0.545 OA
ENDBRANCH   1   7
BRANCH   2  10
ATOM     10  C   UNL     1      16.733  -0.844  16.493  1.00  0.00     0.072 C 
ATOM     11  O   UNL     1      16.858  -0.348  15.343  1.00  0.00    -0.545 OA
ATOM     12  O   UNL     1      16.776  -0.003  17.599  1.00  0.00    -0.545 OA
ENDBRANCH   2  10
TORSDOF 2
ENDMDL
MODEL 7
REMARK VINA RESULT:    -3.394      1.958      3.359
REMARK INTER + INTRA:          -4.012
REMARK INTER:                  -3.964
REMARK INTRA:                  -0.047
REMARK UNBOUND:                -0.221
REMARK SMILES O=C([O-])c1ccccc1C(=O)[O-]
REMARK SMILES IDX 4 1 9 2 5 3 8 4 6 5 7 6 2 7 1 8 3 9 10 10 11 11 12 12
REMARK H PARENT
REMARK Flexibility Score: inf
ROOT
ATOM      1  C   UNL     1      16.613  -2.321  16.673  1.00  0.00     0.006 A 
ATOM      2  C   UNL     1      17.725  -3.156  16.974  1.00  0.00     0.006 A 
ATOM      3  C   UNL     1      15.353  -2.911  16.457  1.00  0.00     0.010 A 
ATOM      4  C   UNL     1      17.550  -4.553  16.986  1.00  0.00     0.010 A 
ATOM      5  C   UNL     1      15.198  -4.297  16.496  1.00  0.00     0.001 A 
ATOM      6  C   UNL     1      16.296  -5.117  16.747  1.00  0.00     0.001 A 
ENDROOT
BRANCH   1   7
ATOM      7  C   UNL     1      16.738  -0.855  16.503  1.00  0.00     0.072 C 
ATOM      8  O   UNL     1      16.868  -0.360  15.352  1.00  0.00    -0.545 OA
ATOM      9  O   UNL     1      16.779  -0.014  17.608  1.00  0.00    -0.545 OA
ENDBRANCH   1   7
BRANCH   2  10
ATOM     10  C   UNL     1      19.051  -2.614  17.352  1.00  0.00     0.072 C 
ATOM     11  O   UNL     1      19.521  -2.834  18.499  1.00  0.00    -0.545 OA
ATOM     12  O   UNL     1      19.763  -1.807  16.473  1.00  0.00    -0.545 OA
ENDBRANCH   2  10
TORSDOF 2
ENDMDL
MODEL 8
REMARK VINA RESULT:    -3.046      2.099      3.651
REMARK INTER + INTRA:          -3.624
REMARK INTER:                  -3.448
REMARK INTRA:                  -0.176
REMARK UNBOUND:                -0.221
REMARK SMILES O=C([O-])c1ccccc1C(=O)[O-]
REMARK SMILES IDX 4 1 9 2 5 3 8 4 6 5 7 6 2 7 1 8 3 9 10 10 11 11 12 12
REMARK H PARENT
REMARK Flexibility Score: inf
ROOT
ATOM      1  C   UNL     1      18.531  -3.797  18.174  1.00  0.00     0.006 A 
ATOM      2  C   UNL     1      18.657  -2.711  17.265  1.00  0.00     0.006 A 
ATOM      3  C   UNL     1      19.654  -4.607  18.433  1.00  0.00     0.010 A 
ATOM      4  C   UNL     1      19.882  -2.513  16.599  1.00  0.00     0.010 A 
ATOM      5  C   UNL     1      20.865  -4.379  17.778  1.00  0.00     0.001 A 
ATOM      6  C   UNL     1      20.975  -3.342  16.854  1.00  0.00     0.001 A 
ENDROOT
BRANCH   1   7
ATOM      7  C   UNL     1      17.244  -4.161  18.810  1.00  0.00     0.072 C 
ATOM      8  O   UNL     1      17.061  -3.949  20.038  1.00  0.00    -0.545 OA
ATOM      9  O   UNL     1      16.248  -4.798  18.080  1.00  0.00    -0.545 OA
ENDBRANCH   1   7
BRANCH   2  10
ATOM     10  C   UNL     1      17.573  -1.727  17.041  1.00  0.00     0.072 C 
ATOM     11  O   UNL     1      16.647  -1.979  16.226  1.00  0.00    -0.545 OA
ATOM     12  O   UNL     1      17.597  -0.490  17.676  1.00  0.00    -0.545 OA
ENDBRANCH   2  10
TORSDOF 2
ENDMDL
MODEL 9
REMARK VINA RESULT:    -2.983      1.590      3.011
REMARK INTER + INTRA:          -3.552
REMARK INTER:                  -3.324
REMARK INTRA:                  -0.228
REMARK UNBOUND:                -0.221
REMARK SMILES O=C([O-])c1ccccc1C(=O)[O-]
REMARK SMILES IDX 4 1 9 2 5 3 8 4 6 5 7 6 2 7 1 8 3 9 10 10 11 11 12 12
REMARK H PARENT
REMARK Flexibility Score: inf
ROOT
ATOM      1  C   UNL     1      17.684  -2.332  17.758  1.00  0.00     0.006 A 
ATOM      2  C   UNL     1      16.470  -2.722  18.387  1.00  0.00     0.006 A 
ATOM      3  C   UNL     1      17.761  -1.066  17.147  1.00  0.00     0.010 A 
ATOM      4  C   UNL     1      15.359  -1.860  18.328  1.00  0.00     0.010 A 
ATOM      5  C   UNL     1      16.654  -0.218  17.118  1.00  0.00     0.001 A 
ATOM      6  C   UNL     1      15.452  -0.619  17.697  1.00  0.00     0.001 A 
ENDROOT
BRANCH   1   7
ATOM      7  C   UNL     1      18.854  -3.233  17.652  1.00  0.00     0.072 C 
ATOM      8  O   UNL     1      18.950  -4.036  16.686  1.00  0.00    -0.545 OA
ATOM      9  O   UNL     1      19.827  -3.252  18.644  1.00  0.00    -0.545 OA
ENDBRANCH   1   7
BRANCH   2  10
ATOM     10  C   UNL     1      16.344  -3.972  19.173  1.00  0.00     0.072 C 
ATOM     11  O   UNL     1      15.818  -4.993  18.658  1.00  0.00    -0.545 OA
ATOM     12  O   UNL     1      16.744  -4.016  20.503  1.00  0.00    -0.545 OA
ENDBRANCH   2  10
TORSDOF 2
ENDMDL
