MODEL 1
REMARK VINA RESULT:    -5.451      0.000      0.000
REMARK INTER + INTRA:         -11.615
REMARK INTER:                 -10.549
REMARK INTRA:                  -1.066
REMARK UNBOUND:                -1.066
REMARK SMILES CCCCCCCCCCCCCCCCCC(=O)[O-]
REMARK SMILES IDX 10 1 11 2 12 3 13 4 14 5 15 6 16 7 17 8 18 9 19 10 20 11
REMARK SMILES IDX 9 12 8 13 7 14 6 15 5 16 4 17 3 18 2 19 1 20
REMARK H PARENT
REMARK Flexibility Score: inf
ROOT
ATOM      1  C   UNL     1      40.411  66.961  25.410  1.00  0.00     0.000 C 
ENDROOT
BRANCH   1   2
ATOM      2  C   UNL     1      41.412  65.807  25.577  1.00  0.00     0.000 C 
BRANCH   2   3
ATOM      3  C   UNL     1      41.630  65.019  24.277  1.00  0.00     0.000 C 
BRANCH   3   4
ATOM      4  C   UNL     1      41.759  63.507  24.513  1.00  0.00     0.000 C 
BRANCH   4   5
ATOM      5  C   UNL     1      42.390  63.218  25.883  1.00  0.00     0.000 C 
BRANCH   5   6
ATOM      6  C   UNL     1      43.054  61.833  25.951  1.00  0.00     0.000 C 
BRANCH   6   7
ATOM      7  C   UNL     1      44.473  61.884  26.537  1.00  0.00     0.006 C 
BRANCH   7   8
ATOM      8  C   UNL     1      45.501  62.231  25.455  1.00  0.00     0.053 C 
BRANCH   8   9
ATOM      9  C   UNL     1      46.629  63.023  26.036  1.00  0.00     0.041 C 
ATOM     10  O   UNL     1      46.606  63.358  27.250  1.00  0.00    -0.550 OA
ATOM     11  O   UNL     1      47.679  63.437  25.227  1.00  0.00    -0.550 OA
ENDBRANCH   8   9
ENDBRANCH   7   8
ENDBRANCH   6   7
ENDBRANCH   5   6
ENDBRANCH   4   5
ENDBRANCH   3   4
ENDBRANCH   2   3
ENDBRANCH   1   2
BRANCH   1  12
ATOM     12  C   UNL     1      39.638  66.832  24.089  1.00  0.00     0.000 C 
BRANCH  12  13
ATOM     13  C   UNL     1      38.174  67.290  24.205  1.00  0.00    -0.000 C 
BRANCH  13  14
ATOM     14  C   UNL     1      37.562  67.165  25.614  1.00  0.00    -0.000 C 
BRANCH  14  15
ATOM     15  C   UNL     1      36.319  68.041  25.869  1.00  0.00    -0.000 C 
BRANCH  15  16
ATOM     16  C   UNL     1      34.976  67.287  25.852  1.00  0.00    -0.000 C 
BRANCH  16  17
ATOM     17  C   UNL     1      35.004  66.000  26.695  1.00  0.00    -0.000 C 
BRANCH  17  18
ATOM     18  C   UNL     1      34.614  64.755  25.882  1.00  0.00    -0.000 C 
BRANCH  18  19
ATOM     19  C   UNL     1      34.773  63.454  26.682  1.00  0.00    -0.003 C 
ATOM     20  C   UNL     1      35.025  63.745  28.159  1.00  0.00     0.004 C 
ENDBRANCH  18  19
ENDBRANCH  17  18
ENDBRANCH  16  17
ENDBRANCH  15  16
ENDBRANCH  14  15
ENDBRANCH  13  14
ENDBRANCH  12  13
ENDBRANCH   1  12
TORSDOF 16
ENDMDL
MODEL 2
REMARK VINA RESULT:    -5.392      5.063      6.655
REMARK INTER + INTRA:         -11.502
REMARK INTER:                 -10.679
REMARK INTRA:                  -0.823
REMARK UNBOUND:                -1.066
REMARK SMILES CCCCCCCCCCCCCCCCCC(=O)[O-]
REMARK SMILES IDX 10 1 11 2 12 3 13 4 14 5 15 6 16 7 17 8 18 9 19 10 20 11
REMARK SMILES IDX 9 12 8 13 7 14 6 15 5 16 4 17 3 18 2 19 1 20
REMARK H PARENT
REMARK Flexibility Score: inf
ROOT
ATOM      1  C   UNL     1      40.430  66.328  23.126  1.00  0.00     0.000 C 
ENDROOT
BRANCH   1   2
ATOM      2  C   UNL     1      41.438  67.451  22.834  1.00  0.00     0.000 C 
BRANCH   2   3
ATOM      3  C   UNL     1      41.933  68.149  24.110  1.00  0.00     0.000 C 
BRANCH   3   4
ATOM      4  C   UNL     1      43.134  69.072  23.855  1.00  0.00     0.000 C 
BRANCH   4   5
ATOM      5  C   UNL     1      43.315  70.068  25.010  1.00  0.00     0.000 C 
BRANCH   5   6
ATOM      6  C   UNL     1      44.325  71.179  24.684  1.00  0.00     0.000 C 
BRANCH   6   7
ATOM      7  C   UNL     1      43.843  72.568  25.126  1.00  0.00     0.006 C 
BRANCH   7   8
ATOM      8  C   UNL     1      42.789  73.116  24.158  1.00  0.00     0.053 C 
BRANCH   8   9
ATOM      9  C   UNL     1      41.611  73.648  24.912  1.00  0.00     0.041 C 
ATOM     10  O   UNL     1      41.553  73.527  26.164  1.00  0.00    -0.550 OA
ATOM     11  O   UNL     1      40.552  74.229  24.227  1.00  0.00    -0.550 OA
ENDBRANCH   8   9
ENDBRANCH   7   8
ENDBRANCH   6   7
ENDBRANCH   5   6
ENDBRANCH   4   5
ENDBRANCH   3   4
ENDBRANCH   2   3
ENDBRANCH   1   2
BRANCH   1  12
ATOM     12  C   UNL     1      39.719  66.562  24.468  1.00  0.00     0.000 C 
BRANCH  12  13
ATOM     13  C   UNL     1      38.296  67.123  24.301  1.00  0.00    -0.000 C 
BRANCH  13  14
ATOM     14  C   UNL     1      37.498  67.275  25.611  1.00  0.00    -0.000 C 
BRANCH  14  15
ATOM     15  C   UNL     1      36.088  67.877  25.453  1.00  0.00    -0.000 C 
BRANCH  15  16
ATOM     16  C   UNL     1      34.992  67.203  26.300  1.00  0.00    -0.000 C 
BRANCH  16  17
ATOM     17  C   UNL     1      34.911  65.684  26.069  1.00  0.00    -0.000 C 
BRANCH  17  18
ATOM     18  C   UNL     1      34.904  64.888  27.384  1.00  0.00    -0.000 C 
BRANCH  18  19
ATOM     19  C   UNL     1      34.833  63.371  27.155  1.00  0.00    -0.003 C 
ATOM     20  C   UNL     1      34.193  62.665  28.347  1.00  0.00     0.004 C 
ENDBRANCH  18  19
ENDBRANCH  17  18
ENDBRANCH  16  17
ENDBRANCH  15  16
ENDBRANCH  14  15
ENDBRANCH  13  14
ENDBRANCH  12  13
ENDBRANCH   1  12
TORSDOF 16
ENDMDL
MODEL 3
REMARK VINA RESULT:    -5.258      5.349      9.213
REMARK INTER + INTRA:         -11.242
REMARK INTER:                 -10.481
REMARK INTRA:                  -0.762
REMARK UNBOUND:                -1.066
REMARK SMILES CCCCCCCCCCCCCCCCCC(=O)[O-]
REMARK SMILES IDX 10 1 11 2 12 3 13 4 14 5 15 6 16 7 17 8 18 9 19 10 20 11
REMARK SMILES IDX 9 12 8 13 7 14 6 15 5 16 4 17 3 18 2 19 1 20
REMARK H PARENT
REMARK Flexibility Score: inf
ROOT
ATOM      1  C   UNL     1      40.653  66.316  23.580  1.00  0.00     0.000 C 
ENDROOT
BRANCH   1   2
ATOM      2  C   UNL     1      39.850  66.735  24.822  1.00  0.00     0.000 C 
BRANCH   2   3
ATOM      3  C   UNL     1      38.408  67.144  24.485  1.00  0.00     0.000 C 
BRANCH   3   4
ATOM      4  C   UNL     1      37.511  67.238  25.728  1.00  0.00     0.000 C 
BRANCH   4   5
ATOM      5  C   UNL     1      36.174  67.914  25.390  1.00  0.00     0.000 C 
BRANCH   5   6
ATOM      6  C   UNL     1      35.014  67.405  26.261  1.00  0.00     0.000 C 
BRANCH   6   7
ATOM      7  C   UNL     1      34.710  65.916  26.033  1.00  0.00     0.006 C 
BRANCH   7   8
ATOM      8  C   UNL     1      34.990  65.100  27.299  1.00  0.00     0.053 C 
BRANCH   8   9
ATOM      9  C   UNL     1      34.735  63.647  27.054  1.00  0.00     0.041 C 
ATOM     10  O   UNL     1      34.720  63.197  25.878  1.00  0.00    -0.550 OA
ATOM     11  O   UNL     1      34.459  62.799  28.119  1.00  0.00    -0.550 OA
ENDBRANCH   8   9
ENDBRANCH   7   8
ENDBRANCH   6   7
ENDBRANCH   5   6
ENDBRANCH   4   5
ENDBRANCH   3   4
ENDBRANCH   2   3
ENDBRANCH   1   2
BRANCH   1  12
ATOM     12  C   UNL     1      41.572  67.453  23.111  1.00  0.00     0.000 C 
BRANCH  12  13
ATOM     13  C   UNL     1      42.147  68.279  24.276  1.00  0.00    -0.000 C 
BRANCH  13  14
ATOM     14  C   UNL     1      43.257  69.274  23.884  1.00  0.00    -0.000 C 
BRANCH  14  15
ATOM     15  C   UNL     1      43.722  70.214  25.014  1.00  0.00    -0.000 C 
BRANCH  15  16
ATOM     16  C   UNL     1      44.099  71.638  24.565  1.00  0.00    -0.000 C 
BRANCH  16  17
ATOM     17  C   UNL     1      43.158  72.712  25.137  1.00  0.00    -0.000 C 
BRANCH  17  18
ATOM     18  C   UNL     1      42.341  73.422  24.045  1.00  0.00    -0.000 C 
BRANCH  18  19
ATOM     19  C   UNL     1      41.019  73.995  24.575  1.00  0.00    -0.003 C 
ATOM     20  C   UNL     1      41.054  74.143  26.094  1.00  0.00     0.004 C 
ENDBRANCH  18  19
ENDBRANCH  17  18
ENDBRANCH  16  17
ENDBRANCH  15  16
ENDBRANCH  14  15
ENDBRANCH  13  14
ENDBRANCH  12  13
ENDBRANCH   1  12
TORSDOF 16
ENDMDL
MODEL 4
REMARK VINA RESULT:    -5.230      3.753      6.294
REMARK INTER + INTRA:         -11.187
REMARK INTER:                 -10.173
REMARK INTRA:                  -1.014
REMARK UNBOUND:                -1.066
REMARK SMILES CCCCCCCCCCCCCCCCCC(=O)[O-]
REMARK SMILES IDX 10 1 11 2 12 3 13 4 14 5 15 6 16 7 17 8 18 9 19 10 20 11
REMARK SMILES IDX 9 12 8 13 7 14 6 15 5 16 4 17 3 18 2 19 1 20
REMARK H PARENT
REMARK Flexibility Score: inf
ROOT
ATOM      1  C   UNL     1      41.192  67.375  25.334  1.00  0.00     0.000 C 
ENDROOT
BRANCH   1   2
ATOM      2  C   UNL     1      41.356  65.869  25.591  1.00  0.00     0.000 C 
BRANCH   2   3
ATOM      3  C   UNL     1      41.654  65.078  24.308  1.00  0.00     0.000 C 
BRANCH   3   4
ATOM      4  C   UNL     1      41.700  63.560  24.543  1.00  0.00     0.000 C 
BRANCH   4   5
ATOM      5  C   UNL     1      42.430  63.230  25.853  1.00  0.00     0.000 C 
BRANCH   5   6
ATOM      6  C   UNL     1      43.041  61.820  25.854  1.00  0.00     0.000 C 
BRANCH   6   7
ATOM      7  C   UNL     1      44.444  61.782  26.478  1.00  0.00     0.006 C 
BRANCH   7   8
ATOM      8  C   UNL     1      45.508  62.206  25.461  1.00  0.00     0.053 C 
BRANCH   8   9
ATOM      9  C   UNL     1      46.592  62.990  26.131  1.00  0.00     0.041 C 
ATOM     10  O   UNL     1      46.519  63.245  27.362  1.00  0.00    -0.550 OA
ATOM     11  O   UNL     1      47.655  63.485  25.387  1.00  0.00    -0.550 OA
ENDBRANCH   8   9
ENDBRANCH   7   8
ENDBRANCH   6   7
ENDBRANCH   5   6
ENDBRANCH   4   5
ENDBRANCH   3   4
ENDBRANCH   2   3
ENDBRANCH   1   2
BRANCH   1  12
ATOM     12  C   UNL     1      41.358  67.699  23.841  1.00  0.00     0.000 C 
BRANCH  12  13
ATOM     13  C   UNL     1      42.619  68.530  23.546  1.00  0.00    -0.000 C 
BRANCH  13  14
ATOM     14  C   UNL     1      42.960  69.596  24.606  1.00  0.00    -0.000 C 
BRANCH  14  15
ATOM     15  C   UNL     1      44.336  70.272  24.436  1.00  0.00    -0.000 C 
BRANCH  15  16
ATOM     16  C   UNL     1      44.381  71.762  24.819  1.00  0.00    -0.000 C 
BRANCH  16  17
ATOM     17  C   UNL     1      42.989  72.342  25.126  1.00  0.00    -0.000 C 
BRANCH  17  18
ATOM     18  C   UNL     1      42.503  73.314  24.040  1.00  0.00    -0.000 C 
BRANCH  18  19
ATOM     19  C   UNL     1      41.173  73.989  24.404  1.00  0.00    -0.003 C 
ATOM     20  C   UNL     1      40.980  74.042  25.917  1.00  0.00     0.004 C 
ENDBRANCH  18  19
ENDBRANCH  17  18
ENDBRANCH  16  17
ENDBRANCH  15  16
ENDBRANCH  14  15
ENDBRANCH  13  14
ENDBRANCH  12  13
ENDBRANCH   1  12
TORSDOF 16
ENDMDL
MODEL 5
REMARK VINA RESULT:    -5.199      5.275      9.131
REMARK INTER + INTRA:         -11.127
REMARK INTER:                 -10.228
REMARK INTRA:                  -0.899
REMARK UNBOUND:                -1.066
REMARK SMILES CCCCCCCCCCCCCCCCCC(=O)[O-]
REMARK SMILES IDX 10 1 11 2 12 3 13 4 14 5 15 6 16 7 17 8 18 9 19 10 20 11
REMARK SMILES IDX 9 12 8 13 7 14 6 15 5 16 4 17 3 18 2 19 1 20
REMARK H PARENT
REMARK Flexibility Score: inf
ROOT
ATOM      1  C   UNL     1      40.543  66.326  23.270  1.00  0.00     0.000 C 
ENDROOT
BRANCH   1   2
ATOM      2  C   UNL     1      41.375  67.588  22.988  1.00  0.00     0.000 C 
BRANCH   2   3
ATOM      3  C   UNL     1      42.011  68.174  24.258  1.00  0.00     0.000 C 
BRANCH   3   4
ATOM      4  C   UNL     1      43.217  69.076  23.957  1.00  0.00     0.000 C 
BRANCH   4   5
ATOM      5  C   UNL     1      43.440  70.089  25.090  1.00  0.00     0.000 C 
BRANCH   5   6
ATOM      6  C   UNL     1      44.336  71.264  24.668  1.00  0.00     0.000 C 
BRANCH   6   7
ATOM      7  C   UNL     1      43.794  72.622  25.138  1.00  0.00     0.006 C 
BRANCH   7   8
ATOM      8  C   UNL     1      42.731  73.153  24.172  1.00  0.00     0.053 C 
BRANCH   8   9
ATOM      9  C   UNL     1      41.564  73.706  24.927  1.00  0.00     0.041 C 
ATOM     10  O   UNL     1      41.538  73.644  26.185  1.00  0.00    -0.550 OA
ATOM     11  O   UNL     1      40.481  74.240  24.242  1.00  0.00    -0.550 OA
ENDBRANCH   8   9
ENDBRANCH   7   8
ENDBRANCH   6   7
ENDBRANCH   5   6
ENDBRANCH   4   5
ENDBRANCH   3   4
ENDBRANCH   2   3
ENDBRANCH   1   2
BRANCH   1  12
ATOM     12  C   UNL     1      40.994  65.650  24.573  1.00  0.00     0.000 C 
BRANCH  12  13
ATOM     13  C   UNL     1      41.800  64.361  24.331  1.00  0.00    -0.000 C 
BRANCH  13  14
ATOM     14  C   UNL     1      42.226  63.610  25.608  1.00  0.00    -0.000 C 
BRANCH  14  15
ATOM     15  C   UNL     1      42.593  62.126  25.403  1.00  0.00    -0.000 C 
BRANCH  15  16
ATOM     16  C   UNL     1      43.445  61.504  26.525  1.00  0.00    -0.000 C 
BRANCH  16  17
ATOM     17  C   UNL     1      44.833  62.156  26.650  1.00  0.00    -0.000 C 
BRANCH  17  18
ATOM     18  C   UNL     1      45.611  62.144  25.324  1.00  0.00    -0.000 C 
BRANCH  18  19
ATOM     19  C   UNL     1      46.923  62.938  25.402  1.00  0.00    -0.003 C 
ATOM     20  C   UNL     1      47.183  63.431  26.823  1.00  0.00     0.004 C 
ENDBRANCH  18  19
ENDBRANCH  17  18
ENDBRANCH  16  17
ENDBRANCH  15  16
ENDBRANCH  14  15
ENDBRANCH  13  14
ENDBRANCH  12  13
ENDBRANCH   1  12
TORSDOF 16
ENDMDL
MODEL 6
REMARK VINA RESULT:    -5.132      4.041      9.290
REMARK INTER + INTRA:         -10.998
REMARK INTER:                 -10.201
REMARK INTRA:                  -0.797
REMARK UNBOUND:                -1.066
REMARK SMILES CCCCCCCCCCCCCCCCCC(=O)[O-]
REMARK SMILES IDX 10 1 11 2 12 3 13 4 14 5 15 6 16 7 17 8 18 9 19 10 20 11
REMARK SMILES IDX 9 12 8 13 7 14 6 15 5 16 4 17 3 18 2 19 1 20
REMARK H PARENT
REMARK Flexibility Score: inf
ROOT
ATOM      1  C   UNL     1      41.063  66.447  23.130  1.00  0.00     0.000 C 
ENDROOT
BRANCH   1   2
ATOM      2  C   UNL     1      39.581  66.851  23.076  1.00  0.00     0.000 C 
BRANCH   2   3
ATOM      3  C   UNL     1      38.901  66.792  24.452  1.00  0.00     0.000 C 
BRANCH   3   4
ATOM      4  C   UNL     1      37.549  67.521  24.478  1.00  0.00     0.000 C 
BRANCH   4   5
ATOM      5  C   UNL     1      36.938  67.493  25.887  1.00  0.00     0.000 C 
BRANCH   5   6
ATOM      6  C   UNL     1      35.403  67.560  25.870  1.00  0.00     0.000 C 
BRANCH   6   7
ATOM      7  C   UNL     1      34.748  66.170  25.860  1.00  0.00     0.006 C 
BRANCH   7   8
ATOM      8  C   UNL     1      35.057  65.410  27.153  1.00  0.00     0.053 C 
BRANCH   8   9
ATOM      9  C   UNL     1      34.822  63.944  26.969  1.00  0.00     0.041 C 
ATOM     10  O   UNL     1      34.664  63.469  25.814  1.00  0.00    -0.550 OA
ATOM     11  O   UNL     1      34.722  63.111  28.076  1.00  0.00    -0.550 OA
ENDBRANCH   8   9
ENDBRANCH   7   8
ENDBRANCH   6   7
ENDBRANCH   5   6
ENDBRANCH   4   5
ENDBRANCH   3   4
ENDBRANCH   2   3
ENDBRANCH   1   2
BRANCH   1  12
ATOM     12  C   UNL     1      41.410  65.807  24.482  1.00  0.00     0.000 C 
BRANCH  12  13
ATOM     13  C   UNL     1      41.765  64.314  24.365  1.00  0.00    -0.000 C 
BRANCH  13  14
ATOM     14  C   UNL     1      42.224  63.649  25.677  1.00  0.00    -0.000 C 
BRANCH  14  15
ATOM     15  C   UNL     1      42.667  62.178  25.546  1.00  0.00    -0.000 C 
BRANCH  15  16
ATOM     16  C   UNL     1      43.865  61.776  26.426  1.00  0.00    -0.000 C 
BRANCH  16  17
ATOM     17  C   UNL     1      45.208  62.288  25.875  1.00  0.00    -0.000 C 
BRANCH  17  18
ATOM     18  C   UNL     1      46.157  62.766  26.986  1.00  0.00    -0.000 C 
BRANCH  18  19
ATOM     19  C   UNL     1      47.412  63.457  26.433  1.00  0.00    -0.003 C 
ATOM     20  C   UNL     1      47.514  63.282  24.920  1.00  0.00     0.004 C 
ENDBRANCH  18  19
ENDBRANCH  17  18
ENDBRANCH  16  17
ENDBRANCH  15  16
ENDBRANCH  14  15
ENDBRANCH  13  14
ENDBRANCH  12  13
ENDBRANCH   1  12
TORSDOF 16
ENDMDL
MODEL 7
REMARK VINA RESULT:    -4.845      0.792      1.626
REMARK INTER + INTRA:         -10.442
REMARK INTER:                  -9.442
REMARK INTRA:                  -1.000
REMARK UNBOUND:                -1.066
REMARK SMILES CCCCCCCCCCCCCCCCCC(=O)[O-]
REMARK SMILES IDX 10 1 11 2 12 3 13 4 14 5 15 6 16 7 17 8 18 9 19 10 20 11
REMARK SMILES IDX 9 12 8 13 7 14 6 15 5 16 4 17 3 18 2 19 1 20
REMARK H PARENT
REMARK Flexibility Score: inf
ROOT
ATOM      1  C   UNL     1      39.473  66.760  23.846  1.00  0.00     0.000 C 
ENDROOT
BRANCH   1   2
ATOM      2  C   UNL     1      40.453  67.093  24.981  1.00  0.00     0.000 C 
BRANCH   2   3
ATOM      3  C   UNL     1      41.323  65.892  25.384  1.00  0.00     0.000 C 
BRANCH   3   4
ATOM      4  C   UNL     1      41.698  65.002  24.190  1.00  0.00     0.000 C 
BRANCH   4   5
ATOM      5  C   UNL     1      41.648  63.517  24.576  1.00  0.00     0.000 C 
BRANCH   5   6
ATOM      6  C   UNL     1      42.465  63.204  25.840  1.00  0.00     0.000 C 
BRANCH   6   7
ATOM      7  C   UNL     1      43.023  61.773  25.846  1.00  0.00     0.006 C 
BRANCH   7   8
ATOM      8  C   UNL     1      44.266  61.673  26.737  1.00  0.00     0.053 C 
BRANCH   8   9
ATOM      9  C   UNL     1      45.465  62.217  26.027  1.00  0.00     0.041 C 
ATOM     10  O   UNL     1      46.209  63.059  26.596  1.00  0.00    -0.550 OA
ATOM     11  O   UNL     1      45.732  61.836  24.719  1.00  0.00    -0.550 OA
ENDBRANCH   8   9
ENDBRANCH   7   8
ENDBRANCH   6   7
ENDBRANCH   5   6
ENDBRANCH   4   5
ENDBRANCH   3   4
ENDBRANCH   2   3
ENDBRANCH   1   2
BRANCH   1  12
ATOM     12  C   UNL     1      38.034  67.132  24.235  1.00  0.00     0.000 C 
BRANCH  12  13
ATOM     13  C   UNL     1      37.878  67.430  25.737  1.00  0.00    -0.000 C 
BRANCH  13  14
ATOM     14  C   UNL     1      36.478  67.914  26.163  1.00  0.00    -0.000 C 
BRANCH  14  15
ATOM     15  C   UNL     1      35.302  67.089  25.604  1.00  0.00    -0.000 C 
BRANCH  15  16
ATOM     16  C   UNL     1      34.771  65.991  26.545  1.00  0.00    -0.000 C 
BRANCH  16  17
ATOM     17  C   UNL     1      34.477  64.670  25.812  1.00  0.00    -0.000 C 
BRANCH  17  18
ATOM     18  C   UNL     1      34.923  63.438  26.617  1.00  0.00    -0.000 C 
BRANCH  18  19
ATOM     19  C   UNL     1      34.625  63.574  28.117  1.00  0.00    -0.003 C 
ATOM     20  C   UNL     1      33.850  62.365  28.635  1.00  0.00     0.004 C 
ENDBRANCH  18  19
ENDBRANCH  17  18
ENDBRANCH  16  17
ENDBRANCH  15  16
ENDBRANCH  14  15
ENDBRANCH  13  14
ENDBRANCH  12  13
ENDBRANCH   1  12
TORSDOF 16
ENDMDL
MODEL 8
REMARK VINA RESULT:    -4.440      3.876      8.783
REMARK INTER + INTRA:          -9.659
REMARK INTER:                  -9.184
REMARK INTRA:                  -0.476
REMARK UNBOUND:                -1.066
REMARK SMILES CCCCCCCCCCCCCCCCCC(=O)[O-]
REMARK SMILES IDX 10 1 11 2 12 3 13 4 14 5 15 6 16 7 17 8 18 9 19 10 20 11
REMARK SMILES IDX 9 12 8 13 7 14 6 15 5 16 4 17 3 18 2 19 1 20
REMARK H PARENT
REMARK Flexibility Score: inf
ROOT
ATOM      1  C   UNL     1      39.472  66.881  23.995  1.00  0.00     0.000 C 
ENDROOT
BRANCH   1   2
ATOM      2  C   UNL     1      37.958  67.145  24.026  1.00  0.00     0.000 C 
BRANCH   2   3
ATOM      3  C   UNL     1      37.407  67.270  25.455  1.00  0.00     0.000 C 
BRANCH   3   4
ATOM      4  C   UNL     1      36.158  68.160  25.535  1.00  0.00     0.000 C 
BRANCH   4   5
ATOM      5  C   UNL     1      34.951  67.364  26.052  1.00  0.00     0.000 C 
BRANCH   5   6
ATOM      6  C   UNL     1      35.318  65.931  26.468  1.00  0.00     0.000 C 
BRANCH   6   7
ATOM      7  C   UNL     1      34.414  64.874  25.815  1.00  0.00     0.006 C 
BRANCH   7   8
ATOM      8  C   UNL     1      34.817  63.463  26.253  1.00  0.00     0.053 C 
BRANCH   8   9
ATOM      9  C   UNL     1      34.639  63.300  27.729  1.00  0.00     0.041 C 
ATOM     10  O   UNL     1      33.902  62.384  28.180  1.00  0.00    -0.550 OA
ATOM     11  O   UNL     1      35.242  64.193  28.605  1.00  0.00    -0.550 OA
ENDBRANCH   8   9
ENDBRANCH   7   8
ENDBRANCH   6   7
ENDBRANCH   5   6
ENDBRANCH   4   5
ENDBRANCH   3   4
ENDBRANCH   2   3
ENDBRANCH   1   2
BRANCH   1  12
ATOM     12  C   UNL     1      40.076  66.982  25.403  1.00  0.00     0.000 C 
BRANCH  12  13
ATOM     13  C   UNL     1      41.315  66.087  25.588  1.00  0.00    -0.000 C 
BRANCH  13  14
ATOM     14  C   UNL     1      41.678  65.218  24.368  1.00  0.00    -0.000 C 
BRANCH  14  15
ATOM     15  C   UNL     1      41.712  63.699  24.632  1.00  0.00    -0.000 C 
BRANCH  15  16
ATOM     16  C   UNL     1      42.470  63.275  25.903  1.00  0.00    -0.000 C 
BRANCH  16  17
ATOM     17  C   UNL     1      42.916  61.803  25.868  1.00  0.00    -0.000 C 
BRANCH  17  18
ATOM     18  C   UNL     1      44.284  61.586  26.535  1.00  0.00    -0.000 C 
BRANCH  18  19
ATOM     19  C   UNL     1      45.450  62.070  25.660  1.00  0.00    -0.003 C 
ATOM     20  C   UNL     1      46.331  63.059  26.418  1.00  0.00     0.004 C 
ENDBRANCH  18  19
ENDBRANCH  17  18
ENDBRANCH  16  17
ENDBRANCH  15  16
ENDBRANCH  14  15
ENDBRANCH  13  14
ENDBRANCH  12  13
ENDBRANCH   1  12
TORSDOF 16
ENDMDL
MODEL 9
REMARK VINA RESULT:    -4.025      4.947      9.073
REMARK INTER + INTRA:          -8.855
REMARK INTER:                  -8.090
REMARK INTRA:                  -0.764
REMARK UNBOUND:                -1.066
REMARK SMILES CCCCCCCCCCCCCCCCCC(=O)[O-]
REMARK SMILES IDX 10 1 11 2 12 3 13 4 14 5 15 6 16 7 17 8 18 9 19 10 20 11
REMARK SMILES IDX 9 12 8 13 7 14 6 15 5 16 4 17 3 18 2 19 1 20
REMARK H PARENT
REMARK Flexibility Score: inf
ROOT
ATOM      1  C   UNL     1      40.708  66.476  25.615  1.00  0.00     0.000 C 
ENDROOT
BRANCH   1   2
ATOM      2  C   UNL     1      39.306  67.083  25.781  1.00  0.00     0.000 C 
BRANCH   2   3
ATOM      3  C   UNL     1      38.448  66.948  24.513  1.00  0.00     0.000 C 
BRANCH   3   4
ATOM      4  C   UNL     1      37.146  67.759  24.588  1.00  0.00     0.000 C 
BRANCH   4   5
ATOM      5  C   UNL     1      36.531  67.680  25.993  1.00  0.00     0.000 C 
BRANCH   5   6
ATOM      6  C   UNL     1      35.011  67.450  25.964  1.00  0.00     0.000 C 
BRANCH   6   7
ATOM      7  C   UNL     1      34.638  65.962  25.891  1.00  0.00     0.006 C 
BRANCH   7   8
ATOM      8  C   UNL     1      34.967  65.249  27.206  1.00  0.00     0.053 C 
BRANCH   8   9
ATOM      9  C   UNL     1      34.803  63.769  27.056  1.00  0.00     0.041 C 
ATOM     10  O   UNL     1      34.867  63.020  28.066  1.00  0.00    -0.550 OA
ATOM     11  O   UNL     1      34.635  63.212  25.795  1.00  0.00    -0.550 OA
ENDBRANCH   8   9
ENDBRANCH   7   8
ENDBRANCH   6   7
ENDBRANCH   5   6
ENDBRANCH   4   5
ENDBRANCH   3   4
ENDBRANCH   2   3
ENDBRANCH   1   2
BRANCH   1  12
ATOM     12  C   UNL     1      40.843  65.768  24.258  1.00  0.00     0.000 C 
BRANCH  12  13
ATOM     13  C   UNL     1      41.769  66.515  23.283  1.00  0.00    -0.000 C 
BRANCH  13  14
ATOM     14  C   UNL     1      41.735  68.052  23.400  1.00  0.00    -0.000 C 
BRANCH  14  15
ATOM     15  C   UNL     1      42.739  68.654  24.404  1.00  0.00    -0.000 C 
BRANCH  15  16
ATOM     16  C   UNL     1      43.413  69.962  23.947  1.00  0.00    -0.000 C 
BRANCH  16  17
ATOM     17  C   UNL     1      44.257  70.616  25.054  1.00  0.00    -0.000 C 
BRANCH  17  18
ATOM     18  C   UNL     1      44.237  72.151  24.981  1.00  0.00    -0.000 C 
BRANCH  18  19
ATOM     19  C   UNL     1      42.812  72.723  24.971  1.00  0.00    -0.003 C 
ATOM     20  C   UNL     1      42.544  73.507  23.688  1.00  0.00     0.004 C 
ENDBRANCH  18  19
ENDBRANCH  17  18
ENDBRANCH  16  17
ENDBRANCH  15  16
ENDBRANCH  14  15
ENDBRANCH  13  14
ENDBRANCH  12  13
ENDBRANCH   1  12
TORSDOF 16
ENDMDL
