MODEL 1
REMARK VINA RESULT:    -5.867      0.000      0.000
REMARK INTER + INTRA:         -10.757
REMARK INTER:                  -8.953
REMARK INTRA:                  -1.803
REMARK UNBOUND:                -1.803
REMARK SMILES CC(=O)CCC=C(C)CCC=C(C)CCC=C(C)C
REMARK SMILES IDX 10 1 11 2 12 3 13 4 14 5 15 6 16 7 18 8 17 9 19 10 9 11 7 12
REMARK SMILES IDX 6 13 8 14 5 15 4 16 2 17 3 18 1 19
REMARK H PARENT
REMARK Flexibility Score: inf
ROOT
ATOM      1  C   UNL     1      -3.358  -2.053   1.539  1.00  0.00     0.032 C 
ENDROOT
BRANCH   1   2
ATOM      2  C   UNL     1      -3.085  -1.796   0.077  1.00  0.00    -0.028 C 
ATOM      3  C   UNL     1      -3.806  -2.305  -0.950  1.00  0.00    -0.077 C 
ATOM      4  C   UNL     1      -3.348  -2.015  -2.358  1.00  0.00     0.039 C 
BRANCH   3   5
ATOM      5  C   UNL     1      -5.056  -3.144  -0.746  1.00  0.00     0.034 C 
BRANCH   5   6
ATOM      6  C   UNL     1      -6.339  -2.331  -0.968  1.00  0.00     0.032 C 
BRANCH   6   7
ATOM      7  C   UNL     1      -6.719  -1.526   0.253  1.00  0.00    -0.028 C 
ATOM      8  C   UNL     1      -5.785   0.616  -0.650  1.00  0.00     0.039 C 
ATOM      9  C   UNL     1      -6.467  -0.208   0.415  1.00  0.00    -0.080 C 
ATOM     10  C   UNL     1      -6.906   0.452   1.697  1.00  0.00     0.039 C 
ENDBRANCH   6   7
ENDBRANCH   5   6
ENDBRANCH   3   5
ENDBRANCH   1   2
BRANCH   1  11
ATOM     11  C   UNL     1      -3.179  -0.784   2.379  1.00  0.00     0.034 C 
BRANCH  11  12
ATOM     12  C   UNL     1      -1.756  -0.638   2.875  1.00  0.00    -0.077 C 
ATOM     13  C   UNL     1      -1.228  -1.583   3.681  1.00  0.00    -0.028 C 
ATOM     14  C   UNL     1      -0.943   0.550   2.418  1.00  0.00     0.039 C 
BRANCH  13  15
ATOM     15  C   UNL     1       0.185  -1.516   4.217  1.00  0.00     0.035 C 
BRANCH  15  16
ATOM     16  C   UNL     1       0.220  -1.191   5.715  1.00  0.00     0.079 C 
BRANCH  16  17
ATOM     17  C   UNL     1       1.276  -0.166   6.043  1.00  0.00     0.130 C 
ATOM     18  O   UNL     1       2.110  -0.415   6.899  1.00  0.00    -0.300 OA
ATOM     19  C   UNL     1       1.319   1.161   5.340  1.00  0.00     0.087 C 
ENDBRANCH  16  17
ENDBRANCH  15  16
ENDBRANCH  13  15
ENDBRANCH  11  12
ENDBRANCH   1  11
TORSDOF 9
ENDMDL
MODEL 2
REMARK VINA RESULT:    -5.766      1.443      3.526
REMARK INTER + INTRA:         -10.602
REMARK INTER:                  -8.519
REMARK INTRA:                  -2.084
REMARK UNBOUND:                -1.803
REMARK SMILES CC(=O)CCC=C(C)CCC=C(C)CCC=C(C)C
REMARK SMILES IDX 10 1 11 2 12 3 13 4 14 5 15 6 16 7 18 8 17 9 19 10 9 11 7 12
REMARK SMILES IDX 6 13 8 14 5 15 4 16 2 17 3 18 1 19
REMARK H PARENT
REMARK Flexibility Score: inf
ROOT
ATOM      1  C   UNL     1      -4.737   0.351   0.017  1.00  0.00     0.032 C 
ENDROOT
BRANCH   1   2
ATOM      2  C   UNL     1      -5.918  -0.503  -0.378  1.00  0.00    -0.028 C 
ATOM      3  C   UNL     1      -5.843  -1.793  -0.783  1.00  0.00    -0.077 C 
ATOM      4  C   UNL     1      -7.113  -2.479  -1.222  1.00  0.00     0.039 C 
BRANCH   3   5
ATOM      5  C   UNL     1      -4.542  -2.577  -0.806  1.00  0.00     0.034 C 
BRANCH   5   6
ATOM      6  C   UNL     1      -3.907  -2.599  -2.204  1.00  0.00     0.032 C 
BRANCH   6   7
ATOM      7  C   UNL     1      -3.046  -1.384  -2.455  1.00  0.00    -0.028 C 
ATOM      8  C   UNL     1      -1.144  -2.222  -1.057  1.00  0.00     0.039 C 
ATOM      9  C   UNL     1      -1.811  -1.195  -1.939  1.00  0.00    -0.080 C 
ATOM     10  C   UNL     1      -1.080   0.078  -2.281  1.00  0.00     0.039 C 
ENDBRANCH   6   7
ENDBRANCH   5   6
ENDBRANCH   3   5
ENDBRANCH   1   2
BRANCH   1  11
ATOM     11  C   UNL     1      -4.487   0.304   1.529  1.00  0.00     0.034 C 
BRANCH  11  12
ATOM     12  C   UNL     1      -3.179  -0.383   1.858  1.00  0.00    -0.077 C 
ATOM     13  C   UNL     1      -2.027   0.319   1.829  1.00  0.00    -0.028 C 
ATOM     14  C   UNL     1      -3.202  -1.841   2.254  1.00  0.00     0.039 C 
BRANCH  13  15
ATOM     15  C   UNL     1      -0.679  -0.290   2.148  1.00  0.00     0.035 C 
BRANCH  15  16
ATOM     16  C   UNL     1       0.119   0.564   3.140  1.00  0.00     0.079 C 
BRANCH  16  17
ATOM     17  C   UNL     1       0.249  -0.109   4.483  1.00  0.00     0.130 C 
ATOM     18  O   UNL     1       0.976   0.380   5.333  1.00  0.00    -0.300 OA
ATOM     19  C   UNL     1      -0.497  -1.375   4.795  1.00  0.00     0.087 C 
ENDBRANCH  16  17
ENDBRANCH  15  16
ENDBRANCH  13  15
ENDBRANCH  11  12
ENDBRANCH   1  11
TORSDOF 9
ENDMDL
MODEL 3
REMARK VINA RESULT:    -5.732      1.120      2.769
REMARK INTER + INTRA:         -10.552
REMARK INTER:                  -8.826
REMARK INTRA:                  -1.726
REMARK UNBOUND:                -1.803
REMARK SMILES CC(=O)CCC=C(C)CCC=C(C)CCC=C(C)C
REMARK SMILES IDX 10 1 11 2 12 3 13 4 14 5 15 6 16 7 18 8 17 9 19 10 9 11 7 12
REMARK SMILES IDX 6 13 8 14 5 15 4 16 2 17 3 18 1 19
REMARK H PARENT
REMARK Flexibility Score: inf
ROOT
ATOM      1  C   UNL     1      -3.465  -1.852   1.946  1.00  0.00     0.032 C 
ENDROOT
BRANCH   1   2
ATOM      2  C   UNL     1      -4.452  -0.824   1.447  1.00  0.00    -0.028 C 
ATOM      3  C   UNL     1      -5.464  -1.074   0.584  1.00  0.00    -0.077 C 
ATOM      4  C   UNL     1      -6.312   0.085   0.122  1.00  0.00     0.039 C 
BRANCH   3   5
ATOM      5  C   UNL     1      -5.788  -2.467   0.071  1.00  0.00     0.034 C 
BRANCH   5   6
ATOM      6  C   UNL     1      -5.456  -2.623  -1.420  1.00  0.00     0.032 C 
BRANCH   6   7
ATOM      7  C   UNL     1      -4.008  -2.994  -1.643  1.00  0.00    -0.028 C 
ATOM      8  C   UNL     1      -3.314  -0.657  -2.221  1.00  0.00     0.039 C 
ATOM      9  C   UNL     1      -3.039  -2.127  -2.014  1.00  0.00    -0.080 C 
ATOM     10  C   UNL     1      -1.640  -2.655  -2.201  1.00  0.00     0.039 C 
ENDBRANCH   6   7
ENDBRANCH   5   6
ENDBRANCH   3   5
ENDBRANCH   1   2
BRANCH   1  11
ATOM     11  C   UNL     1      -2.044  -1.559   1.450  1.00  0.00     0.034 C 
BRANCH  11  12
ATOM     12  C   UNL     1      -1.295  -0.653   2.404  1.00  0.00    -0.077 C 
ATOM     13  C   UNL     1      -0.750  -1.167   3.527  1.00  0.00    -0.028 C 
ATOM     14  C   UNL     1      -1.139   0.808   2.051  1.00  0.00     0.039 C 
BRANCH  13  15
ATOM     15  C   UNL     1       0.017  -0.332   4.530  1.00  0.00     0.035 C 
BRANCH  15  16
ATOM     16  C   UNL     1       0.590  -1.183   5.669  1.00  0.00     0.079 C 
BRANCH  16  17
ATOM     17  C   UNL     1       1.878  -0.610   6.205  1.00  0.00     0.130 C 
ATOM     18  O   UNL     1       1.843   0.194   7.123  1.00  0.00    -0.300 OA
ATOM     19  C   UNL     1       3.207  -1.006   5.626  1.00  0.00     0.087 C 
ENDBRANCH  16  17
ENDBRANCH  15  16
ENDBRANCH  13  15
ENDBRANCH  11  12
ENDBRANCH   1  11
TORSDOF 9
ENDMDL
MODEL 4
REMARK VINA RESULT:    -5.658      1.230      2.884
REMARK INTER + INTRA:         -10.438
REMARK INTER:                  -9.055
REMARK INTRA:                  -1.383
REMARK UNBOUND:                -1.803
REMARK SMILES CC(=O)CCC=C(C)CCC=C(C)CCC=C(C)C
REMARK SMILES IDX 10 1 11 2 12 3 13 4 14 5 15 6 16 7 18 8 17 9 19 10 9 11 7 12
REMARK SMILES IDX 6 13 8 14 5 15 4 16 2 17 3 18 1 19
REMARK H PARENT
REMARK Flexibility Score: inf
ROOT
ATOM      1  C   UNL     1      -3.142  -0.984   1.572  1.00  0.00     0.032 C 
ENDROOT
BRANCH   1   2
ATOM      2  C   UNL     1      -4.460  -0.284   1.348  1.00  0.00    -0.028 C 
ATOM      3  C   UNL     1      -5.544  -0.838   0.757  1.00  0.00    -0.077 C 
ATOM      4  C   UNL     1      -6.760   0.028   0.536  1.00  0.00     0.039 C 
BRANCH   3   5
ATOM      5  C   UNL     1      -5.592  -2.291   0.315  1.00  0.00     0.034 C 
BRANCH   5   6
ATOM      6  C   UNL     1      -5.385  -2.440  -1.199  1.00  0.00     0.032 C 
BRANCH   6   7
ATOM      7  C   UNL     1      -3.959  -2.800  -1.543  1.00  0.00    -0.028 C 
ATOM      8  C   UNL     1      -3.323  -0.452  -2.142  1.00  0.00     0.039 C 
ATOM      9  C   UNL     1      -3.027  -1.923  -1.978  1.00  0.00    -0.080 C 
ATOM     10  C   UNL     1      -1.645  -2.441  -2.285  1.00  0.00     0.039 C 
ENDBRANCH   6   7
ENDBRANCH   5   6
ENDBRANCH   3   5
ENDBRANCH   1   2
BRANCH   1  11
ATOM     11  C   UNL     1      -2.609  -0.746   2.990  1.00  0.00     0.034 C 
BRANCH  11  12
ATOM     12  C   UNL     1      -1.302  -1.473   3.225  1.00  0.00    -0.077 C 
ATOM     13  C   UNL     1      -0.583  -1.214   4.337  1.00  0.00    -0.028 C 
ATOM     14  C   UNL     1      -0.852  -2.507   2.220  1.00  0.00     0.039 C 
BRANCH  13  15
ATOM     15  C   UNL     1       0.730  -1.898   4.650  1.00  0.00     0.035 C 
BRANCH  15  16
ATOM     16  C   UNL     1       1.112  -1.766   6.129  1.00  0.00     0.079 C 
BRANCH  16  17
ATOM     17  C   UNL     1       2.216  -0.761   6.336  1.00  0.00     0.130 C 
ATOM     18  O   UNL     1       3.358  -1.047   6.013  1.00  0.00    -0.300 OA
ATOM     19  C   UNL     1       1.939   0.588   6.937  1.00  0.00     0.087 C 
ENDBRANCH  16  17
ENDBRANCH  15  16
ENDBRANCH  13  15
ENDBRANCH  11  12
ENDBRANCH   1  11
TORSDOF 9
ENDMDL
MODEL 5
REMARK VINA RESULT:    -5.495      1.904      4.142
REMARK INTER + INTRA:         -10.189
REMARK INTER:                  -8.104
REMARK INTRA:                  -2.085
REMARK UNBOUND:                -1.803
REMARK SMILES CC(=O)CCC=C(C)CCC=C(C)CCC=C(C)C
REMARK SMILES IDX 10 1 11 2 12 3 13 4 14 5 15 6 16 7 18 8 17 9 19 10 9 11 7 12
REMARK SMILES IDX 6 13 8 14 5 15 4 16 2 17 3 18 1 19
REMARK H PARENT
REMARK Flexibility Score: inf
ROOT
ATOM      1  C   UNL     1      -5.866  -0.570  -0.659  1.00  0.00     0.032 C 
ENDROOT
BRANCH   1   2
ATOM      2  C   UNL     1      -5.768  -1.996  -1.146  1.00  0.00    -0.028 C 
ATOM      3  C   UNL     1      -4.761  -2.492  -1.902  1.00  0.00    -0.077 C 
ATOM      4  C   UNL     1      -4.858  -3.922  -2.373  1.00  0.00     0.039 C 
BRANCH   3   5
ATOM      5  C   UNL     1      -3.539  -1.676  -2.288  1.00  0.00     0.034 C 
BRANCH   5   6
ATOM      6  C   UNL     1      -2.310  -2.043  -1.444  1.00  0.00     0.032 C 
BRANCH   6   7
ATOM      7  C   UNL     1      -1.463  -0.835  -1.119  1.00  0.00    -0.028 C 
ATOM      8  C   UNL     1       0.223  -2.147   0.190  1.00  0.00     0.039 C 
ATOM      9  C   UNL     1      -0.332  -0.864  -0.379  1.00  0.00    -0.080 C 
ATOM     10  C   UNL     1       0.399   0.433  -0.141  1.00  0.00     0.039 C 
ENDBRANCH   6   7
ENDBRANCH   5   6
ENDBRANCH   3   5
ENDBRANCH   1   2
BRANCH   1  11
ATOM     11  C   UNL     1      -6.158  -0.505   0.844  1.00  0.00     0.034 C 
BRANCH  11  12
ATOM     12  C   UNL     1      -4.968   0.017   1.622  1.00  0.00    -0.077 C 
ATOM     13  C   UNL     1      -3.829  -0.706   1.668  1.00  0.00    -0.028 C 
ATOM     14  C   UNL     1      -5.074   1.363   2.300  1.00  0.00     0.039 C 
BRANCH  13  15
ATOM     15  C   UNL     1      -2.595  -0.255   2.419  1.00  0.00     0.035 C 
BRANCH  15  16
ATOM     16  C   UNL     1      -1.889  -1.422   3.119  1.00  0.00     0.079 C 
BRANCH  16  17
ATOM     17  C   UNL     1      -0.820  -0.942   4.069  1.00  0.00     0.130 C 
ATOM     18  O   UNL     1      -0.752  -1.423   5.189  1.00  0.00    -0.300 OA
ATOM     19  C   UNL     1       0.161   0.121   3.665  1.00  0.00     0.087 C 
ENDBRANCH  16  17
ENDBRANCH  15  16
ENDBRANCH  13  15
ENDBRANCH  11  12
ENDBRANCH   1  11
TORSDOF 9
ENDMDL
MODEL 6
REMARK VINA RESULT:    -5.491      1.689      3.497
REMARK INTER + INTRA:         -10.183
REMARK INTER:                  -7.965
REMARK INTRA:                  -2.218
REMARK UNBOUND:                -1.803
REMARK SMILES CC(=O)CCC=C(C)CCC=C(C)CCC=C(C)C
REMARK SMILES IDX 10 1 11 2 12 3 13 4 14 5 15 6 16 7 18 8 17 9 19 10 9 11 7 12
REMARK SMILES IDX 6 13 8 14 5 15 4 16 2 17 3 18 1 19
REMARK H PARENT
REMARK Flexibility Score: inf
ROOT
ATOM      1  C   UNL     1      -4.639  -1.529   0.725  1.00  0.00     0.032 C 
ENDROOT
BRANCH   1   2
ATOM      2  C   UNL     1      -4.996  -2.537  -0.341  1.00  0.00    -0.028 C 
ATOM      3  C   UNL     1      -4.579  -2.487  -1.628  1.00  0.00    -0.077 C 
ATOM      4  C   UNL     1      -5.095  -3.531  -2.588  1.00  0.00     0.039 C 
BRANCH   3   5
ATOM      5  C   UNL     1      -3.613  -1.434  -2.144  1.00  0.00     0.034 C 
BRANCH   5   6
ATOM      6  C   UNL     1      -2.149  -1.859  -1.966  1.00  0.00     0.032 C 
BRANCH   6   7
ATOM      7  C   UNL     1      -1.324  -0.786  -1.294  1.00  0.00    -0.028 C 
ATOM      8  C   UNL     1       0.011  -2.414   0.065  1.00  0.00     0.039 C 
ATOM      9  C   UNL     1      -0.361  -1.018  -0.374  1.00  0.00    -0.080 C 
ATOM     10  C   UNL     1       0.370   0.164   0.209  1.00  0.00     0.039 C 
ENDBRANCH   6   7
ENDBRANCH   5   6
ENDBRANCH   3   5
ENDBRANCH   1   2
BRANCH   1  11
ATOM     11  C   UNL     1      -3.645  -2.107   1.739  1.00  0.00     0.034 C 
BRANCH  11  12
ATOM     12  C   UNL     1      -2.759  -1.030   2.329  1.00  0.00    -0.077 C 
ATOM     13  C   UNL     1      -1.753  -1.373   3.161  1.00  0.00    -0.028 C 
ATOM     14  C   UNL     1      -3.001   0.408   1.936  1.00  0.00     0.039 C 
BRANCH  13  15
ATOM     15  C   UNL     1      -0.820  -0.361   3.789  1.00  0.00     0.035 C 
BRANCH  15  16
ATOM     16  C   UNL     1       0.060  -0.985   4.878  1.00  0.00     0.079 C 
BRANCH  16  17
ATOM     17  C   UNL     1       1.085  -0.011   5.399  1.00  0.00     0.130 C 
ATOM     18  O   UNL     1       1.290   1.029   4.793  1.00  0.00    -0.300 OA
ATOM     19  C   UNL     1       1.864  -0.296   6.652  1.00  0.00     0.087 C 
ENDBRANCH  16  17
ENDBRANCH  15  16
ENDBRANCH  13  15
ENDBRANCH  11  12
ENDBRANCH   1  11
TORSDOF 9
ENDMDL
MODEL 7
REMARK VINA RESULT:    -5.474      2.894      8.210
REMARK INTER + INTRA:         -10.157
REMARK INTER:                  -8.674
REMARK INTRA:                  -1.484
REMARK UNBOUND:                -1.803
REMARK SMILES CC(=O)CCC=C(C)CCC=C(C)CCC=C(C)C
REMARK SMILES IDX 10 1 11 2 12 3 13 4 14 5 15 6 16 7 18 8 17 9 19 10 9 11 7 12
REMARK SMILES IDX 6 13 8 14 5 15 4 16 2 17 3 18 1 19
REMARK H PARENT
REMARK Flexibility Score: inf
ROOT
ATOM      1  C   UNL     1      -0.104  -0.962   5.019  1.00  0.00     0.032 C 
ENDROOT
BRANCH   1   2
ATOM      2  C   UNL     1       1.383  -1.224   4.978  1.00  0.00    -0.028 C 
ATOM      3  C   UNL     1       2.291  -0.682   5.823  1.00  0.00    -0.077 C 
ATOM      4  C   UNL     1       3.751  -0.985   5.593  1.00  0.00     0.039 C 
BRANCH   3   5
ATOM      5  C   UNL     1       1.904   0.207   6.992  1.00  0.00     0.034 C 
BRANCH   5   6
ATOM      6  C   UNL     1       2.524   1.607   6.881  1.00  0.00     0.032 C 
BRANCH   6   7
ATOM      7  C   UNL     1       1.514   2.641   6.443  1.00  0.00    -0.028 C 
ATOM      8  C   UNL     1       2.160   2.506   4.026  1.00  0.00     0.039 C 
ATOM      9  C   UNL     1       1.346   3.063   5.169  1.00  0.00    -0.080 C 
ATOM     10  C   UNL     1       0.295   4.108   4.894  1.00  0.00     0.039 C 
ENDBRANCH   6   7
ENDBRANCH   5   6
ENDBRANCH   3   5
ENDBRANCH   1   2
BRANCH   1  11
ATOM     11  C   UNL     1      -0.832  -1.657   3.863  1.00  0.00     0.034 C 
BRANCH  11  12
ATOM     12  C   UNL     1      -1.568  -0.665   2.989  1.00  0.00    -0.077 C 
ATOM     13  C   UNL     1      -2.872  -0.862   2.703  1.00  0.00    -0.028 C 
ATOM     14  C   UNL     1      -0.828   0.553   2.488  1.00  0.00     0.039 C 
BRANCH  13  15
ATOM     15  C   UNL     1      -3.681   0.082   1.842  1.00  0.00     0.035 C 
BRANCH  15  16
ATOM     16  C   UNL     1      -4.178  -0.591   0.557  1.00  0.00     0.079 C 
BRANCH  16  17
ATOM     17  C   UNL     1      -5.647  -0.920   0.626  1.00  0.00     0.130 C 
ATOM     18  O   UNL     1      -6.020  -2.059   0.395  1.00  0.00    -0.300 OA
ATOM     19  C   UNL     1      -6.665   0.130   0.971  1.00  0.00     0.087 C 
ENDBRANCH  16  17
ENDBRANCH  15  16
ENDBRANCH  13  15
ENDBRANCH  11  12
ENDBRANCH   1  11
TORSDOF 9
ENDMDL
MODEL 8
REMARK VINA RESULT:    -5.417      3.289      8.305
REMARK INTER + INTRA:         -10.070
REMARK INTER:                  -9.207
REMARK INTRA:                  -0.863
REMARK UNBOUND:                -1.803
REMARK SMILES CC(=O)CCC=C(C)CCC=C(C)CCC=C(C)C
REMARK SMILES IDX 10 1 11 2 12 3 13 4 14 5 15 6 16 7 18 8 17 9 19 10 9 11 7 12
REMARK SMILES IDX 6 13 8 14 5 15 4 16 2 17 3 18 1 19
REMARK H PARENT
REMARK Flexibility Score: inf
ROOT
ATOM      1  C   UNL     1      -2.311  -0.721   3.093  1.00  0.00     0.032 C 
ENDROOT
BRANCH   1   2
ATOM      2  C   UNL     1      -1.174  -1.692   2.880  1.00  0.00    -0.028 C 
ATOM      3  C   UNL     1      -0.205  -1.965   3.784  1.00  0.00    -0.077 C 
ATOM      4  C   UNL     1       0.907  -2.901   3.380  1.00  0.00     0.039 C 
BRANCH   3   5
ATOM      5  C   UNL     1      -0.193  -1.378   5.185  1.00  0.00     0.034 C 
BRANCH   5   6
ATOM      6  C   UNL     1       1.201  -1.439   5.825  1.00  0.00     0.032 C 
BRANCH   6   7
ATOM      7  C   UNL     1       1.510  -0.199   6.632  1.00  0.00    -0.028 C 
ATOM      8  C   UNL     1       3.232   0.640   5.017  1.00  0.00     0.039 C 
ATOM      9  C   UNL     1       2.425   0.735   6.289  1.00  0.00    -0.080 C 
ATOM     10  C   UNL     1       2.620   1.915   7.206  1.00  0.00     0.039 C 
ENDBRANCH   6   7
ENDBRANCH   5   6
ENDBRANCH   3   5
ENDBRANCH   1   2
BRANCH   1  11
ATOM     11  C   UNL     1      -2.453   0.249   1.915  1.00  0.00     0.034 C 
BRANCH  11  12
ATOM     12  C   UNL     1      -3.880   0.311   1.411  1.00  0.00    -0.077 C 
ATOM     13  C   UNL     1      -4.201  -0.271   0.237  1.00  0.00    -0.028 C 
ATOM     14  C   UNL     1      -4.924   0.994   2.263  1.00  0.00     0.039 C 
BRANCH  13  15
ATOM     15  C   UNL     1      -5.601  -0.259  -0.335  1.00  0.00     0.035 C 
BRANCH  15  16
ATOM     16  C   UNL     1      -6.365  -1.551  -0.021  1.00  0.00     0.079 C 
BRANCH  16  17
ATOM     17  C   UNL     1      -6.406  -2.481  -1.206  1.00  0.00     0.130 C 
ATOM     18  O   UNL     1      -7.473  -2.712  -1.753  1.00  0.00    -0.300 OA
ATOM     19  C   UNL     1      -5.158  -3.134  -1.728  1.00  0.00     0.087 C 
ENDBRANCH  16  17
ENDBRANCH  15  16
ENDBRANCH  13  15
ENDBRANCH  11  12
ENDBRANCH   1  11
TORSDOF 9
ENDMDL
MODEL 9
REMARK VINA RESULT:    -5.379      1.292      3.041
REMARK INTER + INTRA:         -10.012
REMARK INTER:                  -8.604
REMARK INTRA:                  -1.408
REMARK UNBOUND:                -1.803
REMARK SMILES CC(=O)CCC=C(C)CCC=C(C)CCC=C(C)C
REMARK SMILES IDX 10 1 11 2 12 3 13 4 14 5 15 6 16 7 18 8 17 9 19 10 9 11 7 12
REMARK SMILES IDX 6 13 8 14 5 15 4 16 2 17 3 18 1 19
REMARK H PARENT
REMARK Flexibility Score: inf
ROOT
ATOM      1  C   UNL     1      -2.943  -1.054   2.395  1.00  0.00     0.032 C 
ENDROOT
BRANCH   1   2
ATOM      2  C   UNL     1      -3.974  -1.943   1.741  1.00  0.00    -0.028 C 
ATOM      3  C   UNL     1      -4.932  -1.521   0.883  1.00  0.00    -0.077 C 
ATOM      4  C   UNL     1      -5.938  -2.528   0.382  1.00  0.00     0.039 C 
BRANCH   3   5
ATOM      5  C   UNL     1      -5.033  -0.085   0.398  1.00  0.00     0.034 C 
BRANCH   5   6
ATOM      6  C   UNL     1      -4.776   0.034  -1.111  1.00  0.00     0.032 C 
BRANCH   6   7
ATOM      7  C   UNL     1      -3.335  -0.255  -1.465  1.00  0.00    -0.028 C 
ATOM      8  C   UNL     1      -3.858  -2.449  -2.557  1.00  0.00     0.039 C 
ATOM      9  C   UNL     1      -2.907  -1.368  -2.102  1.00  0.00    -0.080 C 
ATOM     10  C   UNL     1      -1.432  -1.510  -2.380  1.00  0.00     0.039 C 
ENDBRANCH   6   7
ENDBRANCH   5   6
ENDBRANCH   3   5
ENDBRANCH   1   2
BRANCH   1  11
ATOM     11  C   UNL     1      -1.517  -1.488   2.038  1.00  0.00     0.034 C 
BRANCH  11  12
ATOM     12  C   UNL     1      -0.761  -1.979   3.255  1.00  0.00    -0.077 C 
ATOM     13  C   UNL     1      -0.780  -1.253   4.392  1.00  0.00    -0.028 C 
ATOM     14  C   UNL     1      -0.034  -3.301   3.176  1.00  0.00     0.039 C 
BRANCH  13  15
ATOM     15  C   UNL     1      -0.056  -1.675   5.652  1.00  0.00     0.035 C 
BRANCH  15  16
ATOM     16  C   UNL     1       1.420  -1.258   5.637  1.00  0.00     0.079 C 
BRANCH  16  17
ATOM     17  C   UNL     1       1.602   0.178   6.058  1.00  0.00     0.130 C 
ATOM     18  O   UNL     1       1.831   0.437   7.229  1.00  0.00    -0.300 OA
ATOM     19  C   UNL     1       1.503   1.300   5.064  1.00  0.00     0.087 C 
ENDBRANCH  16  17
ENDBRANCH  15  16
ENDBRANCH  13  15
ENDBRANCH  11  12
ENDBRANCH   1  11
TORSDOF 9
ENDMDL
