MODEL 1
REMARK VINA RESULT:    -4.907      0.000      0.000
REMARK INTER + INTRA:          -5.282
REMARK INTER:                  -5.194
REMARK INTRA:                  -0.089
REMARK UNBOUND:                -0.089
REMARK SMILES C=C(C)[C@H]1CC=C(C)C(=O)C1
REMARK SMILES IDX 8 1 7 2 6 3 5 4 4 5 11 6 9 7 10 8 2 9 1 10 3 11
REMARK H PARENT
REMARK Flexibility Score: inf
ROOT
ATOM      1  C   UNL     1      -9.311  17.132  10.045  1.00  0.00     0.048 C 
ATOM      2  C   UNL     1      -9.563  17.700   8.675  1.00  0.00    -0.012 C 
ATOM      3  C   UNL     1      -9.628  16.881   7.613  1.00  0.00    -0.019 C 
ATOM      4  C   UNL     1      -9.860  17.398   6.218  1.00  0.00     0.036 C 
ATOM      5  C   UNL     1     -10.754  18.653   6.233  1.00  0.00     0.025 C 
ATOM      6  C   UNL     1     -10.153  19.725   7.161  1.00  0.00     0.089 C 
ATOM      7  C   UNL     1      -9.861  19.146   8.518  1.00  0.00     0.158 C 
ATOM      8  O   UNL     1      -9.836  19.910   9.520  1.00  0.00    -0.295 OA
ENDROOT
BRANCH   5   9
ATOM      9  C   UNL     1     -10.989  19.194   4.829  1.00  0.00    -0.077 C 
ATOM     10  C   UNL     1     -12.230  19.377   4.349  1.00  0.00     0.008 C 
ATOM     11  C   UNL     1      -9.817  19.537   3.945  1.00  0.00     0.039 C 
ENDBRANCH   5   9
TORSDOF 1
ENDMDL
MODEL 2
REMARK VINA RESULT:    -4.875      1.439      4.341
REMARK INTER + INTRA:          -5.249
REMARK INTER:                  -5.157
REMARK INTRA:                  -0.092
REMARK UNBOUND:                -0.089
REMARK SMILES C=C(C)[C@H]1CC=C(C)C(=O)C1
REMARK SMILES IDX 8 1 7 2 6 3 5 4 4 5 11 6 9 7 10 8 2 9 1 10 3 11
REMARK H PARENT
REMARK Flexibility Score: inf
ROOT
ATOM      1  C   UNL     1     -10.776  19.196   3.875  1.00  0.00     0.048 C 
ATOM      2  C   UNL     1     -10.540  18.789   5.304  1.00  0.00    -0.012 C 
ATOM      3  C   UNL     1     -10.192  17.524   5.589  1.00  0.00    -0.019 C 
ATOM      4  C   UNL     1      -9.962  17.058   7.003  1.00  0.00     0.036 C 
ATOM      5  C   UNL     1      -9.387  18.192   7.873  1.00  0.00     0.025 C 
ATOM      6  C   UNL     1     -10.299  19.431   7.808  1.00  0.00     0.089 C 
ATOM      7  C   UNL     1     -10.571  19.812   6.379  1.00  0.00     0.158 C 
ATOM      8  O   UNL     1     -10.862  21.008   6.106  1.00  0.00    -0.295 OA
ENDROOT
BRANCH   5   9
ATOM      9  C   UNL     1      -9.158  17.739   9.309  1.00  0.00    -0.077 C 
ATOM     10  C   UNL     1      -8.292  16.754   9.602  1.00  0.00     0.008 C 
ATOM     11  C   UNL     1      -9.907  18.399  10.439  1.00  0.00     0.039 C 
ENDBRANCH   5   9
TORSDOF 1
ENDMDL
MODEL 3
REMARK VINA RESULT:    -4.636     14.668     15.914
REMARK INTER + INTRA:          -4.996
REMARK INTER:                  -4.903
REMARK INTRA:                  -0.093
REMARK UNBOUND:                -0.089
REMARK SMILES C=C(C)[C@H]1CC=C(C)C(=O)C1
REMARK SMILES IDX 8 1 7 2 6 3 5 4 4 5 11 6 9 7 10 8 2 9 1 10 3 11
REMARK H PARENT
REMARK Flexibility Score: inf
ROOT
ATOM      1  C   UNL     1      -8.509  22.880  22.099  1.00  0.00     0.048 C 
ATOM      2  C   UNL     1     -10.012  22.875  22.027  1.00  0.00    -0.012 C 
ATOM      3  C   UNL     1     -10.733  22.600  23.127  1.00  0.00    -0.019 C 
ATOM      4  C   UNL     1     -12.238  22.563  23.106  1.00  0.00     0.036 C 
ATOM      5  C   UNL     1     -12.803  23.576  22.092  1.00  0.00     0.025 C 
ATOM      6  C   UNL     1     -12.194  23.333  20.699  1.00  0.00     0.089 C 
ATOM      7  C   UNL     1     -10.693  23.294  20.777  1.00  0.00     0.158 C 
ATOM      8  O   UNL     1     -10.017  23.588  19.755  1.00  0.00    -0.295 OA
ENDROOT
BRANCH   5   9
ATOM      9  C   UNL     1     -14.325  23.545  22.053  1.00  0.00    -0.077 C 
ATOM     10  C   UNL     1     -14.991  22.488  21.556  1.00  0.00     0.008 C 
ATOM     11  C   UNL     1     -15.120  24.712  22.581  1.00  0.00     0.039 C 
ENDBRANCH   5   9
TORSDOF 1
ENDMDL
MODEL 4
REMARK VINA RESULT:    -4.591      2.205      3.961
REMARK INTER + INTRA:          -4.949
REMARK INTER:                  -4.851
REMARK INTRA:                  -0.097
REMARK UNBOUND:                -0.089
REMARK SMILES C=C(C)[C@H]1CC=C(C)C(=O)C1
REMARK SMILES IDX 8 1 7 2 6 3 5 4 4 5 11 6 9 7 10 8 2 9 1 10 3 11
REMARK H PARENT
REMARK Flexibility Score: inf
ROOT
ATOM      1  C   UNL     1     -10.375  21.140   6.866  1.00  0.00     0.048 C 
ATOM      2  C   UNL     1     -10.131  19.676   6.622  1.00  0.00    -0.012 C 
ATOM      3  C   UNL     1      -9.873  18.860   7.658  1.00  0.00    -0.019 C 
ATOM      4  C   UNL     1      -9.604  17.390   7.469  1.00  0.00     0.036 C 
ATOM      5  C   UNL     1     -10.399  16.830   6.274  1.00  0.00     0.025 C 
ATOM      6  C   UNL     1     -10.098  17.647   5.003  1.00  0.00     0.089 C 
ATOM      7  C   UNL     1     -10.299  19.115   5.258  1.00  0.00     0.158 C 
ATOM      8  O   UNL     1     -10.578  19.875   4.291  1.00  0.00    -0.295 OA
ENDROOT
BRANCH   5   9
ATOM      9  C   UNL     1     -10.129  15.346   6.064  1.00  0.00    -0.077 C 
ATOM     10  C   UNL     1     -10.000  14.826   4.832  1.00  0.00     0.008 C 
ATOM     11  C   UNL     1     -10.000  14.426   7.251  1.00  0.00     0.039 C 
ENDBRANCH   5   9
TORSDOF 1
ENDMDL
MODEL 5
REMARK VINA RESULT:    -4.575      2.146      2.863
REMARK INTER + INTRA:          -4.931
REMARK INTER:                  -4.843
REMARK INTRA:                  -0.088
REMARK UNBOUND:                -0.089
REMARK SMILES C=C(C)[C@H]1CC=C(C)C(=O)C1
REMARK SMILES IDX 8 1 7 2 6 3 5 4 4 5 11 6 9 7 10 8 2 9 1 10 3 11
REMARK H PARENT
REMARK Flexibility Score: inf
ROOT
ATOM      1  C   UNL     1      -9.238  15.288   9.172  1.00  0.00     0.048 C 
ATOM      2  C   UNL     1      -9.750  16.204   8.095  1.00  0.00    -0.012 C 
ATOM      3  C   UNL     1      -9.601  17.533   8.221  1.00  0.00    -0.019 C 
ATOM      4  C   UNL     1     -10.110  18.496   7.182  1.00  0.00     0.036 C 
ATOM      5  C   UNL     1     -10.036  17.880   5.772  1.00  0.00     0.025 C 
ATOM      6  C   UNL     1     -10.784  16.535   5.737  1.00  0.00     0.089 C 
ATOM      7  C   UNL     1     -10.304  15.634   6.841  1.00  0.00     0.158 C 
ATOM      8  O   UNL     1     -10.411  14.385   6.707  1.00  0.00    -0.295 OA
ENDROOT
BRANCH   5   9
ATOM      9  C   UNL     1     -10.557  18.840   4.710  1.00  0.00    -0.077 C 
ATOM     10  C   UNL     1      -9.718  19.556   3.942  1.00  0.00     0.008 C 
ATOM     11  C   UNL     1     -12.041  19.002   4.499  1.00  0.00     0.039 C 
ENDBRANCH   5   9
TORSDOF 1
ENDMDL
MODEL 6
REMARK VINA RESULT:    -4.491      2.358      4.000
REMARK INTER + INTRA:          -4.842
REMARK INTER:                  -4.746
REMARK INTRA:                  -0.096
REMARK UNBOUND:                -0.089
REMARK SMILES C=C(C)[C@H]1CC=C(C)C(=O)C1
REMARK SMILES IDX 8 1 7 2 6 3 5 4 4 5 11 6 9 7 10 8 2 9 1 10 3 11
REMARK H PARENT
REMARK Flexibility Score: inf
ROOT
ATOM      1  C   UNL     1     -12.603  19.509   4.897  1.00  0.00     0.048 C 
ATOM      2  C   UNL     1     -11.229  19.228   5.441  1.00  0.00    -0.012 C 
ATOM      3  C   UNL     1     -10.609  18.077   5.131  1.00  0.00    -0.019 C 
ATOM      4  C   UNL     1      -9.242  17.738   5.663  1.00  0.00     0.036 C 
ATOM      5  C   UNL     1      -8.386  19.007   5.842  1.00  0.00     0.025 C 
ATOM      6  C   UNL     1      -9.122  20.026   6.732  1.00  0.00     0.089 C 
ATOM      7  C   UNL     1     -10.512  20.274   6.214  1.00  0.00     0.158 C 
ATOM      8  O   UNL     1     -11.079  21.369   6.474  1.00  0.00    -0.295 OA
ENDROOT
BRANCH   5   9
ATOM      9  C   UNL     1      -7.002  18.681   6.388  1.00  0.00    -0.077 C 
ATOM     10  C   UNL     1      -6.631  17.415   6.640  1.00  0.00     0.008 C 
ATOM     11  C   UNL     1      -6.015  19.788   6.656  1.00  0.00     0.039 C 
ENDBRANCH   5   9
TORSDOF 1
ENDMDL
MODEL 7
REMARK VINA RESULT:    -4.442      1.975      4.764
REMARK INTER + INTRA:          -4.790
REMARK INTER:                  -4.694
REMARK INTRA:                  -0.096
REMARK UNBOUND:                -0.089
REMARK SMILES C=C(C)[C@H]1CC=C(C)C(=O)C1
REMARK SMILES IDX 8 1 7 2 6 3 5 4 4 5 11 6 9 7 10 8 2 9 1 10 3 11
REMARK H PARENT
REMARK Flexibility Score: inf
ROOT
ATOM      1  C   UNL     1     -11.878  19.321   4.363  1.00  0.00     0.048 C 
ATOM      2  C   UNL     1     -11.016  19.009   5.555  1.00  0.00    -0.012 C 
ATOM      3  C   UNL     1     -11.007  19.840   6.610  1.00  0.00    -0.019 C 
ATOM      4  C   UNL     1     -10.150  19.584   7.822  1.00  0.00     0.036 C 
ATOM      5  C   UNL     1      -9.988  18.074   8.077  1.00  0.00     0.025 C 
ATOM      6  C   UNL     1      -9.442  17.375   6.818  1.00  0.00     0.089 C 
ATOM      7  C   UNL     1     -10.277  17.723   5.616  1.00  0.00     0.158 C 
ATOM      8  O   UNL     1     -10.314  16.924   4.641  1.00  0.00    -0.295 OA
ENDROOT
BRANCH   5   9
ATOM      9  C   UNL     1      -9.115  17.799   9.294  1.00  0.00    -0.077 C 
ATOM     10  C   UNL     1      -7.895  17.249   9.171  1.00  0.00     0.008 C 
ATOM     11  C   UNL     1      -9.612  18.145  10.675  1.00  0.00     0.039 C 
ENDBRANCH   5   9
TORSDOF 1
ENDMDL
MODEL 8
REMARK VINA RESULT:    -4.372     11.589     13.696
REMARK INTER + INTRA:          -4.717
REMARK INTER:                  -4.622
REMARK INTRA:                  -0.095
REMARK UNBOUND:                -0.089
REMARK SMILES C=C(C)[C@H]1CC=C(C)C(=O)C1
REMARK SMILES IDX 8 1 7 2 6 3 5 4 4 5 11 6 9 7 10 8 2 9 1 10 3 11
REMARK H PARENT
REMARK Flexibility Score: inf
ROOT
ATOM      1  C   UNL     1     -10.005  22.562  22.774  1.00  0.00     0.048 C 
ATOM      2  C   UNL     1      -9.075  22.202  21.648  1.00  0.00    -0.012 C 
ATOM      3  C   UNL     1      -8.383  21.052  21.696  1.00  0.00    -0.019 C 
ATOM      4  C   UNL     1      -7.425  20.651  20.605  1.00  0.00     0.036 C 
ATOM      5  C   UNL     1      -7.900  21.165  19.233  1.00  0.00     0.025 C 
ATOM      6  C   UNL     1      -8.125  22.688  19.282  1.00  0.00     0.089 C 
ATOM      7  C   UNL     1      -9.019  23.054  20.434  1.00  0.00     0.158 C 
ATOM      8  O   UNL     1      -9.697  24.115  20.373  1.00  0.00    -0.295 OA
ENDROOT
BRANCH   5   9
ATOM      9  C   UNL     1      -6.936  20.776  18.120  1.00  0.00    -0.077 C 
ATOM     10  C   UNL     1      -6.347  19.568  18.096  1.00  0.00     0.008 C 
ATOM     11  C   UNL     1      -6.625  21.751  17.013  1.00  0.00     0.039 C 
ENDBRANCH   5   9
TORSDOF 1
ENDMDL
MODEL 9
REMARK VINA RESULT:    -4.334      5.337      7.033
REMARK INTER + INTRA:          -4.676
REMARK INTER:                  -4.582
REMARK INTRA:                  -0.094
REMARK UNBOUND:                -0.089
REMARK SMILES C=C(C)[C@H]1CC=C(C)C(=O)C1
REMARK SMILES IDX 8 1 7 2 6 3 5 4 4 5 11 6 9 7 10 8 2 9 1 10 3 11
REMARK H PARENT
REMARK Flexibility Score: inf
ROOT
ATOM      1  C   UNL     1      -7.005  19.721  15.480  1.00  0.00     0.048 C 
ATOM      2  C   UNL     1      -7.765  18.798  14.568  1.00  0.00    -0.012 C 
ATOM      3  C   UNL     1      -8.038  17.544  14.962  1.00  0.00    -0.019 C 
ATOM      4  C   UNL     1      -8.780  16.574  14.081  1.00  0.00     0.036 C 
ATOM      5  C   UNL     1      -9.805  17.304  13.192  1.00  0.00     0.025 C 
ATOM      6  C   UNL     1      -9.113  18.416  12.382  1.00  0.00     0.089 C 
ATOM      7  C   UNL     1      -8.317  19.313  13.289  1.00  0.00     0.158 C 
ATOM      8  O   UNL     1      -8.091  20.501  12.935  1.00  0.00    -0.295 OA
ENDROOT
BRANCH   5   9
ATOM      9  C   UNL     1     -10.556  16.336  12.287  1.00  0.00    -0.077 C 
ATOM     10  C   UNL     1     -10.107  16.035  11.057  1.00  0.00     0.008 C 
ATOM     11  C   UNL     1     -11.832  15.690  12.765  1.00  0.00     0.039 C 
ENDBRANCH   5   9
TORSDOF 1
ENDMDL
