MODEL 1
REMARK VINA RESULT:    -3.344      0.000      0.000
REMARK INTER + INTRA:          -3.651
REMARK INTER:                  -3.637
REMARK INTRA:                  -0.014
REMARK UNBOUND:                -0.014
REMARK SMILES OCc1ccco1
REMARK SMILES IDX 2 1 3 2 5 3 6 4 4 5 7 6 1 7
REMARK H PARENT 1 8
REMARK Flexibility Score: inf
ROOT
ATOM      1  C   UNL     1     -17.748  47.182  -7.843  1.00  0.00     0.231 C 
ENDROOT
BRANCH   1   2
ATOM      2  C   UNL     1     -18.208  46.037  -6.998  1.00  0.00     0.129 A 
ATOM      3  C   UNL     1     -19.465  44.616  -5.891  1.00  0.00     0.042 A 
ATOM      4  C   UNL     1     -18.136  44.245  -5.846  1.00  0.00     0.195 A 
ATOM      5  C   UNL     1     -19.515  45.773  -6.639  1.00  0.00     0.048 A 
ATOM      6  O   UNL     1     -17.412  45.111  -6.517  1.00  0.00    -0.467 OA
ENDBRANCH   1   2
BRANCH   1   7
ATOM      7  O   UNL     1     -18.371  48.366  -7.429  1.00  0.00    -0.388 OA
ATOM      8  H   UNL     1     -19.202  48.099  -6.956  1.00  0.00     0.211 HD
ENDBRANCH   1   7
TORSDOF 2
ENDMDL
MODEL 2
REMARK VINA RESULT:    -3.317      1.340      1.599
REMARK INTER + INTRA:          -3.622
REMARK INTER:                  -3.608
REMARK INTRA:                  -0.014
REMARK UNBOUND:                -0.014
REMARK SMILES OCc1ccco1
REMARK SMILES IDX 2 1 3 2 5 3 6 4 4 5 7 6 1 7
REMARK H PARENT 1 8
REMARK Flexibility Score: inf
ROOT
ATOM      1  C   UNL     1     -17.901  47.093  -7.762  1.00  0.00     0.231 C 
ENDROOT
BRANCH   1   2
ATOM      2  C   UNL     1     -18.871  46.057  -7.293  1.00  0.00     0.129 A 
ATOM      3  C   UNL     1     -19.991  44.643  -6.040  1.00  0.00     0.042 A 
ATOM      4  C   UNL     1     -20.503  44.685  -7.320  1.00  0.00     0.195 A 
ATOM      5  C   UNL     1     -18.937  45.532  -6.018  1.00  0.00     0.048 A 
ATOM      6  O   UNL     1     -19.816  45.540  -8.044  1.00  0.00    -0.467 OA
ENDBRANCH   1   2
BRANCH   1   7
ATOM      7  O   UNL     1     -18.369  48.373  -7.436  1.00  0.00    -0.388 OA
ATOM      8  H   UNL     1     -17.803  48.700  -6.688  1.00  0.00     0.211 HD
ENDBRANCH   1   7
TORSDOF 2
ENDMDL
MODEL 3
REMARK VINA RESULT:    -3.257      1.801      2.102
REMARK INTER + INTRA:          -3.556
REMARK INTER:                  -3.542
REMARK INTRA:                  -0.014
REMARK UNBOUND:                -0.014
REMARK SMILES OCc1ccco1
REMARK SMILES IDX 2 1 3 2 5 3 6 4 4 5 7 6 1 7
REMARK H PARENT 1 8
REMARK Flexibility Score: inf
ROOT
ATOM      1  C   UNL     1     -18.137  47.257  -5.358  1.00  0.00     0.231 C 
ENDROOT
BRANCH   1   2
ATOM      2  C   UNL     1     -17.724  45.930  -5.909  1.00  0.00     0.129 A 
ATOM      3  C   UNL     1     -17.679  43.801  -6.446  1.00  0.00     0.042 A 
ATOM      4  C   UNL     1     -16.604  44.473  -6.990  1.00  0.00     0.195 A 
ATOM      5  C   UNL     1     -18.408  44.741  -5.749  1.00  0.00     0.048 A 
ATOM      6  O   UNL     1     -16.659  45.742  -6.654  1.00  0.00    -0.467 OA
ENDBRANCH   1   2
BRANCH   1   7
ATOM      7  O   UNL     1     -17.250  47.658  -4.351  1.00  0.00    -0.388 OA
ATOM      8  H   UNL     1     -17.722  47.525  -3.487  1.00  0.00     0.211 HD
ENDBRANCH   1   7
TORSDOF 2
ENDMDL
MODEL 4
REMARK VINA RESULT:    -3.224      2.219      2.374
REMARK INTER + INTRA:          -3.520
REMARK INTER:                  -3.505
REMARK INTRA:                  -0.015
REMARK UNBOUND:                -0.014
REMARK SMILES OCc1ccco1
REMARK SMILES IDX 2 1 3 2 5 3 6 4 4 5 7 6 1 7
REMARK H PARENT 1 8
REMARK Flexibility Score: inf
ROOT
ATOM      1  C   UNL     1     -20.219  44.922  -8.993  1.00  0.00     0.231 C 
ENDROOT
BRANCH   1   2
ATOM      2  C   UNL     1     -19.608  44.650  -7.657  1.00  0.00     0.129 A 
ATOM      3  C   UNL     1     -19.333  44.287  -5.508  1.00  0.00     0.042 A 
ATOM      4  C   UNL     1     -18.137  44.179  -6.187  1.00  0.00     0.195 A 
ATOM      5  C   UNL     1     -20.287  44.587  -6.456  1.00  0.00     0.048 A 
ATOM      6  O   UNL     1     -18.333  44.399  -7.467  1.00  0.00    -0.467 OA
ENDBRANCH   1   2
BRANCH   1   7
ATOM      7  O   UNL     1     -21.356  45.727  -8.848  1.00  0.00    -0.388 OA
ATOM      8  H   UNL     1     -22.028  45.183  -8.358  1.00  0.00     0.211 HD
ENDBRANCH   1   7
TORSDOF 2
ENDMDL
MODEL 5
REMARK VINA RESULT:    -3.218      2.339      3.142
REMARK INTER + INTRA:          -3.514
REMARK INTER:                  -3.498
REMARK INTRA:                  -0.016
REMARK UNBOUND:                -0.014
REMARK SMILES OCc1ccco1
REMARK SMILES IDX 2 1 3 2 5 3 6 4 4 5 7 6 1 7
REMARK H PARENT 1 8
REMARK Flexibility Score: inf
ROOT
ATOM      1  C   UNL     1     -17.544  43.879  -6.586  1.00  0.00     0.231 C 
ENDROOT
BRANCH   1   2
ATOM      2  C   UNL     1     -18.788  44.271  -7.315  1.00  0.00     0.129 A 
ATOM      3  C   UNL     1     -20.819  44.969  -7.779  1.00  0.00     0.042 A 
ATOM      4  C   UNL     1     -20.105  44.712  -8.932  1.00  0.00     0.195 A 
ATOM      5  C   UNL     1     -19.968  44.689  -6.731  1.00  0.00     0.048 A 
ATOM      6  O   UNL     1     -18.897  44.299  -8.623  1.00  0.00    -0.467 OA
ENDBRANCH   1   2
BRANCH   1   7
ATOM      7  O   UNL     1     -17.766  43.910  -5.203  1.00  0.00    -0.388 OA
ATOM      8  H   UNL     1     -18.280  43.091  -4.980  1.00  0.00     0.211 HD
ENDBRANCH   1   7
TORSDOF 2
ENDMDL
MODEL 6
REMARK VINA RESULT:    -3.198      1.611      2.135
REMARK INTER + INTRA:          -3.493
REMARK INTER:                  -3.478
REMARK INTRA:                  -0.014
REMARK UNBOUND:                -0.014
REMARK SMILES OCc1ccco1
REMARK SMILES IDX 2 1 3 2 5 3 6 4 4 5 7 6 1 7
REMARK H PARENT 1 8
REMARK Flexibility Score: inf
ROOT
ATOM      1  C   UNL     1     -16.679  46.429  -5.791  1.00  0.00     0.231 C 
ENDROOT
BRANCH   1   2
ATOM      2  C   UNL     1     -18.009  45.872  -6.188  1.00  0.00     0.129 A 
ATOM      3  C   UNL     1     -19.787  44.593  -6.344  1.00  0.00     0.042 A 
ATOM      4  C   UNL     1     -19.927  45.734  -7.107  1.00  0.00     0.195 A 
ATOM      5  C   UNL     1     -18.549  44.681  -5.745  1.00  0.00     0.048 A 
ATOM      6  O   UNL     1     -18.851  46.478  -6.992  1.00  0.00    -0.467 OA
ENDBRANCH   1   2
BRANCH   1   7
ATOM      7  O   UNL     1     -16.829  47.315  -4.717  1.00  0.00    -0.388 OA
ATOM      8  H   UNL     1     -16.156  47.052  -4.036  1.00  0.00     0.211 HD
ENDBRANCH   1   7
TORSDOF 2
ENDMDL
MODEL 7
REMARK VINA RESULT:    -3.178      1.880      3.231
REMARK INTER + INTRA:          -3.471
REMARK INTER:                  -3.455
REMARK INTRA:                  -0.015
REMARK UNBOUND:                -0.014
REMARK SMILES OCc1ccco1
REMARK SMILES IDX 2 1 3 2 5 3 6 4 4 5 7 6 1 7
REMARK H PARENT 1 8
REMARK Flexibility Score: inf
ROOT
ATOM      1  C   UNL     1     -17.024  43.351  -7.949  1.00  0.00     0.231 C 
ENDROOT
BRANCH   1   2
ATOM      2  C   UNL     1     -18.075  44.175  -7.278  1.00  0.00     0.129 A 
ATOM      3  C   UNL     1     -19.374  45.095  -5.765  1.00  0.00     0.042 A 
ATOM      4  C   UNL     1     -19.626  45.614  -7.018  1.00  0.00     0.195 A 
ATOM      5  C   UNL     1     -18.368  44.167  -5.929  1.00  0.00     0.048 A 
ATOM      6  O   UNL     1     -18.834  45.048  -7.900  1.00  0.00    -0.467 OA
ENDBRANCH   1   2
BRANCH   1   7
ATOM      7  O   UNL     1     -16.682  42.257  -7.143  1.00  0.00    -0.388 OA
ATOM      8  H   UNL     1     -15.690  42.220  -7.121  1.00  0.00     0.211 HD
ENDBRANCH   1   7
TORSDOF 2
ENDMDL
MODEL 8
REMARK VINA RESULT:    -3.118      3.426      3.653
REMARK INTER + INTRA:          -3.405
REMARK INTER:                  -3.390
REMARK INTRA:                  -0.015
REMARK UNBOUND:                -0.014
REMARK SMILES OCc1ccco1
REMARK SMILES IDX 2 1 3 2 5 3 6 4 4 5 7 6 1 7
REMARK H PARENT 1 8
REMARK Flexibility Score: inf
ROOT
ATOM      1  C   UNL     1     -20.602  45.305  -7.908  1.00  0.00     0.231 C 
ENDROOT
BRANCH   1   2
ATOM      2  C   UNL     1     -19.919  44.134  -8.539  1.00  0.00     0.129 A 
ATOM      3  C   UNL     1     -19.521  42.301  -9.682  1.00  0.00     0.042 A 
ATOM      4  C   UNL     1     -18.355  42.828  -9.164  1.00  0.00     0.195 A 
ATOM      5  C   UNL     1     -20.534  43.146  -9.283  1.00  0.00     0.048 A 
ATOM      6  O   UNL     1     -18.625  43.922  -8.489  1.00  0.00    -0.467 OA
ENDBRANCH   1   2
BRANCH   1   7
ATOM      7  O   UNL     1     -21.546  45.845  -8.791  1.00  0.00    -0.388 OA
ATOM      8  H   UNL     1     -21.170  46.704  -9.118  1.00  0.00     0.211 HD
ENDBRANCH   1   7
TORSDOF 2
ENDMDL
MODEL 9
REMARK VINA RESULT:    -3.087      2.141      2.860
REMARK INTER + INTRA:          -3.371
REMARK INTER:                  -3.350
REMARK INTRA:                  -0.021
REMARK UNBOUND:                -0.014
REMARK SMILES OCc1ccco1
REMARK SMILES IDX 2 1 3 2 5 3 6 4 4 5 7 6 1 7
REMARK H PARENT 1 8
REMARK Flexibility Score: inf
ROOT
ATOM      1  C   UNL     1     -20.965  44.862  -8.026  1.00  0.00     0.231 C 
ENDROOT
BRANCH   1   2
ATOM      2  C   UNL     1     -19.914  45.456  -7.145  1.00  0.00     0.129 A 
ATOM      3  C   UNL     1     -18.195  45.703  -5.800  1.00  0.00     0.042 A 
ATOM      4  C   UNL     1     -18.731  46.925  -6.153  1.00  0.00     0.195 A 
ATOM      5  C   UNL     1     -18.956  44.750  -6.443  1.00  0.00     0.048 A 
ATOM      6  O   UNL     1     -19.753  46.745  -6.957  1.00  0.00    -0.467 OA
ENDBRANCH   1   2
BRANCH   1   7
ATOM      7  O   UNL     1     -21.374  45.797  -8.986  1.00  0.00    -0.388 OA
ATOM      8  H   UNL     1     -22.033  45.336  -9.569  1.00  0.00     0.211 HD
ENDBRANCH   1   7
TORSDOF 2
ENDMDL
