MODEL 1
REMARK VINA RESULT:    -3.998      0.000      0.000
REMARK INTER + INTRA:          -5.272
REMARK INTER:                  -5.167
REMARK INTRA:                  -0.105
REMARK UNBOUND:                -0.105
REMARK SMILES CCCCCCC(C)=O
REMARK SMILES IDX 4 1 3 2 2 3 1 4 5 5 6 6 7 7 9 8 8 9
REMARK H PARENT
REMARK Flexibility Score: inf
ROOT
ATOM      1  C   UNL     1      26.136  58.855  -9.362  1.00  0.00     0.000 C 
ENDROOT
BRANCH   1   2
ATOM      2  C   UNL     1      27.197  59.069 -10.453  1.00  0.00    -0.000 C 
BRANCH   2   3
ATOM      3  C   UNL     1      28.003  60.360 -10.248  1.00  0.00    -0.003 C 
ATOM      4  C   UNL     1      29.390  60.060  -9.686  1.00  0.00     0.004 C 
ENDBRANCH   2   3
ENDBRANCH   1   2
BRANCH   1   5
ATOM      5  C   UNL     1      25.930  57.370  -9.019  1.00  0.00     0.008 C 
BRANCH   5   6
ATOM      6  C   UNL     1      24.508  57.085  -8.520  1.00  0.00     0.075 C 
BRANCH   6   7
ATOM      7  C   UNL     1      24.380  55.700  -7.942  1.00  0.00     0.129 C 
ATOM      8  O   UNL     1      25.368  54.989  -7.846  1.00  0.00    -0.300 OA
ATOM      9  C   UNL     1      23.052  55.198  -7.459  1.00  0.00     0.087 C 
ENDBRANCH   6   7
ENDBRANCH   5   6
ENDBRANCH   1   5
TORSDOF 5
ENDMDL
MODEL 2
REMARK VINA RESULT:    -3.883      2.318      5.697
REMARK INTER + INTRA:          -5.123
REMARK INTER:                  -5.039
REMARK INTRA:                  -0.084
REMARK UNBOUND:                -0.105
REMARK SMILES CCCCCCC(C)=O
REMARK SMILES IDX 4 1 3 2 2 3 1 4 5 5 6 6 7 7 9 8 8 9
REMARK H PARENT
REMARK Flexibility Score: inf
ROOT
ATOM      1  C   UNL     1      25.284  57.837  -8.903  1.00  0.00     0.000 C 
ENDROOT
BRANCH   1   2
ATOM      2  C   UNL     1      25.506  56.471  -8.236  1.00  0.00    -0.000 C 
BRANCH   2   3
ATOM      3  C   UNL     1      24.413  55.454  -8.593  1.00  0.00    -0.003 C 
ATOM      4  C   UNL     1      23.387  55.332  -7.470  1.00  0.00     0.004 C 
ENDBRANCH   2   3
ENDBRANCH   1   2
BRANCH   1   5
ATOM      5  C   UNL     1      26.527  58.334  -9.662  1.00  0.00     0.008 C 
BRANCH   5   6
ATOM      6  C   UNL     1      26.652  59.863  -9.623  1.00  0.00     0.075 C 
BRANCH   6   7
ATOM      7  C   UNL     1      28.002  60.330 -10.100  1.00  0.00     0.129 C 
ATOM      8  O   UNL     1      28.650  59.632 -10.865  1.00  0.00    -0.300 OA
ATOM      9  C   UNL     1      28.544  61.658  -9.664  1.00  0.00     0.087 C 
ENDBRANCH   6   7
ENDBRANCH   5   6
ENDBRANCH   1   5
TORSDOF 5
ENDMDL
MODEL 3
REMARK VINA RESULT:    -3.860     16.793     18.453
REMARK INTER + INTRA:          -5.093
REMARK INTER:                  -4.611
REMARK INTRA:                  -0.482
REMARK UNBOUND:                -0.105
REMARK SMILES CCCCCCC(C)=O
REMARK SMILES IDX 4 1 3 2 2 3 1 4 5 5 6 6 7 7 9 8 8 9
REMARK H PARENT
REMARK Flexibility Score: inf
ROOT
ATOM      1  C   UNL     1      17.812  45.956  -0.595  1.00  0.00     0.000 C 
ENDROOT
BRANCH   1   2
ATOM      2  C   UNL     1      16.774  44.880  -0.243  1.00  0.00    -0.000 C 
BRANCH   2   3
ATOM      3  C   UNL     1      15.764  45.355   0.811  1.00  0.00    -0.003 C 
ATOM      4  C   UNL     1      15.420  44.235   1.789  1.00  0.00     0.004 C 
ENDBRANCH   2   3
ENDBRANCH   1   2
BRANCH   1   5
ATOM      5  C   UNL     1      19.254  45.508  -0.300  1.00  0.00     0.008 C 
BRANCH   5   6
ATOM      6  C   UNL     1      19.335  44.014   0.044  1.00  0.00     0.075 C 
BRANCH   6   7
ATOM      7  C   UNL     1      19.926  43.781   1.409  1.00  0.00     0.129 C 
ATOM      8  O   UNL     1      21.044  43.299   1.512  1.00  0.00    -0.300 OA
ATOM      9  C   UNL     1      19.163  44.162   2.642  1.00  0.00     0.087 C 
ENDBRANCH   6   7
ENDBRANCH   5   6
ENDBRANCH   1   5
TORSDOF 5
ENDMDL
MODEL 4
REMARK VINA RESULT:    -3.847     16.839     18.942
REMARK INTER + INTRA:          -5.076
REMARK INTER:                  -4.597
REMARK INTRA:                  -0.478
REMARK UNBOUND:                -0.105
REMARK SMILES CCCCCCC(C)=O
REMARK SMILES IDX 4 1 3 2 2 3 1 4 5 5 6 6 7 7 9 8 8 9
REMARK H PARENT
REMARK Flexibility Score: inf
ROOT
ATOM      1  C   UNL     1      16.550  43.212   1.043  1.00  0.00     0.000 C 
ENDROOT
BRANCH   1   2
ATOM      2  C   UNL     1      16.222  44.532   1.756  1.00  0.00    -0.000 C 
BRANCH   2   3
ATOM      3  C   UNL     1      15.360  45.469   0.899  1.00  0.00    -0.003 C 
ATOM      4  C   UNL     1      15.973  45.671  -0.484  1.00  0.00     0.004 C 
ENDBRANCH   2   3
ENDBRANCH   1   2
BRANCH   1   5
ATOM      5  C   UNL     1      17.926  42.650   1.439  1.00  0.00     0.008 C 
BRANCH   5   6
ATOM      6  C   UNL     1      18.896  43.755   1.879  1.00  0.00     0.075 C 
BRANCH   6   7
ATOM      7  C   UNL     1      19.852  44.136   0.781  1.00  0.00     0.129 C 
ATOM      8  O   UNL     1      20.849  43.459   0.582  1.00  0.00    -0.300 OA
ATOM      9  C   UNL     1      19.575  45.326  -0.088  1.00  0.00     0.087 C 
ENDBRANCH   6   7
ENDBRANCH   5   6
ENDBRANCH   1   5
TORSDOF 5
ENDMDL
MODEL 5
REMARK VINA RESULT:    -3.816     17.181     18.873
REMARK INTER + INTRA:          -5.036
REMARK INTER:                  -4.556
REMARK INTRA:                  -0.480
REMARK UNBOUND:                -0.105
REMARK SMILES CCCCCCC(C)=O
REMARK SMILES IDX 4 1 3 2 2 3 1 4 5 5 6 6 7 7 9 8 8 9
REMARK H PARENT
REMARK Flexibility Score: inf
ROOT
ATOM      1  C   UNL     1      18.028  42.905   1.464  1.00  0.00     0.000 C 
ENDROOT
BRANCH   1   2
ATOM      2  C   UNL     1      18.772  44.055   2.161  1.00  0.00    -0.000 C 
BRANCH   2   3
ATOM      3  C   UNL     1      19.987  44.543   1.359  1.00  0.00    -0.003 C 
ATOM      4  C   UNL     1      19.556  45.185   0.043  1.00  0.00     0.004 C 
ENDBRANCH   2   3
ENDBRANCH   1   2
BRANCH   1   5
ATOM      5  C   UNL     1      16.558  43.245   1.166  1.00  0.00     0.008 C 
BRANCH   5   6
ATOM      6  C   UNL     1      16.144  44.595   1.769  1.00  0.00     0.075 C 
BRANCH   6   7
ATOM      7  C   UNL     1      15.437  45.467   0.765  1.00  0.00     0.129 C 
ATOM      8  O   UNL     1      14.418  46.059   1.087  1.00  0.00    -0.300 OA
ATOM      9  C   UNL     1      15.990  45.635  -0.618  1.00  0.00     0.087 C 
ENDBRANCH   6   7
ENDBRANCH   5   6
ENDBRANCH   1   5
TORSDOF 5
ENDMDL
MODEL 6
REMARK VINA RESULT:    -3.732     17.220     18.286
REMARK INTER + INTRA:          -4.928
REMARK INTER:                  -4.703
REMARK INTRA:                  -0.225
REMARK UNBOUND:                -0.105
REMARK SMILES CCCCCCC(C)=O
REMARK SMILES IDX 4 1 3 2 2 3 1 4 5 5 6 6 7 7 9 8 8 9
REMARK H PARENT
REMARK Flexibility Score: inf
ROOT
ATOM      1  C   UNL     1      19.531  45.170   0.060  1.00  0.00     0.000 C 
ENDROOT
BRANCH   1   2
ATOM      2  C   UNL     1      19.565  44.547   1.464  1.00  0.00    -0.000 C 
BRANCH   2   3
ATOM      3  C   UNL     1      19.974  43.068   1.445  1.00  0.00    -0.003 C 
ATOM      4  C   UNL     1      21.096  42.820   0.440  1.00  0.00     0.004 C 
ENDBRANCH   2   3
ENDBRANCH   1   2
BRANCH   1   5
ATOM      5  C   UNL     1      18.111  45.568  -0.377  1.00  0.00     0.008 C 
BRANCH   5   6
ATOM      6  C   UNL     1      17.061  44.541   0.068  1.00  0.00     0.075 C 
BRANCH   6   7
ATOM      7  C   UNL     1      15.851  45.200   0.675  1.00  0.00     0.129 C 
ATOM      8  O   UNL     1      15.656  45.121   1.878  1.00  0.00    -0.300 OA
ATOM      9  C   UNL     1      14.897  45.974  -0.183  1.00  0.00     0.087 C 
ENDBRANCH   6   7
ENDBRANCH   5   6
ENDBRANCH   1   5
TORSDOF 5
ENDMDL
MODEL 7
REMARK VINA RESULT:    -3.624      4.646      6.453
REMARK INTER + INTRA:          -4.788
REMARK INTER:                  -4.518
REMARK INTRA:                  -0.270
REMARK UNBOUND:                -0.105
REMARK SMILES CCCCCCC(C)=O
REMARK SMILES IDX 4 1 3 2 2 3 1 4 5 5 6 6 7 7 9 8 8 9
REMARK H PARENT
REMARK Flexibility Score: inf
ROOT
ATOM      1  C   UNL     1      30.036  57.719 -13.122  1.00  0.00     0.000 C 
ENDROOT
BRANCH   1   2
ATOM      2  C   UNL     1      31.258  56.946 -13.643  1.00  0.00    -0.000 C 
BRANCH   2   3
ATOM      3  C   UNL     1      32.471  57.853 -13.887  1.00  0.00    -0.003 C 
ATOM      4  C   UNL     1      33.771  57.149 -13.506  1.00  0.00     0.004 C 
ENDBRANCH   2   3
ENDBRANCH   1   2
BRANCH   1   5
ATOM      5  C   UNL     1      30.381  59.159 -12.704  1.00  0.00     0.008 C 
BRANCH   5   6
ATOM      6  C   UNL     1      30.153  59.395 -11.205  1.00  0.00     0.075 C 
BRANCH   6   7
ATOM      7  C   UNL     1      28.783  59.952 -10.924  1.00  0.00     0.129 C 
ATOM      8  O   UNL     1      28.579  61.150 -11.039  1.00  0.00    -0.300 OA
ATOM      9  C   UNL     1      27.660  59.041 -10.527  1.00  0.00     0.087 C 
ENDBRANCH   6   7
ENDBRANCH   5   6
ENDBRANCH   1   5
TORSDOF 5
ENDMDL
MODEL 8
REMARK VINA RESULT:    -3.538      6.202      7.596
REMARK INTER + INTRA:          -4.676
REMARK INTER:                  -4.220
REMARK INTRA:                  -0.456
REMARK UNBOUND:                -0.105
REMARK SMILES CCCCCCC(C)=O
REMARK SMILES IDX 4 1 3 2 2 3 1 4 5 5 6 6 7 7 9 8 8 9
REMARK H PARENT
REMARK Flexibility Score: inf
ROOT
ATOM      1  C   UNL     1      31.516  56.831 -13.776  1.00  0.00     0.000 C 
ENDROOT
BRANCH   1   2
ATOM      2  C   UNL     1      32.686  56.825 -12.780  1.00  0.00    -0.000 C 
BRANCH   2   3
ATOM      3  C   UNL     1      34.036  57.114 -13.452  1.00  0.00    -0.003 C 
ATOM      4  C   UNL     1      33.978  58.400 -14.273  1.00  0.00     0.004 C 
ENDBRANCH   2   3
ENDBRANCH   1   2
BRANCH   1   5
ATOM      5  C   UNL     1      30.282  57.574 -13.236  1.00  0.00     0.008 C 
BRANCH   5   6
ATOM      6  C   UNL     1      30.487  59.095 -13.216  1.00  0.00     0.075 C 
BRANCH   6   7
ATOM      7  C   UNL     1      30.364  59.663 -11.827  1.00  0.00     0.129 C 
ATOM      8  O   UNL     1      29.265  59.979 -11.396  1.00  0.00    -0.300 OA
ATOM      9  C   UNL     1      31.576  59.818 -10.960  1.00  0.00     0.087 C 
ENDBRANCH   6   7
ENDBRANCH   5   6
ENDBRANCH   1   5
TORSDOF 5
ENDMDL
MODEL 9
REMARK VINA RESULT:    -3.527      3.999      6.610
REMARK INTER + INTRA:          -4.662
REMARK INTER:                  -4.427
REMARK INTRA:                  -0.236
REMARK UNBOUND:                -0.105
REMARK SMILES CCCCCCC(C)=O
REMARK SMILES IDX 4 1 3 2 2 3 1 4 5 5 6 6 7 7 9 8 8 9
REMARK H PARENT
REMARK Flexibility Score: inf
ROOT
ATOM      1  C   UNL     1      29.849  59.550 -10.754  1.00  0.00     0.000 C 
ENDROOT
BRANCH   1   2
ATOM      2  C   UNL     1      28.712  60.571 -10.913  1.00  0.00    -0.000 C 
BRANCH   2   3
ATOM      3  C   UNL     1      27.512  60.264 -10.006  1.00  0.00    -0.003 C 
ATOM      4  C   UNL     1      27.068  58.811 -10.153  1.00  0.00     0.004 C 
ENDBRANCH   2   3
ENDBRANCH   1   2
BRANCH   1   5
ATOM      5  C   UNL     1      30.676  59.379 -12.040  1.00  0.00     0.008 C 
BRANCH   5   6
ATOM      6  C   UNL     1      30.100  58.291 -12.956  1.00  0.00     0.075 C 
BRANCH   6   7
ATOM      7  C   UNL     1      31.149  57.298 -13.380  1.00  0.00     0.129 C 
ATOM      8  O   UNL     1      30.915  56.101 -13.311  1.00  0.00    -0.300 OA
ATOM      9  C   UNL     1      32.470  57.768 -13.911  1.00  0.00     0.087 C 
ENDBRANCH   6   7
ENDBRANCH   5   6
ENDBRANCH   1   5
TORSDOF 5
ENDMDL
