MODEL 1
REMARK VINA RESULT:    -3.627      0.000      0.000
REMARK INTER + INTRA:          -5.253
REMARK INTER:                  -4.899
REMARK INTRA:                  -0.354
REMARK UNBOUND:                -0.354
REMARK SMILES CCCCCCC=CC(=O)[O-]
REMARK SMILES IDX 5 1 6 2 7 3 8 4 9 5 10 6 11 7 4 8 3 9 2 10 1 11
REMARK H PARENT
REMARK Flexibility Score: inf
ROOT
ATOM      1  C   UNL     1      55.424  28.682  51.308  1.00  0.00     0.004 C 
ENDROOT
BRANCH   1   2
ATOM      2  C   UNL     1      56.707  29.228  50.670  1.00  0.00     0.027 C 
BRANCH   2   3
ATOM      3  C   UNL     1      57.725  28.142  50.477  1.00  0.00    -0.025 C 
ATOM      4  C   UNL     1      58.879  28.370  49.839  1.00  0.00     0.020 C 
BRANCH   4   5
ATOM      5  C   UNL     1      59.884  27.316  49.627  1.00  0.00     0.064 C 
ATOM      6  O   UNL     1      59.550  26.105  49.541  1.00  0.00    -0.545 OA
ATOM      7  O   UNL     1      61.224  27.664  49.519  1.00  0.00    -0.545 OA
ENDBRANCH   4   5
ENDBRANCH   2   3
ENDBRANCH   1   2
BRANCH   1   8
ATOM      8  C   UNL     1      54.212  28.927  50.402  1.00  0.00     0.000 C 
BRANCH   8   9
ATOM      9  C   UNL     1      53.514  27.605  50.050  1.00  0.00    -0.000 C 
BRANCH   9  10
ATOM     10  C   UNL     1      54.476  26.407  50.069  1.00  0.00    -0.003 C 
ATOM     11  C   UNL     1      53.898  25.172  49.377  1.00  0.00     0.004 C 
ENDBRANCH   9  10
ENDBRANCH   8   9
ENDBRANCH   1   8
TORSDOF 6
ENDMDL
MODEL 2
REMARK VINA RESULT:    -3.579      0.664      1.128
REMARK INTER + INTRA:          -5.189
REMARK INTER:                  -4.710
REMARK INTRA:                  -0.479
REMARK UNBOUND:                -0.354
REMARK SMILES CCCCCCC=CC(=O)[O-]
REMARK SMILES IDX 5 1 6 2 7 3 8 4 9 5 10 6 11 7 4 8 3 9 2 10 1 11
REMARK H PARENT
REMARK Flexibility Score: inf
ROOT
ATOM      1  C   UNL     1      55.518  28.507  51.266  1.00  0.00     0.004 C 
ENDROOT
BRANCH   1   2
ATOM      2  C   UNL     1      56.602  29.558  50.995  1.00  0.00     0.027 C 
BRANCH   2   3
ATOM      3  C   UNL     1      57.838  28.930  50.419  1.00  0.00    -0.025 C 
ATOM      4  C   UNL     1      57.980  27.601  50.352  1.00  0.00     0.020 C 
BRANCH   4   5
ATOM      5  C   UNL     1      59.188  26.964  49.805  1.00  0.00     0.064 C 
ATOM      6  O   UNL     1      60.080  27.643  49.230  1.00  0.00    -0.545 OA
ATOM      7  O   UNL     1      59.349  25.590  49.924  1.00  0.00    -0.545 OA
ENDBRANCH   4   5
ENDBRANCH   2   3
ENDBRANCH   1   2
BRANCH   1   8
ATOM      8  C   UNL     1      54.242  28.816  50.472  1.00  0.00     0.000 C 
BRANCH   8   9
ATOM      9  C   UNL     1      53.571  27.522  49.988  1.00  0.00    -0.000 C 
BRANCH   9  10
ATOM     10  C   UNL     1      54.528  26.320  50.003  1.00  0.00    -0.003 C 
ATOM     11  C   UNL     1      53.905  25.059  49.403  1.00  0.00     0.004 C 
ENDBRANCH   9  10
ENDBRANCH   8   9
ENDBRANCH   1   8
TORSDOF 6
ENDMDL
MODEL 3
REMARK VINA RESULT:    -3.535     13.234     14.261
REMARK INTER + INTRA:          -5.128
REMARK INTER:                  -4.859
REMARK INTRA:                  -0.270
REMARK UNBOUND:                -0.354
REMARK SMILES CCCCCCC=CC(=O)[O-]
REMARK SMILES IDX 5 1 6 2 7 3 8 4 9 5 10 6 11 7 4 8 3 9 2 10 1 11
REMARK H PARENT
REMARK Flexibility Score: inf
ROOT
ATOM      1  C   UNL     1      62.136  33.012  60.458  1.00  0.00     0.004 C 
ENDROOT
BRANCH   1   2
ATOM      2  C   UNL     1      61.596  34.446  60.408  1.00  0.00     0.027 C 
BRANCH   2   3
ATOM      3  C   UNL     1      62.626  35.433  60.875  1.00  0.00    -0.025 C 
ATOM      4  C   UNL     1      63.886  35.061  61.129  1.00  0.00     0.020 C 
BRANCH   4   5
ATOM      5  C   UNL     1      64.908  36.008  61.601  1.00  0.00     0.064 C 
ATOM      6  O   UNL     1      66.124  35.851  61.313  1.00  0.00    -0.545 OA
ATOM      7  O   UNL     1      64.525  37.094  62.378  1.00  0.00    -0.545 OA
ENDBRANCH   4   5
ENDBRANCH   2   3
ENDBRANCH   1   2
BRANCH   1   8
ATOM      8  C   UNL     1      60.993  31.991  60.396  1.00  0.00     0.000 C 
BRANCH   8   9
ATOM      9  C   UNL     1      60.932  31.158  61.685  1.00  0.00    -0.000 C 
BRANCH   9  10
ATOM     10  C   UNL     1      62.044  30.100  61.757  1.00  0.00    -0.003 C 
ATOM     11  C   UNL     1      61.691  28.816  61.007  1.00  0.00     0.004 C 
ENDBRANCH   9  10
ENDBRANCH   8   9
ENDBRANCH   1   8
TORSDOF 6
ENDMDL
MODEL 4
REMARK VINA RESULT:    -3.513     12.895     14.103
REMARK INTER + INTRA:          -5.100
REMARK INTER:                  -4.529
REMARK INTRA:                  -0.571
REMARK UNBOUND:                -0.354
REMARK SMILES CCCCCCC=CC(=O)[O-]
REMARK SMILES IDX 5 1 6 2 7 3 8 4 9 5 10 6 11 7 4 8 3 9 2 10 1 11
REMARK H PARENT
REMARK Flexibility Score: inf
ROOT
ATOM      1  C   UNL     1      64.384  31.200  60.939  1.00  0.00     0.004 C 
ENDROOT
BRANCH   1   2
ATOM      2  C   UNL     1      64.491  32.491  60.118  1.00  0.00     0.027 C 
BRANCH   2   3
ATOM      3  C   UNL     1      63.974  33.671  60.890  1.00  0.00    -0.025 C 
ATOM      4  C   UNL     1      63.341  34.681  60.282  1.00  0.00     0.020 C 
BRANCH   4   5
ATOM      5  C   UNL     1      62.838  35.853  61.016  1.00  0.00     0.064 C 
ATOM      6  O   UNL     1      63.623  36.622  61.632  1.00  0.00    -0.545 OA
ATOM      7  O   UNL     1      61.475  36.115  61.031  1.00  0.00    -0.545 OA
ENDBRANCH   4   5
ENDBRANCH   2   3
ENDBRANCH   1   2
BRANCH   1   8
ATOM      8  C   UNL     1      63.133  30.403  60.550  1.00  0.00     0.000 C 
BRANCH   8   9
ATOM      9  C   UNL     1      62.216  30.193  61.764  1.00  0.00    -0.000 C 
BRANCH   9  10
ATOM     10  C   UNL     1      60.828  30.824  61.570  1.00  0.00    -0.003 C 
ATOM     11  C   UNL     1      60.809  31.888  60.472  1.00  0.00     0.004 C 
ENDBRANCH   9  10
ENDBRANCH   8   9
ENDBRANCH   1   8
TORSDOF 6
ENDMDL
MODEL 5
REMARK VINA RESULT:    -3.507     12.307     13.518
REMARK INTER + INTRA:          -5.091
REMARK INTER:                  -4.410
REMARK INTRA:                  -0.681
REMARK UNBOUND:                -0.354
REMARK SMILES CCCCCCC=CC(=O)[O-]
REMARK SMILES IDX 5 1 6 2 7 3 8 4 9 5 10 6 11 7 4 8 3 9 2 10 1 11
REMARK H PARENT
REMARK Flexibility Score: inf
ROOT
ATOM      1  C   UNL     1      60.382  30.853  60.431  1.00  0.00     0.004 C 
ENDROOT
BRANCH   1   2
ATOM      2  C   UNL     1      60.728  32.123  59.643  1.00  0.00     0.027 C 
BRANCH   2   3
ATOM      3  C   UNL     1      61.398  33.142  60.518  1.00  0.00    -0.025 C 
ATOM      4  C   UNL     1      62.422  33.880  60.075  1.00  0.00     0.020 C 
BRANCH   4   5
ATOM      5  C   UNL     1      63.102  34.874  60.919  1.00  0.00     0.064 C 
ATOM      6  O   UNL     1      64.257  34.663  61.374  1.00  0.00    -0.545 OA
ATOM      7  O   UNL     1      62.458  36.067  61.222  1.00  0.00    -0.545 OA
ENDBRANCH   4   5
ENDBRANCH   2   3
ENDBRANCH   1   2
BRANCH   1   8
ATOM      8  C   UNL     1      61.129  30.817  61.770  1.00  0.00     0.000 C 
BRANCH   8   9
ATOM      9  C   UNL     1      62.243  29.760  61.749  1.00  0.00    -0.000 C 
BRANCH   9  10
ATOM     10  C   UNL     1      63.619  30.359  61.418  1.00  0.00    -0.003 C 
ATOM     11  C   UNL     1      64.054  30.085  59.979  1.00  0.00     0.004 C 
ENDBRANCH   9  10
ENDBRANCH   8   9
ENDBRANCH   1   8
TORSDOF 6
ENDMDL
MODEL 6
REMARK VINA RESULT:    -3.468      2.929      4.753
REMARK INTER + INTRA:          -5.038
REMARK INTER:                  -4.427
REMARK INTRA:                  -0.611
REMARK UNBOUND:                -0.354
REMARK SMILES CCCCCCC=CC(=O)[O-]
REMARK SMILES IDX 5 1 6 2 7 3 8 4 9 5 10 6 11 7 4 8 3 9 2 10 1 11
REMARK H PARENT
REMARK Flexibility Score: inf
ROOT
ATOM      1  C   UNL     1      57.442  29.056  51.627  1.00  0.00     0.004 C 
ENDROOT
BRANCH   1   2
ATOM      2  C   UNL     1      56.219  29.238  50.720  1.00  0.00     0.027 C 
BRANCH   2   3
ATOM      3  C   UNL     1      55.316  28.039  50.777  1.00  0.00    -0.025 C 
ATOM      4  C   UNL     1      55.688  26.859  50.269  1.00  0.00     0.020 C 
BRANCH   4   5
ATOM      5  C   UNL     1      54.814  25.676  50.301  1.00  0.00     0.064 C 
ATOM      6  O   UNL     1      54.331  25.193  49.243  1.00  0.00    -0.545 OA
ATOM      7  O   UNL     1      54.516  25.081  51.520  1.00  0.00    -0.545 OA
ENDBRANCH   4   5
ENDBRANCH   2   3
ENDBRANCH   1   2
BRANCH   1   8
ATOM      8  C   UNL     1      58.730  29.467  50.902  1.00  0.00     0.000 C 
BRANCH   8   9
ATOM      9  C   UNL     1      58.798  28.837  49.504  1.00  0.00    -0.000 C 
BRANCH   9  10
ATOM     10  C   UNL     1      59.856  27.728  49.407  1.00  0.00    -0.003 C 
ATOM     11  C   UNL     1      59.315  26.355  49.806  1.00  0.00     0.004 C 
ENDBRANCH   9  10
ENDBRANCH   8   9
ENDBRANCH   1   8
TORSDOF 6
ENDMDL
MODEL 7
REMARK VINA RESULT:    -3.456      1.413      2.339
REMARK INTER + INTRA:          -5.022
REMARK INTER:                  -4.634
REMARK INTRA:                  -0.388
REMARK UNBOUND:                -0.354
REMARK SMILES CCCCCCC=CC(=O)[O-]
REMARK SMILES IDX 5 1 6 2 7 3 8 4 9 5 10 6 11 7 4 8 3 9 2 10 1 11
REMARK H PARENT
REMARK Flexibility Score: inf
ROOT
ATOM      1  C   UNL     1      58.111  29.343  50.835  1.00  0.00     0.004 C 
ENDROOT
BRANCH   1   2
ATOM      2  C   UNL     1      58.714  29.181  49.434  1.00  0.00     0.027 C 
BRANCH   2   3
ATOM      3  C   UNL     1      59.508  27.911  49.327  1.00  0.00    -0.025 C 
ATOM      4  C   UNL     1      59.818  27.187  50.408  1.00  0.00     0.020 C 
BRANCH   4   5
ATOM      5  C   UNL     1      60.607  25.947  50.328  1.00  0.00     0.064 C 
ATOM      6  O   UNL     1      60.051  24.833  50.142  1.00  0.00    -0.545 OA
ATOM      7  O   UNL     1      61.988  26.007  50.461  1.00  0.00    -0.545 OA
ENDBRANCH   4   5
ENDBRANCH   2   3
ENDBRANCH   1   2
BRANCH   1   8
ATOM      8  C   UNL     1      56.581  29.240  50.790  1.00  0.00     0.000 C 
BRANCH   8   9
ATOM      9  C   UNL     1      56.133  27.777  50.660  1.00  0.00    -0.000 C 
BRANCH   9  10
ATOM     10  C   UNL     1      54.645  27.646  50.305  1.00  0.00    -0.003 C 
ATOM     11  C   UNL     1      53.885  28.965  50.437  1.00  0.00     0.004 C 
ENDBRANCH   9  10
ENDBRANCH   8   9
ENDBRANCH   1   8
TORSDOF 6
ENDMDL
MODEL 8
REMARK VINA RESULT:    -3.442      1.504      2.202
REMARK INTER + INTRA:          -5.004
REMARK INTER:                  -4.243
REMARK INTRA:                  -0.761
REMARK UNBOUND:                -0.354
REMARK SMILES CCCCCCC=CC(=O)[O-]
REMARK SMILES IDX 5 1 6 2 7 3 8 4 9 5 10 6 11 7 4 8 3 9 2 10 1 11
REMARK H PARENT
REMARK Flexibility Score: inf
ROOT
ATOM      1  C   UNL     1      55.212  28.086  51.349  1.00  0.00     0.004 C 
ENDROOT
BRANCH   1   2
ATOM      2  C   UNL     1      55.903  29.325  50.765  1.00  0.00     0.027 C 
BRANCH   2   3
ATOM      3  C   UNL     1      57.396  29.221  50.883  1.00  0.00    -0.025 C 
ATOM      4  C   UNL     1      58.170  29.015  49.811  1.00  0.00     0.020 C 
BRANCH   4   5
ATOM      5  C   UNL     1      59.633  28.896  49.906  1.00  0.00     0.064 C 
ATOM      6  O   UNL     1      60.330  29.812  50.418  1.00  0.00    -0.545 OA
ATOM      7  O   UNL     1      60.258  27.754  49.422  1.00  0.00    -0.545 OA
ENDBRANCH   4   5
ENDBRANCH   2   3
ENDBRANCH   1   2
BRANCH   1   8
ATOM      8  C   UNL     1      54.568  27.243  50.241  1.00  0.00     0.000 C 
BRANCH   8   9
ATOM      9  C   UNL     1      55.387  25.972  49.973  1.00  0.00    -0.000 C 
BRANCH   9  10
ATOM     10  C   UNL     1      56.333  25.624  51.133  1.00  0.00    -0.003 C 
ATOM     11  C   UNL     1      57.780  25.431  50.681  1.00  0.00     0.004 C 
ENDBRANCH   9  10
ENDBRANCH   8   9
ENDBRANCH   1   8
TORSDOF 6
ENDMDL
MODEL 9
REMARK VINA RESULT:    -3.420      3.112      5.380
REMARK INTER + INTRA:          -4.973
REMARK INTER:                  -4.377
REMARK INTRA:                  -0.596
REMARK UNBOUND:                -0.354
REMARK SMILES CCCCCCC=CC(=O)[O-]
REMARK SMILES IDX 5 1 6 2 7 3 8 4 9 5 10 6 11 7 4 8 3 9 2 10 1 11
REMARK H PARENT
REMARK Flexibility Score: inf
ROOT
ATOM      1  C   UNL     1      59.571  25.625  50.025  1.00  0.00     0.004 C 
ENDROOT
BRANCH   1   2
ATOM      2  C   UNL     1      58.355  25.597  50.960  1.00  0.00     0.027 C 
BRANCH   2   3
ATOM      3  C   UNL     1      57.071  25.614  50.182  1.00  0.00    -0.025 C 
ATOM      4  C   UNL     1      55.951  26.137  50.694  1.00  0.00     0.020 C 
BRANCH   4   5
ATOM      5  C   UNL     1      54.678  26.151  49.955  1.00  0.00     0.064 C 
ATOM      6  O   UNL     1      54.244  25.116  49.385  1.00  0.00    -0.545 OA
ATOM      7  O   UNL     1      53.943  27.328  49.886  1.00  0.00    -0.545 OA
ENDBRANCH   4   5
ENDBRANCH   2   3
ENDBRANCH   1   2
BRANCH   1   8
ATOM      8  C   UNL     1      60.296  26.974  50.107  1.00  0.00     0.000 C 
BRANCH   8   9
ATOM      9  C   UNL     1      59.593  28.028  49.239  1.00  0.00    -0.000 C 
BRANCH   9  10
ATOM     10  C   UNL     1      59.199  29.281  50.037  1.00  0.00    -0.003 C 
ATOM     11  C   UNL     1      57.711  29.320  50.383  1.00  0.00     0.004 C 
ENDBRANCH   9  10
ENDBRANCH   8   9
ENDBRANCH   1   8
TORSDOF 6
ENDMDL
