MODEL 1
REMARK VINA RESULT:    17.272      0.000      0.000
REMARK INTER + INTRA:          38.372
REMARK INTER:                  39.487
REMARK INTRA:                  -1.115
REMARK UNBOUND:                -1.115
REMARK SMILES CCCCCCCCCCCCCCCCCCCCCCCC(=O)[O-]
REMARK SMILES IDX 13 1 14 2 15 3 16 4 17 5 18 6 19 7 20 8 21 9 22 10 23 11
REMARK SMILES IDX 24 12 25 13 26 14 12 15 11 16 10 17 9 18 8 19 7 20 6 21 5 22
REMARK SMILES IDX 4 23 3 24 2 25 1 26
REMARK H PARENT
REMARK Flexibility Score: inf
ROOT
ATOM      1  C   UNL     1       5.256  43.145  10.358  1.00  0.00     0.000 C 
ENDROOT
BRANCH   1   2
ATOM      2  C   UNL     1       4.135  43.116   9.307  1.00  0.00     0.000 C 
BRANCH   2   3
ATOM      3  C   UNL     1       4.645  43.418   7.887  1.00  0.00     0.000 C 
BRANCH   3   4
ATOM      4  C   UNL     1       6.180  43.385   7.793  1.00  0.00     0.000 C 
BRANCH   4   5
ATOM      5  C   UNL     1       6.687  42.431   6.698  1.00  0.00     0.000 C 
BRANCH   5   6
ATOM      6  C   UNL     1       7.613  41.333   7.251  1.00  0.00     0.000 C 
BRANCH   6   7
ATOM      7  C   UNL     1       9.016  41.857   7.610  1.00  0.00     0.000 C 
BRANCH   7   8
ATOM      8  C   UNL     1       9.515  43.026   6.740  1.00  0.00     0.000 C 
BRANCH   8   9
ATOM      9  C   UNL     1      10.040  42.569   5.368  1.00  0.00     0.000 C 
BRANCH   9  10
ATOM     10  C   UNL     1       9.783  41.076   5.091  1.00  0.00     0.006 C 
BRANCH  10  11
ATOM     11  C   UNL     1       8.887  40.814   3.869  1.00  0.00     0.053 C 
BRANCH  11  12
ATOM     12  C   UNL     1       9.673  40.571   2.615  1.00  0.00     0.041 C 
ATOM     13  O   UNL     1       9.598  41.381   1.653  1.00  0.00    -0.550 OA
ATOM     14  O   UNL     1      10.494  39.457   2.514  1.00  0.00    -0.550 OA
ENDBRANCH  11  12
ENDBRANCH  10  11
ENDBRANCH   9  10
ENDBRANCH   8   9
ENDBRANCH   7   8
ENDBRANCH   6   7
ENDBRANCH   5   6
ENDBRANCH   4   5
ENDBRANCH   3   4
ENDBRANCH   2   3
ENDBRANCH   1   2
BRANCH   1  15
ATOM     15  C   UNL     1       5.242  41.866  11.208  1.00  0.00     0.000 C 
BRANCH  15  16
ATOM     16  C   UNL     1       4.301  41.961  12.425  1.00  0.00     0.000 C 
BRANCH  16  17
ATOM     17  C   UNL     1       3.813  40.609  12.980  1.00  0.00     0.000 C 
BRANCH  17  18
ATOM     18  C   UNL     1       3.832  40.484  14.515  1.00  0.00    -0.000 C 
BRANCH  18  19
ATOM     19  C   UNL     1       2.871  39.410  15.067  1.00  0.00    -0.000 C 
BRANCH  19  20
ATOM     20  C   UNL     1       3.571  38.068  15.328  1.00  0.00    -0.000 C 
BRANCH  20  21
ATOM     21  C   UNL     1       4.869  38.269  16.125  1.00  0.00    -0.000 C 
BRANCH  21  22
ATOM     22  C   UNL     1       6.127  38.030  15.275  1.00  0.00    -0.000 C 
BRANCH  22  23
ATOM     23  C   UNL     1       7.355  38.790  15.809  1.00  0.00    -0.000 C 
BRANCH  23  24
ATOM     24  C   UNL     1       7.997  39.692  14.735  1.00  0.00    -0.000 C 
BRANCH  24  25
ATOM     25  C   UNL     1       9.508  39.461  14.556  1.00  0.00    -0.003 C 
ATOM     26  C   UNL     1      10.136  38.673  15.706  1.00  0.00     0.004 C 
ENDBRANCH  24  25
ENDBRANCH  23  24
ENDBRANCH  22  23
ENDBRANCH  21  22
ENDBRANCH  20  21
ENDBRANCH  19  20
ENDBRANCH  18  19
ENDBRANCH  17  18
ENDBRANCH  16  17
ENDBRANCH  15  16
ENDBRANCH   1  15
TORSDOF 22
ENDMDL
MODEL 2
REMARK VINA RESULT:    17.567      0.846      1.616
REMARK INTER + INTRA:          39.045
REMARK INTER:                  37.732
REMARK INTRA:                   1.312
REMARK UNBOUND:                -1.115
REMARK SMILES CCCCCCCCCCCCCCCCCCCCCCCC(=O)[O-]
REMARK SMILES IDX 13 1 14 2 15 3 16 4 17 5 18 6 19 7 20 8 21 9 22 10 23 11
REMARK SMILES IDX 24 12 25 13 26 14 12 15 11 16 10 17 9 18 8 19 7 20 6 21 5 22
REMARK SMILES IDX 4 23 3 24 2 25 1 26
REMARK H PARENT
REMARK Flexibility Score: inf
ROOT
ATOM      1  C   UNL     1       4.616  41.634  10.751  1.00  0.00     0.000 C 
ENDROOT
BRANCH   1   2
ATOM      2  C   UNL     1       5.252  42.944  10.258  1.00  0.00     0.000 C 
BRANCH   2   3
ATOM      3  C   UNL     1       4.227  43.901   9.627  1.00  0.00     0.000 C 
BRANCH   3   4
ATOM      4  C   UNL     1       3.919  43.552   8.161  1.00  0.00     0.000 C 
BRANCH   4   5
ATOM      5  C   UNL     1       5.144  42.999   7.413  1.00  0.00     0.000 C 
BRANCH   5   6
ATOM      6  C   UNL     1       6.300  42.629   8.359  1.00  0.00     0.000 C 
BRANCH   6   7
ATOM      7  C   UNL     1       7.474  41.948   7.630  1.00  0.00     0.000 C 
BRANCH   7   8
ATOM      8  C   UNL     1       8.814  42.705   7.708  1.00  0.00     0.000 C 
BRANCH   8   9
ATOM      9  C   UNL     1       9.413  43.003   6.323  1.00  0.00     0.000 C 
BRANCH   9  10
ATOM     10  C   UNL     1       9.896  41.737   5.591  1.00  0.00     0.006 C 
BRANCH  10  11
ATOM     11  C   UNL     1       8.824  41.085   4.700  1.00  0.00     0.053 C 
BRANCH  11  12
ATOM     12  C   UNL     1       9.400  40.450   3.470  1.00  0.00     0.041 C 
ATOM     13  O   UNL     1      10.596  40.673   3.143  1.00  0.00    -0.550 OA
ATOM     14  O   UNL     1       8.620  39.606   2.692  1.00  0.00    -0.550 OA
ENDBRANCH  11  12
ENDBRANCH  10  11
ENDBRANCH   9  10
ENDBRANCH   8   9
ENDBRANCH   7   8
ENDBRANCH   6   7
ENDBRANCH   5   6
ENDBRANCH   4   5
ENDBRANCH   3   4
ENDBRANCH   2   3
ENDBRANCH   1   2
BRANCH   1  15
ATOM     15  C   UNL     1       4.508  41.622  12.283  1.00  0.00     0.000 C 
BRANCH  15  16
ATOM     16  C   UNL     1       3.449  40.632  12.805  1.00  0.00     0.000 C 
BRANCH  16  17
ATOM     17  C   UNL     1       3.262  40.622  14.335  1.00  0.00     0.000 C 
BRANCH  17  18
ATOM     18  C   UNL     1       2.773  39.287  14.928  1.00  0.00    -0.000 C 
BRANCH  18  19
ATOM     19  C   UNL     1       3.889  38.237  15.108  1.00  0.00    -0.000 C 
BRANCH  19  20
ATOM     20  C   UNL     1       5.073  38.767  15.930  1.00  0.00    -0.000 C 
BRANCH  20  21
ATOM     21  C   UNL     1       6.397  38.156  15.446  1.00  0.00    -0.000 C 
BRANCH  21  22
ATOM     22  C   UNL     1       7.622  38.791  16.123  1.00  0.00    -0.000 C 
BRANCH  22  23
ATOM     23  C   UNL     1       8.091  40.074  15.412  1.00  0.00    -0.000 C 
BRANCH  23  24
ATOM     24  C   UNL     1       9.593  40.031  15.060  1.00  0.00    -0.000 C 
BRANCH  24  25
ATOM     25  C   UNL     1      10.277  38.705  15.437  1.00  0.00    -0.003 C 
ATOM     26  C   UNL     1      10.780  37.921  14.225  1.00  0.00     0.004 C 
ENDBRANCH  24  25
ENDBRANCH  23  24
ENDBRANCH  22  23
ENDBRANCH  21  22
ENDBRANCH  20  21
ENDBRANCH  19  20
ENDBRANCH  18  19
ENDBRANCH  17  18
ENDBRANCH  16  17
ENDBRANCH  15  16
ENDBRANCH   1  15
TORSDOF 22
ENDMDL
MODEL 3
REMARK VINA RESULT:    17.615      0.992      3.171
REMARK INTER + INTRA:          39.156
REMARK INTER:                  39.676
REMARK INTRA:                  -0.520
REMARK UNBOUND:                -1.115
REMARK SMILES CCCCCCCCCCCCCCCCCCCCCCCC(=O)[O-]
REMARK SMILES IDX 13 1 14 2 15 3 16 4 17 5 18 6 19 7 20 8 21 9 22 10 23 11
REMARK SMILES IDX 24 12 25 13 26 14 12 15 11 16 10 17 9 18 8 19 7 20 6 21 5 22
REMARK SMILES IDX 4 23 3 24 2 25 1 26
REMARK H PARENT
REMARK Flexibility Score: inf
ROOT
ATOM      1  C   UNL     1       5.486  42.968  10.732  1.00  0.00     0.000 C 
ENDROOT
BRANCH   1   2
ATOM      2  C   UNL     1       4.177  42.770   9.951  1.00  0.00     0.000 C 
BRANCH   2   3
ATOM      3  C   UNL     1       4.306  43.162   8.469  1.00  0.00     0.000 C 
BRANCH   3   4
ATOM      4  C   UNL     1       5.750  43.515   8.077  1.00  0.00     0.000 C 
BRANCH   4   5
ATOM      5  C   UNL     1       6.414  42.427   7.214  1.00  0.00     0.000 C 
BRANCH   5   6
ATOM      6  C   UNL     1       7.553  41.700   7.948  1.00  0.00     0.000 C 
BRANCH   6   7
ATOM      7  C   UNL     1       8.869  42.499   7.951  1.00  0.00     0.000 C 
BRANCH   7   8
ATOM      8  C   UNL     1       9.094  43.387   6.713  1.00  0.00     0.000 C 
BRANCH   8   9
ATOM      9  C   UNL     1       9.835  42.658   5.580  1.00  0.00     0.000 C 
BRANCH   9  10
ATOM     10  C   UNL     1       9.513  41.154   5.519  1.00  0.00     0.006 C 
BRANCH  10  11
ATOM     11  C   UNL     1       8.887  40.703   4.188  1.00  0.00     0.053 C 
BRANCH  11  12
ATOM     12  C   UNL     1       9.914  40.333   3.161  1.00  0.00     0.041 C 
ATOM     13  O   UNL     1       9.990  40.974   2.079  1.00  0.00    -0.550 OA
ATOM     14  O   UNL     1      10.794  39.287   3.402  1.00  0.00    -0.550 OA
ENDBRANCH  11  12
ENDBRANCH  10  11
ENDBRANCH   9  10
ENDBRANCH   8   9
ENDBRANCH   7   8
ENDBRANCH   6   7
ENDBRANCH   5   6
ENDBRANCH   4   5
ENDBRANCH   3   4
ENDBRANCH   2   3
ENDBRANCH   1   2
BRANCH   1  15
ATOM     15  C   UNL     1       5.966  41.640  11.338  1.00  0.00     0.000 C 
BRANCH  15  16
ATOM     16  C   UNL     1       5.998  41.657  12.879  1.00  0.00     0.000 C 
BRANCH  16  17
ATOM     17  C   UNL     1       6.804  40.516  13.528  1.00  0.00     0.000 C 
BRANCH  17  18
ATOM     18  C   UNL     1       8.220  40.897  14.000  1.00  0.00    -0.000 C 
BRANCH  18  19
ATOM     19  C   UNL     1       8.958  39.763  14.744  1.00  0.00    -0.000 C 
BRANCH  19  20
ATOM     20  C   UNL     1       8.075  39.072  15.793  1.00  0.00    -0.000 C 
BRANCH  20  21
ATOM     21  C   UNL     1       6.827  38.454  15.143  1.00  0.00    -0.000 C 
BRANCH  21  22
ATOM     22  C   UNL     1       5.651  38.329  16.125  1.00  0.00    -0.000 C 
BRANCH  22  23
ATOM     23  C   UNL     1       4.350  37.878  15.435  1.00  0.00    -0.000 C 
BRANCH  23  24
ATOM     24  C   UNL     1       3.564  39.064  14.840  1.00  0.00    -0.000 C 
BRANCH  24  25
ATOM     25  C   UNL     1       2.118  39.168  15.357  1.00  0.00    -0.003 C 
ATOM     26  C   UNL     1       1.639  37.900  16.061  1.00  0.00     0.004 C 
ENDBRANCH  24  25
ENDBRANCH  23  24
ENDBRANCH  22  23
ENDBRANCH  21  22
ENDBRANCH  20  21
ENDBRANCH  19  20
ENDBRANCH  18  19
ENDBRANCH  17  18
ENDBRANCH  16  17
ENDBRANCH  15  16
ENDBRANCH   1  15
TORSDOF 22
ENDMDL
MODEL 4
REMARK VINA RESULT:    17.692      3.995      9.869
REMARK INTER + INTRA:          39.332
REMARK INTER:                  40.034
REMARK INTRA:                  -0.702
REMARK UNBOUND:                -1.115
REMARK SMILES CCCCCCCCCCCCCCCCCCCCCCCC(=O)[O-]
REMARK SMILES IDX 13 1 14 2 15 3 16 4 17 5 18 6 19 7 20 8 21 9 22 10 23 11
REMARK SMILES IDX 24 12 25 13 26 14 12 15 11 16 10 17 9 18 8 19 7 20 6 21 5 22
REMARK SMILES IDX 4 23 3 24 2 25 1 26
REMARK H PARENT
REMARK Flexibility Score: inf
ROOT
ATOM      1  C   UNL     1       4.300  42.643  10.981  1.00  0.00     0.000 C 
ENDROOT
BRANCH   1   2
ATOM      2  C   UNL     1       4.297  41.651  12.154  1.00  0.00     0.000 C 
BRANCH   2   3
ATOM      3  C   UNL     1       3.612  42.219  13.409  1.00  0.00     0.000 C 
BRANCH   3   4
ATOM      4  C   UNL     1       3.391  41.151  14.494  1.00  0.00     0.000 C 
BRANCH   4   5
ATOM      5  C   UNL     1       3.219  39.738  13.909  1.00  0.00     0.000 C 
BRANCH   5   6
ATOM      6  C   UNL     1       3.718  38.637  14.861  1.00  0.00     0.000 C 
BRANCH   6   7
ATOM      7  C   UNL     1       4.395  39.200  16.125  1.00  0.00     0.000 C 
BRANCH   7   8
ATOM      8  C   UNL     1       5.915  39.417  16.006  1.00  0.00     0.000 C 
BRANCH   8   9
ATOM      9  C   UNL     1       6.368  39.703  14.565  1.00  0.00     0.000 C 
BRANCH   9  10
ATOM     10  C   UNL     1       7.847  39.352  14.318  1.00  0.00     0.006 C 
BRANCH  10  11
ATOM     11  C   UNL     1       8.467  38.462  15.409  1.00  0.00     0.053 C 
BRANCH  11  12
ATOM     12  C   UNL     1       9.878  38.849  15.740  1.00  0.00     0.041 C 
ATOM     13  O   UNL     1      10.164  40.050  15.991  1.00  0.00    -0.550 OA
ATOM     14  O   UNL     1      10.873  37.882  15.780  1.00  0.00    -0.550 OA
ENDBRANCH  11  12
ENDBRANCH  10  11
ENDBRANCH   9  10
ENDBRANCH   8   9
ENDBRANCH   7   8
ENDBRANCH   6   7
ENDBRANCH   5   6
ENDBRANCH   4   5
ENDBRANCH   3   4
ENDBRANCH   2   3
ENDBRANCH   1   2
BRANCH   1  15
ATOM     15  C   UNL     1       5.619  42.559  10.198  1.00  0.00     0.000 C 
BRANCH  15  16
ATOM     16  C   UNL     1       5.452  42.875   8.699  1.00  0.00     0.000 C 
BRANCH  16  17
ATOM     17  C   UNL     1       6.722  42.684   7.847  1.00  0.00     0.000 C 
BRANCH  17  18
ATOM     18  C   UNL     1       6.519  42.826   6.326  1.00  0.00    -0.000 C 
BRANCH  18  19
ATOM     19  C   UNL     1       7.681  43.542   5.605  1.00  0.00    -0.000 C 
BRANCH  19  20
ATOM     20  C   UNL     1       9.001  43.462   6.386  1.00  0.00    -0.000 C 
BRANCH  20  21
ATOM     21  C   UNL     1       9.873  42.304   5.876  1.00  0.00    -0.000 C 
BRANCH  21  22
ATOM     22  C   UNL     1       9.439  40.944   6.444  1.00  0.00    -0.000 C 
BRANCH  22  23
ATOM     23  C   UNL     1       8.360  40.261   5.582  1.00  0.00    -0.000 C 
BRANCH  23  24
ATOM     24  C   UNL     1       8.557  40.533   4.077  1.00  0.00    -0.000 C 
BRANCH  24  25
ATOM     25  C   UNL     1       9.736  39.761   3.459  1.00  0.00    -0.003 C 
ATOM     26  C   UNL     1      10.735  40.666   2.738  1.00  0.00     0.004 C 
ENDBRANCH  24  25
ENDBRANCH  23  24
ENDBRANCH  22  23
ENDBRANCH  21  22
ENDBRANCH  20  21
ENDBRANCH  19  20
ENDBRANCH  18  19
ENDBRANCH  17  18
ENDBRANCH  16  17
ENDBRANCH  15  16
ENDBRANCH   1  15
TORSDOF 22
ENDMDL
MODEL 5
REMARK VINA RESULT:    18.180      3.771     10.482
REMARK INTER + INTRA:          40.447
REMARK INTER:                  40.519
REMARK INTRA:                  -0.072
REMARK UNBOUND:                -1.115
REMARK SMILES CCCCCCCCCCCCCCCCCCCCCCCC(=O)[O-]
REMARK SMILES IDX 13 1 14 2 15 3 16 4 17 5 18 6 19 7 20 8 21 9 22 10 23 11
REMARK SMILES IDX 24 12 25 13 26 14 12 15 11 16 10 17 9 18 8 19 7 20 6 21 5 22
REMARK SMILES IDX 4 23 3 24 2 25 1 26
REMARK H PARENT
REMARK Flexibility Score: inf
ROOT
ATOM      1  C   UNL     1       6.247  42.871   9.332  1.00  0.00     0.000 C 
ENDROOT
BRANCH   1   2
ATOM      2  C   UNL     1       4.788  43.352   9.282  1.00  0.00     0.000 C 
BRANCH   2   3
ATOM      3  C   UNL     1       3.828  42.409  10.027  1.00  0.00     0.000 C 
BRANCH   3   4
ATOM      4  C   UNL     1       4.543  41.561  11.093  1.00  0.00     0.000 C 
BRANCH   4   5
ATOM      5  C   UNL     1       4.095  41.905  12.524  1.00  0.00     0.000 C 
BRANCH   5   6
ATOM      6  C   UNL     1       4.686  40.950  13.576  1.00  0.00     0.000 C 
BRANCH   6   7
ATOM      7  C   UNL     1       3.627  40.409  14.555  1.00  0.00     0.000 C 
BRANCH   7   8
ATOM      8  C   UNL     1       4.089  39.225  15.424  1.00  0.00     0.000 C 
BRANCH   8   9
ATOM      9  C   UNL     1       5.403  38.597  14.931  1.00  0.00     0.000 C 
BRANCH   9  10
ATOM     10  C   UNL     1       6.392  38.294  16.072  1.00  0.00     0.006 C 
BRANCH  10  11
ATOM     11  C   UNL     1       7.817  37.967  15.591  1.00  0.00     0.053 C 
BRANCH  11  12
ATOM     12  C   UNL     1       8.615  39.194  15.267  1.00  0.00     0.041 C 
ATOM     13  O   UNL     1       8.092  40.336  15.370  1.00  0.00    -0.550 OA
ATOM     14  O   UNL     1       9.936  39.077  14.861  1.00  0.00    -0.550 OA
ENDBRANCH  11  12
ENDBRANCH  10  11
ENDBRANCH   9  10
ENDBRANCH   8   9
ENDBRANCH   7   8
ENDBRANCH   6   7
ENDBRANCH   5   6
ENDBRANCH   4   5
ENDBRANCH   3   4
ENDBRANCH   2   3
ENDBRANCH   1   2
BRANCH   1  15
ATOM     15  C   UNL     1       6.582  42.012   8.103  1.00  0.00     0.000 C 
BRANCH  15  16
ATOM     16  C   UNL     1       6.909  42.850   6.852  1.00  0.00     0.000 C 
BRANCH  16  17
ATOM     17  C   UNL     1       8.366  43.340   6.757  1.00  0.00     0.000 C 
BRANCH  17  18
ATOM     18  C   UNL     1       9.431  42.326   7.216  1.00  0.00    -0.000 C 
BRANCH  18  19
ATOM     19  C   UNL     1       9.006  40.852   7.044  1.00  0.00    -0.000 C 
BRANCH  19  20
ATOM     20  C   UNL     1       8.733  40.482   5.579  1.00  0.00    -0.000 C 
BRANCH  20  21
ATOM     21  C   UNL     1       9.565  41.354   4.626  1.00  0.00    -0.000 C 
BRANCH  21  22
ATOM     22  C   UNL     1      10.367  40.521   3.614  1.00  0.00    -0.000 C 
BRANCH  22  23
ATOM     23  C   UNL     1       9.578  40.241   2.321  1.00  0.00    -0.000 C 
BRANCH  23  24
ATOM     24  C   UNL     1       9.962  41.207   1.182  1.00  0.00    -0.000 C 
BRANCH  24  25
ATOM     25  C   UNL     1       8.853  42.211   0.823  1.00  0.00    -0.003 C 
ATOM     26  C   UNL     1       8.975  42.760  -0.598  1.00  0.00     0.004 C 
ENDBRANCH  24  25
ENDBRANCH  23  24
ENDBRANCH  22  23
ENDBRANCH  21  22
ENDBRANCH  20  21
ENDBRANCH  19  20
ENDBRANCH  18  19
ENDBRANCH  17  18
ENDBRANCH  16  17
ENDBRANCH  15  16
ENDBRANCH   1  15
TORSDOF 22
ENDMDL
MODEL 6
REMARK VINA RESULT:    18.400      1.228      3.284
REMARK INTER + INTRA:          40.951
REMARK INTER:                  40.531
REMARK INTRA:                   0.420
REMARK UNBOUND:                -1.115
REMARK SMILES CCCCCCCCCCCCCCCCCCCCCCCC(=O)[O-]
REMARK SMILES IDX 13 1 14 2 15 3 16 4 17 5 18 6 19 7 20 8 21 9 22 10 23 11
REMARK SMILES IDX 24 12 25 13 26 14 12 15 11 16 10 17 9 18 8 19 7 20 6 21 5 22
REMARK SMILES IDX 4 23 3 24 2 25 1 26
REMARK H PARENT
REMARK Flexibility Score: inf
ROOT
ATOM      1  C   UNL     1       6.005  42.710   9.473  1.00  0.00     0.000 C 
ENDROOT
BRANCH   1   2
ATOM      2  C   UNL     1       4.691  42.952  10.231  1.00  0.00     0.000 C 
BRANCH   2   3
ATOM      3  C   UNL     1       3.601  43.577   9.343  1.00  0.00     0.000 C 
BRANCH   3   4
ATOM      4  C   UNL     1       3.551  42.947   7.941  1.00  0.00     0.000 C 
BRANCH   4   5
ATOM      5  C   UNL     1       4.415  43.706   6.918  1.00  0.00     0.000 C 
BRANCH   5   6
ATOM      6  C   UNL     1       5.911  43.367   7.038  1.00  0.00     0.000 C 
BRANCH   6   7
ATOM      7  C   UNL     1       6.717  43.773   5.790  1.00  0.00     0.000 C 
BRANCH   7   8
ATOM      8  C   UNL     1       7.663  42.686   5.246  1.00  0.00     0.000 C 
BRANCH   8   9
ATOM      9  C   UNL     1       8.225  41.774   6.349  1.00  0.00     0.000 C 
BRANCH   9  10
ATOM     10  C   UNL     1       8.981  40.553   5.794  1.00  0.00     0.006 C 
BRANCH  10  11
ATOM     11  C   UNL     1      10.198  40.916   4.924  1.00  0.00     0.053 C 
BRANCH  11  12
ATOM     12  C   UNL     1       9.932  40.752   3.458  1.00  0.00     0.041 C 
ATOM     13  O   UNL     1      10.194  39.662   2.883  1.00  0.00    -0.550 OA
ATOM     14  O   UNL     1       9.385  41.798   2.729  1.00  0.00    -0.550 OA
ENDBRANCH  11  12
ENDBRANCH  10  11
ENDBRANCH   9  10
ENDBRANCH   8   9
ENDBRANCH   7   8
ENDBRANCH   6   7
ENDBRANCH   5   6
ENDBRANCH   4   5
ENDBRANCH   3   4
ENDBRANCH   2   3
ENDBRANCH   1   2
BRANCH   1  15
ATOM     15  C   UNL     1       6.981  41.882  10.323  1.00  0.00     0.000 C 
BRANCH  15  16
ATOM     16  C   UNL     1       6.359  41.384  11.642  1.00  0.00     0.000 C 
BRANCH  16  17
ATOM     17  C   UNL     1       7.368  40.867  12.686  1.00  0.00     0.000 C 
BRANCH  17  18
ATOM     18  C   UNL     1       6.823  40.741  14.121  1.00  0.00    -0.000 C 
BRANCH  18  19
ATOM     19  C   UNL     1       7.900  40.894  15.215  1.00  0.00    -0.000 C 
BRANCH  19  20
ATOM     20  C   UNL     1       8.118  39.601  16.015  1.00  0.00    -0.000 C 
BRANCH  20  21
ATOM     21  C   UNL     1       7.073  38.539  15.641  1.00  0.00    -0.000 C 
BRANCH  21  22
ATOM     22  C   UNL     1       5.659  38.909  16.116  1.00  0.00    -0.000 C 
BRANCH  22  23
ATOM     23  C   UNL     1       4.601  37.878  15.683  1.00  0.00    -0.000 C 
BRANCH  23  24
ATOM     24  C   UNL     1       3.723  38.393  14.524  1.00  0.00    -0.000 C 
BRANCH  24  25
ATOM     25  C   UNL     1       3.085  39.767  14.796  1.00  0.00    -0.003 C 
ATOM     26  C   UNL     1       3.311  40.770  13.665  1.00  0.00     0.004 C 
ENDBRANCH  24  25
ENDBRANCH  23  24
ENDBRANCH  22  23
ENDBRANCH  21  22
ENDBRANCH  20  21
ENDBRANCH  19  20
ENDBRANCH  18  19
ENDBRANCH  17  18
ENDBRANCH  16  17
ENDBRANCH  15  16
ENDBRANCH   1  15
TORSDOF 22
ENDMDL
MODEL 7
REMARK VINA RESULT:    19.241      1.292      2.382
REMARK INTER + INTRA:          42.874
REMARK INTER:                  40.914
REMARK INTRA:                   1.960
REMARK UNBOUND:                -1.115
REMARK SMILES CCCCCCCCCCCCCCCCCCCCCCCC(=O)[O-]
REMARK SMILES IDX 13 1 14 2 15 3 16 4 17 5 18 6 19 7 20 8 21 9 22 10 23 11
REMARK SMILES IDX 24 12 25 13 26 14 12 15 11 16 10 17 9 18 8 19 7 20 6 21 5 22
REMARK SMILES IDX 4 23 3 24 2 25 1 26
REMARK H PARENT
REMARK Flexibility Score: inf
ROOT
ATOM      1  C   UNL     1       6.027  43.015   9.065  1.00  0.00     0.000 C 
ENDROOT
BRANCH   1   2
ATOM      2  C   UNL     1       6.208  42.745   7.563  1.00  0.00     0.000 C 
BRANCH   2   3
ATOM      3  C   UNL     1       7.551  42.067   7.240  1.00  0.00     0.000 C 
BRANCH   3   4
ATOM      4  C   UNL     1       8.713  42.634   8.074  1.00  0.00     0.000 C 
BRANCH   4   5
ATOM      5  C   UNL     1       9.992  42.841   7.245  1.00  0.00     0.000 C 
BRANCH   5   6
ATOM      6  C   UNL     1       9.846  42.348   5.794  1.00  0.00     0.000 C 
BRANCH   6   7
ATOM      7  C   UNL     1       8.449  41.774   5.495  1.00  0.00     0.000 C 
BRANCH   7   8
ATOM      8  C   UNL     1       8.444  40.370   4.864  1.00  0.00     0.000 C 
BRANCH   8   9
ATOM      9  C   UNL     1       9.794  39.993   4.231  1.00  0.00     0.000 C 
BRANCH   9  10
ATOM     10  C   UNL     1       9.781  40.070   2.693  1.00  0.00     0.006 C 
BRANCH  10  11
ATOM     11  C   UNL     1      10.121  41.463   2.135  1.00  0.00     0.053 C 
BRANCH  11  12
ATOM     12  C   UNL     1       8.999  42.059   1.340  1.00  0.00     0.041 C 
ATOM     13  O   UNL     1       7.974  42.504   1.922  1.00  0.00    -0.550 OA
ATOM     14  O   UNL     1       9.088  42.131  -0.044  1.00  0.00    -0.550 OA
ENDBRANCH  11  12
ENDBRANCH  10  11
ENDBRANCH   9  10
ENDBRANCH   8   9
ENDBRANCH   7   8
ENDBRANCH   6   7
ENDBRANCH   5   6
ENDBRANCH   4   5
ENDBRANCH   3   4
ENDBRANCH   2   3
ENDBRANCH   1   2
BRANCH   1  15
ATOM     15  C   UNL     1       4.573  43.400   9.379  1.00  0.00     0.000 C 
BRANCH  15  16
ATOM     16  C   UNL     1       3.812  42.305  10.151  1.00  0.00     0.000 C 
BRANCH  16  17
ATOM     17  C   UNL     1       3.870  42.428  11.685  1.00  0.00     0.000 C 
BRANCH  17  18
ATOM     18  C   UNL     1       4.268  41.141  12.433  1.00  0.00    -0.000 C 
BRANCH  18  19
ATOM     19  C   UNL     1       3.908  41.153  13.934  1.00  0.00    -0.000 C 
BRANCH  19  20
ATOM     20  C   UNL     1       3.285  39.830  14.403  1.00  0.00    -0.000 C 
BRANCH  20  21
ATOM     21  C   UNL     1       3.902  39.371  15.732  1.00  0.00    -0.000 C 
BRANCH  21  22
ATOM     22  C   UNL     1       5.208  38.585  15.536  1.00  0.00    -0.000 C 
BRANCH  22  23
ATOM     23  C   UNL     1       6.445  39.360  16.029  1.00  0.00    -0.000 C 
BRANCH  23  24
ATOM     24  C   UNL     1       7.729  38.508  15.969  1.00  0.00    -0.000 C 
BRANCH  24  25
ATOM     25  C   UNL     1       8.973  39.298  15.524  1.00  0.00    -0.003 C 
ATOM     26  C   UNL     1      10.171  38.404  15.204  1.00  0.00     0.004 C 
ENDBRANCH  24  25
ENDBRANCH  23  24
ENDBRANCH  22  23
ENDBRANCH  21  22
ENDBRANCH  20  21
ENDBRANCH  19  20
ENDBRANCH  18  19
ENDBRANCH  17  18
ENDBRANCH  16  17
ENDBRANCH  15  16
ENDBRANCH   1  15
TORSDOF 22
ENDMDL
MODEL 8
REMARK VINA RESULT:    19.883      4.391     10.003
REMARK INTER + INTRA:          44.339
REMARK INTER:                  41.657
REMARK INTRA:                   2.682
REMARK UNBOUND:                -1.115
REMARK SMILES CCCCCCCCCCCCCCCCCCCCCCCC(=O)[O-]
REMARK SMILES IDX 13 1 14 2 15 3 16 4 17 5 18 6 19 7 20 8 21 9 22 10 23 11
REMARK SMILES IDX 24 12 25 13 26 14 12 15 11 16 10 17 9 18 8 19 7 20 6 21 5 22
REMARK SMILES IDX 4 23 3 24 2 25 1 26
REMARK H PARENT
REMARK Flexibility Score: inf
ROOT
ATOM      1  C   UNL     1       6.727  42.032   9.880  1.00  0.00     0.000 C 
ENDROOT
BRANCH   1   2
ATOM      2  C   UNL     1       7.617  42.065  11.132  1.00  0.00     0.000 C 
BRANCH   2   3
ATOM      3  C   UNL     1       7.424  40.830  12.029  1.00  0.00     0.000 C 
BRANCH   3   4
ATOM      4  C   UNL     1       8.225  40.924  13.339  1.00  0.00     0.000 C 
BRANCH   4   5
ATOM      5  C   UNL     1       9.184  39.737  13.535  1.00  0.00     0.000 C 
BRANCH   5   6
ATOM      6  C   UNL     1       9.604  39.548  15.003  1.00  0.00     0.000 C 
BRANCH   6   7
ATOM      7  C   UNL     1       8.430  39.140  15.913  1.00  0.00     0.000 C 
BRANCH   7   8
ATOM      8  C   UNL     1       7.532  38.021  15.353  1.00  0.00     0.000 C 
BRANCH   8   9
ATOM      9  C   UNL     1       6.084  38.104  15.865  1.00  0.00     0.000 C 
BRANCH   9  10
ATOM     10  C   UNL     1       5.386  39.425  15.489  1.00  0.00     0.006 C 
BRANCH  10  11
ATOM     11  C   UNL     1       3.937  39.530  15.994  1.00  0.00     0.053 C 
BRANCH  11  12
ATOM     12  C   UNL     1       3.050  38.457  15.438  1.00  0.00     0.041 C 
ATOM     13  O   UNL     1       2.032  38.080  16.077  1.00  0.00    -0.550 OA
ATOM     14  O   UNL     1       3.343  37.879  14.210  1.00  0.00    -0.550 OA
ENDBRANCH  11  12
ENDBRANCH  10  11
ENDBRANCH   9  10
ENDBRANCH   8   9
ENDBRANCH   7   8
ENDBRANCH   6   7
ENDBRANCH   5   6
ENDBRANCH   4   5
ENDBRANCH   3   4
ENDBRANCH   2   3
ENDBRANCH   1   2
BRANCH   1  15
ATOM     15  C   UNL     1       7.566  41.767   8.620  1.00  0.00     0.000 C 
BRANCH  15  16
ATOM     16  C   UNL     1       9.082  41.776   8.892  1.00  0.00     0.000 C 
BRANCH  16  17
ATOM     17  C   UNL     1       9.930  42.514   7.839  1.00  0.00     0.000 C 
BRANCH  17  18
ATOM     18  C   UNL     1       9.314  42.582   6.429  1.00  0.00    -0.000 C 
BRANCH  18  19
ATOM     19  C   UNL     1       7.825  42.180   6.378  1.00  0.00    -0.000 C 
BRANCH  19  20
ATOM     20  C   UNL     1       6.887  43.393   6.287  1.00  0.00    -0.000 C 
BRANCH  20  21
ATOM     21  C   UNL     1       5.557  43.116   7.002  1.00  0.00    -0.000 C 
BRANCH  21  22
ATOM     22  C   UNL     1       5.261  44.137   8.113  1.00  0.00    -0.000 C 
BRANCH  22  23
ATOM     23  C   UNL     1       4.327  43.573   9.200  1.00  0.00    -0.000 C 
BRANCH  23  24
ATOM     24  C   UNL     1       3.166  42.751   8.604  1.00  0.00    -0.000 C 
BRANCH  24  25
ATOM     25  C   UNL     1       2.285  43.547   7.625  1.00  0.00    -0.003 C 
ATOM     26  C   UNL     1       2.393  43.055   6.182  1.00  0.00     0.004 C 
ENDBRANCH  24  25
ENDBRANCH  23  24
ENDBRANCH  22  23
ENDBRANCH  21  22
ENDBRANCH  20  21
ENDBRANCH  19  20
ENDBRANCH  18  19
ENDBRANCH  17  18
ENDBRANCH  16  17
ENDBRANCH  15  16
ENDBRANCH   1  15
TORSDOF 22
ENDMDL
