MODEL 1
REMARK VINA RESULT:    -3.684      0.000      0.000
REMARK INTER + INTRA:          -9.124
REMARK INTER:                  -6.699
REMARK INTRA:                  -2.424
REMARK UNBOUND:                -2.424
REMARK SMILES CCCCCCCCCCCCCC[C@@H](C)C(=O)[O-]
REMARK SMILES IDX 9 1 10 2 11 3 12 4 13 5 14 6 15 7 16 8 17 9 18 10 19 11 8 12
REMARK SMILES IDX 7 13 6 14 5 15 4 16 3 17 2 18 1 19
REMARK H PARENT
REMARK Flexibility Score: inf
ROOT
ATOM      1  C   UNL     1       1.742  10.041  39.366  1.00  0.00     0.000 C 
ENDROOT
BRANCH   1   2
ATOM      2  C   UNL     1       0.356   9.446  39.662  1.00  0.00     0.000 C 
BRANCH   2   3
ATOM      3  C   UNL     1      -0.737   9.979  38.720  1.00  0.00     0.000 C 
BRANCH   3   4
ATOM      4  C   UNL     1      -1.875   8.958  38.506  1.00  0.00     0.000 C 
BRANCH   4   5
ATOM      5  C   UNL     1      -2.329   8.255  39.800  1.00  0.00     0.001 C 
BRANCH   5   6
ATOM      6  C   UNL     1      -2.411   6.719  39.711  1.00  0.00     0.009 C 
BRANCH   6   7
ATOM      7  C   UNL     1      -2.245   5.998  41.068  1.00  0.00     0.032 C 
ATOM      8  C   UNL     1      -2.382   4.483  40.890  1.00  0.00     0.014 C 
BRANCH   7   9
ATOM      9  C   UNL     1      -0.920   6.324  41.706  1.00  0.00     0.044 C 
ATOM     10  O   UNL     1       0.148   5.838  41.249  1.00  0.00    -0.550 OA
ATOM     11  O   UNL     1      -0.872   7.174  42.803  1.00  0.00    -0.550 OA
ENDBRANCH   7   9
ENDBRANCH   6   7
ENDBRANCH   5   6
ENDBRANCH   4   5
ENDBRANCH   3   4
ENDBRANCH   2   3
ENDBRANCH   1   2
BRANCH   1  12
ATOM     12  C   UNL     1       2.517   9.236  38.308  1.00  0.00     0.000 C 
BRANCH  12  13
ATOM     13  C   UNL     1       2.330   9.792  36.887  1.00  0.00    -0.000 C 
BRANCH  13  14
ATOM     14  C   UNL     1       1.457   8.879  36.006  1.00  0.00    -0.000 C 
BRANCH  14  15
ATOM     15  C   UNL     1       1.683   7.386  36.299  1.00  0.00    -0.000 C 
BRANCH  15  16
ATOM     16  C   UNL     1       0.380   6.653  36.665  1.00  0.00    -0.000 C 
BRANCH  16  17
ATOM     17  C   UNL     1       0.565   5.668  37.831  1.00  0.00    -0.000 C 
BRANCH  17  18
ATOM     18  C   UNL     1      -0.335   4.429  37.710  1.00  0.00    -0.003 C 
ATOM     19  C   UNL     1      -1.501   4.687  36.761  1.00  0.00     0.004 C 
ENDBRANCH  17  18
ENDBRANCH  16  17
ENDBRANCH  15  16
ENDBRANCH  14  15
ENDBRANCH  13  14
ENDBRANCH  12  13
ENDBRANCH   1  12
TORSDOF 14
ENDMDL
MODEL 2
REMARK VINA RESULT:    -3.631      2.131      4.852
REMARK INTER + INTRA:          -9.027
REMARK INTER:                  -6.364
REMARK INTRA:                  -2.663
REMARK UNBOUND:                -2.424
REMARK SMILES CCCCCCCCCCCCCC[C@@H](C)C(=O)[O-]
REMARK SMILES IDX 9 1 10 2 11 3 12 4 13 5 14 6 15 7 16 8 17 9 18 10 19 11 8 12
REMARK SMILES IDX 7 13 6 14 5 15 4 16 3 17 2 18 1 19
REMARK H PARENT
REMARK Flexibility Score: inf
ROOT
ATOM      1  C   UNL     1      -1.499   8.120  39.029  1.00  0.00     0.000 C 
ENDROOT
BRANCH   1   2
ATOM      2  C   UNL     1      -1.559   9.543  38.452  1.00  0.00     0.000 C 
BRANCH   2   3
ATOM      3  C   UNL     1      -0.175  10.087  38.058  1.00  0.00     0.000 C 
BRANCH   3   4
ATOM      4  C   UNL     1       0.823  10.057  39.235  1.00  0.00     0.000 C 
BRANCH   4   5
ATOM      5  C   UNL     1       2.018   9.109  39.013  1.00  0.00     0.001 C 
BRANCH   5   6
ATOM      6  C   UNL     1       2.140   8.541  37.585  1.00  0.00     0.009 C 
BRANCH   6   7
ATOM      7  C   UNL     1       1.649   7.083  37.443  1.00  0.00     0.032 C 
ATOM      8  C   UNL     1       0.757   6.936  36.206  1.00  0.00     0.014 C 
BRANCH   7   9
ATOM      9  C   UNL     1       2.803   6.119  37.362  1.00  0.00     0.044 C 
ATOM     10  O   UNL     1       3.393   5.735  38.407  1.00  0.00    -0.550 OA
ATOM     11  O   UNL     1       3.219   5.639  36.126  1.00  0.00    -0.550 OA
ENDBRANCH   7   9
ENDBRANCH   6   7
ENDBRANCH   5   6
ENDBRANCH   4   5
ENDBRANCH   3   4
ENDBRANCH   2   3
ENDBRANCH   1   2
BRANCH   1  12
ATOM     12  C   UNL     1      -2.606   7.854  40.065  1.00  0.00     0.000 C 
BRANCH  12  13
ATOM     13  C   UNL     1      -2.045   7.455  41.440  1.00  0.00    -0.000 C 
BRANCH  13  14
ATOM     14  C   UNL     1      -0.633   8.015  41.687  1.00  0.00    -0.000 C 
BRANCH  14  15
ATOM     15  C   UNL     1       0.390   6.914  42.009  1.00  0.00    -0.000 C 
BRANCH  15  16
ATOM     16  C   UNL     1       0.723   6.041  40.786  1.00  0.00    -0.000 C 
BRANCH  16  17
ATOM     17  C   UNL     1       0.227   4.595  40.940  1.00  0.00    -0.000 C 
BRANCH  17  18
ATOM     18  C   UNL     1      -0.921   4.255  39.978  1.00  0.00    -0.003 C 
ATOM     19  C   UNL     1      -0.436   4.225  38.532  1.00  0.00     0.004 C 
ENDBRANCH  17  18
ENDBRANCH  16  17
ENDBRANCH  15  16
ENDBRANCH  14  15
ENDBRANCH  13  14
ENDBRANCH  12  13
ENDBRANCH   1  12
TORSDOF 14
ENDMDL
MODEL 3
REMARK VINA RESULT:    -3.619      2.473      5.086
REMARK INTER + INTRA:          -9.006
REMARK INTER:                  -6.464
REMARK INTRA:                  -2.542
REMARK UNBOUND:                -2.424
REMARK SMILES CCCCCCCCCCCCCC[C@@H](C)C(=O)[O-]
REMARK SMILES IDX 9 1 10 2 11 3 12 4 13 5 14 6 15 7 16 8 17 9 18 10 19 11 8 12
REMARK SMILES IDX 7 13 6 14 5 15 4 16 3 17 2 18 1 19
REMARK H PARENT
REMARK Flexibility Score: inf
ROOT
ATOM      1  C   UNL     1       0.021   7.513  41.247  1.00  0.00     0.000 C 
ENDROOT
BRANCH   1   2
ATOM      2  C   UNL     1       0.997   8.700  41.237  1.00  0.00     0.000 C 
BRANCH   2   3
ATOM      3  C   UNL     1       0.764   9.655  40.054  1.00  0.00     0.000 C 
BRANCH   3   4
ATOM      4  C   UNL     1       2.044   9.881  39.222  1.00  0.00     0.000 C 
BRANCH   4   5
ATOM      5  C   UNL     1       2.016   9.199  37.841  1.00  0.00     0.001 C 
BRANCH   5   6
ATOM      6  C   UNL     1       1.854   7.666  37.876  1.00  0.00     0.009 C 
BRANCH   6   7
ATOM      7  C   UNL     1       0.528   7.158  37.268  1.00  0.00     0.032 C 
ATOM      8  C   UNL     1      -0.315   8.332  36.762  1.00  0.00     0.014 C 
BRANCH   7   9
ATOM      9  C   UNL     1       0.775   6.182  36.148  1.00  0.00     0.044 C 
ATOM     10  O   UNL     1       0.071   5.143  36.036  1.00  0.00    -0.550 OA
ATOM     11  O   UNL     1       1.781   6.430  35.223  1.00  0.00    -0.550 OA
ENDBRANCH   7   9
ENDBRANCH   6   7
ENDBRANCH   5   6
ENDBRANCH   4   5
ENDBRANCH   3   4
ENDBRANCH   2   3
ENDBRANCH   1   2
BRANCH   1  12
ATOM     12  C   UNL     1      -1.229   7.783  42.103  1.00  0.00     0.000 C 
BRANCH  12  13
ATOM     13  C   UNL     1      -2.522   7.801  41.272  1.00  0.00    -0.000 C 
BRANCH  13  14
ATOM     14  C   UNL     1      -2.274   7.480  39.787  1.00  0.00    -0.000 C 
BRANCH  14  15
ATOM     15  C   UNL     1      -2.901   6.142  39.360  1.00  0.00    -0.000 C 
BRANCH  15  16
ATOM     16  C   UNL     1      -1.849   5.046  39.120  1.00  0.00    -0.000 C 
BRANCH  16  17
ATOM     17  C   UNL     1      -1.694   4.101  40.323  1.00  0.00    -0.000 C 
BRANCH  17  18
ATOM     18  C   UNL     1      -2.958   4.036  41.193  1.00  0.00    -0.003 C 
ATOM     19  C   UNL     1      -2.629   4.304  42.659  1.00  0.00     0.004 C 
ENDBRANCH  17  18
ENDBRANCH  16  17
ENDBRANCH  15  16
ENDBRANCH  14  15
ENDBRANCH  13  14
ENDBRANCH  12  13
ENDBRANCH   1  12
TORSDOF 14
ENDMDL
MODEL 4
REMARK VINA RESULT:    -3.571      1.755      3.506
REMARK INTER + INTRA:          -8.918
REMARK INTER:                  -6.738
REMARK INTRA:                  -2.180
REMARK UNBOUND:                -2.424
REMARK SMILES CCCCCCCCCCCCCC[C@@H](C)C(=O)[O-]
REMARK SMILES IDX 9 1 10 2 11 3 12 4 13 5 14 6 15 7 16 8 17 9 18 10 19 11 8 12
REMARK SMILES IDX 7 13 6 14 5 15 4 16 3 17 2 18 1 19
REMARK H PARENT
REMARK Flexibility Score: inf
ROOT
ATOM      1  C   UNL     1      -0.065   8.925  36.339  1.00  0.00     0.000 C 
ENDROOT
BRANCH   1   2
ATOM      2  C   UNL     1      -1.445   9.501  36.696  1.00  0.00     0.000 C 
BRANCH   2   3
ATOM      3  C   UNL     1      -1.560   9.899  38.178  1.00  0.00     0.000 C 
BRANCH   3   4
ATOM      4  C   UNL     1      -2.145   8.764  39.045  1.00  0.00     0.000 C 
BRANCH   4   5
ATOM      5  C   UNL     1      -1.416   7.417  38.880  1.00  0.00     0.001 C 
BRANCH   5   6
ATOM      6  C   UNL     1      -2.232   6.179  39.301  1.00  0.00     0.009 C 
BRANCH   6   7
ATOM      7  C   UNL     1      -1.369   4.959  39.693  1.00  0.00     0.032 C 
ATOM      8  C   UNL     1       0.111   5.348  39.760  1.00  0.00     0.014 C 
BRANCH   7   9
ATOM      9  C   UNL     1      -1.807   4.375  41.010  1.00  0.00     0.044 C 
ATOM     10  O   UNL     1      -3.030   4.206  41.262  1.00  0.00    -0.550 OA
ATOM     11  O   UNL     1      -0.857   4.012  41.956  1.00  0.00    -0.550 OA
ENDBRANCH   7   9
ENDBRANCH   6   7
ENDBRANCH   5   6
ENDBRANCH   4   5
ENDBRANCH   3   4
ENDBRANCH   2   3
ENDBRANCH   1   2
BRANCH   1  12
ATOM     12  C   UNL     1       1.028  10.006  36.275  1.00  0.00     0.000 C 
BRANCH  12  13
ATOM     13  C   UNL     1       2.267   9.643  37.110  1.00  0.00    -0.000 C 
BRANCH  13  14
ATOM     14  C   UNL     1       2.136  10.078  38.581  1.00  0.00    -0.000 C 
BRANCH  14  15
ATOM     15  C   UNL     1       1.841   8.897  39.521  1.00  0.00    -0.000 C 
BRANCH  15  16
ATOM     16  C   UNL     1       1.090   9.328  40.793  1.00  0.00    -0.000 C 
BRANCH  16  17
ATOM     17  C   UNL     1       1.076   8.232  41.871  1.00  0.00    -0.000 C 
BRANCH  17  18
ATOM     18  C   UNL     1      -0.001   8.464  42.941  1.00  0.00    -0.003 C 
ATOM     19  C   UNL     1      -1.313   7.787  42.555  1.00  0.00     0.004 C 
ENDBRANCH  17  18
ENDBRANCH  16  17
ENDBRANCH  15  16
ENDBRANCH  14  15
ENDBRANCH  13  14
ENDBRANCH  12  13
ENDBRANCH   1  12
TORSDOF 14
ENDMDL
MODEL 5
REMARK VINA RESULT:    -3.528      2.409      5.077
REMARK INTER + INTRA:          -8.839
REMARK INTER:                  -6.418
REMARK INTRA:                  -2.422
REMARK UNBOUND:                -2.424
REMARK SMILES CCCCCCCCCCCCCC[C@@H](C)C(=O)[O-]
REMARK SMILES IDX 9 1 10 2 11 3 12 4 13 5 14 6 15 7 16 8 17 9 18 10 19 11 8 12
REMARK SMILES IDX 7 13 6 14 5 15 4 16 3 17 2 18 1 19
REMARK H PARENT
REMARK Flexibility Score: inf
ROOT
ATOM      1  C   UNL     1      -2.599   7.897  39.964  1.00  0.00     0.000 C 
ENDROOT
BRANCH   1   2
ATOM      2  C   UNL     1      -1.830   6.571  39.848  1.00  0.00     0.000 C 
BRANCH   2   3
ATOM      3  C   UNL     1      -2.464   5.599  38.838  1.00  0.00     0.000 C 
BRANCH   3   4
ATOM      4  C   UNL     1      -1.583   5.399  37.587  1.00  0.00     0.000 C 
BRANCH   4   5
ATOM      5  C   UNL     1      -0.567   4.248  37.721  1.00  0.00     0.001 C 
BRANCH   5   6
ATOM      6  C   UNL     1       0.862   4.584  37.251  1.00  0.00     0.009 C 
BRANCH   6   7
ATOM      7  C   UNL     1       1.393   5.941  37.765  1.00  0.00     0.032 C 
ATOM      8  C   UNL     1       2.597   5.730  38.689  1.00  0.00     0.014 C 
BRANCH   7   9
ATOM      9  C   UNL     1       1.770   6.852  36.628  1.00  0.00     0.044 C 
ATOM     10  O   UNL     1       2.262   7.990  36.853  1.00  0.00    -0.550 OA
ATOM     11  O   UNL     1       1.583   6.434  35.316  1.00  0.00    -0.550 OA
ENDBRANCH   7   9
ENDBRANCH   6   7
ENDBRANCH   5   6
ENDBRANCH   4   5
ENDBRANCH   3   4
ENDBRANCH   2   3
ENDBRANCH   1   2
BRANCH   1  12
ATOM     12  C   UNL     1      -2.098   8.960  38.970  1.00  0.00     0.000 C 
BRANCH  12  13
ATOM     13  C   UNL     1      -0.603   8.807  38.645  1.00  0.00    -0.000 C 
BRANCH  13  14
ATOM     14  C   UNL     1       0.176  10.124  38.813  1.00  0.00    -0.000 C 
BRANCH  14  15
ATOM     15  C   UNL     1       1.308  10.012  39.848  1.00  0.00    -0.000 C 
BRANCH  15  16
ATOM     16  C   UNL     1       1.253   8.696  40.643  1.00  0.00    -0.000 C 
BRANCH  16  17
ATOM     17  C   UNL     1       0.976   8.920  42.138  1.00  0.00    -0.000 C 
BRANCH  17  18
ATOM     18  C   UNL     1       0.126   7.802  42.760  1.00  0.00    -0.003 C 
ATOM     19  C   UNL     1       0.711   6.428  42.444  1.00  0.00     0.004 C 
ENDBRANCH  17  18
ENDBRANCH  16  17
ENDBRANCH  15  16
ENDBRANCH  14  15
ENDBRANCH  13  14
ENDBRANCH  12  13
ENDBRANCH   1  12
TORSDOF 14
ENDMDL
MODEL 6
REMARK VINA RESULT:    -3.499      2.582      4.758
REMARK INTER + INTRA:          -8.786
REMARK INTER:                  -6.268
REMARK INTRA:                  -2.518
REMARK UNBOUND:                -2.424
REMARK SMILES CCCCCCCCCCCCCC[C@@H](C)C(=O)[O-]
REMARK SMILES IDX 9 1 10 2 11 3 12 4 13 5 14 6 15 7 16 8 17 9 18 10 19 11 8 12
REMARK SMILES IDX 7 13 6 14 5 15 4 16 3 17 2 18 1 19
REMARK H PARENT
REMARK Flexibility Score: inf
ROOT
ATOM      1  C   UNL     1      -1.004   9.216  36.282  1.00  0.00     0.000 C 
ENDROOT
BRANCH   1   2
ATOM      2  C   UNL     1       0.102   9.900  35.462  1.00  0.00     0.000 C 
BRANCH   2   3
ATOM      3  C   UNL     1       1.502   9.335  35.758  1.00  0.00     0.000 C 
BRANCH   3   4
ATOM      4  C   UNL     1       1.958   9.628  37.203  1.00  0.00     0.000 C 
BRANCH   4   5
ATOM      5  C   UNL     1       2.453   8.382  37.963  1.00  0.00     0.001 C 
BRANCH   5   6
ATOM      6  C   UNL     1       2.112   7.035  37.295  1.00  0.00     0.009 C 
BRANCH   6   7
ATOM      7  C   UNL     1       2.885   5.830  37.876  1.00  0.00     0.032 C 
ATOM      8  C   UNL     1       2.096   5.189  39.022  1.00  0.00     0.014 C 
BRANCH   7   9
ATOM      9  C   UNL     1       3.180   4.802  36.816  1.00  0.00     0.044 C 
ATOM     10  O   UNL     1       4.164   4.943  36.042  1.00  0.00    -0.550 OA
ATOM     11  O   UNL     1       2.367   3.683  36.692  1.00  0.00    -0.550 OA
ENDBRANCH   7   9
ENDBRANCH   6   7
ENDBRANCH   5   6
ENDBRANCH   4   5
ENDBRANCH   3   4
ENDBRANCH   2   3
ENDBRANCH   1   2
BRANCH   1  12
ATOM     12  C   UNL     1      -1.566  10.125  37.389  1.00  0.00     0.000 C 
BRANCH  12  13
ATOM     13  C   UNL     1      -2.035   9.334  38.621  1.00  0.00    -0.000 C 
BRANCH  13  14
ATOM     14  C   UNL     1      -0.867   8.904  39.527  1.00  0.00    -0.000 C 
BRANCH  14  15
ATOM     15  C   UNL     1      -0.739   7.375  39.638  1.00  0.00    -0.000 C 
BRANCH  15  16
ATOM     16  C   UNL     1      -2.103   6.675  39.764  1.00  0.00    -0.000 C 
BRANCH  16  17
ATOM     17  C   UNL     1      -2.285   5.546  38.738  1.00  0.00    -0.000 C 
BRANCH  17  18
ATOM     18  C   UNL     1      -1.374   5.705  37.512  1.00  0.00    -0.003 C 
ATOM     19  C   UNL     1      -1.107   4.357  36.848  1.00  0.00     0.004 C 
ENDBRANCH  17  18
ENDBRANCH  16  17
ENDBRANCH  15  16
ENDBRANCH  14  15
ENDBRANCH  13  14
ENDBRANCH  12  13
ENDBRANCH   1  12
TORSDOF 14
ENDMDL
MODEL 7
REMARK VINA RESULT:    -3.497      2.705      4.843
REMARK INTER + INTRA:          -8.784
REMARK INTER:                  -6.202
REMARK INTRA:                  -2.582
REMARK UNBOUND:                -2.424
REMARK SMILES CCCCCCCCCCCCCC[C@@H](C)C(=O)[O-]
REMARK SMILES IDX 9 1 10 2 11 3 12 4 13 5 14 6 15 7 16 8 17 9 18 10 19 11 8 12
REMARK SMILES IDX 7 13 6 14 5 15 4 16 3 17 2 18 1 19
REMARK H PARENT
REMARK Flexibility Score: inf
ROOT
ATOM      1  C   UNL     1       1.464   8.793  40.396  1.00  0.00     0.000 C 
ENDROOT
BRANCH   1   2
ATOM      2  C   UNL     1       1.850   9.897  39.399  1.00  0.00     0.000 C 
BRANCH   2   3
ATOM      3  C   UNL     1       2.650   9.364  38.198  1.00  0.00     0.000 C 
BRANCH   3   4
ATOM      4  C   UNL     1       1.849   9.440  36.880  1.00  0.00     0.000 C 
BRANCH   4   5
ATOM      5  C   UNL     1       1.068   8.153  36.554  1.00  0.00     0.001 C 
BRANCH   5   6
ATOM      6  C   UNL     1       1.544   6.894  37.305  1.00  0.00     0.009 C 
BRANCH   6   7
ATOM      7  C   UNL     1       0.996   5.570  36.727  1.00  0.00     0.032 C 
ATOM      8  C   UNL     1      -0.534   5.607  36.660  1.00  0.00     0.014 C 
BRANCH   7   9
ATOM      9  C   UNL     1       1.565   5.287  35.362  1.00  0.00     0.044 C 
ATOM     10  O   UNL     1       2.785   5.486  35.122  1.00  0.00    -0.550 OA
ATOM     11  O   UNL     1       0.740   4.794  34.358  1.00  0.00    -0.550 OA
ENDBRANCH   7   9
ENDBRANCH   6   7
ENDBRANCH   5   6
ENDBRANCH   4   5
ENDBRANCH   3   4
ENDBRANCH   2   3
ENDBRANCH   1   2
BRANCH   1  12
ATOM     12  C   UNL     1      -0.056   8.701  40.617  1.00  0.00     0.000 C 
BRANCH  12  13
ATOM     13  C   UNL     1      -0.860   9.294  39.449  1.00  0.00    -0.000 C 
BRANCH  13  14
ATOM     14  C   UNL     1      -1.875   8.296  38.864  1.00  0.00    -0.000 C 
BRANCH  14  15
ATOM     15  C   UNL     1      -2.563   7.450  39.948  1.00  0.00    -0.000 C 
BRANCH  15  16
ATOM     16  C   UNL     1      -2.799   5.996  39.503  1.00  0.00    -0.000 C 
BRANCH  16  17
ATOM     17  C   UNL     1      -2.038   4.981  40.370  1.00  0.00    -0.000 C 
BRANCH  17  18
ATOM     18  C   UNL     1      -0.520   5.026  40.145  1.00  0.00    -0.003 C 
ATOM     19  C   UNL     1       0.229   5.124  41.471  1.00  0.00     0.004 C 
ENDBRANCH  17  18
ENDBRANCH  16  17
ENDBRANCH  15  16
ENDBRANCH  14  15
ENDBRANCH  13  14
ENDBRANCH  12  13
ENDBRANCH   1  12
TORSDOF 14
ENDMDL
MODEL 8
REMARK VINA RESULT:    -3.454      2.233      4.917
REMARK INTER + INTRA:          -8.705
REMARK INTER:                  -5.994
REMARK INTRA:                  -2.711
REMARK UNBOUND:                -2.424
REMARK SMILES CCCCCCCCCCCCCC[C@@H](C)C(=O)[O-]
REMARK SMILES IDX 9 1 10 2 11 3 12 4 13 5 14 6 15 7 16 8 17 9 18 10 19 11 8 12
REMARK SMILES IDX 7 13 6 14 5 15 4 16 3 17 2 18 1 19
REMARK H PARENT
REMARK Flexibility Score: inf
ROOT
ATOM      1  C   UNL     1       1.125   8.952  41.245  1.00  0.00     0.000 C 
ENDROOT
BRANCH   1   2
ATOM      2  C   UNL     1       1.837   8.325  40.036  1.00  0.00     0.000 C 
BRANCH   2   3
ATOM      3  C   UNL     1       2.153   9.349  38.932  1.00  0.00     0.000 C 
BRANCH   3   4
ATOM      4  C   UNL     1       2.146   8.714  37.525  1.00  0.00     0.000 C 
BRANCH   4   5
ATOM      5  C   UNL     1       2.093   7.175  37.539  1.00  0.00     0.001 C 
BRANCH   5   6
ATOM      6  C   UNL     1       0.941   6.556  36.723  1.00  0.00     0.009 C 
BRANCH   6   7
ATOM      7  C   UNL     1       0.474   5.176  37.238  1.00  0.00     0.032 C 
ATOM      8  C   UNL     1      -0.946   4.873  36.748  1.00  0.00     0.014 C 
BRANCH   7   9
ATOM      9  C   UNL     1       1.412   4.080  36.807  1.00  0.00     0.044 C 
ATOM     10  O   UNL     1       2.185   3.534  37.638  1.00  0.00    -0.550 OA
ATOM     11  O   UNL     1       1.421   3.659  35.483  1.00  0.00    -0.550 OA
ENDBRANCH   7   9
ENDBRANCH   6   7
ENDBRANCH   5   6
ENDBRANCH   4   5
ENDBRANCH   3   4
ENDBRANCH   2   3
ENDBRANCH   1   2
BRANCH   1  12
ATOM     12  C   UNL     1       0.015   8.049  41.812  1.00  0.00     0.000 C 
BRANCH  12  13
ATOM     13  C   UNL     1      -0.352   6.897  40.862  1.00  0.00    -0.000 C 
BRANCH  13  14
ATOM     14  C   UNL     1      -1.854   6.559  40.895  1.00  0.00    -0.000 C 
BRANCH  14  15
ATOM     15  C   UNL     1      -2.625   7.183  39.721  1.00  0.00    -0.000 C 
BRANCH  15  16
ATOM     16  C   UNL     1      -1.701   7.901  38.721  1.00  0.00    -0.000 C 
BRANCH  16  17
ATOM     17  C   UNL     1      -1.882   9.427  38.739  1.00  0.00    -0.000 C 
BRANCH  17  18
ATOM     18  C   UNL     1      -1.159  10.125  37.578  1.00  0.00    -0.003 C 
ATOM     19  C   UNL     1      -1.377   9.376  36.266  1.00  0.00     0.004 C 
ENDBRANCH  17  18
ENDBRANCH  16  17
ENDBRANCH  15  16
ENDBRANCH  14  15
ENDBRANCH  13  14
ENDBRANCH  12  13
ENDBRANCH   1  12
TORSDOF 14
ENDMDL
MODEL 9
REMARK VINA RESULT:    -3.434      2.249      4.257
REMARK INTER + INTRA:          -8.669
REMARK INTER:                  -6.064
REMARK INTRA:                  -2.605
REMARK UNBOUND:                -2.424
REMARK SMILES CCCCCCCCCCCCCC[C@@H](C)C(=O)[O-]
REMARK SMILES IDX 9 1 10 2 11 3 12 4 13 5 14 6 15 7 16 8 17 9 18 10 19 11 8 12
REMARK SMILES IDX 7 13 6 14 5 15 4 16 3 17 2 18 1 19
REMARK H PARENT
REMARK Flexibility Score: inf
ROOT
ATOM      1  C   UNL     1       2.361   9.276  38.722  1.00  0.00     0.000 C 
ENDROOT
BRANCH   1   2
ATOM      2  C   UNL     1       2.206   9.697  37.252  1.00  0.00     0.000 C 
BRANCH   2   3
ATOM      3  C   UNL     1       0.741   9.948  36.854  1.00  0.00     0.000 C 
BRANCH   3   4
ATOM      4  C   UNL     1       0.063   8.681  36.289  1.00  0.00     0.000 C 
BRANCH   4   5
ATOM      5  C   UNL     1      -0.745   7.891  37.336  1.00  0.00     0.001 C 
BRANCH   5   6
ATOM      6  C   UNL     1      -0.864   6.379  37.061  1.00  0.00     0.009 C 
BRANCH   6   7
ATOM      7  C   UNL     1       0.203   5.522  37.777  1.00  0.00     0.032 C 
ATOM      8  C   UNL     1      -0.366   4.144  38.132  1.00  0.00     0.014 C 
BRANCH   7   9
ATOM      9  C   UNL     1       1.441   5.366  36.934  1.00  0.00     0.044 C 
ATOM     10  O   UNL     1       2.438   6.113  37.115  1.00  0.00    -0.550 OA
ATOM     11  O   UNL     1       1.490   4.383  35.953  1.00  0.00    -0.550 OA
ENDBRANCH   7   9
ENDBRANCH   6   7
ENDBRANCH   5   6
ENDBRANCH   4   5
ENDBRANCH   3   4
ENDBRANCH   2   3
ENDBRANCH   1   2
BRANCH   1  12
ATOM     12  C   UNL     1       1.424  10.054  39.662  1.00  0.00     0.000 C 
BRANCH  12  13
ATOM     13  C   UNL     1       0.996   9.227  40.886  1.00  0.00    -0.000 C 
BRANCH  13  14
ATOM     14  C   UNL     1       1.077   7.711  40.632  1.00  0.00    -0.000 C 
BRANCH  14  15
ATOM     15  C   UNL     1       0.666   6.885  41.862  1.00  0.00    -0.000 C 
BRANCH  15  16
ATOM     16  C   UNL     1      -0.157   5.639  41.489  1.00  0.00    -0.000 C 
BRANCH  16  17
ATOM     17  C   UNL     1      -1.661   5.826  41.743  1.00  0.00    -0.000 C 
BRANCH  17  18
ATOM     18  C   UNL     1      -2.440   6.180  40.467  1.00  0.00    -0.003 C 
ATOM     19  C   UNL     1      -2.667   7.685  40.362  1.00  0.00     0.004 C 
ENDBRANCH  17  18
ENDBRANCH  16  17
ENDBRANCH  15  16
ENDBRANCH  14  15
ENDBRANCH  13  14
ENDBRANCH  12  13
ENDBRANCH   1  12
TORSDOF 14
ENDMDL
