MODEL 1
REMARK VINA RESULT:    -3.681      0.000      0.000
REMARK INTER + INTRA:          -4.552
REMARK INTER:                  -4.327
REMARK INTRA:                  -0.225
REMARK UNBOUND:                -0.225
REMARK SMILES [NH3+][C@H](CO)C(=O)[O-]
REMARK SMILES IDX 3 1 2 2 1 3 5 7 6 8 7 9 4 10
REMARK H PARENT 1 4 1 5 1 6 4 11
REMARK Flexibility Score: inf
ROOT
ATOM      1  C   UNL     1      78.231 184.667 192.203  1.00  0.00     0.227 C 
ENDROOT
BRANCH   1   2
ATOM      2  C   UNL     1      77.901 186.000 191.505  1.00  0.00     0.253 C 
BRANCH   2   3
ATOM      3  N   UNL     1      77.775 187.097 192.473  1.00  0.00    -0.348 N 
ATOM      4  H   UNL     1      78.692 187.591 192.566  1.00  0.00     0.345 HD
ATOM      5  H   UNL     1      77.485 186.740 193.413  1.00  0.00     0.345 HD
ATOM      6  H   UNL     1      77.064 187.787 192.136  1.00  0.00     0.345 HD
ENDBRANCH   2   3
BRANCH   2   7
ATOM      7  C   UNL     1      78.929 186.325 190.453  1.00  0.00     0.102 C 
ATOM      8  O   UNL     1      78.618 187.004 189.439  1.00  0.00    -0.544 OA
ATOM      9  O   UNL     1      80.243 185.904 190.618  1.00  0.00    -0.544 OA
ENDBRANCH   2   7
ENDBRANCH   1   2
BRANCH   1  10
ATOM     10  O   UNL     1      79.202 184.839 193.200  1.00  0.00    -0.390 OA
ATOM     11  H   UNL     1      78.720 185.054 194.040  1.00  0.00     0.210 HD
ENDBRANCH   1  10
TORSDOF 4
ENDMDL
MODEL 2
REMARK VINA RESULT:    -3.611      4.236      4.966
REMARK INTER + INTRA:          -4.469
REMARK INTER:                  -4.463
REMARK INTRA:                  -0.006
REMARK UNBOUND:                -0.225
REMARK SMILES [NH3+][C@H](CO)C(=O)[O-]
REMARK SMILES IDX 3 1 2 2 1 3 5 7 6 8 7 9 4 10
REMARK H PARENT 1 4 1 5 1 6 4 11
REMARK Flexibility Score: inf
ROOT
ATOM      1  C   UNL     1      81.448 185.848 190.151  1.00  0.00     0.227 C 
ENDROOT
BRANCH   1   2
ATOM      2  C   UNL     1      82.789 186.339 189.574  1.00  0.00     0.253 C 
BRANCH   2   3
ATOM      3  N   UNL     1      83.411 187.347 190.442  1.00  0.00    -0.348 N 
ATOM      4  H   UNL     1      82.964 187.320 191.387  1.00  0.00     0.345 HD
ATOM      5  H   UNL     1      83.304 188.307 190.043  1.00  0.00     0.345 HD
ATOM      6  H   UNL     1      84.430 187.136 190.556  1.00  0.00     0.345 HD
ENDBRANCH   2   3
BRANCH   2   7
ATOM      7  C   UNL     1      83.725 185.183 189.332  1.00  0.00     0.102 C 
ATOM      8  O   UNL     1      83.304 184.113 188.818  1.00  0.00    -0.544 OA
ATOM      9  O   UNL     1      85.073 185.309 189.642  1.00  0.00    -0.544 OA
ENDBRANCH   2   7
ENDBRANCH   1   2
BRANCH   1  10
ATOM     10  O   UNL     1      80.803 186.860 190.878  1.00  0.00    -0.390 OA
ATOM     11  H   UNL     1      79.934 186.490 191.181  1.00  0.00     0.210 HD
ENDBRANCH   1  10
TORSDOF 4
ENDMDL
MODEL 3
REMARK VINA RESULT:    -3.611     14.306     15.612
REMARK INTER + INTRA:          -4.469
REMARK INTER:                  -4.144
REMARK INTRA:                  -0.324
REMARK UNBOUND:                -0.225
REMARK SMILES [NH3+][C@H](CO)C(=O)[O-]
REMARK SMILES IDX 3 1 2 2 1 3 5 7 6 8 7 9 4 10
REMARK H PARENT 1 4 1 5 1 6 4 11
REMARK Flexibility Score: inf
ROOT
ATOM      1  C   UNL     1      85.347 175.907 198.876  1.00  0.00     0.227 C 
ENDROOT
BRANCH   1   2
ATOM      2  C   UNL     1      85.651 174.729 199.819  1.00  0.00     0.253 C 
BRANCH   2   3
ATOM      3  N   UNL     1      86.344 175.177 201.034  1.00  0.00    -0.348 N 
ATOM      4  H   UNL     1      87.370 175.254 200.845  1.00  0.00     0.345 HD
ATOM      5  H   UNL     1      86.193 174.509 201.824  1.00  0.00     0.345 HD
ATOM      6  H   UNL     1      85.991 176.122 201.314  1.00  0.00     0.345 HD
ENDBRANCH   2   3
BRANCH   2   7
ATOM      7  C   UNL     1      84.392 173.976 200.163  1.00  0.00     0.102 C 
ATOM      8  O   UNL     1      83.918 174.015 201.329  1.00  0.00    -0.544 OA
ATOM      9  O   UNL     1      83.723 173.262 199.176  1.00  0.00    -0.544 OA
ENDBRANCH   2   7
ENDBRANCH   1   2
BRANCH   1  10
ATOM     10  O   UNL     1      84.014 176.327 198.996  1.00  0.00    -0.390 OA
ATOM     11  H   UNL     1      83.494 175.843 198.302  1.00  0.00     0.210 HD
ENDBRANCH   1  10
TORSDOF 4
ENDMDL
MODEL 4
REMARK VINA RESULT:    -3.545      1.774      3.081
REMARK INTER + INTRA:          -4.392
REMARK INTER:                  -4.166
REMARK INTRA:                  -0.226
REMARK UNBOUND:                -0.225
REMARK SMILES [NH3+][C@H](CO)C(=O)[O-]
REMARK SMILES IDX 3 1 2 2 1 3 5 7 6 8 7 9 4 10
REMARK H PARENT 1 4 1 5 1 6 4 11
REMARK Flexibility Score: inf
ROOT
ATOM      1  C   UNL     1      78.624 186.144 189.255  1.00  0.00     0.227 C 
ENDROOT
BRANCH   1   2
ATOM      2  C   UNL     1      79.374 185.698 190.524  1.00  0.00     0.253 C 
BRANCH   2   3
ATOM      3  N   UNL     1      80.479 186.610 190.844  1.00  0.00    -0.348 N 
ATOM      4  H   UNL     1      80.282 187.556 190.442  1.00  0.00     0.345 HD
ATOM      5  H   UNL     1      81.384 186.258 190.455  1.00  0.00     0.345 HD
ATOM      6  H   UNL     1      80.569 186.709 191.882  1.00  0.00     0.345 HD
ENDBRANCH   2   3
BRANCH   2   7
ATOM      7  C   UNL     1      78.427 185.568 191.689  1.00  0.00     0.102 C 
ATOM      8  O   UNL     1      77.583 186.469 191.935  1.00  0.00    -0.544 OA
ATOM      9  O   UNL     1      78.458 184.426 192.480  1.00  0.00    -0.544 OA
ENDBRANCH   2   7
ENDBRANCH   1   2
BRANCH   1  10
ATOM     10  O   UNL     1      78.333 187.516 189.288  1.00  0.00    -0.390 OA
ATOM     11  H   UNL     1      78.256 187.773 190.243  1.00  0.00     0.210 HD
ENDBRANCH   1  10
TORSDOF 4
ENDMDL
MODEL 5
REMARK VINA RESULT:    -3.526      1.817      2.039
REMARK INTER + INTRA:          -4.369
REMARK INTER:                  -3.993
REMARK INTRA:                  -0.376
REMARK UNBOUND:                -0.225
REMARK SMILES [NH3+][C@H](CO)C(=O)[O-]
REMARK SMILES IDX 3 1 2 2 1 3 5 7 6 8 7 9 4 10
REMARK H PARENT 1 4 1 5 1 6 4 11
REMARK Flexibility Score: inf
ROOT
ATOM      1  C   UNL     1      77.692 186.312 191.555  1.00  0.00     0.227 C 
ENDROOT
BRANCH   1   2
ATOM      2  C   UNL     1      78.457 186.041 190.246  1.00  0.00     0.253 C 
BRANCH   2   3
ATOM      3  N   UNL     1      78.577 187.258 189.432  1.00  0.00    -0.348 N 
ATOM      4  H   UNL     1      78.237 187.066 188.462  1.00  0.00     0.345 HD
ATOM      5  H   UNL     1      79.569 187.585 189.386  1.00  0.00     0.345 HD
ATOM      6  H   UNL     1      77.986 188.018 189.842  1.00  0.00     0.345 HD
ENDBRANCH   2   3
BRANCH   2   7
ATOM      7  C   UNL     1      79.812 185.446 190.529  1.00  0.00     0.102 C 
ATOM      8  O   UNL     1      80.837 186.175 190.578  1.00  0.00    -0.544 OA
ATOM      9  O   UNL     1      79.929 184.083 190.778  1.00  0.00    -0.544 OA
ENDBRANCH   2   7
ENDBRANCH   1   2
BRANCH   1  10
ATOM     10  O   UNL     1      78.413 185.865 192.672  1.00  0.00    -0.390 OA
ATOM     11  H   UNL     1      77.929 186.184 193.477  1.00  0.00     0.210 HD
ENDBRANCH   1  10
TORSDOF 4
ENDMDL
MODEL 6
REMARK VINA RESULT:    -3.519      3.439      4.088
REMARK INTER + INTRA:          -4.361
REMARK INTER:                  -4.356
REMARK INTRA:                  -0.005
REMARK UNBOUND:                -0.225
REMARK SMILES [NH3+][C@H](CO)C(=O)[O-]
REMARK SMILES IDX 3 1 2 2 1 3 5 7 6 8 7 9 4 10
REMARK H PARENT 1 4 1 5 1 6 4 11
REMARK Flexibility Score: inf
ROOT
ATOM      1  C   UNL     1      82.951 186.535 189.489  1.00  0.00     0.227 C 
ENDROOT
BRANCH   1   2
ATOM      2  C   UNL     1      81.711 185.803 190.037  1.00  0.00     0.253 C 
BRANCH   2   3
ATOM      3  N   UNL     1      80.883 186.693 190.861  1.00  0.00    -0.348 N 
ATOM      4  H   UNL     1      81.141 186.580 191.869  1.00  0.00     0.345 HD
ATOM      5  H   UNL     1      79.866 186.477 190.745  1.00  0.00     0.345 HD
ATOM      6  H   UNL     1      81.054 187.689 190.590  1.00  0.00     0.345 HD
ENDBRANCH   2   3
BRANCH   2   7
ATOM      7  C   UNL     1      80.905 185.200 188.917  1.00  0.00     0.102 C 
ATOM      8  O   UNL     1      79.701 185.526 188.744  1.00  0.00    -0.544 OA
ATOM      9  O   UNL     1      81.503 184.303 188.040  1.00  0.00    -0.544 OA
ENDBRANCH   2   7
ENDBRANCH   1   2
BRANCH   1  10
ATOM     10  O   UNL     1      83.588 187.282 190.490  1.00  0.00    -0.390 OA
ATOM     11  H   UNL     1      82.874 187.691 191.045  1.00  0.00     0.210 HD
ENDBRANCH   1  10
TORSDOF 4
ENDMDL
MODEL 7
REMARK VINA RESULT:    -3.503     14.772     15.356
REMARK INTER + INTRA:          -4.342
REMARK INTER:                  -3.974
REMARK INTRA:                  -0.369
REMARK UNBOUND:                -0.225
REMARK SMILES [NH3+][C@H](CO)C(=O)[O-]
REMARK SMILES IDX 3 1 2 2 1 3 5 7 6 8 7 9 4 10
REMARK H PARENT 1 4 1 5 1 6 4 11
REMARK Flexibility Score: inf
ROOT
ATOM      1  C   UNL     1      85.751 175.108 197.495  1.00  0.00     0.227 C 
ENDROOT
BRANCH   1   2
ATOM      2  C   UNL     1      85.389 175.635 198.897  1.00  0.00     0.253 C 
BRANCH   2   3
ATOM      3  N   UNL     1      84.106 176.350 198.887  1.00  0.00    -0.348 N 
ATOM      4  H   UNL     1      84.175 177.204 199.488  1.00  0.00     0.345 HD
ATOM      5  H   UNL     1      83.333 175.744 199.247  1.00  0.00     0.345 HD
ATOM      6  H   UNL     1      83.877 176.654 197.913  1.00  0.00     0.345 HD
ENDBRANCH   2   3
BRANCH   2   7
ATOM      7  C   UNL     1      85.375 174.515 199.904  1.00  0.00     0.102 C 
ATOM      8  O   UNL     1      86.372 174.305 200.645  1.00  0.00    -0.544 OA
ATOM      9  O   UNL     1      84.239 173.728 200.048  1.00  0.00    -0.544 OA
ENDBRANCH   2   7
ENDBRANCH   1   2
BRANCH   1  10
ATOM     10  O   UNL     1      86.119 173.756 197.536  1.00  0.00    -0.390 OA
ATOM     11  H   UNL     1      85.777 173.388 198.392  1.00  0.00     0.210 HD
ENDBRANCH   1  10
TORSDOF 4
ENDMDL
MODEL 8
REMARK VINA RESULT:    -3.456      2.331      3.081
REMARK INTER + INTRA:          -4.287
REMARK INTER:                  -4.061
REMARK INTRA:                  -0.226
REMARK UNBOUND:                -0.225
REMARK SMILES [NH3+][C@H](CO)C(=O)[O-]
REMARK SMILES IDX 3 1 2 2 1 3 5 7 6 8 7 9 4 10
REMARK H PARENT 1 4 1 5 1 6 4 11
REMARK Flexibility Score: inf
ROOT
ATOM      1  C   UNL     1      79.012 186.553 189.999  1.00  0.00     0.227 C 
ENDROOT
BRANCH   1   2
ATOM      2  C   UNL     1      80.394 185.875 190.043  1.00  0.00     0.253 C 
BRANCH   2   3
ATOM      3  N   UNL     1      81.353 186.661 190.831  1.00  0.00    -0.348 N 
ATOM      4  H   UNL     1      82.198 186.079 191.037  1.00  0.00     0.345 HD
ATOM      5  H   UNL     1      80.931 186.978 191.733  1.00  0.00     0.345 HD
ATOM      6  H   UNL     1      81.658 187.499 190.284  1.00  0.00     0.345 HD
ENDBRANCH   2   3
BRANCH   2   7
ATOM      7  C   UNL     1      80.286 184.469 190.572  1.00  0.00     0.102 C 
ATOM      8  O   UNL     1      79.394 184.163 191.408  1.00  0.00    -0.544 OA
ATOM      9  O   UNL     1      81.152 183.487 190.106  1.00  0.00    -0.544 OA
ENDBRANCH   2   7
ENDBRANCH   1   2
BRANCH   1  10
ATOM     10  O   UNL     1      78.601 186.961 191.277  1.00  0.00    -0.390 OA
ATOM     11  H   UNL     1      78.539 187.951 191.258  1.00  0.00     0.210 HD
ENDBRANCH   1  10
TORSDOF 4
ENDMDL
MODEL 9
REMARK VINA RESULT:    -3.456     14.242     15.584
REMARK INTER + INTRA:          -4.287
REMARK INTER:                  -4.061
REMARK INTRA:                  -0.226
REMARK UNBOUND:                -0.225
REMARK SMILES [NH3+][C@H](CO)C(=O)[O-]
REMARK SMILES IDX 3 1 2 2 1 3 5 7 6 8 7 9 4 10
REMARK H PARENT 1 4 1 5 1 6 4 11
REMARK Flexibility Score: inf
ROOT
ATOM      1  C   UNL     1      85.120 175.937 198.313  1.00  0.00     0.227 C 
ENDROOT
BRANCH   1   2
ATOM      2  C   UNL     1      85.279 174.406 198.277  1.00  0.00     0.253 C 
BRANCH   2   3
ATOM      3  N   UNL     1      86.105 173.978 197.140  1.00  0.00    -0.348 N 
ATOM      4  H   UNL     1      86.053 172.938 197.040  1.00  0.00     0.345 HD
ATOM      5  H   UNL     1      87.104 174.257 197.273  1.00  0.00     0.345 HD
ATOM      6  H   UNL     1      85.744 174.410 196.258  1.00  0.00     0.345 HD
ENDBRANCH   2   3
BRANCH   2   7
ATOM      7  C   UNL     1      85.843 173.893 199.576  1.00  0.00     0.102 C 
ATOM      8  O   UNL     1      85.713 174.556 200.639  1.00  0.00    -0.544 OA
ATOM      9  O   UNL     1      86.479 172.658 199.614  1.00  0.00    -0.544 OA
ENDBRANCH   2   7
ENDBRANCH   1   2
BRANCH   1  10
ATOM     10  O   UNL     1      83.973 176.316 199.026  1.00  0.00    -0.390 OA
ATOM     11  H   UNL     1      84.000 175.836 199.894  1.00  0.00     0.210 HD
ENDBRANCH   1  10
TORSDOF 4
ENDMDL
