MODEL 1
REMARK VINA RESULT:    -3.106      0.000      0.000
REMARK INTER + INTRA:          -5.347
REMARK INTER:                  -4.195
REMARK INTRA:                  -1.152
REMARK UNBOUND:                -1.152
REMARK SMILES C=C[C@](C)(CCC=C(C)C)OC(C)=O
REMARK SMILES IDX 3 1 4 2 5 3 6 4 7 5 9 6 8 7 10 8 2 9 1 10 11 11 12 12 14 13
REMARK SMILES IDX 13 14
REMARK H PARENT
REMARK Flexibility Score: inf
ROOT
ATOM      1  C   UNL     1      -1.591   2.957  -2.029  1.00  0.00     0.127 C 
ATOM      2  C   UNL     1      -1.249   3.379  -0.579  1.00  0.00     0.061 C 
ENDROOT
BRANCH   1   3
ATOM      3  C   UNL     1      -0.440   2.126  -2.669  1.00  0.00     0.057 C 
BRANCH   3   4
ATOM      4  C   UNL     1       0.961   2.383  -2.091  1.00  0.00     0.032 C 
BRANCH   4   5
ATOM      5  C   UNL     1       1.816   3.127  -3.088  1.00  0.00    -0.028 C 
ATOM      6  C   UNL     1       2.971   5.054  -4.082  1.00  0.00     0.039 C 
ATOM      7  C   UNL     1       2.141   4.434  -2.988  1.00  0.00    -0.080 C 
ATOM      8  C   UNL     1       1.716   5.278  -1.808  1.00  0.00     0.039 C 
ENDBRANCH   4   5
ENDBRANCH   3   4
ENDBRANCH   1   3
BRANCH   1   9
ATOM      9  C   UNL     1      -1.747   4.230  -2.845  1.00  0.00     0.013 C 
ATOM     10  C   UNL     1      -1.648   4.237  -4.180  1.00  0.00     0.008 C 
ENDBRANCH   1   9
BRANCH   1  11
ATOM     11  O   UNL     1      -2.842   2.250  -2.119  1.00  0.00    -0.455 OA
BRANCH  11  12
ATOM     12  C   UNL     1      -3.045   0.870  -2.270  1.00  0.00     0.303 C 
ATOM     13  O   UNL     1      -2.759   0.053  -1.355  1.00  0.00    -0.253 OA
ATOM     14  C   UNL     1      -3.570   0.355  -3.567  1.00  0.00     0.139 C 
ENDBRANCH  11  12
ENDBRANCH   1  11
TORSDOF 6
ENDMDL
MODEL 2
REMARK VINA RESULT:    -2.990      2.074      3.381
REMARK INTER + INTRA:          -5.191
REMARK INTER:                  -4.324
REMARK INTRA:                  -0.867
REMARK UNBOUND:                -1.152
REMARK SMILES C=C[C@](C)(CCC=C(C)C)OC(C)=O
REMARK SMILES IDX 3 1 4 2 5 3 6 4 7 5 9 6 8 7 10 8 2 9 1 10 11 11 12 12 14 13
REMARK SMILES IDX 13 14
REMARK H PARENT
REMARK Flexibility Score: inf
ROOT
ATOM      1  C   UNL     1      -3.139   2.851  -2.378  1.00  0.00     0.127 C 
ATOM      2  C   UNL     1      -2.606   3.253  -3.774  1.00  0.00     0.061 C 
ENDROOT
BRANCH   1   3
ATOM      3  C   UNL     1      -2.463   3.681  -1.246  1.00  0.00     0.057 C 
BRANCH   3   4
ATOM      4  C   UNL     1      -1.141   3.111  -0.708  1.00  0.00     0.032 C 
BRANCH   4   5
ATOM      5  C   UNL     1       0.033   3.869  -1.278  1.00  0.00    -0.028 C 
ATOM      6  C   UNL     1       2.079   4.213  -2.593  1.00  0.00     0.039 C 
ATOM      7  C   UNL     1       0.934   3.346  -2.138  1.00  0.00    -0.080 C 
ATOM      8  C   UNL     1       0.813   1.935  -2.664  1.00  0.00     0.039 C 
ENDBRANCH   4   5
ENDBRANCH   3   4
ENDBRANCH   1   3
BRANCH   1   9
ATOM      9  C   UNL     1      -2.771   1.391  -2.158  1.00  0.00     0.013 C 
ATOM     10  C   UNL     1      -3.515   0.389  -2.642  1.00  0.00     0.008 C 
ENDBRANCH   1   9
BRANCH   1  11
ATOM     11  O   UNL     1      -4.573   2.935  -2.287  1.00  0.00    -0.455 OA
BRANCH  11  12
ATOM     12  C   UNL     1      -5.363   4.088  -2.151  1.00  0.00     0.303 C 
ATOM     13  O   UNL     1      -5.768   4.485  -1.026  1.00  0.00    -0.253 OA
ATOM     14  C   UNL     1      -5.768   4.835  -3.375  1.00  0.00     0.139 C 
ENDBRANCH  11  12
ENDBRANCH   1  11
TORSDOF 6
ENDMDL
MODEL 3
REMARK VINA RESULT:    -2.988      1.288      1.431
REMARK INTER + INTRA:          -5.189
REMARK INTER:                  -4.060
REMARK INTRA:                  -1.129
REMARK UNBOUND:                -1.152
REMARK SMILES C=C[C@](C)(CCC=C(C)C)OC(C)=O
REMARK SMILES IDX 3 1 4 2 5 3 6 4 7 5 9 6 8 7 10 8 2 9 1 10 11 11 12 12 14 13
REMARK SMILES IDX 13 14
REMARK H PARENT
REMARK Flexibility Score: inf
ROOT
ATOM      1  C   UNL     1      -1.536   2.297  -3.283  1.00  0.00     0.127 C 
ATOM      2  C   UNL     1      -1.796   2.113  -1.769  1.00  0.00     0.061 C 
ENDROOT
BRANCH   1   3
ATOM      3  C   UNL     1      -0.050   2.006  -3.647  1.00  0.00     0.057 C 
BRANCH   3   4
ATOM      4  C   UNL     1       0.963   2.216  -2.510  1.00  0.00     0.032 C 
BRANCH   4   5
ATOM      5  C   UNL     1       1.812   3.435  -2.778  1.00  0.00    -0.028 C 
ATOM      6  C   UNL     1       2.563   5.763  -2.544  1.00  0.00     0.039 C 
ATOM      7  C   UNL     1       1.668   4.619  -2.143  1.00  0.00    -0.080 C 
ATOM      8  C   UNL     1       0.655   4.818  -1.039  1.00  0.00     0.039 C 
ENDBRANCH   4   5
ENDBRANCH   3   4
ENDBRANCH   1   3
BRANCH   1   9
ATOM      9  C   UNL     1      -1.812   3.756  -3.614  1.00  0.00     0.013 C 
ATOM     10  C   UNL     1      -1.316   4.343  -4.710  1.00  0.00     0.008 C 
ENDBRANCH   1   9
BRANCH   1  11
ATOM     11  O   UNL     1      -2.425   1.512  -4.098  1.00  0.00    -0.455 OA
BRANCH  11  12
ATOM     12  C   UNL     1      -3.578   0.818  -3.696  1.00  0.00     0.303 C 
ATOM     13  O   UNL     1      -3.529  -0.378  -3.305  1.00  0.00    -0.253 OA
ATOM     14  C   UNL     1      -4.899   1.504  -3.778  1.00  0.00     0.139 C 
ENDBRANCH  11  12
ENDBRANCH   1  11
TORSDOF 6
ENDMDL
MODEL 4
REMARK VINA RESULT:    -2.926      1.461      3.077
REMARK INTER + INTRA:          -5.104
REMARK INTER:                  -4.091
REMARK INTRA:                  -1.014
REMARK UNBOUND:                -1.152
REMARK SMILES C=C[C@](C)(CCC=C(C)C)OC(C)=O
REMARK SMILES IDX 3 1 4 2 5 3 6 4 7 5 9 6 8 7 10 8 2 9 1 10 11 11 12 12 14 13
REMARK SMILES IDX 13 14
REMARK H PARENT
REMARK Flexibility Score: inf
ROOT
ATOM      1  C   UNL     1      -2.307   2.062  -2.420  1.00  0.00     0.127 C 
ATOM      2  C   UNL     1      -1.919   2.201  -3.912  1.00  0.00     0.061 C 
ENDROOT
BRANCH   1   3
ATOM      3  C   UNL     1      -1.053   1.852  -1.520  1.00  0.00     0.057 C 
BRANCH   3   4
ATOM      4  C   UNL     1       0.302   2.012  -2.228  1.00  0.00     0.032 C 
BRANCH   4   5
ATOM      5  C   UNL     1       0.980   3.286  -1.787  1.00  0.00    -0.028 C 
ATOM      6  C   UNL     1       2.134   5.439  -2.048  1.00  0.00     0.039 C 
ATOM      7  C   UNL     1       1.442   4.235  -2.631  1.00  0.00    -0.080 C 
ATOM      8  C   UNL     1       1.264   4.131  -4.128  1.00  0.00     0.039 C 
ENDBRANCH   4   5
ENDBRANCH   3   4
ENDBRANCH   1   3
BRANCH   1   9
ATOM      9  C   UNL     1      -3.177   0.821  -2.293  1.00  0.00     0.013 C 
ATOM     10  C   UNL     1      -3.664   0.181  -3.363  1.00  0.00     0.008 C 
ENDBRANCH   1   9
BRANCH   1  11
ATOM     11  O   UNL     1      -3.095   3.170  -1.947  1.00  0.00    -0.455 OA
BRANCH  11  12
ATOM     12  C   UNL     1      -2.646   4.345  -1.324  1.00  0.00     0.303 C 
ATOM     13  O   UNL     1      -2.747   4.517  -0.080  1.00  0.00    -0.253 OA
ATOM     14  C   UNL     1      -2.077   5.436  -2.165  1.00  0.00     0.139 C 
ENDBRANCH  11  12
ENDBRANCH   1  11
TORSDOF 6
ENDMDL
MODEL 5
REMARK VINA RESULT:    -2.891      2.296      4.999
REMARK INTER + INTRA:          -5.057
REMARK INTER:                  -4.137
REMARK INTRA:                  -0.920
REMARK UNBOUND:                -1.152
REMARK SMILES C=C[C@](C)(CCC=C(C)C)OC(C)=O
REMARK SMILES IDX 3 1 4 2 5 3 6 4 7 5 9 6 8 7 10 8 2 9 1 10 11 11 12 12 14 13
REMARK SMILES IDX 13 14
REMARK H PARENT
REMARK Flexibility Score: inf
ROOT
ATOM      1  C   UNL     1      -1.928   2.737  -1.734  1.00  0.00     0.127 C 
ATOM      2  C   UNL     1      -3.213   3.579  -1.913  1.00  0.00     0.061 C 
ENDROOT
BRANCH   1   3
ATOM      3  C   UNL     1      -2.242   1.211  -1.716  1.00  0.00     0.057 C 
BRANCH   3   4
ATOM      4  C   UNL     1      -3.633   0.817  -2.237  1.00  0.00     0.032 C 
BRANCH   4   5
ATOM      5  C   UNL     1      -3.538   0.285  -3.646  1.00  0.00    -0.028 C 
ATOM      6  C   UNL     1      -4.088   0.096  -6.034  1.00  0.00     0.039 C 
ATOM      7  C   UNL     1      -4.261   0.752  -4.688  1.00  0.00    -0.080 C 
ATOM      8  C   UNL     1      -5.212   1.917  -4.545  1.00  0.00     0.039 C 
ENDBRANCH   4   5
ENDBRANCH   3   4
ENDBRANCH   1   3
BRANCH   1   9
ATOM      9  C   UNL     1      -1.335   3.099  -0.381  1.00  0.00     0.013 C 
ATOM     10  C   UNL     1      -0.571   4.184  -0.205  1.00  0.00     0.008 C 
ENDBRANCH   1   9
BRANCH   1  11
ATOM     11  O   UNL     1      -0.924   3.040  -2.720  1.00  0.00    -0.455 OA
BRANCH  11  12
ATOM     12  C   UNL     1       0.051   2.182  -3.252  1.00  0.00     0.303 C 
ATOM     13  O   UNL     1       1.074   1.852  -2.594  1.00  0.00    -0.253 OA
ATOM     14  C   UNL     1      -0.108   1.684  -4.648  1.00  0.00     0.139 C 
ENDBRANCH  11  12
ENDBRANCH   1  11
TORSDOF 6
ENDMDL
MODEL 6
REMARK VINA RESULT:    -2.846      2.283      5.342
REMARK INTER + INTRA:          -4.996
REMARK INTER:                  -3.882
REMARK INTRA:                  -1.114
REMARK UNBOUND:                -1.152
REMARK SMILES C=C[C@](C)(CCC=C(C)C)OC(C)=O
REMARK SMILES IDX 3 1 4 2 5 3 6 4 7 5 9 6 8 7 10 8 2 9 1 10 11 11 12 12 14 13
REMARK SMILES IDX 13 14
REMARK H PARENT
REMARK Flexibility Score: inf
ROOT
ATOM      1  C   UNL     1      -2.489   2.536  -2.149  1.00  0.00     0.127 C 
ATOM      2  C   UNL     1      -2.180   1.120  -1.605  1.00  0.00     0.061 C 
ENDROOT
BRANCH   1   3
ATOM      3  C   UNL     1      -4.010   2.723  -2.424  1.00  0.00     0.057 C 
BRANCH   3   4
ATOM      4  C   UNL     1      -4.773   1.448  -2.816  1.00  0.00     0.032 C 
BRANCH   4   5
ATOM      5  C   UNL     1      -5.076   1.447  -4.295  1.00  0.00    -0.028 C 
ATOM      6  C   UNL     1      -4.861   0.768  -6.646  1.00  0.00     0.039 C 
ATOM      7  C   UNL     1      -4.487   0.628  -5.193  1.00  0.00    -0.080 C 
ATOM      8  C   UNL     1      -3.487  -0.427  -4.781  1.00  0.00     0.039 C 
ENDBRANCH   4   5
ENDBRANCH   3   4
ENDBRANCH   1   3
BRANCH   1   9
ATOM      9  C   UNL     1      -1.761   2.678  -3.477  1.00  0.00     0.013 C 
ATOM     10  C   UNL     1      -1.960   3.723  -4.290  1.00  0.00     0.008 C 
ENDBRANCH   1   9
BRANCH   1  11
ATOM     11  O   UNL     1      -1.992   3.579  -1.291  1.00  0.00    -0.455 OA
BRANCH  11  12
ATOM     12  C   UNL     1      -1.012   3.480  -0.290  1.00  0.00     0.303 C 
ATOM     13  O   UNL     1      -1.315   3.290   0.918  1.00  0.00    -0.253 OA
ATOM     14  C   UNL     1       0.421   3.650  -0.663  1.00  0.00     0.139 C 
ENDBRANCH  11  12
ENDBRANCH   1  11
TORSDOF 6
ENDMDL
MODEL 7
REMARK VINA RESULT:    -2.833      1.973      5.099
REMARK INTER + INTRA:          -4.979
REMARK INTER:                  -4.116
REMARK INTRA:                  -0.863
REMARK UNBOUND:                -1.152
REMARK SMILES C=C[C@](C)(CCC=C(C)C)OC(C)=O
REMARK SMILES IDX 3 1 4 2 5 3 6 4 7 5 9 6 8 7 10 8 2 9 1 10 11 11 12 12 14 13
REMARK SMILES IDX 13 14
REMARK H PARENT
REMARK Flexibility Score: inf
ROOT
ATOM      1  C   UNL     1      -1.167   2.122  -2.400  1.00  0.00     0.127 C 
ATOM      2  C   UNL     1      -1.831   1.118  -1.427  1.00  0.00     0.061 C 
ENDROOT
BRANCH   1   3
ATOM      3  C   UNL     1      -1.510   1.793  -3.883  1.00  0.00     0.057 C 
BRANCH   3   4
ATOM      4  C   UNL     1      -2.820   1.019  -4.103  1.00  0.00     0.032 C 
BRANCH   4   5
ATOM      5  C   UNL     1      -3.917   1.955  -4.549  1.00  0.00    -0.028 C 
ATOM      6  C   UNL     1      -6.095   3.089  -4.464  1.00  0.00     0.039 C 
ATOM      7  C   UNL     1      -5.072   2.152  -3.876  1.00  0.00    -0.080 C 
ATOM      8  C   UNL     1      -5.351   1.481  -2.551  1.00  0.00     0.039 C 
ENDBRANCH   4   5
ENDBRANCH   3   4
ENDBRANCH   1   3
BRANCH   1   9
ATOM      9  C   UNL     1       0.339   1.982  -2.235  1.00  0.00     0.013 C 
ATOM     10  C   UNL     1       1.190   2.937  -2.630  1.00  0.00     0.008 C 
ENDBRANCH   1   9
BRANCH   1  11
ATOM     11  O   UNL     1      -1.493   3.490  -2.091  1.00  0.00    -0.455 OA
BRANCH  11  12
ATOM     12  C   UNL     1      -2.296   3.971  -1.045  1.00  0.00     0.303 C 
ATOM     13  O   UNL     1      -3.531   4.169  -1.196  1.00  0.00    -0.253 OA
ATOM     14  C   UNL     1      -1.661   4.298   0.262  1.00  0.00     0.139 C 
ENDBRANCH  11  12
ENDBRANCH   1  11
TORSDOF 6
ENDMDL
MODEL 8
REMARK VINA RESULT:    -2.717      1.472      2.617
REMARK INTER + INTRA:          -4.823
REMARK INTER:                  -3.737
REMARK INTRA:                  -1.086
REMARK UNBOUND:                -1.152
REMARK SMILES C=C[C@](C)(CCC=C(C)C)OC(C)=O
REMARK SMILES IDX 3 1 4 2 5 3 6 4 7 5 9 6 8 7 10 8 2 9 1 10 11 11 12 12 14 13
REMARK SMILES IDX 13 14
REMARK H PARENT
REMARK Flexibility Score: inf
ROOT
ATOM      1  C   UNL     1      -1.673   2.246  -2.235  1.00  0.00     0.127 C 
ATOM      2  C   UNL     1      -1.740   2.638  -3.730  1.00  0.00     0.061 C 
ENDROOT
BRANCH   1   3
ATOM      3  C   UNL     1      -2.007   3.455  -1.312  1.00  0.00     0.057 C 
BRANCH   3   4
ATOM      4  C   UNL     1      -1.791   4.843  -1.936  1.00  0.00     0.032 C 
BRANCH   4   5
ATOM      5  C   UNL     1      -0.491   5.442  -1.455  1.00  0.00    -0.028 C 
ATOM      6  C   UNL     1       1.791   6.334  -1.636  1.00  0.00     0.039 C 
ATOM      7  C   UNL     1       0.537   5.782  -2.263  1.00  0.00    -0.080 C 
ATOM      8  C   UNL     1       0.454   5.644  -3.766  1.00  0.00     0.039 C 
ENDBRANCH   4   5
ENDBRANCH   3   4
ENDBRANCH   1   3
BRANCH   1   9
ATOM      9  C   UNL     1      -0.240   1.828  -1.942  1.00  0.00     0.013 C 
ATOM     10  C   UNL     1       0.762   2.075  -2.794  1.00  0.00     0.008 C 
ENDBRANCH   1   9
BRANCH   1  11
ATOM     11  O   UNL     1      -2.507   1.116  -1.919  1.00  0.00    -0.455 OA
BRANCH  11  12
ATOM     12  C   UNL     1      -3.608   0.628  -2.641  1.00  0.00     0.303 C 
ATOM     13  O   UNL     1      -3.508  -0.362  -3.413  1.00  0.00    -0.253 OA
ATOM     14  C   UNL     1      -4.917   1.331  -2.524  1.00  0.00     0.139 C 
ENDBRANCH  11  12
ENDBRANCH   1  11
TORSDOF 6
ENDMDL
MODEL 9
REMARK VINA RESULT:    -2.681      2.566      4.899
REMARK INTER + INTRA:          -4.773
REMARK INTER:                  -3.721
REMARK INTRA:                  -1.052
REMARK UNBOUND:                -1.152
REMARK SMILES C=C[C@](C)(CCC=C(C)C)OC(C)=O
REMARK SMILES IDX 3 1 4 2 5 3 6 4 7 5 9 6 8 7 10 8 2 9 1 10 11 11 12 12 14 13
REMARK SMILES IDX 13 14
REMARK H PARENT
REMARK Flexibility Score: inf
ROOT
ATOM      1  C   UNL     1      -0.728   3.753  -0.498  1.00  0.00     0.127 C 
ATOM      2  C   UNL     1       0.582   3.531  -1.293  1.00  0.00     0.061 C 
ENDROOT
BRANCH   1   3
ATOM      3  C   UNL     1      -1.616   2.474  -0.493  1.00  0.00     0.057 C 
BRANCH   3   4
ATOM      4  C   UNL     1      -1.394   1.509  -1.670  1.00  0.00     0.032 C 
BRANCH   4   5
ATOM      5  C   UNL     1      -2.712   1.136  -2.304  1.00  0.00    -0.028 C 
ATOM      6  C   UNL     1      -4.526   1.212  -3.958  1.00  0.00     0.039 C 
ATOM      7  C   UNL     1      -3.171   1.650  -3.465  1.00  0.00    -0.080 C 
ATOM      8  C   UNL     1      -2.361   2.627  -4.286  1.00  0.00     0.039 C 
ENDBRANCH   4   5
ENDBRANCH   3   4
ENDBRANCH   1   3
BRANCH   1   9
ATOM      9  C   UNL     1      -1.507   4.850  -1.208  1.00  0.00     0.013 C 
ATOM     10  C   UNL     1      -2.843   4.846  -1.273  1.00  0.00     0.008 C 
ENDBRANCH   1   9
BRANCH   1  11
ATOM     11  O   UNL     1      -0.490   4.215   0.844  1.00  0.00    -0.455 OA
BRANCH  11  12
ATOM     12  C   UNL     1      -1.224   3.917   2.003  1.00  0.00     0.303 C 
ATOM     13  O   UNL     1      -2.361   4.416   2.213  1.00  0.00    -0.253 OA
ATOM     14  C   UNL     1      -0.621   3.022   3.030  1.00  0.00     0.139 C 
ENDBRANCH  11  12
ENDBRANCH   1  11
TORSDOF 6
ENDMDL
