MODEL 1
REMARK VINA RESULT:    29.800      0.000      0.000
REMARK INTER + INTRA:          33.206
REMARK INTER:                  32.413
REMARK INTRA:                   0.793
REMARK UNBOUND:                 0.793
REMARK SMILES CC1(C)CC[C@@]2(C(=O)[O-])CC[C@]3(C)C(=CC[C@H]4[C@]5(C)CC[C@@H](O)C(C)(C)[C@H]5CC[C@@]43C)[C@H]2C1
REMARK SMILES IDX 6 1 5 2 10 3 32 4 4 5 11 6 14 7 33 8 2 9 12 10 15 11 1 12
REMARK SMILES IDX 3 13 13 14 30 15 16 16 17 17 29 18 31 19 18 20 28 21 27 22
REMARK SMILES IDX 20 23 19 24 24 25 21 26 22 27 25 28 26 29 7 30 8 31 9 32
REMARK SMILES IDX 23 33
REMARK H PARENT 23 34
REMARK Flexibility Score: inf
ROOT
ATOM      1  C   UNL     1       6.563  -6.174 -13.219  1.00  0.00     0.017 C 
ATOM      2  C   UNL     1       5.407  -7.187 -13.584  1.00  0.00     0.014 C 
ATOM      3  C   UNL     1       7.664  -6.237 -14.348  1.00  0.00     0.014 C 
ATOM      4  C   UNL     1       5.981  -4.718 -13.053  1.00  0.00     0.028 C 
ATOM      5  C   UNL     1       4.050  -6.747 -13.022  1.00  0.00     0.007 C 
ATOM      6  C   UNL     1       8.219  -4.885 -14.864  1.00  0.00     0.013 C 
ATOM      7  C   UNL     1       7.000  -3.571 -13.171  1.00  0.00    -0.064 C 
ATOM      8  C   UNL     1       4.795  -4.511 -14.046  1.00  0.00     0.015 C 
ATOM      9  C   UNL     1       3.573  -5.421 -13.692  1.00  0.00    -0.035 C 
ATOM     10  C   UNL     1       8.411  -3.772 -13.788  1.00  0.00    -0.006 C 
ATOM     11  C   UNL     1       6.510  -2.339 -12.892  1.00  0.00    -0.027 C 
ATOM     12  C   UNL     1       2.628  -4.679 -12.722  1.00  0.00     0.011 C 
ATOM     13  C   UNL     1       2.783  -5.739 -14.982  1.00  0.00     0.011 C 
ATOM     14  C   UNL     1       9.381  -4.342 -12.705  1.00  0.00     0.017 C 
ATOM     15  C   UNL     1       9.026  -2.379 -14.410  1.00  0.00    -0.020 C 
ATOM     16  C   UNL     1       7.019  -1.089 -13.526  1.00  0.00     0.032 C 
ATOM     17  C   UNL     1       7.840  -1.413 -14.800  1.00  0.00     0.006 C 
ATOM     18  C   UNL     1       9.902  -2.647 -15.681  1.00  0.00     0.008 C 
ATOM     19  C   UNL     1       9.962  -1.675 -13.361  1.00  0.00     0.012 C 
ATOM     20  C   UNL     1       8.169  -0.140 -15.722  1.00  0.00    -0.025 C 
ATOM     21  C   UNL     1      10.302  -1.386 -16.452  1.00  0.00     0.005 C 
ATOM     22  C   UNL     1       9.030  -0.646 -16.939  1.00  0.00     0.003 C 
ATOM     23  C   UNL     1       6.827   0.418 -16.305  1.00  0.00     0.010 C 
ATOM     24  C   UNL     1       8.862   1.013 -14.916  1.00  0.00     0.012 C 
ATOM     25  C   UNL     1       9.256   0.378 -18.124  1.00  0.00    -0.006 C 
ATOM     26  C   UNL     1       7.005   1.451 -17.433  1.00  0.00     0.033 C 
ATOM     27  C   UNL     1       7.865   0.919 -18.590  1.00  0.00     0.120 C 
ATOM     28  C   UNL     1       9.889  -0.354 -19.343  1.00  0.00     0.014 C 
ATOM     29  C   UNL     1      10.212   1.542 -17.756  1.00  0.00     0.014 C 
ENDROOT
BRANCH   1  30
ATOM     30  C   UNL     1       7.149  -6.662 -11.892  1.00  0.00     0.048 C 
ATOM     31  O   UNL     1       8.371  -6.481 -11.635  1.00  0.00    -0.550 OA
ATOM     32  O   UNL     1       6.364  -7.305 -10.939  1.00  0.00    -0.550 OA
ENDBRANCH   1  30
BRANCH  27  33
ATOM     33  O   UNL     1       8.035   1.933 -19.548  1.00  0.00    -0.393 OA
ATOM     34  H   UNL     1       8.507   1.525 -20.324  1.00  0.00     0.210 HD
ENDBRANCH  27  33
TORSDOF 2
ENDMDL
