MODEL 1
REMARK VINA RESULT:    -4.353      0.000      0.000
REMARK INTER + INTRA:          -6.719
REMARK INTER:                  -6.389
REMARK INTRA:                  -0.330
REMARK UNBOUND:                -0.330
REMARK SMILES O=C([O-])CCCCCCCC(=O)[O-]
REMARK SMILES IDX 7 1 6 2 5 3 4 4 2 5 1 6 3 7 8 8 9 9 10 10 11 11 12 12 13 13
REMARK H PARENT
REMARK Flexibility Score: inf
ROOT
ATOM      1  C   UNL     1       7.285  -2.598 -34.027  1.00  0.00     0.000 C 
ENDROOT
BRANCH   1   2
ATOM      2  C   UNL     1       8.371  -2.530 -35.116  1.00  0.00     0.000 C 
BRANCH   2   3
ATOM      3  C   UNL     1       9.638  -1.795 -34.650  1.00  0.00     0.006 C 
BRANCH   3   4
ATOM      4  C   UNL     1      10.626  -1.557 -35.800  1.00  0.00     0.053 C 
BRANCH   4   5
ATOM      5  C   UNL     1      12.033  -1.872 -35.396  1.00  0.00     0.041 C 
ATOM      6  O   UNL     1      12.416  -1.666 -34.214  1.00  0.00    -0.550 OA
ATOM      7  O   UNL     1      12.933  -2.360 -36.335  1.00  0.00    -0.550 OA
ENDBRANCH   4   5
ENDBRANCH   3   4
ENDBRANCH   2   3
ENDBRANCH   1   2
BRANCH   1   8
ATOM      8  C   UNL     1       6.067  -3.457 -34.423  1.00  0.00     0.000 C 
BRANCH   8   9
ATOM      9  C   UNL     1       6.453  -4.916 -34.712  1.00  0.00     0.006 C 
BRANCH   9  10
ATOM     10  C   UNL     1       6.233  -5.798 -33.479  1.00  0.00     0.053 C 
BRANCH  10  11
ATOM     11  C   UNL     1       7.455  -5.807 -32.617  1.00  0.00     0.041 C 
ATOM     12  O   UNL     1       8.600  -5.843 -33.139  1.00  0.00    -0.550 OA
ATOM     13  O   UNL     1       7.331  -5.726 -31.235  1.00  0.00    -0.550 OA
ENDBRANCH  10  11
ENDBRANCH   9  10
ENDBRANCH   8   9
ENDBRANCH   1   8
TORSDOF 8
ENDMDL
MODEL 2
REMARK VINA RESULT:    -4.241     12.720     13.916
REMARK INTER + INTRA:          -6.555
REMARK INTER:                  -6.188
REMARK INTRA:                  -0.366
REMARK UNBOUND:                -0.330
REMARK SMILES O=C([O-])CCCCCCCC(=O)[O-]
REMARK SMILES IDX 7 1 6 2 5 3 4 4 2 5 1 6 3 7 8 8 9 9 10 10 11 11 12 12 13 13
REMARK H PARENT
REMARK Flexibility Score: inf
ROOT
ATOM      1  C   UNL     1      13.733  -2.179 -20.955  1.00  0.00     0.000 C 
ENDROOT
BRANCH   1   2
ATOM      2  C   UNL     1      14.638  -3.321 -21.450  1.00  0.00     0.000 C 
BRANCH   2   3
ATOM      3  C   UNL     1      14.210  -3.872 -22.819  1.00  0.00     0.006 C 
BRANCH   3   4
ATOM      4  C   UNL     1      14.134  -5.405 -22.830  1.00  0.00     0.053 C 
BRANCH   4   5
ATOM      5  C   UNL     1      15.332  -6.014 -23.489  1.00  0.00     0.041 C 
ATOM      6  O   UNL     1      15.247  -6.478 -24.657  1.00  0.00    -0.550 OA
ATOM      7  O   UNL     1      16.535  -6.103 -22.800  1.00  0.00    -0.550 OA
ENDBRANCH   4   5
ENDBRANCH   3   4
ENDBRANCH   2   3
ENDBRANCH   1   2
BRANCH   1   8
ATOM      8  C   UNL     1      13.236  -2.368 -19.507  1.00  0.00     0.000 C 
BRANCH   8   9
ATOM      9  C   UNL     1      11.747  -2.023 -19.354  1.00  0.00     0.006 C 
BRANCH   9  10
ATOM     10  C   UNL     1      11.047  -1.986 -20.715  1.00  0.00     0.053 C 
BRANCH  10  11
ATOM     11  C   UNL     1       9.572  -2.168 -20.552  1.00  0.00     0.041 C 
ATOM     12  O   UNL     1       8.787  -1.863 -21.489  1.00  0.00    -0.550 OA
ATOM     13  O   UNL     1       9.065  -2.720 -19.382  1.00  0.00    -0.550 OA
ENDBRANCH  10  11
ENDBRANCH   9  10
ENDBRANCH   8   9
ENDBRANCH   1   8
TORSDOF 8
ENDMDL
MODEL 3
REMARK VINA RESULT:    -4.228      4.292      6.084
REMARK INTER + INTRA:          -6.535
REMARK INTER:                  -6.051
REMARK INTRA:                  -0.485
REMARK UNBOUND:                -0.330
REMARK SMILES O=C([O-])CCCCCCCC(=O)[O-]
REMARK SMILES IDX 7 1 6 2 5 3 4 4 2 5 1 6 3 7 8 8 9 9 10 10 11 11 12 12 13 13
REMARK H PARENT
REMARK Flexibility Score: inf
ROOT
ATOM      1  C   UNL     1       8.101  -3.541 -33.975  1.00  0.00     0.000 C 
ENDROOT
BRANCH   1   2
ATOM      2  C   UNL     1       7.918  -5.067 -34.065  1.00  0.00     0.000 C 
BRANCH   2   3
ATOM      3  C   UNL     1       8.340  -5.795 -32.778  1.00  0.00     0.006 C 
BRANCH   3   4
ATOM      4  C   UNL     1       7.284  -5.675 -31.671  1.00  0.00     0.053 C 
BRANCH   4   5
ATOM      5  C   UNL     1       6.309  -6.812 -31.711  1.00  0.00     0.041 C 
ATOM      6  O   UNL     1       6.487  -7.826 -30.986  1.00  0.00    -0.550 OA
ATOM      7  O   UNL     1       5.224  -6.766 -32.577  1.00  0.00    -0.550 OA
ENDBRANCH   4   5
ENDBRANCH   3   4
ENDBRANCH   2   3
ENDBRANCH   1   2
BRANCH   1   8
ATOM      8  C   UNL     1       6.791  -2.750 -34.165  1.00  0.00     0.000 C 
BRANCH   8   9
ATOM      9  C   UNL     1       5.687  -3.600 -34.812  1.00  0.00     0.006 C 
BRANCH   9  10
ATOM     10  C   UNL     1       5.413  -3.145 -36.248  1.00  0.00     0.053 C 
BRANCH  10  11
ATOM     11  C   UNL     1       3.941  -3.037 -36.492  1.00  0.00     0.041 C 
ATOM     12  O   UNL     1       3.368  -1.918 -36.427  1.00  0.00    -0.550 OA
ATOM     13  O   UNL     1       3.209  -4.166 -36.840  1.00  0.00    -0.550 OA
ENDBRANCH  10  11
ENDBRANCH   9  10
ENDBRANCH   8   9
ENDBRANCH   1   8
TORSDOF 8
ENDMDL
MODEL 4
REMARK VINA RESULT:    -4.195      0.406      5.637
REMARK INTER + INTRA:          -6.486
REMARK INTER:                  -6.063
REMARK INTRA:                  -0.424
REMARK UNBOUND:                -0.330
REMARK SMILES O=C([O-])CCCCCCCC(=O)[O-]
REMARK SMILES IDX 7 1 6 2 5 3 4 4 2 5 1 6 3 7 8 8 9 9 10 10 11 11 12 12 13 13
REMARK H PARENT
REMARK Flexibility Score: inf
ROOT
ATOM      1  C   UNL     1       7.001  -2.441 -35.207  1.00  0.00     0.000 C 
ENDROOT
BRANCH   1   2
ATOM      2  C   UNL     1       6.116  -3.359 -34.346  1.00  0.00     0.000 C 
BRANCH   2   3
ATOM      3  C   UNL     1       6.313  -4.850 -34.666  1.00  0.00     0.006 C 
BRANCH   3   4
ATOM      4  C   UNL     1       6.194  -5.731 -33.415  1.00  0.00     0.053 C 
BRANCH   4   5
ATOM      5  C   UNL     1       7.459  -5.728 -32.614  1.00  0.00     0.041 C 
ATOM      6  O   UNL     1       7.416  -5.630 -31.359  1.00  0.00    -0.550 OA
ATOM      7  O   UNL     1       8.689  -5.797 -33.256  1.00  0.00    -0.550 OA
ENDBRANCH   4   5
ENDBRANCH   3   4
ENDBRANCH   2   3
ENDBRANCH   1   2
BRANCH   1   8
ATOM      8  C   UNL     1       8.440  -2.968 -35.392  1.00  0.00     0.000 C 
BRANCH   8   9
ATOM      9  C   UNL     1       9.491  -1.988 -34.850  1.00  0.00     0.006 C 
BRANCH   9  10
ATOM     10  C   UNL     1      10.518  -1.632 -35.929  1.00  0.00     0.053 C 
BRANCH  10  11
ATOM     11  C   UNL     1      11.909  -1.810 -35.408  1.00  0.00     0.041 C 
ATOM     12  O   UNL     1      12.151  -1.663 -34.181  1.00  0.00    -0.550 OA
ATOM     13  O   UNL     1      12.931  -2.187 -36.271  1.00  0.00    -0.550 OA
ENDBRANCH  10  11
ENDBRANCH   9  10
ENDBRANCH   8   9
ENDBRANCH   1   8
TORSDOF 8
ENDMDL
MODEL 5
REMARK VINA RESULT:    -4.181      3.225      4.412
REMARK INTER + INTRA:          -6.466
REMARK INTER:                  -5.583
REMARK INTRA:                  -0.883
REMARK UNBOUND:                -0.330
REMARK SMILES O=C([O-])CCCCCCCC(=O)[O-]
REMARK SMILES IDX 7 1 6 2 5 3 4 4 2 5 1 6 3 7 8 8 9 9 10 10 11 11 12 12 13 13
REMARK H PARENT
REMARK Flexibility Score: inf
ROOT
ATOM      1  C   UNL     1       6.535  -6.785 -31.611  1.00  0.00     0.000 C 
ENDROOT
BRANCH   1   2
ATOM      2  C   UNL     1       7.715  -5.915 -32.078  1.00  0.00     0.000 C 
BRANCH   2   3
ATOM      3  C   UNL     1       7.299  -4.473 -32.409  1.00  0.00     0.006 C 
BRANCH   3   4
ATOM      4  C   UNL     1       8.042  -3.921 -33.633  1.00  0.00     0.053 C 
BRANCH   4   5
ATOM      5  C   UNL     1       7.164  -3.032 -34.459  1.00  0.00     0.041 C 
ATOM      6  O   UNL     1       5.920  -3.013 -34.268  1.00  0.00    -0.550 OA
ATOM      7  O   UNL     1       7.717  -2.251 -35.466  1.00  0.00    -0.550 OA
ENDBRANCH   4   5
ENDBRANCH   3   4
ENDBRANCH   2   3
ENDBRANCH   1   2
BRANCH   1   8
ATOM      8  C   UNL     1       5.362  -6.824 -32.612  1.00  0.00     0.000 C 
BRANCH   8   9
ATOM      9  C   UNL     1       5.758  -7.478 -33.945  1.00  0.00     0.006 C 
BRANCH   9  10
ATOM     10  C   UNL     1       5.573  -6.504 -35.112  1.00  0.00     0.053 C 
BRANCH  10  11
ATOM     11  C   UNL     1       6.836  -6.389 -35.904  1.00  0.00     0.041 C 
ATOM     12  O   UNL     1       6.887  -5.634 -36.911  1.00  0.00    -0.550 OA
ATOM     13  O   UNL     1       7.974  -7.078 -35.502  1.00  0.00    -0.550 OA
ENDBRANCH  10  11
ENDBRANCH   9  10
ENDBRANCH   8   9
ENDBRANCH   1   8
TORSDOF 8
ENDMDL
MODEL 6
REMARK VINA RESULT:    -4.121     12.900     14.443
REMARK INTER + INTRA:          -6.378
REMARK INTER:                  -6.003
REMARK INTRA:                  -0.375
REMARK UNBOUND:                -0.330
REMARK SMILES O=C([O-])CCCCCCCC(=O)[O-]
REMARK SMILES IDX 7 1 6 2 5 3 4 4 2 5 1 6 3 7 8 8 9 9 10 10 11 11 12 12 13 13
REMARK H PARENT
REMARK Flexibility Score: inf
ROOT
ATOM      1  C   UNL     1      14.243  -2.275 -19.477  1.00  0.00     0.000 C 
ENDROOT
BRANCH   1   2
ATOM      2  C   UNL     1      12.741  -2.218 -19.146  1.00  0.00     0.000 C 
BRANCH   2   3
ATOM      3  C   UNL     1      11.866  -1.979 -20.387  1.00  0.00     0.006 C 
BRANCH   3   4
ATOM      4  C   UNL     1      10.508  -1.360 -20.028  1.00  0.00     0.053 C 
BRANCH   4   5
ATOM      5  C   UNL     1       9.690  -1.073 -21.249  1.00  0.00     0.041 C 
ATOM      6  O   UNL     1       8.755  -1.848 -21.583  1.00  0.00    -0.550 OA
ATOM      7  O   UNL     1       9.984   0.031 -22.039  1.00  0.00    -0.550 OA
ENDBRANCH   4   5
ENDBRANCH   3   4
ENDBRANCH   2   3
ENDBRANCH   1   2
BRANCH   1   8
ATOM      8  C   UNL     1      14.537  -2.486 -20.976  1.00  0.00     0.000 C 
BRANCH   8   9
ATOM      9  C   UNL     1      15.081  -3.892 -21.270  1.00  0.00     0.006 C 
BRANCH   9  10
ATOM     10  C   UNL     1      14.302  -4.557 -22.408  1.00  0.00     0.053 C 
BRANCH  10  11
ATOM     11  C   UNL     1      15.147  -5.584 -23.092  1.00  0.00     0.041 C 
ATOM     12  O   UNL     1      16.177  -6.037 -22.527  1.00  0.00    -0.550 OA
ATOM     13  O   UNL     1      14.770  -6.079 -24.335  1.00  0.00    -0.550 OA
ENDBRANCH  10  11
ENDBRANCH   9  10
ENDBRANCH   8   9
ENDBRANCH   1   8
TORSDOF 8
ENDMDL
MODEL 7
REMARK VINA RESULT:    -4.121     13.428     14.813
REMARK INTER + INTRA:          -6.378
REMARK INTER:                  -5.737
REMARK INTRA:                  -0.640
REMARK UNBOUND:                -0.330
REMARK SMILES O=C([O-])CCCCCCCC(=O)[O-]
REMARK SMILES IDX 7 1 6 2 5 3 4 4 2 5 1 6 3 7 8 8 9 9 10 10 11 11 12 12 13 13
REMARK H PARENT
REMARK Flexibility Score: inf
ROOT
ATOM      1  C   UNL     1      14.540  -2.016 -19.090  1.00  0.00     0.000 C 
ENDROOT
BRANCH   1   2
ATOM      2  C   UNL     1      15.558  -2.816 -19.922  1.00  0.00     0.000 C 
BRANCH   2   3
ATOM      3  C   UNL     1      15.286  -4.329 -19.904  1.00  0.00     0.006 C 
BRANCH   3   4
ATOM      4  C   UNL     1      15.243  -4.927 -21.316  1.00  0.00     0.053 C 
BRANCH   4   5
ATOM      5  C   UNL     1      13.978  -4.567 -22.032  1.00  0.00     0.041 C 
ATOM      6  O   UNL     1      12.947  -5.278 -21.897  1.00  0.00    -0.550 OA
ATOM      7  O   UNL     1      13.947  -3.467 -22.879  1.00  0.00    -0.550 OA
ENDBRANCH   4   5
ENDBRANCH   3   4
ENDBRANCH   2   3
ENDBRANCH   1   2
BRANCH   1   8
ATOM      8  C   UNL     1      13.284  -2.825 -18.707  1.00  0.00     0.000 C 
BRANCH   8   9
ATOM      9  C   UNL     1      11.986  -2.059 -19.005  1.00  0.00     0.006 C 
BRANCH   9  10
ATOM     10  C   UNL     1      11.743  -1.956 -20.514  1.00  0.00     0.053 C 
BRANCH  10  11
ATOM     11  C   UNL     1      10.277  -1.926 -20.807  1.00  0.00     0.041 C 
ATOM     12  O   UNL     1       9.481  -2.637 -20.139  1.00  0.00    -0.550 OA
ATOM     13  O   UNL     1       9.781  -1.074 -21.787  1.00  0.00    -0.550 OA
ENDBRANCH  10  11
ENDBRANCH   9  10
ENDBRANCH   8   9
ENDBRANCH   1   8
TORSDOF 8
ENDMDL
MODEL 8
REMARK VINA RESULT:    -4.099     13.271     14.613
REMARK INTER + INTRA:          -6.347
REMARK INTER:                  -5.737
REMARK INTRA:                  -0.609
REMARK UNBOUND:                -0.330
REMARK SMILES O=C([O-])CCCCCCCC(=O)[O-]
REMARK SMILES IDX 7 1 6 2 5 3 4 4 2 5 1 6 3 7 8 8 9 9 10 10 11 11 12 12 13 13
REMARK H PARENT
REMARK Flexibility Score: inf
ROOT
ATOM      1  C   UNL     1      15.148  -4.232 -19.722  1.00  0.00     0.000 C 
ENDROOT
BRANCH   1   2
ATOM      2  C   UNL     1      16.259  -5.226 -20.106  1.00  0.00     0.000 C 
BRANCH   2   3
ATOM      3  C   UNL     1      15.790  -6.282 -21.120  1.00  0.00     0.006 C 
BRANCH   3   4
ATOM      4  C   UNL     1      16.435  -6.089 -22.499  1.00  0.00     0.053 C 
BRANCH   4   5
ATOM      5  C   UNL     1      15.437  -6.243 -23.604  1.00  0.00     0.041 C 
ATOM      6  O   UNL     1      14.630  -5.313 -23.866  1.00  0.00    -0.550 OA
ATOM      7  O   UNL     1      15.373  -7.431 -24.322  1.00  0.00    -0.550 OA
ENDBRANCH   4   5
ENDBRANCH   3   4
ENDBRANCH   2   3
ENDBRANCH   1   2
BRANCH   1   8
ATOM      8  C   UNL     1      15.410  -2.794 -20.214  1.00  0.00     0.000 C 
BRANCH   8   9
ATOM      9  C   UNL     1      14.459  -2.386 -21.349  1.00  0.00     0.006 C 
BRANCH   9  10
ATOM     10  C   UNL     1      13.121  -3.121 -21.237  1.00  0.00     0.053 C 
BRANCH  10  11
ATOM     11  C   UNL     1      12.099  -2.253 -20.575  1.00  0.00     0.041 C 
ATOM     12  O   UNL     1      11.131  -1.794 -21.237  1.00  0.00    -0.550 OA
ATOM     13  O   UNL     1      12.187  -1.990 -19.213  1.00  0.00    -0.550 OA
ENDBRANCH  10  11
ENDBRANCH   9  10
ENDBRANCH   8   9
ENDBRANCH   1   8
TORSDOF 8
ENDMDL
MODEL 9
REMARK VINA RESULT:    -4.054      2.910      5.811
REMARK INTER + INTRA:          -6.280
REMARK INTER:                  -5.510
REMARK INTRA:                  -0.769
REMARK UNBOUND:                -0.330
REMARK SMILES O=C([O-])CCCCCCCC(=O)[O-]
REMARK SMILES IDX 7 1 6 2 5 3 4 4 2 5 1 6 3 7 8 8 9 9 10 10 11 11 12 12 13 13
REMARK H PARENT
REMARK Flexibility Score: inf
ROOT
ATOM      1  C   UNL     1       6.506  -6.923 -31.528  1.00  0.00     0.000 C 
ENDROOT
BRANCH   1   2
ATOM      2  C   UNL     1       5.334  -6.784 -32.514  1.00  0.00     0.000 C 
BRANCH   2   3
ATOM      3  C   UNL     1       5.263  -7.939 -33.525  1.00  0.00     0.006 C 
BRANCH   3   4
ATOM      4  C   UNL     1       4.991  -7.446 -34.953  1.00  0.00     0.053 C 
BRANCH   4   5
ATOM      5  C   UNL     1       6.179  -6.739 -35.530  1.00  0.00     0.041 C 
ATOM      6  O   UNL     1       7.328  -7.245 -35.434  1.00  0.00    -0.550 OA
ATOM      7  O   UNL     1       6.022  -5.502 -36.142  1.00  0.00    -0.550 OA
ENDBRANCH   4   5
ENDBRANCH   3   4
ENDBRANCH   2   3
ENDBRANCH   1   2
BRANCH   1   8
ATOM      8  C   UNL     1       7.612  -5.867 -31.730  1.00  0.00     0.000 C 
BRANCH   8   9
ATOM      9  C   UNL     1       7.130  -4.674 -32.570  1.00  0.00     0.006 C 
BRANCH   9  10
ATOM     10  C   UNL     1       8.174  -4.282 -33.620  1.00  0.00     0.053 C 
BRANCH  10  11
ATOM     11  C   UNL     1       7.894  -2.912 -34.151  1.00  0.00     0.041 C 
ATOM     12  O   UNL     1       6.707  -2.525 -34.314  1.00  0.00    -0.550 OA
ATOM     13  O   UNL     1       8.945  -2.044 -34.420  1.00  0.00    -0.550 OA
ENDBRANCH  10  11
ENDBRANCH   9  10
ENDBRANCH   8   9
ENDBRANCH   1   8
TORSDOF 8
ENDMDL
