MODEL 1
REMARK VINA RESULT:    -4.405      0.000      0.000
REMARK INTER + INTRA:         -13.816
REMARK INTER:                 -10.071
REMARK INTRA:                  -3.745
REMARK UNBOUND:                -3.745
REMARK SMILES CCCCCCCCCCCCCCCCCCCCCCCC(=O)[O-]
REMARK SMILES IDX 13 1 14 2 15 3 16 4 17 5 18 6 19 7 20 8 21 9 22 10 23 11
REMARK SMILES IDX 24 12 25 13 26 14 12 15 11 16 10 17 9 18 8 19 7 20 6 21 5 22
REMARK SMILES IDX 4 23 3 24 2 25 1 26
REMARK H PARENT
REMARK Flexibility Score: inf
ROOT
ATOM      1  C   UNL     1      35.846  75.818  10.054  1.00  0.00     0.000 C 
ENDROOT
BRANCH   1   2
ATOM      2  C   UNL     1      36.466  76.855  11.004  1.00  0.00     0.000 C 
BRANCH   2   3
ATOM      3  C   UNL     1      35.408  77.857  11.491  1.00  0.00     0.000 C 
BRANCH   3   4
ATOM      4  C   UNL     1      33.987  77.508  11.010  1.00  0.00     0.000 C 
BRANCH   4   5
ATOM      5  C   UNL     1      32.960  78.647  11.147  1.00  0.00     0.000 C 
BRANCH   5   6
ATOM      6  C   UNL     1      31.825  78.307  12.128  1.00  0.00     0.000 C 
BRANCH   6   7
ATOM      7  C   UNL     1      32.216  77.201  13.124  1.00  0.00     0.000 C 
BRANCH   7   8
ATOM      8  C   UNL     1      32.132  77.664  14.590  1.00  0.00     0.000 C 
BRANCH   8   9
ATOM      9  C   UNL     1      32.399  79.178  14.743  1.00  0.00     0.000 C 
BRANCH   9  10
ATOM     10  C   UNL     1      31.178  79.973  15.244  1.00  0.00     0.006 C 
BRANCH  10  11
ATOM     11  C   UNL     1      31.402  81.490  15.322  1.00  0.00     0.053 C 
BRANCH  11  12
ATOM     12  C   UNL     1      32.363  81.860  16.412  1.00  0.00     0.041 C 
ATOM     13  O   UNL     1      32.363  81.223  17.499  1.00  0.00    -0.550 OA
ATOM     14  O   UNL     1      33.256  82.909  16.230  1.00  0.00    -0.550 OA
ENDBRANCH  11  12
ENDBRANCH  10  11
ENDBRANCH   9  10
ENDBRANCH   8   9
ENDBRANCH   7   8
ENDBRANCH   6   7
ENDBRANCH   5   6
ENDBRANCH   4   5
ENDBRANCH   3   4
ENDBRANCH   2   3
ENDBRANCH   1   2
BRANCH   1  15
ATOM     15  C   UNL     1      36.750  75.494   8.849  1.00  0.00     0.000 C 
BRANCH  15  16
ATOM     16  C   UNL     1      35.993  75.223   7.535  1.00  0.00     0.000 C 
BRANCH  16  17
ATOM     17  C   UNL     1      34.548  75.752   7.561  1.00  0.00     0.000 C 
BRANCH  17  18
ATOM     18  C   UNL     1      33.505  74.661   7.262  1.00  0.00    -0.000 C 
BRANCH  18  19
ATOM     19  C   UNL     1      32.045  75.046   7.558  1.00  0.00    -0.000 C 
BRANCH  19  20
ATOM     20  C   UNL     1      31.907  76.449   8.173  1.00  0.00    -0.000 C 
BRANCH  20  21
ATOM     21  C   UNL     1      30.712  76.564   9.135  1.00  0.00    -0.000 C 
BRANCH  21  22
ATOM     22  C   UNL     1      30.110  75.201   9.541  1.00  0.00    -0.000 C 
BRANCH  22  23
ATOM     23  C   UNL     1      30.426  74.841  11.002  1.00  0.00    -0.000 C 
BRANCH  23  24
ATOM     24  C   UNL     1      31.287  73.572  11.082  1.00  0.00    -0.000 C 
BRANCH  24  25
ATOM     25  C   UNL     1      32.781  73.856  10.856  1.00  0.00    -0.003 C 
ATOM     26  C   UNL     1      33.568  73.954  12.162  1.00  0.00     0.004 C 
ENDBRANCH  24  25
ENDBRANCH  23  24
ENDBRANCH  22  23
ENDBRANCH  21  22
ENDBRANCH  20  21
ENDBRANCH  19  20
ENDBRANCH  18  19
ENDBRANCH  17  18
ENDBRANCH  16  17
ENDBRANCH  15  16
ENDBRANCH   1  15
TORSDOF 22
ENDMDL
MODEL 2
REMARK VINA RESULT:    -4.360      1.450      3.958
REMARK INTER + INTRA:         -13.711
REMARK INTER:                  -9.757
REMARK INTRA:                  -3.954
REMARK UNBOUND:                -3.745
REMARK SMILES CCCCCCCCCCCCCCCCCCCCCCCC(=O)[O-]
REMARK SMILES IDX 13 1 14 2 15 3 16 4 17 5 18 6 19 7 20 8 21 9 22 10 23 11
REMARK SMILES IDX 24 12 25 13 26 14 12 15 11 16 10 17 9 18 8 19 7 20 6 21 5 22
REMARK SMILES IDX 4 23 3 24 2 25 1 26
REMARK H PARENT
REMARK Flexibility Score: inf
ROOT
ATOM      1  C   UNL     1      33.433  73.879  11.858  1.00  0.00     0.000 C 
ENDROOT
BRANCH   1   2
ATOM      2  C   UNL     1      32.355  73.405  10.871  1.00  0.00     0.000 C 
BRANCH   2   3
ATOM      3  C   UNL     1      30.960  73.456  11.513  1.00  0.00     0.000 C 
BRANCH   3   4
ATOM      4  C   UNL     1      30.990  73.954  12.970  1.00  0.00     0.000 C 
BRANCH   4   5
ATOM      5  C   UNL     1      29.611  74.294  13.566  1.00  0.00     0.000 C 
BRANCH   5   6
ATOM      6  C   UNL     1      29.467  75.786  13.913  1.00  0.00     0.000 C 
BRANCH   6   7
ATOM      7  C   UNL     1      30.636  76.632  13.380  1.00  0.00     0.000 C 
BRANCH   7   8
ATOM      8  C   UNL     1      30.914  77.874  14.246  1.00  0.00     0.000 C 
BRANCH   8   9
ATOM      9  C   UNL     1      32.282  77.796  14.961  1.00  0.00     0.000 C 
BRANCH   9  10
ATOM     10  C   UNL     1      33.021  79.146  15.027  1.00  0.00     0.006 C 
BRANCH  10  11
ATOM     11  C   UNL     1      32.539  80.075  16.152  1.00  0.00     0.053 C 
BRANCH  11  12
ATOM     12  C   UNL     1      32.076  81.400  15.626  1.00  0.00     0.041 C 
ATOM     13  O   UNL     1      31.074  81.465  14.866  1.00  0.00    -0.550 OA
ATOM     14  O   UNL     1      32.753  82.564  15.971  1.00  0.00    -0.550 OA
ENDBRANCH  11  12
ENDBRANCH  10  11
ENDBRANCH   9  10
ENDBRANCH   8   9
ENDBRANCH   7   8
ENDBRANCH   6   7
ENDBRANCH   5   6
ENDBRANCH   4   5
ENDBRANCH   3   4
ENDBRANCH   2   3
ENDBRANCH   1   2
BRANCH   1  15
ATOM     15  C   UNL     1      34.252  75.071  11.324  1.00  0.00     0.000 C 
BRANCH  15  16
ATOM     16  C   UNL     1      33.894  76.429  11.956  1.00  0.00     0.000 C 
BRANCH  16  17
ATOM     17  C   UNL     1      34.752  77.584  11.409  1.00  0.00     0.000 C 
BRANCH  17  18
ATOM     18  C   UNL     1      33.949  78.566  10.537  1.00  0.00    -0.000 C 
BRANCH  18  19
ATOM     19  C   UNL     1      32.477  78.756  10.942  1.00  0.00    -0.000 C 
BRANCH  19  20
ATOM     20  C   UNL     1      31.493  78.131   9.940  1.00  0.00    -0.000 C 
BRANCH  20  21
ATOM     21  C   UNL     1      32.183  77.630   8.660  1.00  0.00    -0.000 C 
BRANCH  21  22
ATOM     22  C   UNL     1      31.988  76.120   8.402  1.00  0.00    -0.000 C 
BRANCH  22  23
ATOM     23  C   UNL     1      33.165  75.510   7.623  1.00  0.00    -0.000 C 
BRANCH  23  24
ATOM     24  C   UNL     1      34.432  76.363   7.783  1.00  0.00    -0.000 C 
BRANCH  24  25
ATOM     25  C   UNL     1      35.678  75.517   8.092  1.00  0.00    -0.003 C 
ATOM     26  C   UNL     1      36.193  74.756   6.871  1.00  0.00     0.004 C 
ENDBRANCH  24  25
ENDBRANCH  23  24
ENDBRANCH  22  23
ENDBRANCH  21  22
ENDBRANCH  20  21
ENDBRANCH  19  20
ENDBRANCH  18  19
ENDBRANCH  17  18
ENDBRANCH  16  17
ENDBRANCH  15  16
ENDBRANCH   1  15
TORSDOF 22
ENDMDL
MODEL 3
REMARK VINA RESULT:    -4.296      1.135      2.494
REMARK INTER + INTRA:         -13.565
REMARK INTER:                 -10.031
REMARK INTRA:                  -3.535
REMARK UNBOUND:                -3.745
REMARK SMILES CCCCCCCCCCCCCCCCCCCCCCCC(=O)[O-]
REMARK SMILES IDX 13 1 14 2 15 3 16 4 17 5 18 6 19 7 20 8 21 9 22 10 23 11
REMARK SMILES IDX 24 12 25 13 26 14 12 15 11 16 10 17 9 18 8 19 7 20 6 21 5 22
REMARK SMILES IDX 4 23 3 24 2 25 1 26
REMARK H PARENT
REMARK Flexibility Score: inf
ROOT
ATOM      1  C   UNL     1      34.741  77.937  10.684  1.00  0.00     0.000 C 
ENDROOT
BRANCH   1   2
ATOM      2  C   UNL     1      33.565  77.917  11.673  1.00  0.00     0.000 C 
BRANCH   2   3
ATOM      3  C   UNL     1      32.353  78.670  11.102  1.00  0.00     0.000 C 
BRANCH   3   4
ATOM      4  C   UNL     1      31.013  78.154  11.655  1.00  0.00     0.000 C 
BRANCH   4   5
ATOM      5  C   UNL     1      31.131  77.236  12.887  1.00  0.00     0.000 C 
BRANCH   5   6
ATOM      6  C   UNL     1      30.159  77.627  14.013  1.00  0.00     0.000 C 
BRANCH   6   7
ATOM      7  C   UNL     1      30.540  77.000  15.365  1.00  0.00     0.000 C 
BRANCH   7   8
ATOM      8  C   UNL     1      30.943  78.051  16.416  1.00  0.00     0.000 C 
BRANCH   8   9
ATOM      9  C   UNL     1      32.473  78.258  16.481  1.00  0.00     0.000 C 
BRANCH   9  10
ATOM     10  C   UNL     1      32.975  79.428  15.614  1.00  0.00     0.006 C 
BRANCH  10  11
ATOM     11  C   UNL     1      31.995  80.607  15.516  1.00  0.00     0.053 C 
BRANCH  11  12
ATOM     12  C   UNL     1      32.404  81.750  16.395  1.00  0.00     0.041 C 
ATOM     13  O   UNL     1      32.684  82.869  15.889  1.00  0.00    -0.550 OA
ATOM     14  O   UNL     1      32.479  81.581  17.773  1.00  0.00    -0.550 OA
ENDBRANCH  11  12
ENDBRANCH  10  11
ENDBRANCH   9  10
ENDBRANCH   8   9
ENDBRANCH   7   8
ENDBRANCH   6   7
ENDBRANCH   5   6
ENDBRANCH   4   5
ENDBRANCH   3   4
ENDBRANCH   2   3
ENDBRANCH   1   2
BRANCH   1  15
ATOM     15  C   UNL     1      36.066  77.476  11.321  1.00  0.00     0.000 C 
BRANCH  15  16
ATOM     16  C   UNL     1      36.890  76.504  10.454  1.00  0.00     0.000 C 
BRANCH  16  17
ATOM     17  C   UNL     1      36.008  75.537   9.644  1.00  0.00     0.000 C 
BRANCH  17  18
ATOM     18  C   UNL     1      36.514  75.328   8.205  1.00  0.00    -0.000 C 
BRANCH  18  19
ATOM     19  C   UNL     1      35.429  75.359   7.114  1.00  0.00    -0.000 C 
BRANCH  19  20
ATOM     20  C   UNL     1      34.221  76.232   7.494  1.00  0.00    -0.000 C 
BRANCH  20  21
ATOM     21  C   UNL     1      32.876  75.530   7.245  1.00  0.00    -0.000 C 
BRANCH  21  22
ATOM     22  C   UNL     1      31.948  75.512   8.479  1.00  0.00    -0.000 C 
BRANCH  22  23
ATOM     23  C   UNL     1      32.496  74.616   9.602  1.00  0.00    -0.000 C 
BRANCH  23  24
ATOM     24  C   UNL     1      31.475  74.472  10.740  1.00  0.00    -0.000 C 
BRANCH  24  25
ATOM     25  C   UNL     1      32.102  73.918  12.029  1.00  0.00    -0.003 C 
ATOM     26  C   UNL     1      33.599  74.208  12.130  1.00  0.00     0.004 C 
ENDBRANCH  24  25
ENDBRANCH  23  24
ENDBRANCH  22  23
ENDBRANCH  21  22
ENDBRANCH  20  21
ENDBRANCH  19  20
ENDBRANCH  18  19
ENDBRANCH  17  18
ENDBRANCH  16  17
ENDBRANCH  15  16
ENDBRANCH   1  15
TORSDOF 22
ENDMDL
MODEL 4
REMARK VINA RESULT:    -4.277      1.274      2.009
REMARK INTER + INTRA:         -13.524
REMARK INTER:                 -10.005
REMARK INTRA:                  -3.519
REMARK UNBOUND:                -3.745
REMARK SMILES CCCCCCCCCCCCCCCCCCCCCCCC(=O)[O-]
REMARK SMILES IDX 13 1 14 2 15 3 16 4 17 5 18 6 19 7 20 8 21 9 22 10 23 11
REMARK SMILES IDX 24 12 25 13 26 14 12 15 11 16 10 17 9 18 8 19 7 20 6 21 5 22
REMARK SMILES IDX 4 23 3 24 2 25 1 26
REMARK H PARENT
REMARK Flexibility Score: inf
ROOT
ATOM      1  C   UNL     1      36.080  76.921  10.828  1.00  0.00     0.000 C 
ENDROOT
BRANCH   1   2
ATOM      2  C   UNL     1      34.888  77.875  10.998  1.00  0.00     0.000 C 
BRANCH   2   3
ATOM      3  C   UNL     1      33.827  77.629   9.914  1.00  0.00     0.000 C 
BRANCH   3   4
ATOM      4  C   UNL     1      32.466  78.263  10.254  1.00  0.00     0.000 C 
BRANCH   4   5
ATOM      5  C   UNL     1      32.374  78.883  11.661  1.00  0.00     0.000 C 
BRANCH   5   6
ATOM      6  C   UNL     1      31.454  78.085  12.601  1.00  0.00     0.000 C 
BRANCH   6   7
ATOM      7  C   UNL     1      32.213  77.470  13.789  1.00  0.00     0.000 C 
BRANCH   7   8
ATOM      8  C   UNL     1      33.301  78.405  14.349  1.00  0.00     0.000 C 
BRANCH   8   9
ATOM      9  C   UNL     1      33.155  78.630  15.870  1.00  0.00     0.000 C 
BRANCH   9  10
ATOM     10  C   UNL     1      31.970  79.540  16.249  1.00  0.00     0.006 C 
BRANCH  10  11
ATOM     11  C   UNL     1      32.382  80.906  16.818  1.00  0.00     0.053 C 
BRANCH  11  12
ATOM     12  C   UNL     1      32.153  82.015  15.836  1.00  0.00     0.041 C 
ATOM     13  O   UNL     1      31.444  81.820  14.814  1.00  0.00    -0.550 OA
ATOM     14  O   UNL     1      32.724  83.264  16.047  1.00  0.00    -0.550 OA
ENDBRANCH  11  12
ENDBRANCH  10  11
ENDBRANCH   9  10
ENDBRANCH   8   9
ENDBRANCH   7   8
ENDBRANCH   6   7
ENDBRANCH   5   6
ENDBRANCH   4   5
ENDBRANCH   3   4
ENDBRANCH   2   3
ENDBRANCH   1   2
BRANCH   1  15
ATOM     15  C   UNL     1      35.731  75.669   9.999  1.00  0.00     0.000 C 
BRANCH  15  16
ATOM     16  C   UNL     1      36.592  75.476   8.736  1.00  0.00     0.000 C 
BRANCH  16  17
ATOM     17  C   UNL     1      35.812  74.828   7.578  1.00  0.00     0.000 C 
BRANCH  17  18
ATOM     18  C   UNL     1      34.783  75.779   6.941  1.00  0.00    -0.000 C 
BRANCH  18  19
ATOM     19  C   UNL     1      33.323  75.294   6.981  1.00  0.00    -0.000 C 
BRANCH  19  20
ATOM     20  C   UNL     1      33.114  74.097   7.924  1.00  0.00    -0.000 C 
BRANCH  20  21
ATOM     21  C   UNL     1      32.231  74.440   9.135  1.00  0.00    -0.000 C 
BRANCH  21  22
ATOM     22  C   UNL     1      32.527  73.578  10.382  1.00  0.00    -0.000 C 
BRANCH  22  23
ATOM     23  C   UNL     1      32.643  74.426  11.658  1.00  0.00    -0.000 C 
BRANCH  23  24
ATOM     24  C   UNL     1      31.477  74.142  12.617  1.00  0.00    -0.000 C 
BRANCH  24  25
ATOM     25  C   UNL     1      30.386  73.268  11.977  1.00  0.00    -0.003 C 
ATOM     26  C   UNL     1      29.075  74.022  11.762  1.00  0.00     0.004 C 
ENDBRANCH  24  25
ENDBRANCH  23  24
ENDBRANCH  22  23
ENDBRANCH  21  22
ENDBRANCH  20  21
ENDBRANCH  19  20
ENDBRANCH  18  19
ENDBRANCH  17  18
ENDBRANCH  16  17
ENDBRANCH  15  16
ENDBRANCH   1  15
TORSDOF 22
ENDMDL
MODEL 5
REMARK VINA RESULT:    -4.207      1.650      3.588
REMARK INTER + INTRA:         -13.364
REMARK INTER:                 -10.347
REMARK INTRA:                  -3.017
REMARK UNBOUND:                -3.745
REMARK SMILES CCCCCCCCCCCCCCCCCCCCCCCC(=O)[O-]
REMARK SMILES IDX 13 1 14 2 15 3 16 4 17 5 18 6 19 7 20 8 21 9 22 10 23 11
REMARK SMILES IDX 24 12 25 13 26 14 12 15 11 16 10 17 9 18 8 19 7 20 6 21 5 22
REMARK SMILES IDX 4 23 3 24 2 25 1 26
REMARK H PARENT
REMARK Flexibility Score: inf
ROOT
ATOM      1  C   UNL     1      32.604  78.861  11.556  1.00  0.00     0.000 C 
ENDROOT
BRANCH   1   2
ATOM      2  C   UNL     1      31.516  77.888  12.035  1.00  0.00     0.000 C 
BRANCH   2   3
ATOM      3  C   UNL     1      31.484  77.809  13.569  1.00  0.00     0.000 C 
BRANCH   3   4
ATOM      4  C   UNL     1      32.818  78.224  14.217  1.00  0.00     0.000 C 
BRANCH   4   5
ATOM      5  C   UNL     1      32.837  78.163  15.756  1.00  0.00     0.000 C 
BRANCH   5   6
ATOM      6  C   UNL     1      31.436  77.960  16.358  1.00  0.00     0.000 C 
BRANCH   6   7
ATOM      7  C   UNL     1      31.465  77.825  17.890  1.00  0.00     0.000 C 
BRANCH   7   8
ATOM      8  C   UNL     1      30.783  79.007  18.604  1.00  0.00     0.000 C 
BRANCH   8   9
ATOM      9  C   UNL     1      31.804  79.975  19.242  1.00  0.00     0.000 C 
BRANCH   9  10
ATOM     10  C   UNL     1      32.221  81.131  18.313  1.00  0.00     0.006 C 
BRANCH  10  11
ATOM     11  C   UNL     1      31.190  81.470  17.226  1.00  0.00     0.053 C 
BRANCH  11  12
ATOM     12  C   UNL     1      31.843  81.913  15.951  1.00  0.00     0.041 C 
ATOM     13  O   UNL     1      31.505  81.394  14.854  1.00  0.00    -0.550 OA
ATOM     14  O   UNL     1      32.826  82.894  15.973  1.00  0.00    -0.550 OA
ENDBRANCH  11  12
ENDBRANCH  10  11
ENDBRANCH   9  10
ENDBRANCH   8   9
ENDBRANCH   7   8
ENDBRANCH   6   7
ENDBRANCH   5   6
ENDBRANCH   4   5
ENDBRANCH   3   4
ENDBRANCH   2   3
ENDBRANCH   1   2
BRANCH   1  15
ATOM     15  C   UNL     1      33.522  78.251  10.479  1.00  0.00     0.000 C 
BRANCH  15  16
ATOM     16  C   UNL     1      34.947  77.923  10.962  1.00  0.00     0.000 C 
BRANCH  16  17
ATOM     17  C   UNL     1      35.252  76.414  10.935  1.00  0.00     0.000 C 
BRANCH  17  18
ATOM     18  C   UNL     1      36.352  76.042   9.925  1.00  0.00    -0.000 C 
BRANCH  18  19
ATOM     19  C   UNL     1      35.856  75.392   8.621  1.00  0.00    -0.000 C 
BRANCH  19  20
ATOM     20  C   UNL     1      34.788  76.231   7.900  1.00  0.00    -0.000 C 
BRANCH  20  21
ATOM     21  C   UNL     1      33.607  75.386   7.395  1.00  0.00    -0.000 C 
BRANCH  21  22
ATOM     22  C   UNL     1      33.106  74.345   8.420  1.00  0.00    -0.000 C 
BRANCH  22  23
ATOM     23  C   UNL     1      32.074  74.940   9.391  1.00  0.00    -0.000 C 
BRANCH  23  24
ATOM     24  C   UNL     1      31.718  73.936  10.499  1.00  0.00    -0.000 C 
BRANCH  24  25
ATOM     25  C   UNL     1      32.209  74.387  11.884  1.00  0.00    -0.003 C 
ATOM     26  C   UNL     1      33.606  73.864  12.214  1.00  0.00     0.004 C 
ENDBRANCH  24  25
ENDBRANCH  23  24
ENDBRANCH  22  23
ENDBRANCH  21  22
ENDBRANCH  20  21
ENDBRANCH  19  20
ENDBRANCH  18  19
ENDBRANCH  17  18
ENDBRANCH  16  17
ENDBRANCH  15  16
ENDBRANCH   1  15
TORSDOF 22
ENDMDL
MODEL 6
REMARK VINA RESULT:    -4.168      1.874      2.969
REMARK INTER + INTRA:         -13.275
REMARK INTER:                 -10.429
REMARK INTRA:                  -2.846
REMARK UNBOUND:                -3.745
REMARK SMILES CCCCCCCCCCCCCCCCCCCCCCCC(=O)[O-]
REMARK SMILES IDX 13 1 14 2 15 3 16 4 17 5 18 6 19 7 20 8 21 9 22 10 23 11
REMARK SMILES IDX 24 12 25 13 26 14 12 15 11 16 10 17 9 18 8 19 7 20 6 21 5 22
REMARK SMILES IDX 4 23 3 24 2 25 1 26
REMARK H PARENT
REMARK Flexibility Score: inf
ROOT
ATOM      1  C   UNL     1      34.248  77.448  11.464  1.00  0.00     0.000 C 
ENDROOT
BRANCH   1   2
ATOM      2  C   UNL     1      33.450  78.476  10.646  1.00  0.00     0.000 C 
BRANCH   2   3
ATOM      3  C   UNL     1      31.974  78.492  11.074  1.00  0.00     0.000 C 
BRANCH   3   4
ATOM      4  C   UNL     1      31.779  78.160  12.565  1.00  0.00     0.000 C 
BRANCH   4   5
ATOM      5  C   UNL     1      31.921  79.360  13.519  1.00  0.00     0.000 C 
BRANCH   5   6
ATOM      6  C   UNL     1      32.649  78.997  14.825  1.00  0.00     0.000 C 
BRANCH   6   7
ATOM      7  C   UNL     1      32.066  77.743  15.497  1.00  0.00     0.000 C 
BRANCH   7   8
ATOM      8  C   UNL     1      31.966  77.879  17.027  1.00  0.00     0.000 C 
BRANCH   8   9
ATOM      9  C   UNL     1      31.919  79.355  17.482  1.00  0.00     0.000 C 
BRANCH   9  10
ATOM     10  C   UNL     1      31.459  79.536  18.942  1.00  0.00     0.006 C 
BRANCH  10  11
ATOM     11  C   UNL     1      32.102  80.731  19.661  1.00  0.00     0.053 C 
BRANCH  11  12
ATOM     12  C   UNL     1      31.079  81.726  20.122  1.00  0.00     0.041 C 
ATOM     13  O   UNL     1      30.625  81.670  21.295  1.00  0.00    -0.550 OA
ATOM     14  O   UNL     1      30.623  82.712  19.255  1.00  0.00    -0.550 OA
ENDBRANCH  11  12
ENDBRANCH  10  11
ENDBRANCH   9  10
ENDBRANCH   8   9
ENDBRANCH   7   8
ENDBRANCH   6   7
ENDBRANCH   5   6
ENDBRANCH   4   5
ENDBRANCH   3   4
ENDBRANCH   2   3
ENDBRANCH   1   2
BRANCH   1  15
ATOM     15  C   UNL     1      35.770  77.679  11.394  1.00  0.00     0.000 C 
BRANCH  15  16
ATOM     16  C   UNL     1      36.553  76.573  10.663  1.00  0.00     0.000 C 
BRANCH  16  17
ATOM     17  C   UNL     1      35.637  75.606   9.891  1.00  0.00     0.000 C 
BRANCH  17  18
ATOM     18  C   UNL     1      36.136  75.317   8.465  1.00  0.00    -0.000 C 
BRANCH  18  19
ATOM     19  C   UNL     1      35.099  75.530   7.348  1.00  0.00    -0.000 C 
BRANCH  19  20
ATOM     20  C   UNL     1      33.769  76.103   7.865  1.00  0.00    -0.000 C 
BRANCH  20  21
ATOM     21  C   UNL     1      32.545  75.507   7.149  1.00  0.00    -0.000 C 
BRANCH  21  22
ATOM     22  C   UNL     1      31.422  75.060   8.111  1.00  0.00    -0.000 C 
BRANCH  22  23
ATOM     23  C   UNL     1      31.802  75.277   9.584  1.00  0.00    -0.000 C 
BRANCH  23  24
ATOM     24  C   UNL     1      31.960  73.935  10.315  1.00  0.00    -0.000 C 
BRANCH  24  25
ATOM     25  C   UNL     1      32.210  74.109  11.821  1.00  0.00    -0.003 C 
ATOM     26  C   UNL     1      33.685  73.966  12.196  1.00  0.00     0.004 C 
ENDBRANCH  24  25
ENDBRANCH  23  24
ENDBRANCH  22  23
ENDBRANCH  21  22
ENDBRANCH  20  21
ENDBRANCH  19  20
ENDBRANCH  18  19
ENDBRANCH  17  18
ENDBRANCH  16  17
ENDBRANCH  15  16
ENDBRANCH   1  15
TORSDOF 22
ENDMDL
MODEL 7
REMARK VINA RESULT:    -4.143      1.610      4.062
REMARK INTER + INTRA:         -13.216
REMARK INTER:                  -9.368
REMARK INTRA:                  -3.847
REMARK UNBOUND:                -3.745
REMARK SMILES CCCCCCCCCCCCCCCCCCCCCCCC(=O)[O-]
REMARK SMILES IDX 13 1 14 2 15 3 16 4 17 5 18 6 19 7 20 8 21 9 22 10 23 11
REMARK SMILES IDX 24 12 25 13 26 14 12 15 11 16 10 17 9 18 8 19 7 20 6 21 5 22
REMARK SMILES IDX 4 23 3 24 2 25 1 26
REMARK H PARENT
REMARK Flexibility Score: inf
ROOT
ATOM      1  C   UNL     1      32.512  78.471  10.326  1.00  0.00     0.000 C 
ENDROOT
BRANCH   1   2
ATOM      2  C   UNL     1      31.533  77.860   9.312  1.00  0.00     0.000 C 
BRANCH   2   3
ATOM      3  C   UNL     1      32.101  76.565   8.710  1.00  0.00     0.000 C 
BRANCH   3   4
ATOM      4  C   UNL     1      31.626  75.302   9.450  1.00  0.00     0.000 C 
BRANCH   4   5
ATOM      5  C   UNL     1      32.699  74.618  10.317  1.00  0.00     0.000 C 
BRANCH   5   6
ATOM      6  C   UNL     1      32.229  74.377  11.762  1.00  0.00     0.000 C 
BRANCH   6   7
ATOM      7  C   UNL     1      32.393  75.621  12.652  1.00  0.00     0.000 C 
BRANCH   7   8
ATOM      8  C   UNL     1      31.048  76.282  13.005  1.00  0.00     0.000 C 
BRANCH   8   9
ATOM      9  C   UNL     1      31.211  77.440  14.014  1.00  0.00     0.000 C 
BRANCH   9  10
ATOM     10  C   UNL     1      32.609  78.087  13.991  1.00  0.00     0.006 C 
BRANCH  10  11
ATOM     11  C   UNL     1      33.057  78.668  15.341  1.00  0.00     0.053 C 
BRANCH  11  12
ATOM     12  C   UNL     1      32.349  79.951  15.662  1.00  0.00     0.041 C 
ATOM     13  O   UNL     1      31.740  80.581  14.758  1.00  0.00    -0.550 OA
ATOM     14  O   UNL     1      32.366  80.452  16.958  1.00  0.00    -0.550 OA
ENDBRANCH  11  12
ENDBRANCH  10  11
ENDBRANCH   9  10
ENDBRANCH   8   9
ENDBRANCH   7   8
ENDBRANCH   6   7
ENDBRANCH   5   6
ENDBRANCH   4   5
ENDBRANCH   3   4
ENDBRANCH   2   3
ENDBRANCH   1   2
BRANCH   1  15
ATOM     15  C   UNL     1      33.983  78.129  10.019  1.00  0.00     0.000 C 
BRANCH  15  16
ATOM     16  C   UNL     1      34.838  77.807  11.259  1.00  0.00     0.000 C 
BRANCH  16  17
ATOM     17  C   UNL     1      36.150  77.084  10.905  1.00  0.00     0.000 C 
BRANCH  17  18
ATOM     18  C   UNL     1      35.920  75.708  10.255  1.00  0.00    -0.000 C 
BRANCH  18  19
ATOM     19  C   UNL     1      36.515  75.537   8.847  1.00  0.00    -0.000 C 
BRANCH  19  20
ATOM     20  C   UNL     1      35.442  75.381   7.756  1.00  0.00    -0.000 C 
BRANCH  20  21
ATOM     21  C   UNL     1      35.956  74.626   6.518  1.00  0.00    -0.000 C 
BRANCH  21  22
ATOM     22  C   UNL     1      35.175  73.329   6.216  1.00  0.00    -0.000 C 
BRANCH  22  23
ATOM     23  C   UNL     1      33.805  73.301   6.914  1.00  0.00    -0.000 C 
BRANCH  23  24
ATOM     24  C   UNL     1      33.500  71.904   7.473  1.00  0.00    -0.000 C 
BRANCH  24  25
ATOM     25  C   UNL     1      32.115  71.821   8.133  1.00  0.00    -0.003 C 
ATOM     26  C   UNL     1      32.101  70.924   9.369  1.00  0.00     0.004 C 
ENDBRANCH  24  25
ENDBRANCH  23  24
ENDBRANCH  22  23
ENDBRANCH  21  22
ENDBRANCH  20  21
ENDBRANCH  19  20
ENDBRANCH  18  19
ENDBRANCH  17  18
ENDBRANCH  16  17
ENDBRANCH  15  16
ENDBRANCH   1  15
TORSDOF 22
ENDMDL
MODEL 8
REMARK VINA RESULT:    -4.129      1.466      3.267
REMARK INTER + INTRA:         -13.185
REMARK INTER:                  -9.166
REMARK INTRA:                  -4.019
REMARK UNBOUND:                -3.745
REMARK SMILES CCCCCCCCCCCCCCCCCCCCCCCC(=O)[O-]
REMARK SMILES IDX 13 1 14 2 15 3 16 4 17 5 18 6 19 7 20 8 21 9 22 10 23 11
REMARK SMILES IDX 24 12 25 13 26 14 12 15 11 16 10 17 9 18 8 19 7 20 6 21 5 22
REMARK SMILES IDX 4 23 3 24 2 25 1 26
REMARK H PARENT
REMARK Flexibility Score: inf
ROOT
ATOM      1  C   UNL     1      34.490  77.193  10.940  1.00  0.00     0.000 C 
ENDROOT
BRANCH   1   2
ATOM      2  C   UNL     1      33.888  78.316  10.081  1.00  0.00     0.000 C 
BRANCH   2   3
ATOM      3  C   UNL     1      33.266  77.751   8.795  1.00  0.00     0.000 C 
BRANCH   3   4
ATOM      4  C   UNL     1      31.776  78.108   8.644  1.00  0.00     0.000 C 
BRANCH   4   5
ATOM      5  C   UNL     1      30.842  76.904   8.421  1.00  0.00     0.000 C 
BRANCH   5   6
ATOM      6  C   UNL     1      29.887  76.667   9.603  1.00  0.00     0.000 C 
BRANCH   6   7
ATOM      7  C   UNL     1      29.966  77.783  10.659  1.00  0.00     0.000 C 
BRANCH   7   8
ATOM      8  C   UNL     1      30.444  77.273  12.031  1.00  0.00     0.000 C 
BRANCH   8   9
ATOM      9  C   UNL     1      31.394  78.270  12.730  1.00  0.00     0.000 C 
BRANCH   9  10
ATOM     10  C   UNL     1      32.314  77.615  13.778  1.00  0.00     0.006 C 
BRANCH  10  11
ATOM     11  C   UNL     1      33.297  78.586  14.448  1.00  0.00     0.053 C 
BRANCH  11  12
ATOM     12  C   UNL     1      32.721  79.199  15.690  1.00  0.00     0.041 C 
ATOM     13  O   UNL     1      32.579  80.447  15.773  1.00  0.00    -0.550 OA
ATOM     14  O   UNL     1      32.345  78.392  16.757  1.00  0.00    -0.550 OA
ENDBRANCH  11  12
ENDBRANCH  10  11
ENDBRANCH   9  10
ENDBRANCH   8   9
ENDBRANCH   7   8
ENDBRANCH   6   7
ENDBRANCH   5   6
ENDBRANCH   4   5
ENDBRANCH   3   4
ENDBRANCH   2   3
ENDBRANCH   1   2
BRANCH   1  15
ATOM     15  C   UNL     1      35.998  77.381  11.200  1.00  0.00     0.000 C 
BRANCH  15  16
ATOM     16  C   UNL     1      36.911  76.448  10.381  1.00  0.00     0.000 C 
BRANCH  16  17
ATOM     17  C   UNL     1      36.123  75.533   9.427  1.00  0.00     0.000 C 
BRANCH  17  18
ATOM     18  C   UNL     1      36.925  75.144   8.172  1.00  0.00    -0.000 C 
BRANCH  18  19
ATOM     19  C   UNL     1      36.082  74.794   6.933  1.00  0.00    -0.000 C 
BRANCH  19  20
ATOM     20  C   UNL     1      34.593  74.595   7.258  1.00  0.00    -0.000 C 
BRANCH  20  21
ATOM     21  C   UNL     1      34.000  73.341   6.593  1.00  0.00    -0.000 C 
BRANCH  21  22
ATOM     22  C   UNL     1      33.039  72.550   7.507  1.00  0.00    -0.000 C 
BRANCH  22  23
ATOM     23  C   UNL     1      31.907  73.432   8.057  1.00  0.00    -0.000 C 
BRANCH  23  24
ATOM     24  C   UNL     1      31.789  73.290   9.582  1.00  0.00    -0.000 C 
BRANCH  24  25
ATOM     25  C   UNL     1      32.694  74.276  10.338  1.00  0.00    -0.003 C 
ATOM     26  C   UNL     1      32.662  74.066  11.851  1.00  0.00     0.004 C 
ENDBRANCH  24  25
ENDBRANCH  23  24
ENDBRANCH  22  23
ENDBRANCH  21  22
ENDBRANCH  20  21
ENDBRANCH  19  20
ENDBRANCH  18  19
ENDBRANCH  17  18
ENDBRANCH  16  17
ENDBRANCH  15  16
ENDBRANCH   1  15
TORSDOF 22
ENDMDL
MODEL 9
REMARK VINA RESULT:    -4.018      1.223      3.239
REMARK INTER + INTRA:         -12.931
REMARK INTER:                  -8.738
REMARK INTRA:                  -4.193
REMARK UNBOUND:                -3.745
REMARK SMILES CCCCCCCCCCCCCCCCCCCCCCCC(=O)[O-]
REMARK SMILES IDX 13 1 14 2 15 3 16 4 17 5 18 6 19 7 20 8 21 9 22 10 23 11
REMARK SMILES IDX 24 12 25 13 26 14 12 15 11 16 10 17 9 18 8 19 7 20 6 21 5 22
REMARK SMILES IDX 4 23 3 24 2 25 1 26
REMARK H PARENT
REMARK Flexibility Score: inf
ROOT
ATOM      1  C   UNL     1      35.125  76.895  11.160  1.00  0.00     0.000 C 
ENDROOT
BRANCH   1   2
ATOM      2  C   UNL     1      34.646  75.520  10.670  1.00  0.00     0.000 C 
BRANCH   2   3
ATOM      3  C   UNL     1      33.854  74.791  11.766  1.00  0.00     0.000 C 
BRANCH   3   4
ATOM      4  C   UNL     1      32.342  74.735  11.476  1.00  0.00     0.000 C 
BRANCH   4   5
ATOM      5  C   UNL     1      31.444  75.224  12.628  1.00  0.00     0.000 C 
BRANCH   5   6
ATOM      6  C   UNL     1      30.579  76.433  12.233  1.00  0.00     0.000 C 
BRANCH   6   7
ATOM      7  C   UNL     1      31.133  77.760  12.779  1.00  0.00     0.000 C 
BRANCH   7   8
ATOM      8  C   UNL     1      31.910  77.583  14.096  1.00  0.00     0.000 C 
BRANCH   8   9
ATOM      9  C   UNL     1      33.098  78.564  14.213  1.00  0.00     0.000 C 
BRANCH   9  10
ATOM     10  C   UNL     1      33.083  79.402  15.505  1.00  0.00     0.006 C 
BRANCH  10  11
ATOM     11  C   UNL     1      31.763  80.146  15.758  1.00  0.00     0.053 C 
BRANCH  11  12
ATOM     12  C   UNL     1      31.969  81.401  16.553  1.00  0.00     0.041 C 
ATOM     13  O   UNL     1      32.903  82.192  16.256  1.00  0.00    -0.550 OA
ATOM     14  O   UNL     1      31.133  81.696  17.623  1.00  0.00    -0.550 OA
ENDBRANCH  11  12
ENDBRANCH  10  11
ENDBRANCH   9  10
ENDBRANCH   8   9
ENDBRANCH   7   8
ENDBRANCH   6   7
ENDBRANCH   5   6
ENDBRANCH   4   5
ENDBRANCH   3   4
ENDBRANCH   2   3
ENDBRANCH   1   2
BRANCH   1  15
ATOM     15  C   UNL     1      34.217  78.048  10.689  1.00  0.00     0.000 C 
BRANCH  15  16
ATOM     16  C   UNL     1      33.435  77.760   9.393  1.00  0.00     0.000 C 
BRANCH  16  17
ATOM     17  C   UNL     1      31.980  78.259   9.453  1.00  0.00     0.000 C 
BRANCH  17  18
ATOM     18  C   UNL     1      31.168  77.892   8.198  1.00  0.00    -0.000 C 
BRANCH  18  19
ATOM     19  C   UNL     1      29.902  77.057   8.453  1.00  0.00    -0.000 C 
BRANCH  19  20
ATOM     20  C   UNL     1      30.193  75.554   8.596  1.00  0.00    -0.000 C 
BRANCH  20  21
ATOM     21  C   UNL     1      31.199  75.039   7.553  1.00  0.00    -0.000 C 
BRANCH  21  22
ATOM     22  C   UNL     1      31.959  73.771   7.999  1.00  0.00    -0.000 C 
BRANCH  22  23
ATOM     23  C   UNL     1      33.446  73.821   7.608  1.00  0.00    -0.000 C 
BRANCH  23  24
ATOM     24  C   UNL     1      33.797  75.163   6.949  1.00  0.00    -0.000 C 
BRANCH  24  25
ATOM     25  C   UNL     1      35.284  75.522   7.095  1.00  0.00    -0.003 C 
ATOM     26  C   UNL     1      36.210  74.392   6.647  1.00  0.00     0.004 C 
ENDBRANCH  24  25
ENDBRANCH  23  24
ENDBRANCH  22  23
ENDBRANCH  21  22
ENDBRANCH  20  21
ENDBRANCH  19  20
ENDBRANCH  18  19
ENDBRANCH  17  18
ENDBRANCH  16  17
ENDBRANCH  15  16
ENDBRANCH   1  15
TORSDOF 22
ENDMDL
