MODEL 1
REMARK VINA RESULT:    -6.631      0.000      0.000
REMARK INTER + INTRA:          -8.248
REMARK INTER:                  -7.988
REMARK INTRA:                  -0.260
REMARK UNBOUND:                -0.260
REMARK SMILES O=c1c(O)c(-c2ccc(O)c(O)c2)oc2cc(O)cc(O)c12
REMARK SMILES IDX 5 1 3 2 2 3 1 4 22 5 20 6 19 7 17 8 16 9 15 10 14 11 6 12
REMARK SMILES IDX 7 13 8 14 9 15 13 16 11 17 10 18 12 20 4 22 21 24 18 26
REMARK H PARENT 10 19 12 21 4 23 21 25 18 27
REMARK Flexibility Score: inf
ROOT
ATOM      1  C   UNL     1      14.872 -36.146  -2.062  1.00  0.00     0.180 A 
ATOM      2  C   UNL     1      15.064 -36.691  -0.778  1.00  0.00     0.208 A 
ATOM      3  C   UNL     1      16.129 -37.582  -0.572  1.00  0.00     0.238 A 
ATOM      4  O   UNL     1      16.317 -38.068   0.576  1.00  0.00    -0.285 OA
ATOM      5  C   UNL     1      16.967 -37.928  -1.652  1.00  0.00     0.111 A 
ATOM      6  C   UNL     1      18.059 -38.822  -1.529  1.00  0.00     0.134 A 
ATOM      7  C   UNL     1      18.841 -39.121  -2.654  1.00  0.00     0.093 A 
ATOM      8  C   UNL     1      18.555 -38.549  -3.895  1.00  0.00     0.123 A 
ATOM      9  C   UNL     1      17.478 -37.665  -4.022  1.00  0.00     0.094 A 
ATOM     10  C   UNL     1      16.687 -37.352  -2.913  1.00  0.00     0.146 A 
ATOM     11  O   UNL     1      15.673 -36.507  -3.060  1.00  0.00    -0.452 OA
ENDROOT
BRANCH   1  12
ATOM     12  C   UNL     1      13.783 -35.185  -2.354  1.00  0.00     0.025 A 
ATOM     13  C   UNL     1      13.891 -33.861  -1.900  1.00  0.00     0.016 A 
ATOM     14  C   UNL     1      12.867 -32.943  -2.146  1.00  0.00     0.051 A 
ATOM     15  C   UNL     1      11.714 -33.339  -2.834  1.00  0.00     0.157 A 
ATOM     16  C   UNL     1      12.615 -35.584  -3.027  1.00  0.00     0.062 A 
ATOM     17  C   UNL     1      11.586 -34.668  -3.272  1.00  0.00     0.158 A 
BRANCH  15  18
ATOM     18  O   UNL     1      10.695 -32.420  -3.080  1.00  0.00    -0.504 OA
ATOM     19  H   UNL     1       9.717 -32.680  -3.010  1.00  0.00     0.293 HD
ENDBRANCH  15  18
BRANCH  17  20
ATOM     20  O   UNL     1      10.444 -35.096  -3.949  1.00  0.00    -0.504 OA
ATOM     21  H   UNL     1      10.467 -35.374  -4.922  1.00  0.00     0.293 HD
ENDBRANCH  17  20
ENDBRANCH   1  12
BRANCH   2  22
ATOM     22  O   UNL     1      14.189 -36.372   0.263  1.00  0.00    -0.502 OA
ATOM     23  H   UNL     1      13.963 -37.026   1.003  1.00  0.00     0.293 HD
ENDBRANCH   2  22
BRANCH   6  24
ATOM     24  O   UNL     1      18.370 -39.411  -0.303  1.00  0.00    -0.507 OA
ATOM     25  H   UNL     1      18.657 -40.380  -0.235  1.00  0.00     0.293 HD
ENDBRANCH   6  24
BRANCH   8  26
ATOM     26  O   UNL     1      19.347 -38.866  -4.996  1.00  0.00    -0.508 OA
ATOM     27  H   UNL     1      19.953 -38.177  -5.428  1.00  0.00     0.293 HD
ENDBRANCH   8  26
TORSDOF 6
ENDMDL
MODEL 2
REMARK VINA RESULT:    -6.524      1.849      7.205
REMARK INTER + INTRA:          -8.119
REMARK INTER:                  -7.799
REMARK INTRA:                  -0.320
REMARK UNBOUND:                -0.260
REMARK SMILES O=c1c(O)c(-c2ccc(O)c(O)c2)oc2cc(O)cc(O)c12
REMARK SMILES IDX 5 1 3 2 2 3 1 4 22 5 20 6 19 7 17 8 16 9 15 10 14 11 6 12
REMARK SMILES IDX 7 13 8 14 9 15 13 16 11 17 10 18 12 20 4 22 21 24 18 26
REMARK H PARENT 10 19 12 21 4 23 21 25 18 27
REMARK Flexibility Score: inf
ROOT
ATOM      1  C   UNL     1      14.217 -37.152  -3.359  1.00  0.00     0.180 A 
ATOM      2  C   UNL     1      13.374 -38.068  -4.019  1.00  0.00     0.208 A 
ATOM      3  C   UNL     1      12.081 -37.659  -4.381  1.00  0.00     0.238 A 
ATOM      4  O   UNL     1      11.322 -38.468  -4.982  1.00  0.00    -0.285 OA
ATOM      5  C   UNL     1      11.646 -36.357  -4.062  1.00  0.00     0.111 A 
ATOM      6  C   UNL     1      10.357 -35.869  -4.388  1.00  0.00     0.134 A 
ATOM      7  C   UNL     1       9.997 -34.562  -4.028  1.00  0.00     0.093 A 
ATOM      8  C   UNL     1      10.895 -33.736  -3.350  1.00  0.00     0.123 A 
ATOM      9  C   UNL     1      12.170 -34.212  -3.025  1.00  0.00     0.094 A 
ATOM     10  C   UNL     1      12.550 -35.511  -3.377  1.00  0.00     0.146 A 
ATOM     11  O   UNL     1      13.767 -35.937  -3.061  1.00  0.00    -0.452 OA
ENDROOT
BRANCH   1  12
ATOM     12  C   UNL     1      15.600 -37.501  -2.961  1.00  0.00     0.025 A 
ATOM     13  C   UNL     1      16.661 -37.230  -3.841  1.00  0.00     0.016 A 
ATOM     14  C   UNL     1      17.971 -37.569  -3.495  1.00  0.00     0.051 A 
ATOM     15  C   UNL     1      18.239 -38.200  -2.274  1.00  0.00     0.157 A 
ATOM     16  C   UNL     1      15.870 -38.153  -1.745  1.00  0.00     0.062 A 
ATOM     17  C   UNL     1      17.182 -38.496  -1.397  1.00  0.00     0.158 A 
BRANCH  15  18
ATOM     18  O   UNL     1      19.548 -38.535  -1.930  1.00  0.00    -0.504 OA
ATOM     19  H   UNL     1      19.748 -39.238  -1.228  1.00  0.00     0.293 HD
ENDBRANCH  15  18
BRANCH  17  20
ATOM     20  O   UNL     1      17.414 -39.136  -0.179  1.00  0.00    -0.504 OA
ATOM     21  H   UNL     1      17.530 -38.621   0.685  1.00  0.00     0.293 HD
ENDBRANCH  17  20
ENDBRANCH   1  12
BRANCH   2  22
ATOM     22  O   UNL     1      13.812 -39.368  -4.278  1.00  0.00    -0.502 OA
ATOM     23  H   UNL     1      14.122 -39.664  -5.197  1.00  0.00     0.293 HD
ENDBRANCH   2  22
BRANCH   6  24
ATOM     24  O   UNL     1       9.437 -36.671  -5.065  1.00  0.00    -0.507 OA
ATOM     25  H   UNL     1       8.443 -36.474  -5.045  1.00  0.00     0.293 HD
ENDBRANCH   6  24
BRANCH   8  26
ATOM     26  O   UNL     1      10.511 -32.443  -3.003  1.00  0.00    -0.508 OA
ATOM     27  H   UNL     1      10.074 -32.241  -2.111  1.00  0.00     0.293 HD
ENDBRANCH   8  26
TORSDOF 6
ENDMDL
MODEL 3
REMARK VINA RESULT:    -6.387      2.857      6.909
REMARK INTER + INTRA:          -7.954
REMARK INTER:                  -7.623
REMARK INTRA:                  -0.331
REMARK UNBOUND:                -0.260
REMARK SMILES O=c1c(O)c(-c2ccc(O)c(O)c2)oc2cc(O)cc(O)c12
REMARK SMILES IDX 5 1 3 2 2 3 1 4 22 5 20 6 19 7 17 8 16 9 15 10 14 11 6 12
REMARK SMILES IDX 7 13 8 14 9 15 13 16 11 17 10 18 12 20 4 22 21 24 18 26
REMARK H PARENT 10 19 12 21 4 23 21 25 18 27
REMARK Flexibility Score: inf
ROOT
ATOM      1  C   UNL     1      14.688 -37.755  -3.629  1.00  0.00     0.180 A 
ATOM      2  C   UNL     1      13.960 -36.587  -3.331  1.00  0.00     0.208 A 
ATOM      3  C   UNL     1      12.633 -36.483  -3.776  1.00  0.00     0.238 A 
ATOM      4  O   UNL     1      11.967 -35.447  -3.505  1.00  0.00    -0.285 OA
ATOM      5  C   UNL     1      12.065 -37.533  -4.526  1.00  0.00     0.111 A 
ATOM      6  C   UNL     1      10.736 -37.505  -5.015  1.00  0.00     0.134 A 
ATOM      7  C   UNL     1      10.247 -38.588  -5.761  1.00  0.00     0.093 A 
ATOM      8  C   UNL     1      11.057 -39.694  -6.028  1.00  0.00     0.123 A 
ATOM      9  C   UNL     1      12.370 -39.727  -5.547  1.00  0.00     0.094 A 
ATOM     10  C   UNL     1      12.876 -38.660  -4.800  1.00  0.00     0.146 A 
ATOM     11  O   UNL     1      14.125 -38.719  -4.352  1.00  0.00    -0.452 OA
ENDROOT
BRANCH   1  12
ATOM     12  C   UNL     1      16.086 -37.947  -3.179  1.00  0.00     0.025 A 
ATOM     13  C   UNL     1      17.142 -37.554  -4.017  1.00  0.00     0.016 A 
ATOM     14  C   UNL     1      18.468 -37.744  -3.621  1.00  0.00     0.051 A 
ATOM     15  C   UNL     1      18.758 -38.346  -2.391  1.00  0.00     0.157 A 
ATOM     16  C   UNL     1      16.381 -38.570  -1.953  1.00  0.00     0.062 A 
ATOM     17  C   UNL     1      17.709 -38.765  -1.555  1.00  0.00     0.158 A 
BRANCH  15  18
ATOM     18  O   UNL     1      20.083 -38.533  -1.997  1.00  0.00    -0.504 OA
ATOM     19  H   UNL     1      20.349 -38.543  -1.019  1.00  0.00     0.293 HD
ENDBRANCH  15  18
BRANCH  17  20
ATOM     20  O   UNL     1      17.965 -39.379  -0.330  1.00  0.00    -0.504 OA
ATOM     21  H   UNL     1      17.531 -39.067   0.531  1.00  0.00     0.293 HD
ENDBRANCH  17  20
ENDBRANCH   1  12
BRANCH   2  22
ATOM     22  O   UNL     1      14.562 -35.540  -2.630  1.00  0.00    -0.502 OA
ATOM     23  H   UNL     1      15.055 -35.684  -1.756  1.00  0.00     0.293 HD
ENDBRANCH   2  22
BRANCH   6  24
ATOM     24  O   UNL     1       9.902 -36.415  -4.765  1.00  0.00    -0.507 OA
ATOM     25  H   UNL     1      10.203 -35.633  -4.195  1.00  0.00     0.293 HD
ENDBRANCH   6  24
BRANCH   8  26
ATOM     26  O   UNL     1      10.546 -40.754  -6.773  1.00  0.00    -0.508 OA
ATOM     27  H   UNL     1      11.087 -41.194  -7.509  1.00  0.00     0.293 HD
ENDBRANCH   8  26
TORSDOF 6
ENDMDL
MODEL 4
REMARK VINA RESULT:    -6.327      1.639      7.048
REMARK INTER + INTRA:          -7.882
REMARK INTER:                  -7.550
REMARK INTRA:                  -0.332
REMARK UNBOUND:                -0.260
REMARK SMILES O=c1c(O)c(-c2ccc(O)c(O)c2)oc2cc(O)cc(O)c12
REMARK SMILES IDX 5 1 3 2 2 3 1 4 22 5 20 6 19 7 17 8 16 9 15 10 14 11 6 12
REMARK SMILES IDX 7 13 8 14 9 15 13 16 11 17 10 18 12 20 4 22 21 24 18 26
REMARK H PARENT 10 19 12 21 4 23 21 25 18 27
REMARK Flexibility Score: inf
ROOT
ATOM      1  C   UNL     1      14.463 -36.299  -3.034  1.00  0.00     0.180 A 
ATOM      2  C   UNL     1      14.408 -34.941  -2.664  1.00  0.00     0.208 A 
ATOM      3  C   UNL     1      13.210 -34.235  -2.853  1.00  0.00     0.238 A 
ATOM      4  O   UNL     1      13.146 -33.022  -2.515  1.00  0.00    -0.285 OA
ATOM      5  C   UNL     1      12.099 -34.887  -3.424  1.00  0.00     0.111 A 
ATOM      6  C   UNL     1      10.857 -34.246  -3.652  1.00  0.00     0.134 A 
ATOM      7  C   UNL     1       9.801 -34.963  -4.234  1.00  0.00     0.093 A 
ATOM      8  C   UNL     1       9.961 -36.303  -4.592  1.00  0.00     0.123 A 
ATOM      9  C   UNL     1      11.185 -36.942  -4.369  1.00  0.00     0.094 A 
ATOM     10  C   UNL     1      12.249 -36.247  -3.789  1.00  0.00     0.146 A 
ATOM     11  O   UNL     1      13.400 -36.878  -3.584  1.00  0.00    -0.452 OA
ENDROOT
BRANCH   1  12
ATOM     12  C   UNL     1      15.684 -37.116  -2.848  1.00  0.00     0.025 A 
ATOM     13  C   UNL     1      16.565 -37.296  -3.927  1.00  0.00     0.016 A 
ATOM     14  C   UNL     1      17.712 -38.079  -3.780  1.00  0.00     0.051 A 
ATOM     15  C   UNL     1      17.987 -38.709  -2.560  1.00  0.00     0.157 A 
ATOM     16  C   UNL     1      15.952 -37.767  -1.630  1.00  0.00     0.062 A 
ATOM     17  C   UNL     1      17.099 -38.555  -1.482  1.00  0.00     0.158 A 
BRANCH  15  18
ATOM     18  O   UNL     1      19.134 -39.488  -2.415  1.00  0.00    -0.504 OA
ATOM     19  H   UNL     1      20.058 -39.109  -2.588  1.00  0.00     0.293 HD
ENDBRANCH  15  18
BRANCH  17  20
ATOM     20  O   UNL     1      17.337 -39.180  -0.257  1.00  0.00    -0.504 OA
ATOM     21  H   UNL     1      16.584 -39.485   0.347  1.00  0.00     0.293 HD
ENDBRANCH  17  20
ENDBRANCH   1  12
BRANCH   2  22
ATOM     22  O   UNL     1      15.539 -34.305  -2.146  1.00  0.00    -0.502 OA
ATOM     23  H   UNL     1      16.475 -34.503  -2.481  1.00  0.00     0.293 HD
ENDBRANCH   2  22
BRANCH   6  24
ATOM     24  O   UNL     1      10.666 -32.908  -3.306  1.00  0.00    -0.507 OA
ATOM     25  H   UNL     1      10.534 -32.620  -2.343  1.00  0.00     0.293 HD
ENDBRANCH   6  24
BRANCH   8  26
ATOM     26  O   UNL     1       8.895 -36.991  -5.169  1.00  0.00    -0.508 OA
ATOM     27  H   UNL     1       8.077 -36.505  -5.516  1.00  0.00     0.293 HD
ENDBRANCH   8  26
TORSDOF 6
ENDMDL
MODEL 5
REMARK VINA RESULT:    -6.135      9.166     12.456
REMARK INTER + INTRA:          -7.651
REMARK INTER:                  -7.326
REMARK INTRA:                  -0.325
REMARK UNBOUND:                -0.260
REMARK SMILES O=c1c(O)c(-c2ccc(O)c(O)c2)oc2cc(O)cc(O)c12
REMARK SMILES IDX 5 1 3 2 2 3 1 4 22 5 20 6 19 7 17 8 16 9 15 10 14 11 6 12
REMARK SMILES IDX 7 13 8 14 9 15 13 16 11 17 10 18 12 20 4 22 21 24 18 26
REMARK H PARENT 10 19 12 21 4 23 21 25 18 27
REMARK Flexibility Score: inf
ROOT
ATOM      1  C   UNL     1      25.474 -39.223  -6.137  1.00  0.00     0.180 A 
ATOM      2  C   UNL     1      26.045 -40.282  -6.868  1.00  0.00     0.208 A 
ATOM      3  C   UNL     1      25.208 -41.096  -7.648  1.00  0.00     0.238 A 
ATOM      4  O   UNL     1      25.709 -42.040  -8.316  1.00  0.00    -0.285 OA
ATOM      5  C   UNL     1      23.820 -40.852  -7.668  1.00  0.00     0.111 A 
ATOM      6  C   UNL     1      22.907 -41.627  -8.424  1.00  0.00     0.134 A 
ATOM      7  C   UNL     1      21.538 -41.325  -8.384  1.00  0.00     0.093 A 
ATOM      8  C   UNL     1      21.063 -40.268  -7.605  1.00  0.00     0.123 A 
ATOM      9  C   UNL     1      21.960 -39.498  -6.857  1.00  0.00     0.094 A 
ATOM     10  C   UNL     1      23.328 -39.781  -6.884  1.00  0.00     0.146 A 
ATOM     11  O   UNL     1      24.158 -39.032  -6.167  1.00  0.00    -0.452 OA
ENDROOT
BRANCH   1  12
ATOM     12  C   UNL     1      26.292 -38.310  -5.306  1.00  0.00     0.025 A 
ATOM     13  C   UNL     1      26.851 -37.161  -5.889  1.00  0.00     0.016 A 
ATOM     14  C   UNL     1      27.643 -36.296  -5.130  1.00  0.00     0.051 A 
ATOM     15  C   UNL     1      27.903 -36.575  -3.782  1.00  0.00     0.157 A 
ATOM     16  C   UNL     1      26.571 -38.597  -3.958  1.00  0.00     0.062 A 
ATOM     17  C   UNL     1      27.367 -37.734  -3.196  1.00  0.00     0.158 A 
BRANCH  15  18
ATOM     18  O   UNL     1      28.691 -35.709  -3.026  1.00  0.00    -0.504 OA
ATOM     19  H   UNL     1      28.672 -35.722  -2.012  1.00  0.00     0.293 HD
ENDBRANCH  15  18
BRANCH  17  20
ATOM     20  O   UNL     1      27.617 -38.047  -1.860  1.00  0.00    -0.504 OA
ATOM     21  H   UNL     1      27.305 -37.455  -1.100  1.00  0.00     0.293 HD
ENDBRANCH  17  20
ENDBRANCH   1  12
BRANCH   2  22
ATOM     22  O   UNL     1      27.416 -40.534  -6.792  1.00  0.00    -0.502 OA
ATOM     23  H   UNL     1      27.857 -41.300  -7.288  1.00  0.00     0.293 HD
ENDBRANCH   2  22
BRANCH   6  24
ATOM     24  O   UNL     1      23.350 -42.691  -9.212  1.00  0.00    -0.507 OA
ATOM     25  H   UNL     1      22.827 -43.556  -9.281  1.00  0.00     0.293 HD
ENDBRANCH   6  24
BRANCH   8  26
ATOM     26  O   UNL     1      19.698 -39.991  -7.583  1.00  0.00    -0.508 OA
ATOM     27  H   UNL     1      19.053 -40.457  -8.210  1.00  0.00     0.293 HD
ENDBRANCH   8  26
TORSDOF 6
ENDMDL
MODEL 6
REMARK VINA RESULT:    -6.042      2.581      6.886
REMARK INTER + INTRA:          -7.539
REMARK INTER:                  -7.270
REMARK INTRA:                  -0.269
REMARK UNBOUND:                -0.260
REMARK SMILES O=c1c(O)c(-c2ccc(O)c(O)c2)oc2cc(O)cc(O)c12
REMARK SMILES IDX 5 1 3 2 2 3 1 4 22 5 20 6 19 7 17 8 16 9 15 10 14 11 6 12
REMARK SMILES IDX 7 13 8 14 9 15 13 16 11 17 10 18 12 20 4 22 21 24 18 26
REMARK H PARENT 10 19 12 21 4 23 21 25 18 27
REMARK Flexibility Score: inf
ROOT
ATOM      1  C   UNL     1      15.915 -35.514  -0.556  1.00  0.00     0.180 A 
ATOM      2  C   UNL     1      16.409 -34.979   0.650  1.00  0.00     0.208 A 
ATOM      3  C   UNL     1      15.530 -34.280   1.492  1.00  0.00     0.238 A 
ATOM      4  O   UNL     1      15.958 -33.806   2.579  1.00  0.00    -0.285 OA
ATOM      5  C   UNL     1      14.185 -34.109   1.107  1.00  0.00     0.111 A 
ATOM      6  C   UNL     1      13.236 -33.414   1.895  1.00  0.00     0.134 A 
ATOM      7  C   UNL     1      11.916 -33.280   1.438  1.00  0.00     0.093 A 
ATOM      8  C   UNL     1      11.527 -33.824   0.212  1.00  0.00     0.123 A 
ATOM      9  C   UNL     1      12.460 -34.512  -0.571  1.00  0.00     0.094 A 
ATOM     10  C   UNL     1      13.779 -34.659  -0.133  1.00  0.00     0.146 A 
ATOM     11  O   UNL     1      14.644 -35.320  -0.893  1.00  0.00    -0.452 OA
ENDROOT
BRANCH   1  12
ATOM     12  C   UNL     1      16.775 -36.280  -1.487  1.00  0.00     0.025 A 
ATOM     13  C   UNL     1      17.138 -35.712  -2.718  1.00  0.00     0.016 A 
ATOM     14  C   UNL     1      17.931 -36.424  -3.620  1.00  0.00     0.051 A 
ATOM     15  C   UNL     1      18.359 -37.722  -3.313  1.00  0.00     0.157 A 
ATOM     16  C   UNL     1      17.190 -37.591  -1.190  1.00  0.00     0.062 A 
ATOM     17  C   UNL     1      17.982 -38.309  -2.093  1.00  0.00     0.158 A 
BRANCH  15  18
ATOM     18  O   UNL     1      19.153 -38.430  -4.214  1.00  0.00    -0.504 OA
ATOM     19  H   UNL     1      19.001 -38.372  -5.215  1.00  0.00     0.293 HD
ENDBRANCH  15  18
BRANCH  17  20
ATOM     20  O   UNL     1      18.381 -39.604  -1.763  1.00  0.00    -0.504 OA
ATOM     21  H   UNL     1      19.318 -39.942  -1.947  1.00  0.00     0.293 HD
ENDBRANCH  17  20
ENDBRANCH   1  12
BRANCH   2  22
ATOM     22  O   UNL     1      17.758 -35.119   0.984  1.00  0.00    -0.502 OA
ATOM     23  H   UNL     1      18.183 -36.022   1.161  1.00  0.00     0.293 HD
ENDBRANCH   2  22
BRANCH   6  24
ATOM     24  O   UNL     1      13.593 -32.858   3.125  1.00  0.00    -0.507 OA
ATOM     25  H   UNL     1      13.175 -31.999   3.463  1.00  0.00     0.293 HD
ENDBRANCH   6  24
BRANCH   8  26
ATOM     26  O   UNL     1      10.211 -33.675  -0.218  1.00  0.00    -0.508 OA
ATOM     27  H   UNL     1       9.976 -33.647  -1.204  1.00  0.00     0.293 HD
ENDBRANCH   8  26
TORSDOF 6
ENDMDL
MODEL 7
REMARK VINA RESULT:    -5.996     10.191     11.629
REMARK INTER + INTRA:          -7.483
REMARK INTER:                  -7.342
REMARK INTRA:                  -0.141
REMARK UNBOUND:                -0.260
REMARK SMILES O=c1c(O)c(-c2ccc(O)c(O)c2)oc2cc(O)cc(O)c12
REMARK SMILES IDX 5 1 3 2 2 3 1 4 22 5 20 6 19 7 17 8 16 9 15 10 14 11 6 12
REMARK SMILES IDX 7 13 8 14 9 15 13 16 11 17 10 18 12 20 4 22 21 24 18 26
REMARK H PARENT 10 19 12 21 4 23 21 25 18 27
REMARK Flexibility Score: inf
ROOT
ATOM      1  C   UNL     1      23.356 -41.263  -7.771  1.00  0.00     0.180 A 
ATOM      2  C   UNL     1      24.467 -42.010  -7.335  1.00  0.00     0.208 A 
ATOM      3  C   UNL     1      25.407 -41.396  -6.492  1.00  0.00     0.238 A 
ATOM      4  O   UNL     1      26.400 -42.059  -6.086  1.00  0.00    -0.285 OA
ATOM      5  C   UNL     1      25.234 -40.048  -6.119  1.00  0.00     0.111 A 
ATOM      6  C   UNL     1      26.137 -39.355  -5.277  1.00  0.00     0.134 A 
ATOM      7  C   UNL     1      25.898 -38.010  -4.958  1.00  0.00     0.093 A 
ATOM      8  C   UNL     1      24.779 -37.345  -5.464  1.00  0.00     0.123 A 
ATOM      9  C   UNL     1      23.882 -38.025  -6.295  1.00  0.00     0.094 A 
ATOM     10  C   UNL     1      24.101 -39.366  -6.623  1.00  0.00     0.146 A 
ATOM     11  O   UNL     1      23.232 -39.989  -7.411  1.00  0.00    -0.452 OA
ENDROOT
BRANCH   1  12
ATOM     12  C   UNL     1      22.311 -41.845  -8.645  1.00  0.00     0.025 A 
ATOM     13  C   UNL     1      22.647 -42.251  -9.947  1.00  0.00     0.016 A 
ATOM     14  C   UNL     1      21.674 -42.783 -10.795  1.00  0.00     0.051 A 
ATOM     15  C   UNL     1      20.347 -42.902 -10.363  1.00  0.00     0.157 A 
ATOM     16  C   UNL     1      20.974 -41.947  -8.221  1.00  0.00     0.062 A 
ATOM     17  C   UNL     1      19.996 -42.478  -9.070  1.00  0.00     0.158 A 
BRANCH  15  18
ATOM     18  O   UNL     1      19.378 -43.436 -11.210  1.00  0.00    -0.504 OA
ATOM     19  H   UNL     1      19.615 -44.112 -11.928  1.00  0.00     0.293 HD
ENDBRANCH  15  18
BRANCH  17  20
ATOM     20  O   UNL     1      18.681 -42.571  -8.613  1.00  0.00    -0.504 OA
ATOM     21  H   UNL     1      18.425 -43.151  -7.824  1.00  0.00     0.293 HD
ENDBRANCH  17  20
ENDBRANCH   1  12
BRANCH   2  22
ATOM     22  O   UNL     1      24.642 -43.329  -7.760  1.00  0.00    -0.502 OA
ATOM     23  H   UNL     1      23.978 -43.797  -8.366  1.00  0.00     0.293 HD
ENDBRANCH   2  22
BRANCH   6  24
ATOM     24  O   UNL     1      27.265 -39.991  -4.757  1.00  0.00    -0.507 OA
ATOM     25  H   UNL     1      27.978 -40.387  -5.358  1.00  0.00     0.293 HD
ENDBRANCH   6  24
BRANCH   8  26
ATOM     26  O   UNL     1      24.567 -36.009  -5.132  1.00  0.00    -0.508 OA
ATOM     27  H   UNL     1      25.063 -35.568  -4.366  1.00  0.00     0.293 HD
ENDBRANCH   8  26
TORSDOF 6
ENDMDL
MODEL 8
REMARK VINA RESULT:    -5.907      1.553      3.122
REMARK INTER + INTRA:          -7.376
REMARK INTER:                  -7.055
REMARK INTRA:                  -0.321
REMARK UNBOUND:                -0.260
REMARK SMILES O=c1c(O)c(-c2ccc(O)c(O)c2)oc2cc(O)cc(O)c12
REMARK SMILES IDX 5 1 3 2 2 3 1 4 22 5 20 6 19 7 17 8 16 9 15 10 14 11 6 12
REMARK SMILES IDX 7 13 8 14 9 15 13 16 11 17 10 18 12 20 4 22 21 24 18 26
REMARK H PARENT 10 19 12 21 4 23 21 25 18 27
REMARK Flexibility Score: inf
ROOT
ATOM      1  C   UNL     1      14.474 -36.179  -1.669  1.00  0.00     0.180 A 
ATOM      2  C   UNL     1      15.084 -36.976  -2.658  1.00  0.00     0.208 A 
ATOM      3  C   UNL     1      16.110 -37.856  -2.281  1.00  0.00     0.238 A 
ATOM      4  O   UNL     1      16.656 -38.582  -3.156  1.00  0.00    -0.285 OA
ATOM      5  C   UNL     1      16.523 -37.910  -0.935  1.00  0.00     0.111 A 
ATOM      6  C   UNL     1      17.553 -38.766  -0.474  1.00  0.00     0.134 A 
ATOM      7  C   UNL     1      17.912 -38.755   0.882  1.00  0.00     0.093 A 
ATOM      8  C   UNL     1      17.265 -37.907   1.784  1.00  0.00     0.123 A 
ATOM      9  C   UNL     1      16.247 -37.060   1.335  1.00  0.00     0.094 A 
ATOM     10  C   UNL     1      15.873 -37.057  -0.012  1.00  0.00     0.146 A 
ATOM     11  O   UNL     1      14.900 -36.246  -0.411  1.00  0.00    -0.452 OA
ENDROOT
BRANCH   1  12
ATOM     12  C   UNL     1      13.372 -35.241  -1.984  1.00  0.00     0.025 A 
ATOM     13  C   UNL     1      13.650 -33.872  -2.126  1.00  0.00     0.016 A 
ATOM     14  C   UNL     1      12.623 -32.967  -2.403  1.00  0.00     0.051 A 
ATOM     15  C   UNL     1      11.301 -33.413  -2.524  1.00  0.00     0.157 A 
ATOM     16  C   UNL     1      12.041 -35.683  -2.087  1.00  0.00     0.062 A 
ATOM     17  C   UNL     1      11.009 -34.778  -2.361  1.00  0.00     0.158 A 
BRANCH  15  18
ATOM     18  O   UNL     1      10.278 -32.508  -2.803  1.00  0.00    -0.504 OA
ATOM     19  H   UNL     1       9.860 -32.446  -3.725  1.00  0.00     0.293 HD
ENDBRANCH  15  18
BRANCH  17  20
ATOM     20  O   UNL     1       9.702 -35.252  -2.463  1.00  0.00    -0.504 OA
ATOM     21  H   UNL     1       9.486 -36.150  -2.878  1.00  0.00     0.293 HD
ENDBRANCH  17  20
ENDBRANCH   1  12
BRANCH   2  22
ATOM     22  O   UNL     1      14.690 -36.867  -3.993  1.00  0.00    -0.502 OA
ATOM     23  H   UNL     1      14.795 -37.628  -4.655  1.00  0.00     0.293 HD
ENDBRANCH   2  22
BRANCH   6  24
ATOM     24  O   UNL     1      18.219 -39.624  -1.350  1.00  0.00    -0.507 OA
ATOM     25  H   UNL     1      19.043 -39.330  -1.861  1.00  0.00     0.293 HD
ENDBRANCH   6  24
BRANCH   8  26
ATOM     26  O   UNL     1      17.643 -37.915   3.125  1.00  0.00    -0.508 OA
ATOM     27  H   UNL     1      16.954 -37.936   3.869  1.00  0.00     0.293 HD
ENDBRANCH   8  26
TORSDOF 6
ENDMDL
MODEL 9
REMARK VINA RESULT:    -5.867      3.019      4.683
REMARK INTER + INTRA:          -7.328
REMARK INTER:                  -6.996
REMARK INTRA:                  -0.332
REMARK UNBOUND:                -0.260
REMARK SMILES O=c1c(O)c(-c2ccc(O)c(O)c2)oc2cc(O)cc(O)c12
REMARK SMILES IDX 5 1 3 2 2 3 1 4 22 5 20 6 19 7 17 8 16 9 15 10 14 11 6 12
REMARK SMILES IDX 7 13 8 14 9 15 13 16 11 17 10 18 12 20 4 22 21 24 18 26
REMARK H PARENT 10 19 12 21 4 23 21 25 18 27
REMARK Flexibility Score: inf
ROOT
ATOM      1  C   UNL     1      15.160 -37.529  -1.729  1.00  0.00     0.180 A 
ATOM      2  C   UNL     1      16.314 -38.315  -1.552  1.00  0.00     0.208 A 
ATOM      3  C   UNL     1      17.200 -37.993  -0.511  1.00  0.00     0.238 A 
ATOM      4  O   UNL     1      18.232 -38.697  -0.336  1.00  0.00    -0.285 OA
ATOM      5  C   UNL     1      16.929 -36.885   0.317  1.00  0.00     0.111 A 
ATOM      6  C   UNL     1      17.773 -36.492   1.384  1.00  0.00     0.134 A 
ATOM      7  C   UNL     1      17.438 -35.371   2.159  1.00  0.00     0.093 A 
ATOM      8  C   UNL     1      16.281 -34.637   1.887  1.00  0.00     0.123 A 
ATOM      9  C   UNL     1      15.444 -35.021   0.835  1.00  0.00     0.094 A 
ATOM     10  C   UNL     1      15.758 -36.136   0.053  1.00  0.00     0.146 A 
ATOM     11  O   UNL     1      14.944 -36.482  -0.938  1.00  0.00    -0.452 OA
ENDROOT
BRANCH   1  12
ATOM     12  C   UNL     1      14.168 -37.816  -2.791  1.00  0.00     0.025 A 
ATOM     13  C   UNL     1      14.278 -37.167  -4.032  1.00  0.00     0.016 A 
ATOM     14  C   UNL     1      13.343 -37.407  -5.041  1.00  0.00     0.051 A 
ATOM     15  C   UNL     1      12.274 -38.285  -4.820  1.00  0.00     0.157 A 
ATOM     16  C   UNL     1      13.083 -38.681  -2.566  1.00  0.00     0.062 A 
ATOM     17  C   UNL     1      12.142 -38.921  -3.574  1.00  0.00     0.158 A 
BRANCH  15  18
ATOM     18  O   UNL     1      11.343 -38.524  -5.830  1.00  0.00    -0.504 OA
ATOM     19  H   UNL     1      11.628 -38.658  -6.794  1.00  0.00     0.293 HD
ENDBRANCH  15  18
BRANCH  17  20
ATOM     20  O   UNL     1      11.082 -39.790  -3.318  1.00  0.00    -0.504 OA
ATOM     21  H   UNL     1      10.709 -40.408  -4.028  1.00  0.00     0.293 HD
ENDBRANCH  17  20
ENDBRANCH   1  12
BRANCH   2  22
ATOM     22  O   UNL     1      16.585 -39.377  -2.418  1.00  0.00    -0.502 OA
ATOM     23  H   UNL     1      16.543 -40.345  -2.120  1.00  0.00     0.293 HD
ENDBRANCH   2  22
BRANCH   6  24
ATOM     24  O   UNL     1      18.936 -37.204   1.681  1.00  0.00    -0.507 OA
ATOM     25  H   UNL     1      18.925 -38.208   1.821  1.00  0.00     0.293 HD
ENDBRANCH   6  24
BRANCH   8  26
ATOM     26  O   UNL     1      15.973 -33.527   2.671  1.00  0.00    -0.508 OA
ATOM     27  H   UNL     1      15.225 -33.552   3.354  1.00  0.00     0.293 HD
ENDBRANCH   8  26
TORSDOF 6
ENDMDL
