MODEL 1
REMARK VINA RESULT:    -2.821      0.000      0.000
REMARK INTER + INTRA:          -3.697
REMARK INTER:                  -3.564
REMARK INTRA:                  -0.133
REMARK UNBOUND:                -0.133
REMARK SMILES CCCCCCO
REMARK SMILES IDX 4 1 3 2 2 3 1 4 5 5 6 6 7 7
REMARK H PARENT 7 8
REMARK Flexibility Score: inf
ROOT
ATOM      1  C   UNL     1     162.521 164.759 164.875  1.00  0.00     0.002 C 
ENDROOT
BRANCH   1   2
ATOM      2  C   UNL     1     163.548 163.657 165.191  1.00  0.00    -0.000 C 
BRANCH   2   3
ATOM      3  C   UNL     1     164.899 164.215 165.661  1.00  0.00    -0.003 C 
ATOM      4  C   UNL     1     164.887 164.495 167.161  1.00  0.00     0.004 C 
ENDBRANCH   2   3
ENDBRANCH   1   2
BRANCH   1   5
ATOM      5  C   UNL     1     161.103 164.499 165.415  1.00  0.00     0.028 C 
BRANCH   5   6
ATOM      6  C   UNL     1     161.070 164.264 166.926  1.00  0.00     0.156 C 
BRANCH   6   7
ATOM      7  O   UNL     1     159.740 164.152 167.351  1.00  0.00    -0.396 OA
ATOM      8  H   UNL     1     159.213 164.761 166.771  1.00  0.00     0.210 HD
ENDBRANCH   6   7
ENDBRANCH   5   6
ENDBRANCH   1   5
TORSDOF 5
ENDMDL
MODEL 2
REMARK VINA RESULT:    -2.781      5.660      7.051
REMARK INTER + INTRA:          -3.645
REMARK INTER:                  -3.578
REMARK INTRA:                  -0.068
REMARK UNBOUND:                -0.133
REMARK SMILES CCCCCCO
REMARK SMILES IDX 4 1 3 2 2 3 1 4 5 5 6 6 7 7
REMARK H PARENT 7 8
REMARK Flexibility Score: inf
ROOT
ATOM      1  C   UNL     1     167.591 166.893 165.873  1.00  0.00     0.002 C 
ENDROOT
BRANCH   1   2
ATOM      2  C   UNL     1     166.233 166.835 165.151  1.00  0.00    -0.000 C 
BRANCH   2   3
ATOM      3  C   UNL     1     165.537 165.473 165.293  1.00  0.00    -0.003 C 
ATOM      4  C   UNL     1     165.306 165.125 166.761  1.00  0.00     0.004 C 
ENDBRANCH   2   3
ENDBRANCH   1   2
BRANCH   1   5
ATOM      5  C   UNL     1     168.820 166.767 164.954  1.00  0.00     0.028 C 
BRANCH   5   6
ATOM      6  C   UNL     1     170.145 166.778 165.717  1.00  0.00     0.156 C 
BRANCH   6   7
ATOM      7  O   UNL     1     171.171 166.333 164.875  1.00  0.00    -0.396 OA
ATOM      8  H   UNL     1     171.097 165.344 164.848  1.00  0.00     0.210 HD
ENDBRANCH   6   7
ENDBRANCH   5   6
ENDBRANCH   1   5
TORSDOF 5
ENDMDL
MODEL 3
REMARK VINA RESULT:    -2.755      3.236      4.153
REMARK INTER + INTRA:          -3.613
REMARK INTER:                  -3.575
REMARK INTRA:                  -0.038
REMARK UNBOUND:                -0.133
REMARK SMILES CCCCCCO
REMARK SMILES IDX 4 1 3 2 2 3 1 4 5 5 6 6 7 7
REMARK H PARENT 7 8
REMARK Flexibility Score: inf
ROOT
ATOM      1  C   UNL     1     165.700 165.707 165.047  1.00  0.00     0.002 C 
ENDROOT
BRANCH   1   2
ATOM      2  C   UNL     1     166.671 166.597 165.843  1.00  0.00    -0.000 C 
BRANCH   2   3
ATOM      3  C   UNL     1     167.853 167.096 164.999  1.00  0.00    -0.003 C 
ATOM      4  C   UNL     1     169.171 166.937 165.751  1.00  0.00     0.004 C 
ENDBRANCH   2   3
ENDBRANCH   1   2
BRANCH   1   5
ATOM      5  C   UNL     1     164.894 164.706 165.895  1.00  0.00     0.028 C 
BRANCH   5   6
ATOM      6  C   UNL     1     164.483 163.454 165.118  1.00  0.00     0.156 C 
BRANCH   6   7
ATOM      7  O   UNL     1     163.087 163.348 165.111  1.00  0.00    -0.396 OA
ATOM      8  H   UNL     1     162.873 162.504 165.590  1.00  0.00     0.210 HD
ENDBRANCH   6   7
ENDBRANCH   5   6
ENDBRANCH   1   5
TORSDOF 5
ENDMDL
MODEL 4
REMARK VINA RESULT:    -2.744      2.675      3.765
REMARK INTER + INTRA:          -3.598
REMARK INTER:                  -3.505
REMARK INTRA:                  -0.093
REMARK UNBOUND:                -0.133
REMARK SMILES CCCCCCO
REMARK SMILES IDX 4 1 3 2 2 3 1 4 5 5 6 6 7 7
REMARK H PARENT 7 8
REMARK Flexibility Score: inf
ROOT
ATOM      1  C   UNL     1     165.270 165.083 166.600  1.00  0.00     0.002 C 
ENDROOT
BRANCH   1   2
ATOM      2  C   UNL     1     166.003 166.419 166.813  1.00  0.00    -0.000 C 
BRANCH   2   3
ATOM      3  C   UNL     1     167.015 166.730 165.700  1.00  0.00    -0.003 C 
ATOM      4  C   UNL     1     166.740 168.092 165.071  1.00  0.00     0.004 C 
ENDBRANCH   2   3
ENDBRANCH   1   2
BRANCH   1   5
ATOM      5  C   UNL     1     164.770 164.839 165.164  1.00  0.00     0.028 C 
BRANCH   5   6
ATOM      6  C   UNL     1     164.087 163.482 164.988  1.00  0.00     0.156 C 
BRANCH   6   7
ATOM      7  O   UNL     1     162.714 163.617 165.231  1.00  0.00    -0.396 OA
ATOM      8  H   UNL     1     162.266 163.497 164.353  1.00  0.00     0.210 HD
ENDBRANCH   6   7
ENDBRANCH   5   6
ENDBRANCH   1   5
TORSDOF 5
ENDMDL
MODEL 5
REMARK VINA RESULT:    -2.740      2.638      3.440
REMARK INTER + INTRA:          -3.594
REMARK INTER:                  -3.474
REMARK INTRA:                  -0.120
REMARK UNBOUND:                -0.133
REMARK SMILES CCCCCCO
REMARK SMILES IDX 4 1 3 2 2 3 1 4 5 5 6 6 7 7
REMARK H PARENT 7 8
REMARK Flexibility Score: inf
ROOT
ATOM      1  C   UNL     1     165.217 164.869 166.775  1.00  0.00     0.002 C 
ENDROOT
BRANCH   1   2
ATOM      2  C   UNL     1     165.778 165.807 165.691  1.00  0.00    -0.000 C 
BRANCH   2   3
ATOM      3  C   UNL     1     166.377 167.098 166.269  1.00  0.00    -0.003 C 
ATOM      4  C   UNL     1     166.139 167.188 167.774  1.00  0.00     0.004 C 
ENDBRANCH   2   3
ENDBRANCH   1   2
BRANCH   1   5
ATOM      5  C   UNL     1     163.774 164.388 166.532  1.00  0.00     0.028 C 
BRANCH   5   6
ATOM      6  C   UNL     1     163.500 164.026 165.072  1.00  0.00     0.156 C 
BRANCH   6   7
ATOM      7  O   UNL     1     163.726 162.657 164.881  1.00  0.00    -0.396 OA
ATOM      8  H   UNL     1     164.624 162.581 164.465  1.00  0.00     0.210 HD
ENDBRANCH   6   7
ENDBRANCH   5   6
ENDBRANCH   1   5
TORSDOF 5
ENDMDL
MODEL 6
REMARK VINA RESULT:    -2.726      4.277      5.629
REMARK INTER + INTRA:          -3.576
REMARK INTER:                  -3.465
REMARK INTRA:                  -0.111
REMARK UNBOUND:                -0.133
REMARK SMILES CCCCCCO
REMARK SMILES IDX 4 1 3 2 2 3 1 4 5 5 6 6 7 7
REMARK H PARENT 7 8
REMARK Flexibility Score: inf
ROOT
ATOM      1  C   UNL     1     166.215 166.433 166.789  1.00  0.00     0.002 C 
ENDROOT
BRANCH   1   2
ATOM      2  C   UNL     1     165.464 165.438 165.886  1.00  0.00    -0.000 C 
BRANCH   2   3
ATOM      3  C   UNL     1     164.740 164.340 166.679  1.00  0.00    -0.003 C 
ATOM      4  C   UNL     1     165.196 164.323 168.135  1.00  0.00     0.004 C 
ENDBRANCH   2   3
ENDBRANCH   1   2
BRANCH   1   5
ATOM      5  C   UNL     1     167.653 166.757 166.340  1.00  0.00     0.028 C 
BRANCH   5   6
ATOM      6  C   UNL     1     167.731 167.266 164.900  1.00  0.00     0.156 C 
BRANCH   6   7
ATOM      7  O   UNL     1     167.458 168.639 164.875  1.00  0.00    -0.396 OA
ATOM      8  H   UNL     1     167.672 168.946 163.955  1.00  0.00     0.210 HD
ENDBRANCH   6   7
ENDBRANCH   5   6
ENDBRANCH   1   5
TORSDOF 5
ENDMDL
MODEL 7
REMARK VINA RESULT:    -2.707      2.803      4.254
REMARK INTER + INTRA:          -3.552
REMARK INTER:                  -3.466
REMARK INTRA:                  -0.086
REMARK UNBOUND:                -0.133
REMARK SMILES CCCCCCO
REMARK SMILES IDX 4 1 3 2 2 3 1 4 5 5 6 6 7 7
REMARK H PARENT 7 8
REMARK Flexibility Score: inf
ROOT
ATOM      1  C   UNL     1     163.675 164.483 166.841  1.00  0.00     0.002 C 
ENDROOT
BRANCH   1   2
ATOM      2  C   UNL     1     163.093 164.062 165.480  1.00  0.00    -0.000 C 
BRANCH   2   3
ATOM      3  C   UNL     1     161.627 164.484 165.301  1.00  0.00    -0.003 C 
ATOM      4  C   UNL     1     160.814 164.198 166.560  1.00  0.00     0.004 C 
ENDBRANCH   2   3
ENDBRANCH   1   2
BRANCH   1   5
ATOM      5  C   UNL     1     165.212 164.565 166.891  1.00  0.00     0.028 C 
BRANCH   5   6
ATOM      6  C   UNL     1     165.759 165.903 166.391  1.00  0.00     0.156 C 
BRANCH   6   7
ATOM      7  O   UNL     1     166.147 165.776 165.051  1.00  0.00    -0.396 OA
ATOM      8  H   UNL     1     165.958 164.835 164.798  1.00  0.00     0.210 HD
ENDBRANCH   6   7
ENDBRANCH   5   6
ENDBRANCH   1   5
TORSDOF 5
ENDMDL
MODEL 8
REMARK VINA RESULT:    -2.703      1.702      2.608
REMARK INTER + INTRA:          -3.547
REMARK INTER:                  -3.474
REMARK INTRA:                  -0.072
REMARK UNBOUND:                -0.133
REMARK SMILES CCCCCCO
REMARK SMILES IDX 4 1 3 2 2 3 1 4 5 5 6 6 7 7
REMARK H PARENT 7 8
REMARK Flexibility Score: inf
ROOT
ATOM      1  C   UNL     1     164.795 164.696 165.410  1.00  0.00     0.002 C 
ENDROOT
BRANCH   1   2
ATOM      2  C   UNL     1     165.165 165.068 166.857  1.00  0.00    -0.000 C 
BRANCH   2   3
ATOM      3  C   UNL     1     165.934 166.394 166.955  1.00  0.00    -0.003 C 
ATOM      4  C   UNL     1     166.687 166.689 165.661  1.00  0.00     0.004 C 
ENDBRANCH   2   3
ENDBRANCH   1   2
BRANCH   1   5
ATOM      5  C   UNL     1     163.584 163.754 165.273  1.00  0.00     0.028 C 
BRANCH   5   6
ATOM      6  C   UNL     1     162.266 164.499 165.051  1.00  0.00     0.156 C 
BRANCH   6   7
ATOM      7  O   UNL     1     161.221 163.784 165.649  1.00  0.00    -0.396 OA
ATOM      8  H   UNL     1     160.443 163.871 165.039  1.00  0.00     0.210 HD
ENDBRANCH   6   7
ENDBRANCH   5   6
ENDBRANCH   1   5
TORSDOF 5
ENDMDL
