MODEL 1
REMARK VINA RESULT:    -4.818      0.000      0.000
REMARK INTER + INTRA:          -5.659
REMARK INTER:                  -5.522
REMARK INTRA:                  -0.137
REMARK UNBOUND:                -0.137
REMARK SMILES O=C([O-])C=Cc1ccc(O)cc1
REMARK SMILES IDX 6 1 7 2 12 3 8 4 11 5 9 6 5 7 4 8 2 9 1 10 3 11 10 12
REMARK H PARENT 10 13
REMARK Flexibility Score: inf
ROOT
ATOM      1  C   UNL     1       7.061  -9.872  41.834  1.00  0.00    -0.025 A 
ATOM      2  C   UNL     1       7.568  -8.586  41.559  1.00  0.00     0.012 A 
ATOM      3  C   UNL     1       7.065 -10.332  43.162  1.00  0.00     0.012 A 
ATOM      4  C   UNL     1       8.088  -7.795  42.589  1.00  0.00     0.047 A 
ATOM      5  C   UNL     1       7.586  -9.538  44.189  1.00  0.00     0.047 A 
ATOM      6  C   UNL     1       8.101  -8.271  43.906  1.00  0.00     0.115 A 
ENDROOT
BRANCH   1   7
ATOM      7  C   UNL     1       6.489 -10.747  40.782  1.00  0.00     0.010 C 
ATOM      8  C   UNL     1       7.017 -11.927  40.425  1.00  0.00     0.025 C 
BRANCH   8   9
ATOM      9  C   UNL     1       6.415 -12.775  39.383  1.00  0.00     0.064 C 
ATOM     10  O   UNL     1       6.905 -12.831  38.223  1.00  0.00    -0.545 OA
ATOM     11  O   UNL     1       5.287 -13.528  39.683  1.00  0.00    -0.545 OA
ENDBRANCH   8   9
ENDBRANCH   1   7
BRANCH   6  12
ATOM     12  O   UNL     1       8.617  -7.491  44.939  1.00  0.00    -0.508 OA
ATOM     13  H   UNL     1       9.228  -6.704  44.754  1.00  0.00     0.293 HD
ENDBRANCH   6  12
TORSDOF 3
ENDMDL
MODEL 2
REMARK VINA RESULT:    -4.773      3.710      6.074
REMARK INTER + INTRA:          -5.607
REMARK INTER:                  -5.467
REMARK INTRA:                  -0.140
REMARK UNBOUND:                -0.137
REMARK SMILES O=C([O-])C=Cc1ccc(O)cc1
REMARK SMILES IDX 6 1 7 2 12 3 8 4 11 5 9 6 5 7 4 8 2 9 1 10 3 11 10 12
REMARK H PARENT 10 13
REMARK Flexibility Score: inf
ROOT
ATOM      1  C   UNL     1       7.916  -6.669  41.961  1.00  0.00    -0.025 A 
ATOM      2  C   UNL     1       8.050  -6.350  43.328  1.00  0.00     0.012 A 
ATOM      3  C   UNL     1       7.768  -8.017  41.591  1.00  0.00     0.012 A 
ATOM      4  C   UNL     1       8.061  -7.363  44.293  1.00  0.00     0.047 A 
ATOM      5  C   UNL     1       7.780  -9.026  42.559  1.00  0.00     0.047 A 
ATOM      6  C   UNL     1       7.929  -8.704  43.910  1.00  0.00     0.115 A 
ENDROOT
BRANCH   1   7
ATOM      7  C   UNL     1       7.888  -5.634  40.899  1.00  0.00     0.010 C 
ATOM      8  C   UNL     1       7.882  -4.315  41.142  1.00  0.00     0.025 C 
BRANCH   8   9
ATOM      9  C   UNL     1       7.865  -3.316  40.061  1.00  0.00     0.064 C 
ATOM     10  O   UNL     1       7.899  -2.082  40.312  1.00  0.00    -0.545 OA
ATOM     11  O   UNL     1       7.812  -3.741  38.740  1.00  0.00    -0.545 OA
ENDBRANCH   8   9
ENDBRANCH   1   7
BRANCH   6  12
ATOM     12  O   UNL     1       7.939  -9.720  44.863  1.00  0.00    -0.508 OA
ATOM     13  H   UNL     1       8.059  -9.520  45.849  1.00  0.00     0.293 HD
ENDBRANCH   6  12
TORSDOF 3
ENDMDL
MODEL 3
REMARK VINA RESULT:    -4.744      0.314      1.706
REMARK INTER + INTRA:          -5.574
REMARK INTER:                  -5.437
REMARK INTRA:                  -0.137
REMARK UNBOUND:                -0.137
REMARK SMILES O=C([O-])C=Cc1ccc(O)cc1
REMARK SMILES IDX 6 1 7 2 12 3 8 4 11 5 9 6 5 7 4 8 2 9 1 10 3 11 10 12
REMARK H PARENT 10 13
REMARK Flexibility Score: inf
ROOT
ATOM      1  C   UNL     1       7.108  -9.967  41.892  1.00  0.00    -0.025 A 
ATOM      2  C   UNL     1       7.076 -10.403  43.232  1.00  0.00     0.012 A 
ATOM      3  C   UNL     1       7.667  -8.710  41.602  1.00  0.00     0.012 A 
ATOM      4  C   UNL     1       7.570  -9.586  44.254  1.00  0.00     0.047 A 
ATOM      5  C   UNL     1       8.159  -7.896  42.628  1.00  0.00     0.047 A 
ATOM      6  C   UNL     1       8.109  -8.329  43.955  1.00  0.00     0.115 A 
ENDROOT
BRANCH   1   7
ATOM      7  C   UNL     1       6.608 -10.797  40.768  1.00  0.00     0.010 C 
ATOM      8  C   UNL     1       6.501 -12.133  40.818  1.00  0.00     0.025 C 
BRANCH   8   9
ATOM      9  C   UNL     1       5.990 -12.923  39.687  1.00  0.00     0.064 C 
ATOM     10  O   UNL     1       4.875 -13.507  39.749  1.00  0.00    -0.545 OA
ATOM     11  O   UNL     1       6.749 -13.026  38.528  1.00  0.00    -0.545 OA
ENDBRANCH   8   9
ENDBRANCH   1   7
BRANCH   6  12
ATOM     12  O   UNL     1       8.603  -7.508  44.966  1.00  0.00    -0.508 OA
ATOM     13  H   UNL     1       8.050  -7.289  45.787  1.00  0.00     0.293 HD
ENDBRANCH   6  12
TORSDOF 3
ENDMDL
MODEL 4
REMARK VINA RESULT:    -4.688      2.434      6.166
REMARK INTER + INTRA:          -5.510
REMARK INTER:                  -5.366
REMARK INTRA:                  -0.144
REMARK UNBOUND:                -0.137
REMARK SMILES O=C([O-])C=Cc1ccc(O)cc1
REMARK SMILES IDX 6 1 7 2 12 3 8 4 11 5 9 6 5 7 4 8 2 9 1 10 3 11 10 12
REMARK H PARENT 10 13
REMARK Flexibility Score: inf
ROOT
ATOM      1  C   UNL     1       8.082  -8.206  42.804  1.00  0.00    -0.025 A 
ATOM      2  C   UNL     1       7.868  -9.037  43.922  1.00  0.00     0.012 A 
ATOM      3  C   UNL     1       7.535  -8.583  41.565  1.00  0.00     0.012 A 
ATOM      4  C   UNL     1       7.145 -10.227  43.791  1.00  0.00     0.047 A 
ATOM      5  C   UNL     1       6.812  -9.774  41.439  1.00  0.00     0.047 A 
ATOM      6  C   UNL     1       6.618 -10.600  42.549  1.00  0.00     0.115 A 
ENDROOT
BRANCH   1   7
ATOM      7  C   UNL     1       8.833  -6.929  42.890  1.00  0.00     0.010 C 
ATOM      8  C   UNL     1       8.368  -5.759  42.429  1.00  0.00     0.025 C 
BRANCH   8   9
ATOM      9  C   UNL     1       9.137  -4.509  42.541  1.00  0.00     0.064 C 
ATOM     10  O   UNL     1       8.559  -3.396  42.661  1.00  0.00    -0.545 OA
ATOM     11  O   UNL     1      10.525  -4.556  42.516  1.00  0.00    -0.545 OA
ENDBRANCH   8   9
ENDBRANCH   1   7
BRANCH   6  12
ATOM     12  O   UNL     1       5.896 -11.783  42.408  1.00  0.00    -0.508 OA
ATOM     13  H   UNL     1       5.312 -12.139  43.155  1.00  0.00     0.293 HD
ENDBRANCH   6  12
TORSDOF 3
ENDMDL
MODEL 5
REMARK VINA RESULT:    -4.616      6.438      8.136
REMARK INTER + INTRA:          -5.428
REMARK INTER:                  -5.277
REMARK INTRA:                  -0.151
REMARK UNBOUND:                -0.137
REMARK SMILES O=C([O-])C=Cc1ccc(O)cc1
REMARK SMILES IDX 6 1 7 2 12 3 8 4 11 5 9 6 5 7 4 8 2 9 1 10 3 11 10 12
REMARK H PARENT 10 13
REMARK Flexibility Score: inf
ROOT
ATOM      1  C   UNL     1       8.104  -3.176  40.322  1.00  0.00    -0.025 A 
ATOM      2  C   UNL     1       8.443  -2.770  41.629  1.00  0.00     0.012 A 
ATOM      3  C   UNL     1       8.367  -4.502  39.934  1.00  0.00     0.012 A 
ATOM      4  C   UNL     1       9.052  -3.667  42.513  1.00  0.00     0.047 A 
ATOM      5  C   UNL     1       8.977  -5.395  40.822  1.00  0.00     0.047 A 
ATOM      6  C   UNL     1       9.323  -4.981  42.110  1.00  0.00     0.115 A 
ENDROOT
BRANCH   1   7
ATOM      7  C   UNL     1       7.448  -2.269  39.349  1.00  0.00     0.010 C 
ATOM      8  C   UNL     1       6.982  -2.666  38.156  1.00  0.00     0.025 C 
BRANCH   8   9
ATOM      9  C   UNL     1       6.326  -1.740  37.220  1.00  0.00     0.064 C 
ATOM     10  O   UNL     1       5.166  -1.300  37.442  1.00  0.00    -0.545 OA
ATOM     11  O   UNL     1       6.997  -1.340  36.071  1.00  0.00    -0.545 OA
ENDBRANCH   8   9
ENDBRANCH   1   7
BRANCH   6  12
ATOM     12  O   UNL     1       9.930  -5.881  42.983  1.00  0.00    -0.508 OA
ATOM     13  H   UNL     1      10.771  -5.639  43.493  1.00  0.00     0.293 HD
ENDBRANCH   6  12
TORSDOF 3
ENDMDL
MODEL 6
REMARK VINA RESULT:    -4.604      7.748      9.830
REMARK INTER + INTRA:          -5.413
REMARK INTER:                  -5.262
REMARK INTRA:                  -0.151
REMARK UNBOUND:                -0.137
REMARK SMILES O=C([O-])C=Cc1ccc(O)cc1
REMARK SMILES IDX 6 1 7 2 12 3 8 4 11 5 9 6 5 7 4 8 2 9 1 10 3 11 10 12
REMARK H PARENT 10 13
REMARK Flexibility Score: inf
ROOT
ATOM      1  C   UNL     1       6.763  -2.338  37.698  1.00  0.00    -0.025 A 
ATOM      2  C   UNL     1       6.018  -1.179  37.398  1.00  0.00     0.012 A 
ATOM      3  C   UNL     1       7.134  -3.196  36.648  1.00  0.00     0.012 A 
ATOM      4  C   UNL     1       5.636  -0.906  36.080  1.00  0.00     0.047 A 
ATOM      5  C   UNL     1       6.749  -2.918  35.332  1.00  0.00     0.047 A 
ATOM      6  C   UNL     1       5.998  -1.776  35.045  1.00  0.00     0.115 A 
ENDROOT
BRANCH   1   7
ATOM      7  C   UNL     1       7.204  -2.670  39.075  1.00  0.00     0.010 C 
ATOM      8  C   UNL     1       7.909  -3.766  39.388  1.00  0.00     0.025 C 
BRANCH   8   9
ATOM      9  C   UNL     1       8.339  -4.058  40.765  1.00  0.00     0.064 C 
ATOM     10  O   UNL     1       9.386  -3.547  41.244  1.00  0.00    -0.545 OA
ATOM     11  O   UNL     1       7.575  -4.910  41.553  1.00  0.00    -0.545 OA
ENDBRANCH   8   9
ENDBRANCH   1   7
BRANCH   6  12
ATOM     12  O   UNL     1       5.620  -1.513  33.730  1.00  0.00    -0.508 OA
ATOM     13  H   UNL     1       4.724  -1.814  33.365  1.00  0.00     0.293 HD
ENDBRANCH   6  12
TORSDOF 3
ENDMDL
MODEL 7
REMARK VINA RESULT:    -4.558      7.755      9.914
REMARK INTER + INTRA:          -5.361
REMARK INTER:                  -5.220
REMARK INTRA:                  -0.140
REMARK UNBOUND:                -0.137
REMARK SMILES O=C([O-])C=Cc1ccc(O)cc1
REMARK SMILES IDX 6 1 7 2 12 3 8 4 11 5 9 6 5 7 4 8 2 9 1 10 3 11 10 12
REMARK H PARENT 10 13
REMARK Flexibility Score: inf
ROOT
ATOM      1  C   UNL     1       6.766  -2.360  37.679  1.00  0.00    -0.025 A 
ATOM      2  C   UNL     1       7.130  -3.227  36.629  1.00  0.00     0.012 A 
ATOM      3  C   UNL     1       6.001  -1.218  37.381  1.00  0.00     0.012 A 
ATOM      4  C   UNL     1       6.755  -2.940  35.312  1.00  0.00     0.047 A 
ATOM      5  C   UNL     1       5.630  -0.935  36.062  1.00  0.00     0.047 A 
ATOM      6  C   UNL     1       6.007  -1.792  35.025  1.00  0.00     0.115 A 
ENDROOT
BRANCH   1   7
ATOM      7  C   UNL     1       7.128  -2.622  39.093  1.00  0.00     0.010 C 
ATOM      8  C   UNL     1       7.860  -3.671  39.494  1.00  0.00     0.025 C 
BRANCH   8   9
ATOM      9  C   UNL     1       8.209  -3.893  40.906  1.00  0.00     0.064 C 
ATOM     10  O   UNL     1       8.565  -2.939  41.649  1.00  0.00    -0.545 OA
ATOM     11  O   UNL     1       8.142  -5.177  41.433  1.00  0.00    -0.545 OA
ENDBRANCH   8   9
ENDBRANCH   1   7
BRANCH   6  12
ATOM     12  O   UNL     1       5.630  -1.497  33.717  1.00  0.00    -0.508 OA
ATOM     13  H   UNL     1       5.579  -2.216  33.006  1.00  0.00     0.293 HD
ENDBRANCH   6  12
TORSDOF 3
ENDMDL
MODEL 8
REMARK VINA RESULT:    -4.514      4.453      6.086
REMARK INTER + INTRA:          -5.311
REMARK INTER:                  -5.168
REMARK INTRA:                  -0.144
REMARK UNBOUND:                -0.137
REMARK SMILES O=C([O-])C=Cc1ccc(O)cc1
REMARK SMILES IDX 6 1 7 2 12 3 8 4 11 5 9 6 5 7 4 8 2 9 1 10 3 11 10 12
REMARK H PARENT 10 13
REMARK Flexibility Score: inf
ROOT
ATOM      1  C   UNL     1       7.918  -4.540  41.520  1.00  0.00    -0.025 A 
ATOM      2  C   UNL     1       7.910  -3.784  40.330  1.00  0.00     0.012 A 
ATOM      3  C   UNL     1       8.235  -3.898  42.729  1.00  0.00     0.012 A 
ATOM      4  C   UNL     1       8.236  -2.424  40.354  1.00  0.00     0.047 A 
ATOM      5  C   UNL     1       8.562  -2.538  42.748  1.00  0.00     0.047 A 
ATOM      6  C   UNL     1       8.566  -1.798  41.563  1.00  0.00     0.115 A 
ENDROOT
BRANCH   1   7
ATOM      7  C   UNL     1       7.570  -5.982  41.553  1.00  0.00     0.010 C 
ATOM      8  C   UNL     1       8.277  -6.905  42.220  1.00  0.00     0.025 C 
BRANCH   8   9
ATOM      9  C   UNL     1       7.895  -8.326  42.239  1.00  0.00     0.064 C 
ATOM     10  O   UNL     1       8.148  -9.057  43.235  1.00  0.00    -0.545 OA
ATOM     11  O   UNL     1       7.242  -8.872  41.142  1.00  0.00    -0.545 OA
ENDBRANCH   8   9
ENDBRANCH   1   7
BRANCH   6  12
ATOM     12  O   UNL     1       8.893  -0.445  41.596  1.00  0.00    -0.508 OA
ATOM     13  H   UNL     1       8.316   0.251  41.140  1.00  0.00     0.293 HD
ENDBRANCH   6  12
TORSDOF 3
ENDMDL
MODEL 9
REMARK VINA RESULT:    -4.487     13.026     14.065
REMARK INTER + INTRA:          -5.280
REMARK INTER:                  -5.130
REMARK INTRA:                  -0.150
REMARK UNBOUND:                -0.137
REMARK SMILES O=C([O-])C=Cc1ccc(O)cc1
REMARK SMILES IDX 6 1 7 2 12 3 8 4 11 5 9 6 5 7 4 8 2 9 1 10 3 11 10 12
REMARK H PARENT 10 13
REMARK Flexibility Score: inf
ROOT
ATOM      1  C   UNL     1      20.549 -12.180  45.199  1.00  0.00    -0.025 A 
ATOM      2  C   UNL     1      20.895 -13.486  45.601  1.00  0.00     0.012 A 
ATOM      3  C   UNL     1      21.262 -11.094  45.736  1.00  0.00     0.012 A 
ATOM      4  C   UNL     1      21.914 -13.691  46.537  1.00  0.00     0.047 A 
ATOM      5  C   UNL     1      22.279 -11.304  46.673  1.00  0.00     0.047 A 
ATOM      6  C   UNL     1      22.607 -12.601  47.078  1.00  0.00     0.115 A 
ENDROOT
BRANCH   1   7
ATOM      7  C   UNL     1      19.484 -11.907  44.202  1.00  0.00     0.010 C 
ATOM      8  C   UNL     1      18.765 -10.775  44.170  1.00  0.00     0.025 C 
BRANCH   8   9
ATOM      9  C   UNL     1      17.724 -10.534  43.159  1.00  0.00     0.064 C 
ATOM     10  O   UNL     1      17.447 -11.401  42.288  1.00  0.00    -0.545 OA
ATOM     11  O   UNL     1      17.032  -9.330  43.166  1.00  0.00    -0.545 OA
ENDBRANCH   8   9
ENDBRANCH   1   7
BRANCH   6  12
ATOM     12  O   UNL     1      23.622 -12.795  48.011  1.00  0.00    -0.508 OA
ATOM     13  H   UNL     1      23.769 -13.694  48.455  1.00  0.00     0.293 HD
ENDBRANCH   6  12
TORSDOF 3
ENDMDL
