MODEL 1
REMARK VINA RESULT:    -5.643      0.000      0.000
REMARK INTER + INTRA:          -6.184
REMARK INTER:                  -6.138
REMARK INTRA:                  -0.046
REMARK UNBOUND:                -0.046
REMARK SMILES COc1ccccc1O
REMARK SMILES IDX 3 1 4 2 5 3 6 4 7 5 8 6 2 7 1 8 9 9
REMARK H PARENT 9 10
REMARK Flexibility Score: inf
ROOT
ATOM      1  C   UNL     1      18.654  -2.343  26.904  1.00  0.00     0.160 A 
ATOM      2  C   UNL     1      17.398  -2.821  27.331  1.00  0.00     0.050 A 
ATOM      3  C   UNL     1      16.232  -2.116  27.022  1.00  0.00     0.004 A 
ATOM      4  C   UNL     1      16.303  -0.931  26.288  1.00  0.00     0.004 A 
ATOM      5  C   UNL     1      17.541  -0.449  25.859  1.00  0.00     0.050 A 
ATOM      6  C   UNL     1      18.716  -1.147  26.162  1.00  0.00     0.157 A 
ENDROOT
BRANCH   1   7
ATOM      7  O   UNL     1      19.847  -3.024  27.194  1.00  0.00    -0.493 OA
ATOM      8  C   UNL     1      20.532  -2.956  28.441  1.00  0.00     0.278 C 
ENDBRANCH   1   7
BRANCH   6   9
ATOM      9  O   UNL     1      19.936  -0.637  25.719  1.00  0.00    -0.504 OA
ATOM     10  H   UNL     1      20.782  -0.705  26.270  1.00  0.00     0.293 HD
ENDBRANCH   6   9
TORSDOF 2
ENDMDL
MODEL 2
REMARK VINA RESULT:    -5.567     11.943     12.859
REMARK INTER + INTRA:          -6.101
REMARK INTER:                  -6.060
REMARK INTRA:                  -0.041
REMARK UNBOUND:                -0.046
REMARK SMILES COc1ccccc1O
REMARK SMILES IDX 3 1 4 2 5 3 6 4 7 5 8 6 2 7 1 8 9 9
REMARK H PARENT 9 10
REMARK Flexibility Score: inf
ROOT
ATOM      1  C   UNL     1      12.279 -12.284  29.180  1.00  0.00     0.160 A 
ATOM      2  C   UNL     1      13.632 -11.985  29.440  1.00  0.00     0.050 A 
ATOM      3  C   UNL     1      14.645 -12.567  28.674  1.00  0.00     0.004 A 
ATOM      4  C   UNL     1      14.322 -13.452  27.643  1.00  0.00     0.004 A 
ATOM      5  C   UNL     1      12.985 -13.755  27.376  1.00  0.00     0.050 A 
ATOM      6  C   UNL     1      11.963 -13.177  28.137  1.00  0.00     0.157 A 
ENDROOT
BRANCH   1   7
ATOM      7  O   UNL     1      11.234 -11.718  29.928  1.00  0.00    -0.493 OA
ATOM      8  C   UNL     1      10.624 -10.462  29.640  1.00  0.00     0.278 C 
ENDBRANCH   1   7
BRANCH   6   9
ATOM      9  O   UNL     1      10.638 -13.502  27.844  1.00  0.00    -0.504 OA
ATOM     10  H   UNL     1       9.867 -12.891  28.083  1.00  0.00     0.293 HD
ENDBRANCH   6   9
TORSDOF 2
ENDMDL
MODEL 3
REMARK VINA RESULT:    -5.392      1.366      3.121
REMARK INTER + INTRA:          -5.911
REMARK INTER:                  -5.881
REMARK INTRA:                  -0.029
REMARK UNBOUND:                -0.046
REMARK SMILES COc1ccccc1O
REMARK SMILES IDX 3 1 4 2 5 3 6 4 7 5 8 6 2 7 1 8 9 9
REMARK H PARENT 9 10
REMARK Flexibility Score: inf
ROOT
ATOM      1  C   UNL     1      17.759  -1.234  26.397  1.00  0.00     0.160 A 
ATOM      2  C   UNL     1      16.957  -2.137  27.123  1.00  0.00     0.050 A 
ATOM      3  C   UNL     1      17.542  -3.190  27.832  1.00  0.00     0.004 A 
ATOM      4  C   UNL     1      18.928  -3.354  27.824  1.00  0.00     0.004 A 
ATOM      5  C   UNL     1      19.733  -2.465  27.108  1.00  0.00     0.050 A 
ATOM      6  C   UNL     1      19.157  -1.407  26.396  1.00  0.00     0.157 A 
ENDROOT
BRANCH   1   7
ATOM      7  O   UNL     1      17.208  -0.164  25.674  1.00  0.00    -0.493 OA
ATOM      8  C   UNL     1      16.108   0.627  26.117  1.00  0.00     0.278 C 
ENDBRANCH   1   7
BRANCH   6   9
ATOM      9  O   UNL     1      19.990  -0.537  25.692  1.00  0.00    -0.504 OA
ATOM     10  H   UNL     1      20.993  -0.667  25.647  1.00  0.00     0.293 HD
ENDBRANCH   6   9
TORSDOF 2
ENDMDL
MODEL 4
REMARK VINA RESULT:    -5.304      1.293      2.009
REMARK INTER + INTRA:          -5.816
REMARK INTER:                  -5.771
REMARK INTRA:                  -0.045
REMARK UNBOUND:                -0.046
REMARK SMILES COc1ccccc1O
REMARK SMILES IDX 3 1 4 2 5 3 6 4 7 5 8 6 2 7 1 8 9 9
REMARK H PARENT 9 10
REMARK Flexibility Score: inf
ROOT
ATOM      1  C   UNL     1      17.601  -2.612  27.381  1.00  0.00     0.160 A 
ATOM      2  C   UNL     1      16.441  -1.848  27.138  1.00  0.00     0.050 A 
ATOM      3  C   UNL     1      16.446  -0.849  26.160  1.00  0.00     0.004 A 
ATOM      4  C   UNL     1      17.601  -0.601  25.418  1.00  0.00     0.004 A 
ATOM      5  C   UNL     1      18.755  -1.352  25.650  1.00  0.00     0.050 A 
ATOM      6  C   UNL     1      18.762  -2.355  26.626  1.00  0.00     0.157 A 
ENDROOT
BRANCH   1   7
ATOM      7  O   UNL     1      17.634  -3.624  28.354  1.00  0.00    -0.493 OA
ATOM      8  C   UNL     1      17.657  -3.392  29.759  1.00  0.00     0.278 C 
ENDBRANCH   1   7
BRANCH   6   9
ATOM      9  O   UNL     1      19.932  -3.086  26.833  1.00  0.00    -0.504 OA
ATOM     10  H   UNL     1      20.838  -2.754  26.527  1.00  0.00     0.293 HD
ENDBRANCH   6   9
TORSDOF 2
ENDMDL
MODEL 5
REMARK VINA RESULT:    -5.258     11.910     12.677
REMARK INTER + INTRA:          -5.765
REMARK INTER:                  -5.736
REMARK INTRA:                  -0.029
REMARK UNBOUND:                -0.046
REMARK SMILES COc1ccccc1O
REMARK SMILES IDX 3 1 4 2 5 3 6 4 7 5 8 6 2 7 1 8 9 9
REMARK H PARENT 9 10
REMARK Flexibility Score: inf
ROOT
ATOM      1  C   UNL     1      12.102 -12.274  29.081  1.00  0.00     0.160 A 
ATOM      2  C   UNL     1      11.643 -12.966  27.943  1.00  0.00     0.050 A 
ATOM      3  C   UNL     1      12.532 -13.709  27.161  1.00  0.00     0.004 A 
ATOM      4  C   UNL     1      13.884 -13.770  27.504  1.00  0.00     0.004 A 
ATOM      5  C   UNL     1      14.349 -13.087  28.630  1.00  0.00     0.050 A 
ATOM      6  C   UNL     1      13.468 -12.341  29.420  1.00  0.00     0.157 A 
ENDROOT
BRANCH   1   7
ATOM      7  O   UNL     1      11.239 -11.518  29.891  1.00  0.00    -0.493 OA
ATOM      8  C   UNL     1      10.178 -10.704  29.399  1.00  0.00     0.278 C 
ENDBRANCH   1   7
BRANCH   6   9
ATOM      9  O   UNL     1      13.966 -11.671  30.538  1.00  0.00    -0.504 OA
ATOM     10  H   UNL     1      14.816 -11.123  30.504  1.00  0.00     0.293 HD
ENDBRANCH   6   9
TORSDOF 2
ENDMDL
MODEL 6
REMARK VINA RESULT:    -5.187     11.440     12.515
REMARK INTER + INTRA:          -5.688
REMARK INTER:                  -5.662
REMARK INTRA:                  -0.026
REMARK UNBOUND:                -0.046
REMARK SMILES COc1ccccc1O
REMARK SMILES IDX 3 1 4 2 5 3 6 4 7 5 8 6 2 7 1 8 9 9
REMARK H PARENT 9 10
REMARK Flexibility Score: inf
ROOT
ATOM      1  C   UNL     1      12.609 -12.753  28.223  1.00  0.00     0.160 A 
ATOM      2  C   UNL     1      13.403 -11.747  28.811  1.00  0.00     0.050 A 
ATOM      3  C   UNL     1      12.809 -10.596  29.336  1.00  0.00     0.004 A 
ATOM      4  C   UNL     1      11.424 -10.434  29.280  1.00  0.00     0.004 A 
ATOM      5  C   UNL     1      10.629 -11.424  28.700  1.00  0.00     0.050 A 
ATOM      6  C   UNL     1      11.212 -12.581  28.171  1.00  0.00     0.157 A 
ENDROOT
BRANCH   1   7
ATOM      7  O   UNL     1      13.169 -13.923  27.687  1.00  0.00    -0.493 OA
ATOM      8  C   UNL     1      14.543 -14.075  27.341  1.00  0.00     0.278 C 
ENDBRANCH   1   7
BRANCH   6   9
ATOM      9  O   UNL     1      10.388 -13.550  27.599  1.00  0.00    -0.504 OA
ATOM     10  H   UNL     1      10.741 -14.450  27.298  1.00  0.00     0.293 HD
ENDBRANCH   6   9
TORSDOF 2
ENDMDL
MODEL 7
REMARK VINA RESULT:    -5.106      1.031      2.232
REMARK INTER + INTRA:          -5.600
REMARK INTER:                  -5.656
REMARK INTRA:                   0.056
REMARK UNBOUND:                -0.046
REMARK SMILES COc1ccccc1O
REMARK SMILES IDX 3 1 4 2 5 3 6 4 7 5 8 6 2 7 1 8 9 9
REMARK H PARENT 9 10
REMARK Flexibility Score: inf
ROOT
ATOM      1  C   UNL     1      18.701  -2.320  26.760  1.00  0.00     0.160 A 
ATOM      2  C   UNL     1      18.782  -1.416  25.681  1.00  0.00     0.050 A 
ATOM      3  C   UNL     1      17.681  -0.627  25.337  1.00  0.00     0.004 A 
ATOM      4  C   UNL     1      16.491  -0.730  26.060  1.00  0.00     0.004 A 
ATOM      5  C   UNL     1      16.401  -1.622  27.131  1.00  0.00     0.050 A 
ATOM      6  C   UNL     1      17.497  -2.417  27.485  1.00  0.00     0.157 A 
ENDROOT
BRANCH   1   7
ATOM      7  O   UNL     1      19.786  -3.128  27.137  1.00  0.00    -0.493 OA
ATOM      8  C   UNL     1      20.609  -2.894  28.276  1.00  0.00     0.278 C 
ENDBRANCH   1   7
BRANCH   6   9
ATOM      9  O   UNL     1      17.372  -3.297  28.560  1.00  0.00    -0.504 OA
ATOM     10  H   UNL     1      16.706  -4.059  28.560  1.00  0.00     0.293 HD
ENDBRANCH   6   9
TORSDOF 2
ENDMDL
MODEL 8
REMARK VINA RESULT:    -5.049     11.344     11.815
REMARK INTER + INTRA:          -5.538
REMARK INTER:                  -5.504
REMARK INTRA:                  -0.034
REMARK UNBOUND:                -0.046
REMARK SMILES COc1ccccc1O
REMARK SMILES IDX 3 1 4 2 5 3 6 4 7 5 8 6 2 7 1 8 9 9
REMARK H PARENT 9 10
REMARK Flexibility Score: inf
ROOT
ATOM      1  C   UNL     1      13.087 -11.851  29.601  1.00  0.00     0.160 A 
ATOM      2  C   UNL     1      12.482 -12.436  28.470  1.00  0.00     0.050 A 
ATOM      3  C   UNL     1      11.261 -11.953  27.992  1.00  0.00     0.004 A 
ATOM      4  C   UNL     1      10.630 -10.886  28.634  1.00  0.00     0.004 A 
ATOM      5  C   UNL     1      11.220 -10.298  29.755  1.00  0.00     0.050 A 
ATOM      6  C   UNL     1      12.443 -10.773  30.242  1.00  0.00     0.157 A 
ENDROOT
BRANCH   1   7
ATOM      7  O   UNL     1      14.313 -12.307  30.110  1.00  0.00    -0.493 OA
ATOM      8  C   UNL     1      14.605 -13.669  30.409  1.00  0.00     0.278 C 
ENDBRANCH   1   7
BRANCH   6   9
ATOM      9  O   UNL     1      13.004 -10.163  31.364  1.00  0.00    -0.504 OA
ATOM     10  H   UNL     1      13.924  -9.741  31.345  1.00  0.00     0.293 HD
ENDBRANCH   6   9
TORSDOF 2
ENDMDL
MODEL 9
REMARK VINA RESULT:    -5.021     12.072     12.735
REMARK INTER + INTRA:          -5.507
REMARK INTER:                  -5.462
REMARK INTRA:                  -0.046
REMARK UNBOUND:                -0.046
REMARK SMILES COc1ccccc1O
REMARK SMILES IDX 3 1 4 2 5 3 6 4 7 5 8 6 2 7 1 8 9 9
REMARK H PARENT 9 10
REMARK Flexibility Score: inf
ROOT
ATOM      1  C   UNL     1      13.694 -13.558  28.105  1.00  0.00     0.160 A 
ATOM      2  C   UNL     1      12.717 -13.784  27.114  1.00  0.00     0.050 A 
ATOM      3  C   UNL     1      11.504 -13.090  27.147  1.00  0.00     0.004 A 
ATOM      4  C   UNL     1      11.252 -12.168  28.164  1.00  0.00     0.004 A 
ATOM      5  C   UNL     1      12.213 -11.936  29.150  1.00  0.00     0.050 A 
ATOM      6  C   UNL     1      13.431 -12.625  29.127  1.00  0.00     0.157 A 
ENDROOT
BRANCH   1   7
ATOM      7  O   UNL     1      14.924 -14.235  28.104  1.00  0.00    -0.493 OA
ATOM      8  C   UNL     1      15.101 -15.587  28.519  1.00  0.00     0.278 C 
ENDBRANCH   1   7
BRANCH   6   9
ATOM      9  O   UNL     1      14.369 -12.370  30.127  1.00  0.00    -0.504 OA
ATOM     10  H   UNL     1      15.244 -11.898  29.939  1.00  0.00     0.293 HD
ENDBRANCH   6   9
TORSDOF 2
ENDMDL
