MODEL 1
REMARK VINA RESULT:    -5.052      0.000      0.000
REMARK INTER + INTRA:          -7.542
REMARK INTER:                  -6.824
REMARK INTRA:                  -0.718
REMARK UNBOUND:                -0.718
REMARK SMILES COc1ccc(-c2cc(=O)c3c(OC)c(OC)c(OC)c(OC)c3o2)cc1
REMARK SMILES IDX 7 1 8 2 9 3 10 4 11 5 24 6 25 7 21 8 18 9 15 10 12 11 6 12
REMARK SMILES IDX 3 13 4 14 27 15 5 16 26 17 2 18 1 19 22 20 23 21 13 22 14 23
REMARK SMILES IDX 19 24 20 25 16 26 17 27
REMARK H PARENT
REMARK Flexibility Score: inf
ROOT
ATOM      1  C   UNL     1      83.569  -7.372  28.789  1.00  0.00     0.138 A 
ATOM      2  C   UNL     1      83.547  -7.765  27.448  1.00  0.00     0.100 A 
ATOM      3  C   UNL     1      82.329  -7.835  26.778  1.00  0.00     0.197 A 
ATOM      4  O   UNL     1      82.330  -8.156  25.558  1.00  0.00    -0.289 OA
ATOM      5  C   UNL     1      81.132  -7.529  27.463  1.00  0.00     0.115 A 
ATOM      6  C   UNL     1      81.234  -7.097  28.810  1.00  0.00     0.188 A 
ATOM      7  O   UNL     1      82.430  -7.045  29.394  1.00  0.00    -0.452 OA
ATOM      8  C   UNL     1      80.070  -6.735  29.534  1.00  0.00     0.209 A 
ATOM      9  C   UNL     1      78.811  -6.777  28.886  1.00  0.00     0.211 A 
ATOM     10  C   UNL     1      78.711  -7.201  27.553  1.00  0.00     0.208 A 
ATOM     11  C   UNL     1      79.860  -7.637  26.858  1.00  0.00     0.179 A 
ENDROOT
BRANCH   1  12
ATOM     12  C   UNL     1      84.838  -7.301  29.552  1.00  0.00     0.018 A 
ATOM     13  C   UNL     1      87.281  -7.207  30.965  1.00  0.00     0.118 A 
ATOM     14  C   UNL     1      86.719  -6.038  30.446  1.00  0.00     0.047 A 
ATOM     15  C   UNL     1      86.616  -8.432  30.772  1.00  0.00     0.047 A 
ATOM     16  C   UNL     1      85.510  -6.080  29.743  1.00  0.00     0.016 A 
ATOM     17  C   UNL     1      85.408  -8.475  30.069  1.00  0.00     0.016 A 
BRANCH  13  18
ATOM     18  O   UNL     1      88.496  -7.111  31.661  1.00  0.00    -0.497 OA
ATOM     19  C   UNL     1      89.118  -5.883  32.024  1.00  0.00     0.278 C 
ENDBRANCH  13  18
ENDBRANCH   1  12
BRANCH   8  20
ATOM     20  O   UNL     1      80.112  -6.337  30.884  1.00  0.00    -0.490 OA
ATOM     21  C   UNL     1      80.225  -5.011  31.388  1.00  0.00     0.278 C 
ENDBRANCH   8  20
BRANCH  11  22
ATOM     22  O   UNL     1      79.730  -8.211  25.592  1.00  0.00    -0.492 OA
ATOM     23  C   UNL     1      79.220  -9.530  25.430  1.00  0.00     0.278 C 
ENDBRANCH  11  22
BRANCH   9  24
ATOM     24  O   UNL     1      77.601  -6.405  29.506  1.00  0.00    -0.490 OA
ATOM     25  C   UNL     1      76.800  -7.197  30.377  1.00  0.00     0.279 C 
ENDBRANCH   9  24
BRANCH  10  26
ATOM     26  O   UNL     1      77.429  -7.162  26.973  1.00  0.00    -0.490 OA
ATOM     27  C   UNL     1      76.933  -6.160  26.092  1.00  0.00     0.278 C 
ENDBRANCH  10  26
TORSDOF 6
ENDMDL
MODEL 2
REMARK VINA RESULT:    -4.864      1.193      1.529
REMARK INTER + INTRA:          -7.287
REMARK INTER:                  -6.758
REMARK INTRA:                  -0.530
REMARK UNBOUND:                -0.718
REMARK SMILES COc1ccc(-c2cc(=O)c3c(OC)c(OC)c(OC)c(OC)c3o2)cc1
REMARK SMILES IDX 7 1 8 2 9 3 10 4 11 5 24 6 25 7 21 8 18 9 15 10 12 11 6 12
REMARK SMILES IDX 3 13 4 14 27 15 5 16 26 17 2 18 1 19 22 20 23 21 13 22 14 23
REMARK SMILES IDX 19 24 20 25 16 26 17 27
REMARK H PARENT
REMARK Flexibility Score: inf
ROOT
ATOM      1  C   UNL     1      83.826  -7.874  28.555  1.00  0.00     0.138 A 
ATOM      2  C   UNL     1      83.785  -8.879  27.584  1.00  0.00     0.100 A 
ATOM      3  C   UNL     1      82.623  -9.059  26.839  1.00  0.00     0.197 A 
ATOM      4  O   UNL     1      82.614  -9.945  25.942  1.00  0.00    -0.289 OA
ATOM      5  C   UNL     1      81.497  -8.242  27.085  1.00  0.00     0.115 A 
ATOM      6  C   UNL     1      81.625  -7.217  28.056  1.00  0.00     0.188 A 
ATOM      7  O   UNL     1      82.766  -7.091  28.732  1.00  0.00    -0.452 OA
ATOM      8  C   UNL     1      80.542  -6.339  28.314  1.00  0.00     0.209 A 
ATOM      9  C   UNL     1      79.345  -6.477  27.568  1.00  0.00     0.211 A 
ATOM     10  C   UNL     1      79.221  -7.490  26.606  1.00  0.00     0.208 A 
ATOM     11  C   UNL     1      80.270  -8.413  26.406  1.00  0.00     0.179 A 
ENDROOT
BRANCH   1  12
ATOM     12  C   UNL     1      85.033  -7.656  29.389  1.00  0.00     0.018 A 
ATOM     13  C   UNL     1      87.300  -7.196  31.008  1.00  0.00     0.118 A 
ATOM     14  C   UNL     1      86.726  -8.469  30.939  1.00  0.00     0.047 A 
ATOM     15  C   UNL     1      86.731  -6.146  30.264  1.00  0.00     0.047 A 
ATOM     16  C   UNL     1      85.602  -8.701  30.140  1.00  0.00     0.016 A 
ATOM     17  C   UNL     1      85.606  -6.377  29.466  1.00  0.00     0.016 A 
BRANCH  13  18
ATOM     18  O   UNL     1      88.426  -7.016  31.826  1.00  0.00    -0.497 OA
ATOM     19  C   UNL     1      89.007  -5.751  32.125  1.00  0.00     0.278 C 
ENDBRANCH  13  18
ENDBRANCH   1  12
BRANCH   8  20
ATOM     20  O   UNL     1      80.603  -5.330  29.294  1.00  0.00    -0.490 OA
ATOM     21  C   UNL     1      80.336  -5.462  30.686  1.00  0.00     0.278 C 
ENDBRANCH   8  20
BRANCH  11  22
ATOM     22  O   UNL     1      80.077  -9.512  25.568  1.00  0.00    -0.492 OA
ATOM     23  C   UNL     1      80.003  -9.357  24.154  1.00  0.00     0.278 C 
ENDBRANCH  11  22
BRANCH   9  24
ATOM     24  O   UNL     1      78.225  -5.635  27.725  1.00  0.00    -0.490 OA
ATOM     25  C   UNL     1      77.213  -5.725  28.721  1.00  0.00     0.279 C 
ENDBRANCH   9  24
BRANCH  10  26
ATOM     26  O   UNL     1      78.018  -7.522  25.875  1.00  0.00    -0.490 OA
ATOM     27  C   UNL     1      76.896  -8.359  26.136  1.00  0.00     0.278 C 
ENDBRANCH  10  26
TORSDOF 6
ENDMDL
MODEL 3
REMARK VINA RESULT:    -4.838      2.797      6.870
REMARK INTER + INTRA:          -7.253
REMARK INTER:                  -6.525
REMARK INTRA:                  -0.728
REMARK UNBOUND:                -0.718
REMARK SMILES COc1ccc(-c2cc(=O)c3c(OC)c(OC)c(OC)c(OC)c3o2)cc1
REMARK SMILES IDX 7 1 8 2 9 3 10 4 11 5 24 6 25 7 21 8 18 9 15 10 12 11 6 12
REMARK SMILES IDX 3 13 4 14 27 15 5 16 26 17 2 18 1 19 22 20 23 21 13 22 14 23
REMARK SMILES IDX 19 24 20 25 16 26 17 27
REMARK H PARENT
REMARK Flexibility Score: inf
ROOT
ATOM      1  C   UNL     1      81.890  -8.197  25.155  1.00  0.00     0.138 A 
ATOM      2  C   UNL     1      83.099  -8.054  25.844  1.00  0.00     0.100 A 
ATOM      3  C   UNL     1      83.089  -7.548  27.140  1.00  0.00     0.197 A 
ATOM      4  O   UNL     1      84.183  -7.459  27.761  1.00  0.00    -0.289 OA
ATOM      5  C   UNL     1      81.866  -7.166  27.736  1.00  0.00     0.115 A 
ATOM      6  C   UNL     1      80.676  -7.378  26.994  1.00  0.00     0.188 A 
ATOM      7  O   UNL     1      80.751  -7.873  25.760  1.00  0.00    -0.452 OA
ATOM      8  C   UNL     1      79.416  -7.054  27.558  1.00  0.00     0.209 A 
ATOM      9  C   UNL     1      79.358  -6.550  28.881  1.00  0.00     0.211 A 
ATOM     10  C   UNL     1      80.536  -6.344  29.615  1.00  0.00     0.208 A 
ATOM     11  C   UNL     1      81.794  -6.591  29.024  1.00  0.00     0.179 A 
ENDROOT
BRANCH   1  12
ATOM     12  C   UNL     1      81.850  -8.712  23.766  1.00  0.00     0.018 A 
ATOM     13  C   UNL     1      81.722  -9.661  21.109  1.00  0.00     0.118 A 
ATOM     14  C   UNL     1      82.845  -8.958  21.556  1.00  0.00     0.047 A 
ATOM     15  C   UNL     1      80.655  -9.886  21.999  1.00  0.00     0.047 A 
ATOM     16  C   UNL     1      82.912  -8.484  22.870  1.00  0.00     0.016 A 
ATOM     17  C   UNL     1      80.721  -9.411  23.313  1.00  0.00     0.016 A 
BRANCH  13  18
ATOM     18  O   UNL     1      81.703 -10.113  19.781  1.00  0.00    -0.497 OA
ATOM     19  C   UNL     1      80.744  -9.711  18.809  1.00  0.00     0.278 C 
ENDBRANCH  13  18
ENDBRANCH   1  12
BRANCH   8  20
ATOM     20  O   UNL     1      78.208  -7.209  26.851  1.00  0.00    -0.490 OA
ATOM     21  C   UNL     1      77.431  -6.186  26.239  1.00  0.00     0.278 C 
ENDBRANCH   8  20
BRANCH  11  22
ATOM     22  O   UNL     1      82.961  -6.229  29.700  1.00  0.00    -0.492 OA
ATOM     23  C   UNL     1      83.359  -4.866  29.804  1.00  0.00     0.278 C 
ENDBRANCH  11  22
BRANCH   9  24
ATOM     24  O   UNL     1      78.155  -6.231  29.543  1.00  0.00    -0.490 OA
ATOM     25  C   UNL     1      77.232  -7.138  30.136  1.00  0.00     0.279 C 
ENDBRANCH   9  24
BRANCH  10  26
ATOM     26  O   UNL     1      80.382  -5.890  30.939  1.00  0.00    -0.490 OA
ATOM     27  C   UNL     1      80.553  -6.665  32.120  1.00  0.00     0.278 C 
ENDBRANCH  10  26
TORSDOF 6
ENDMDL
MODEL 4
REMARK VINA RESULT:    -4.783      1.231      3.616
REMARK INTER + INTRA:          -7.179
REMARK INTER:                  -6.433
REMARK INTRA:                  -0.746
REMARK UNBOUND:                -0.718
REMARK SMILES COc1ccc(-c2cc(=O)c3c(OC)c(OC)c(OC)c(OC)c3o2)cc1
REMARK SMILES IDX 7 1 8 2 9 3 10 4 11 5 24 6 25 7 21 8 18 9 15 10 12 11 6 12
REMARK SMILES IDX 3 13 4 14 27 15 5 16 26 17 2 18 1 19 22 20 23 21 13 22 14 23
REMARK SMILES IDX 19 24 20 25 16 26 17 27
REMARK H PARENT
REMARK Flexibility Score: inf
ROOT
ATOM      1  C   UNL     1      83.140  -6.353  30.048  1.00  0.00     0.138 A 
ATOM      2  C   UNL     1      82.139  -5.785  30.842  1.00  0.00     0.100 A 
ATOM      3  C   UNL     1      80.819  -5.819  30.402  1.00  0.00     0.197 A 
ATOM      4  O   UNL     1      79.923  -5.335  31.147  1.00  0.00    -0.289 OA
ATOM      5  C   UNL     1      80.509  -6.405  29.155  1.00  0.00     0.115 A 
ATOM      6  C   UNL     1      81.569  -6.999  28.423  1.00  0.00     0.188 A 
ATOM      7  O   UNL     1      82.811  -6.939  28.901  1.00  0.00    -0.452 OA
ATOM      8  C   UNL     1      81.310  -7.640  27.185  1.00  0.00     0.209 A 
ATOM      9  C   UNL     1      79.978  -7.710  26.707  1.00  0.00     0.211 A 
ATOM     10  C   UNL     1      78.930  -7.126  27.433  1.00  0.00     0.208 A 
ATOM     11  C   UNL     1      79.199  -6.419  28.625  1.00  0.00     0.179 A 
ENDROOT
BRANCH   1  12
ATOM     12  C   UNL     1      84.563  -6.325  30.463  1.00  0.00     0.018 A 
ATOM     13  C   UNL     1      87.255  -6.268  31.312  1.00  0.00     0.118 A 
ATOM     14  C   UNL     1      86.783  -7.323  30.526  1.00  0.00     0.047 A 
ATOM     15  C   UNL     1      86.371  -5.237  31.678  1.00  0.00     0.047 A 
ATOM     16  C   UNL     1      85.450  -7.357  30.105  1.00  0.00     0.016 A 
ATOM     17  C   UNL     1      85.037  -5.270  31.258  1.00  0.00     0.016 A 
BRANCH  13  18
ATOM     18  O   UNL     1      88.601  -6.283  31.709  1.00  0.00    -0.497 OA
ATOM     19  C   UNL     1      89.330  -7.463  32.032  1.00  0.00     0.278 C 
ENDBRANCH  13  18
ENDBRANCH   1  12
BRANCH   8  20
ATOM     20  O   UNL     1      82.331  -8.210  26.400  1.00  0.00    -0.490 OA
ATOM     21  C   UNL     1      82.977  -7.630  25.272  1.00  0.00     0.278 C 
ENDBRANCH   8  20
BRANCH  11  22
ATOM     22  O   UNL     1      78.179  -5.704  29.253  1.00  0.00    -0.492 OA
ATOM     23  C   UNL     1      77.655  -4.511  28.679  1.00  0.00     0.278 C 
ENDBRANCH  11  22
BRANCH   9  24
ATOM     24  O   UNL     1      79.612  -8.355  25.507  1.00  0.00    -0.490 OA
ATOM     25  C   UNL     1      79.562  -9.756  25.263  1.00  0.00     0.279 C 
ENDBRANCH   9  24
BRANCH  10  26
ATOM     26  O   UNL     1      77.633  -7.289  26.911  1.00  0.00    -0.490 OA
ATOM     27  C   UNL     1      76.649  -8.209  27.371  1.00  0.00     0.278 C 
ENDBRANCH  10  26
TORSDOF 6
ENDMDL
MODEL 5
REMARK VINA RESULT:    -4.667      1.625      2.121
REMARK INTER + INTRA:          -7.022
REMARK INTER:                  -6.501
REMARK INTRA:                  -0.521
REMARK UNBOUND:                -0.718
REMARK SMILES COc1ccc(-c2cc(=O)c3c(OC)c(OC)c(OC)c(OC)c3o2)cc1
REMARK SMILES IDX 7 1 8 2 9 3 10 4 11 5 24 6 25 7 21 8 18 9 15 10 12 11 6 12
REMARK SMILES IDX 3 13 4 14 27 15 5 16 26 17 2 18 1 19 22 20 23 21 13 22 14 23
REMARK SMILES IDX 19 24 20 25 16 26 17 27
REMARK H PARENT
REMARK Flexibility Score: inf
ROOT
ATOM      1  C   UNL     1      83.156  -7.969  27.592  1.00  0.00     0.138 A 
ATOM      2  C   UNL     1      83.370  -8.807  26.493  1.00  0.00     0.100 A 
ATOM      3  C   UNL     1      82.305  -9.109  25.650  1.00  0.00     0.197 A 
ATOM      4  O   UNL     1      82.521  -9.837  24.643  1.00  0.00    -0.289 OA
ATOM      5  C   UNL     1      81.022  -8.584  25.923  1.00  0.00     0.115 A 
ATOM      6  C   UNL     1      80.889  -7.708  27.030  1.00  0.00     0.188 A 
ATOM      7  O   UNL     1      81.948  -7.453  27.796  1.00  0.00    -0.452 OA
ATOM      8  C   UNL     1      79.634  -7.118  27.326  1.00  0.00     0.209 A 
ATOM      9  C   UNL     1      78.526  -7.386  26.485  1.00  0.00     0.211 A 
ATOM     10  C   UNL     1      78.660  -8.250  25.388  1.00  0.00     0.208 A 
ATOM     11  C   UNL     1      79.888  -8.900  25.141  1.00  0.00     0.179 A 
ENDROOT
BRANCH   1  12
ATOM     12  C   UNL     1      84.253  -7.633  28.532  1.00  0.00     0.018 A 
ATOM     13  C   UNL     1      86.379  -7.034  30.290  1.00  0.00     0.118 A 
ATOM     14  C   UNL     1      85.765  -6.019  29.551  1.00  0.00     0.047 A 
ATOM     15  C   UNL     1      85.927  -8.359  30.144  1.00  0.00     0.047 A 
ATOM     16  C   UNL     1      84.713  -6.312  28.677  1.00  0.00     0.016 A 
ATOM     17  C   UNL     1      84.876  -8.652  29.269  1.00  0.00     0.016 A 
BRANCH  13  18
ATOM     18  O   UNL     1      87.432  -6.688  31.152  1.00  0.00    -0.497 OA
ATOM     19  C   UNL     1      88.293  -7.629  31.785  1.00  0.00     0.278 C 
ENDBRANCH  13  18
ENDBRANCH   1  12
BRANCH   8  20
ATOM     20  O   UNL     1      79.439  -6.272  28.435  1.00  0.00    -0.490 OA
ATOM     21  C   UNL     1      79.489  -4.850  28.454  1.00  0.00     0.278 C 
ENDBRANCH   8  20
BRANCH  11  22
ATOM     22  O   UNL     1      79.968  -9.881  24.150  1.00  0.00    -0.492 OA
ATOM     23  C   UNL     1      79.922  -9.537  22.769  1.00  0.00     0.278 C 
ENDBRANCH  11  22
BRANCH   9  24
ATOM     24  O   UNL     1      77.248  -6.822  26.673  1.00  0.00    -0.490 OA
ATOM     25  C   UNL     1      76.246  -7.247  27.590  1.00  0.00     0.279 C 
ENDBRANCH   9  24
BRANCH  10  26
ATOM     26  O   UNL     1      77.522  -8.419  24.576  1.00  0.00    -0.490 OA
ATOM     27  C   UNL     1      76.622  -9.522  24.606  1.00  0.00     0.278 C 
ENDBRANCH  10  26
TORSDOF 6
ENDMDL
MODEL 6
REMARK VINA RESULT:    -4.552      6.272     11.035
REMARK INTER + INTRA:          -6.866
REMARK INTER:                  -6.363
REMARK INTRA:                  -0.503
REMARK UNBOUND:                -0.718
REMARK SMILES COc1ccc(-c2cc(=O)c3c(OC)c(OC)c(OC)c(OC)c3o2)cc1
REMARK SMILES IDX 7 1 8 2 9 3 10 4 11 5 24 6 25 7 21 8 18 9 15 10 12 11 6 12
REMARK SMILES IDX 3 13 4 14 27 15 5 16 26 17 2 18 1 19 22 20 23 21 13 22 14 23
REMARK SMILES IDX 19 24 20 25 16 26 17 27
REMARK H PARENT
REMARK Flexibility Score: inf
ROOT
ATOM      1  C   UNL     1      79.859  -9.367  19.262  1.00  0.00     0.138 A 
ATOM      2  C   UNL     1      81.207  -9.504  19.609  1.00  0.00     0.100 A 
ATOM      3  C   UNL     1      81.564  -9.536  20.953  1.00  0.00     0.197 A 
ATOM      4  O   UNL     1      82.780  -9.697  21.250  1.00  0.00    -0.289 OA
ATOM      5  C   UNL     1      80.569  -9.409  21.948  1.00  0.00     0.115 A 
ATOM      6  C   UNL     1      79.220  -9.316  21.523  1.00  0.00     0.188 A 
ATOM      7  O   UNL     1      78.941  -9.297  20.221  1.00  0.00    -0.452 OA
ATOM      8  C   UNL     1      78.175  -9.230  22.478  1.00  0.00     0.209 A 
ATOM      9  C   UNL     1      78.493  -9.274  23.858  1.00  0.00     0.211 A 
ATOM     10  C   UNL     1      79.828  -9.370  24.278  1.00  0.00     0.208 A 
ATOM     11  C   UNL     1      80.872  -9.374  23.328  1.00  0.00     0.179 A 
ENDROOT
BRANCH   1  12
ATOM     12  C   UNL     1      79.429  -9.307  17.844  1.00  0.00     0.018 A 
ATOM     13  C   UNL     1      78.554  -9.180  15.163  1.00  0.00     0.118 A 
ATOM     14  C   UNL     1      79.595  -8.360  15.607  1.00  0.00     0.047 A 
ATOM     15  C   UNL     1      77.945 -10.066  16.070  1.00  0.00     0.047 A 
ATOM     16  C   UNL     1      80.031  -8.418  16.934  1.00  0.00     0.016 A 
ATOM     17  C   UNL     1      78.379 -10.124  17.398  1.00  0.00     0.016 A 
BRANCH  13  18
ATOM     18  O   UNL     1      78.153  -9.081  13.822  1.00  0.00    -0.497 OA
ATOM     19  C   UNL     1      77.762  -7.868  13.188  1.00  0.00     0.278 C 
ENDBRANCH  13  18
ENDBRANCH   1  12
BRANCH   8  20
ATOM     20  O   UNL     1      76.823  -9.097  22.110  1.00  0.00    -0.490 OA
ATOM     21  C   UNL     1      76.182  -7.938  21.587  1.00  0.00     0.278 C 
ENDBRANCH   8  20
BRANCH  11  22
ATOM     22  O   UNL     1      82.200  -9.304  23.755  1.00  0.00    -0.492 OA
ATOM     23  C   UNL     1      82.760  -8.081  24.220  1.00  0.00     0.278 C 
ENDBRANCH  11  22
BRANCH   9  24
ATOM     24  O   UNL     1      77.527  -9.231  24.884  1.00  0.00    -0.490 OA
ATOM     25  C   UNL     1      76.742  -8.112  25.281  1.00  0.00     0.279 C 
ENDBRANCH   9  24
BRANCH  10  26
ATOM     26  O   UNL     1      80.049  -9.460  25.665  1.00  0.00    -0.490 OA
ATOM     27  C   UNL     1      80.198  -8.368  26.566  1.00  0.00     0.278 C 
ENDBRANCH  10  26
TORSDOF 6
ENDMDL
MODEL 7
REMARK VINA RESULT:    -4.526      2.672      8.566
REMARK INTER + INTRA:          -6.831
REMARK INTER:                  -6.087
REMARK INTRA:                  -0.744
REMARK UNBOUND:                -0.718
REMARK SMILES COc1ccc(-c2cc(=O)c3c(OC)c(OC)c(OC)c(OC)c3o2)cc1
REMARK SMILES IDX 7 1 8 2 9 3 10 4 11 5 24 6 25 7 21 8 18 9 15 10 12 11 6 12
REMARK SMILES IDX 3 13 4 14 27 15 5 16 26 17 2 18 1 19 22 20 23 21 13 22 14 23
REMARK SMILES IDX 19 24 20 25 16 26 17 27
REMARK H PARENT
REMARK Flexibility Score: inf
ROOT
ATOM      1  C   UNL     1      77.769  -7.962  25.296  1.00  0.00     0.138 A 
ATOM      2  C   UNL     1      76.688  -7.544  26.078  1.00  0.00     0.100 A 
ATOM      3  C   UNL     1      76.917  -7.118  27.383  1.00  0.00     0.197 A 
ATOM      4  O   UNL     1      75.937  -6.710  28.064  1.00  0.00    -0.289 OA
ATOM      5  C   UNL     1      78.228  -7.133  27.908  1.00  0.00     0.115 A 
ATOM      6  C   UNL     1      79.280  -7.530  27.044  1.00  0.00     0.188 A 
ATOM      7  O   UNL     1      78.998  -7.921  25.802  1.00  0.00    -0.452 OA
ATOM      8  C   UNL     1      80.622  -7.523  27.503  1.00  0.00     0.209 A 
ATOM      9  C   UNL     1      80.901  -7.083  28.820  1.00  0.00     0.211 A 
ATOM     10  C   UNL     1      79.860  -6.687  29.673  1.00  0.00     0.208 A 
ATOM     11  C   UNL     1      78.518  -6.771  29.242  1.00  0.00     0.179 A 
ENDROOT
BRANCH   1  12
ATOM     12  C   UNL     1      77.576  -8.443  23.907  1.00  0.00     0.018 A 
ATOM     13  C   UNL     1      77.217  -9.418  21.281  1.00  0.00     0.118 A 
ATOM     14  C   UNL     1      76.205  -8.687  21.909  1.00  0.00     0.047 A 
ATOM     15  C   UNL     1      78.416  -9.665  21.976  1.00  0.00     0.047 A 
ATOM     16  C   UNL     1      76.377  -8.204  23.210  1.00  0.00     0.016 A 
ATOM     17  C   UNL     1      78.589  -9.184  23.277  1.00  0.00     0.016 A 
BRANCH  13  18
ATOM     18  O   UNL     1      76.994  -9.882  19.975  1.00  0.00    -0.497 OA
ATOM     19  C   UNL     1      75.705 -10.106  19.413  1.00  0.00     0.278 C 
ENDBRANCH  13  18
ENDBRANCH   1  12
BRANCH   8  20
ATOM     20  O   UNL     1      81.699  -7.944  26.699  1.00  0.00    -0.490 OA
ATOM     21  C   UNL     1      82.495  -7.141  25.835  1.00  0.00     0.278 C 
ENDBRANCH   8  20
BRANCH  11  22
ATOM     22  O   UNL     1      77.483  -6.533  30.147  1.00  0.00    -0.492 OA
ATOM     23  C   UNL     1      77.136  -7.494  31.139  1.00  0.00     0.278 C 
ENDBRANCH  11  22
BRANCH   9  24
ATOM     24  O   UNL     1      82.202  -7.006  29.359  1.00  0.00    -0.490 OA
ATOM     25  C   UNL     1      83.111  -5.916  29.261  1.00  0.00     0.279 C 
ENDBRANCH   9  24
BRANCH  10  26
ATOM     26  O   UNL     1      80.232  -6.216  30.946  1.00  0.00    -0.490 OA
ATOM     27  C   UNL     1      80.175  -4.866  31.394  1.00  0.00     0.278 C 
ENDBRANCH  10  26
TORSDOF 6
ENDMDL
MODEL 8
REMARK VINA RESULT:    -4.449      2.231      8.299
REMARK INTER + INTRA:          -6.727
REMARK INTER:                  -5.965
REMARK INTRA:                  -0.763
REMARK UNBOUND:                -0.718
REMARK SMILES COc1ccc(-c2cc(=O)c3c(OC)c(OC)c(OC)c(OC)c3o2)cc1
REMARK SMILES IDX 7 1 8 2 9 3 10 4 11 5 24 6 25 7 21 8 18 9 15 10 12 11 6 12
REMARK SMILES IDX 3 13 4 14 27 15 5 16 26 17 2 18 1 19 22 20 23 21 13 22 14 23
REMARK SMILES IDX 19 24 20 25 16 26 17 27
REMARK H PARENT
REMARK Flexibility Score: inf
ROOT
ATOM      1  C   UNL     1      78.738  -7.340  26.509  1.00  0.00     0.138 A 
ATOM      2  C   UNL     1      78.045  -6.461  27.347  1.00  0.00     0.100 A 
ATOM      3  C   UNL     1      78.696  -5.911  28.446  1.00  0.00     0.197 A 
ATOM      4  O   UNL     1      78.069  -5.091  29.171  1.00  0.00    -0.289 OA
ATOM      5  C   UNL     1      80.039  -6.260  28.714  1.00  0.00     0.115 A 
ATOM      6  C   UNL     1      80.692  -7.123  27.799  1.00  0.00     0.188 A 
ATOM      7  O   UNL     1      80.015  -7.613  26.761  1.00  0.00    -0.452 OA
ATOM      8  C   UNL     1      82.052  -7.474  27.994  1.00  0.00     0.209 A 
ATOM      9  C   UNL     1      82.758  -6.924  29.092  1.00  0.00     0.211 A 
ATOM     10  C   UNL     1      82.113  -6.067  29.995  1.00  0.00     0.208 A 
ATOM     11  C   UNL     1      80.738  -5.782  29.846  1.00  0.00     0.179 A 
ENDROOT
BRANCH   1  12
ATOM     12  C   UNL     1      78.082  -7.969  25.338  1.00  0.00     0.018 A 
ATOM     13  C   UNL     1      76.839  -9.222  23.134  1.00  0.00     0.118 A 
ATOM     14  C   UNL     1      76.177  -8.214  23.841  1.00  0.00     0.047 A 
ATOM     15  C   UNL     1      78.131  -9.606  23.537  1.00  0.00     0.047 A 
ATOM     16  C   UNL     1      76.788  -7.592  24.935  1.00  0.00     0.016 A 
ATOM     17  C   UNL     1      78.742  -8.986  24.631  1.00  0.00     0.016 A 
BRANCH  13  18
ATOM     18  O   UNL     1      76.181  -9.815  22.046  1.00  0.00    -0.497 OA
ATOM     19  C   UNL     1      76.219  -9.313  20.714  1.00  0.00     0.278 C 
ENDBRANCH  13  18
ENDBRANCH   1  12
BRANCH   8  20
ATOM     20  O   UNL     1      82.736  -8.358  27.137  1.00  0.00    -0.490 OA
ATOM     21  C   UNL     1      83.370  -8.043  25.903  1.00  0.00     0.278 C 
ENDBRANCH   8  20
BRANCH  11  22
ATOM     22  O   UNL     1      80.066  -5.064  30.836  1.00  0.00    -0.492 OA
ATOM     23  C   UNL     1      79.747  -5.660  32.089  1.00  0.00     0.278 C 
ENDBRANCH  11  22
BRANCH   9  24
ATOM     24  O   UNL     1      84.120  -7.182  29.353  1.00  0.00    -0.490 OA
ATOM     25  C   UNL     1      85.245  -6.543  28.762  1.00  0.00     0.279 C 
ENDBRANCH   9  24
BRANCH  10  26
ATOM     26  O   UNL     1      82.903  -5.526  31.026  1.00  0.00    -0.490 OA
ATOM     27  C   UNL     1      83.434  -4.206  31.077  1.00  0.00     0.278 C 
ENDBRANCH  10  26
TORSDOF 6
ENDMDL
MODEL 9
REMARK VINA RESULT:    -4.373      1.665      3.986
REMARK INTER + INTRA:          -6.625
REMARK INTER:                  -6.208
REMARK INTRA:                  -0.417
REMARK UNBOUND:                -0.718
REMARK SMILES COc1ccc(-c2cc(=O)c3c(OC)c(OC)c(OC)c(OC)c3o2)cc1
REMARK SMILES IDX 7 1 8 2 9 3 10 4 11 5 24 6 25 7 21 8 18 9 15 10 12 11 6 12
REMARK SMILES IDX 3 13 4 14 27 15 5 16 26 17 2 18 1 19 22 20 23 21 13 22 14 23
REMARK SMILES IDX 19 24 20 25 16 26 17 27
REMARK H PARENT
REMARK Flexibility Score: inf
ROOT
ATOM      1  C   UNL     1      81.848  -6.562  28.612  1.00  0.00     0.138 A 
ATOM      2  C   UNL     1      80.763  -5.888  29.182  1.00  0.00     0.100 A 
ATOM      3  C   UNL     1      79.496  -6.045  28.627  1.00  0.00     0.197 A 
ATOM      4  O   UNL     1      78.522  -5.460  29.174  1.00  0.00    -0.289 OA
ATOM      5  C   UNL     1      79.325  -6.862  27.487  1.00  0.00     0.115 A 
ATOM      6  C   UNL     1      80.462  -7.547  26.989  1.00  0.00     0.188 A 
ATOM      7  O   UNL     1      81.647  -7.360  27.568  1.00  0.00    -0.452 OA
ATOM      8  C   UNL     1      80.341  -8.414  25.873  1.00  0.00     0.209 A 
ATOM      9  C   UNL     1      79.067  -8.614  25.287  1.00  0.00     0.211 A 
ATOM     10  C   UNL     1      77.942  -7.939  25.783  1.00  0.00     0.208 A 
ATOM     11  C   UNL     1      78.077  -7.015  26.841  1.00  0.00     0.179 A 
ENDROOT
BRANCH   1  12
ATOM     12  C   UNL     1      83.220  -6.412  29.153  1.00  0.00     0.018 A 
ATOM     13  C   UNL     1      85.822  -6.173  30.224  1.00  0.00     0.118 A 
ATOM     14  C   UNL     1      85.637  -6.416  28.860  1.00  0.00     0.047 A 
ATOM     15  C   UNL     1      84.694  -6.052  31.057  1.00  0.00     0.047 A 
ATOM     16  C   UNL     1      84.351  -6.538  28.326  1.00  0.00     0.016 A 
ATOM     17  C   UNL     1      83.407  -6.175  30.524  1.00  0.00     0.016 A 
BRANCH  13  18
ATOM     18  O   UNL     1      87.133  -6.062  30.710  1.00  0.00    -0.497 OA
ATOM     19  C   UNL     1      87.846  -7.117  31.346  1.00  0.00     0.278 C 
ENDBRANCH  13  18
ENDBRANCH   1  12
BRANCH   8  20
ATOM     20  O   UNL     1      81.444  -9.088  25.316  1.00  0.00    -0.490 OA
ATOM     21  C   UNL     1      82.348  -8.594  24.333  1.00  0.00     0.278 C 
ENDBRANCH   8  20
BRANCH  11  22
ATOM     22  O   UNL     1      76.988  -6.228  27.219  1.00  0.00    -0.492 OA
ATOM     23  C   UNL     1      75.932  -6.763  28.009  1.00  0.00     0.278 C 
ENDBRANCH  11  22
BRANCH   9  24
ATOM     24  O   UNL     1      78.835  -9.481  24.199  1.00  0.00    -0.490 OA
ATOM     25  C   UNL     1      78.985  -9.185  22.815  1.00  0.00     0.279 C 
ENDBRANCH   9  24
BRANCH  10  26
ATOM     26  O   UNL     1      76.708  -8.237  25.174  1.00  0.00    -0.490 OA
ATOM     27  C   UNL     1      75.838  -9.311  25.514  1.00  0.00     0.278 C 
ENDBRANCH  10  26
TORSDOF 6
ENDMDL
