MODEL 1
REMARK VINA RESULT:    -3.539      0.000      0.000
REMARK INTER + INTRA:          -3.643
REMARK INTER:                  -3.643
REMARK INTRA:                   0.000
REMARK UNBOUND:                 0.000
REMARK SMILES Nc1ncnc2nc[nH]c12
REMARK SMILES IDX 8 1 7 2 6 3 5 4 4 5 3 6 2 7 10 8 9 9 1 11
REMARK H PARENT 9 10 1 12 1 13
REMARK Flexibility Score: inf
ROOT
ATOM      1  C   UNL     1      -3.714   2.990  -4.847  1.00  0.00     0.199 A 
ATOM      2  N   UNL     1      -5.011   3.239  -4.516  1.00  0.00    -0.217 NA
ATOM      3  C   UNL     1      -4.887   3.923  -3.368  1.00  0.00     0.182 A 
ATOM      4  N   UNL     1      -5.894   4.419  -2.610  1.00  0.00    -0.215 NA
ATOM      5  C   UNL     1      -5.569   5.093  -1.466  1.00  0.00     0.226 A 
ATOM      6  N   UNL     1      -4.256   5.259  -1.104  1.00  0.00    -0.217 NA
ATOM      7  C   UNL     1      -3.238   4.760  -1.868  1.00  0.00     0.152 A 
ATOM      8  C   UNL     1      -3.586   4.076  -3.030  1.00  0.00     0.127 A 
ATOM      9  N   UNL     1      -2.818   3.489  -3.957  1.00  0.00    -0.340 N 
ATOM     10  H   UNL     1      -1.778   3.424  -3.998  1.00  0.00     0.168 HD
ENDROOT
BRANCH   7  11
ATOM     11  N   UNL     1      -1.879   4.945  -1.473  1.00  0.00    -0.382 N 
ATOM     12  H   UNL     1      -1.322   4.167  -1.058  1.00  0.00     0.158 HD
ATOM     13  H   UNL     1      -1.420   5.876  -1.596  1.00  0.00     0.158 HD
ENDBRANCH   7  11
TORSDOF 1
ENDMDL
MODEL 2
REMARK VINA RESULT:    -3.390      1.411      1.638
REMARK INTER + INTRA:          -3.489
REMARK INTER:                  -3.489
REMARK INTRA:                   0.000
REMARK UNBOUND:                 0.000
REMARK SMILES Nc1ncnc2nc[nH]c12
REMARK SMILES IDX 8 1 7 2 6 3 5 4 4 5 3 6 2 7 10 8 9 9 1 11
REMARK H PARENT 9 10 1 12 1 13
REMARK Flexibility Score: inf
ROOT
ATOM      1  C   UNL     1      -3.159   2.919  -5.458  1.00  0.00     0.199 A 
ATOM      2  N   UNL     1      -4.173   2.931  -4.549  1.00  0.00    -0.217 NA
ATOM      3  C   UNL     1      -3.722   3.799  -3.630  1.00  0.00     0.182 A 
ATOM      4  N   UNL     1      -4.359   4.179  -2.497  1.00  0.00    -0.215 NA
ATOM      5  C   UNL     1      -3.736   5.081  -1.678  1.00  0.00     0.226 A 
ATOM      6  N   UNL     1      -2.501   5.582  -2.005  1.00  0.00    -0.217 NA
ATOM      7  C   UNL     1      -1.858   5.200  -3.148  1.00  0.00     0.152 A 
ATOM      8  C   UNL     1      -2.505   4.281  -3.971  1.00  0.00     0.127 A 
ATOM      9  N   UNL     1      -2.124   3.734  -5.132  1.00  0.00    -0.340 N 
ATOM     10  H   UNL     1      -1.244   3.890  -5.670  1.00  0.00     0.168 HD
ENDROOT
BRANCH   7  11
ATOM     11  N   UNL     1      -0.573   5.734  -3.468  1.00  0.00    -0.382 N 
ATOM     12  H   UNL     1       0.125   5.956  -2.725  1.00  0.00     0.158 HD
ATOM     13  H   UNL     1      -0.314   5.911  -4.465  1.00  0.00     0.158 HD
ENDBRANCH   7  11
TORSDOF 1
ENDMDL
MODEL 3
REMARK VINA RESULT:    -3.276      1.567      3.290
REMARK INTER + INTRA:          -3.372
REMARK INTER:                  -3.372
REMARK INTRA:                   0.000
REMARK UNBOUND:                 0.000
REMARK SMILES Nc1ncnc2nc[nH]c12
REMARK SMILES IDX 8 1 7 2 6 3 5 4 4 5 3 6 2 7 10 8 9 9 1 11
REMARK H PARENT 9 10 1 12 1 13
REMARK Flexibility Score: inf
ROOT
ATOM      1  C   UNL     1      -3.533   4.918  -1.047  1.00  0.00     0.199 A 
ATOM      2  N   UNL     1      -4.296   4.202  -1.917  1.00  0.00    -0.217 NA
ATOM      3  C   UNL     1      -3.539   4.200  -3.026  1.00  0.00     0.182 A 
ATOM      4  N   UNL     1      -3.840   3.613  -4.209  1.00  0.00    -0.215 NA
ATOM      5  C   UNL     1      -2.937   3.720  -5.231  1.00  0.00     0.226 A 
ATOM      6  N   UNL     1      -1.761   4.404  -5.053  1.00  0.00    -0.217 NA
ATOM      7  C   UNL     1      -1.456   4.997  -3.860  1.00  0.00     0.152 A 
ATOM      8  C   UNL     1      -2.386   4.879  -2.830  1.00  0.00     0.127 A 
ATOM      9  N   UNL     1      -2.359   5.347  -1.575  1.00  0.00    -0.340 N 
ATOM     10  H   UNL     1      -1.617   5.908  -1.104  1.00  0.00     0.168 HD
ENDROOT
BRANCH   7  11
ATOM     11  N   UNL     1      -0.227   5.704  -3.697  1.00  0.00    -0.382 N 
ATOM     12  H   UNL     1       0.603   5.257  -3.249  1.00  0.00     0.158 HD
ATOM     13  H   UNL     1      -0.143   6.691  -4.029  1.00  0.00     0.158 HD
ENDBRANCH   7  11
TORSDOF 1
ENDMDL
MODEL 4
REMARK VINA RESULT:    -3.271      2.367      3.428
REMARK INTER + INTRA:          -3.367
REMARK INTER:                  -3.367
REMARK INTRA:                   0.000
REMARK UNBOUND:                 0.000
REMARK SMILES Nc1ncnc2nc[nH]c12
REMARK SMILES IDX 8 1 7 2 6 3 5 4 4 5 3 6 2 7 10 8 9 9 1 11
REMARK H PARENT 9 10 1 12 1 13
REMARK Flexibility Score: inf
ROOT
ATOM      1  C   UNL     1       0.035   6.007  -4.722  1.00  0.00     0.199 A 
ATOM      2  N   UNL     1      -0.736   5.365  -5.642  1.00  0.00    -0.217 NA
ATOM      3  C   UNL     1      -1.697   4.821  -4.879  1.00  0.00     0.182 A 
ATOM      4  N   UNL     1      -2.738   4.066  -5.305  1.00  0.00    -0.215 NA
ATOM      5  C   UNL     1      -3.621   3.598  -4.372  1.00  0.00     0.226 A 
ATOM      6  N   UNL     1      -3.450   3.891  -3.042  1.00  0.00    -0.217 NA
ATOM      7  C   UNL     1      -2.401   4.653  -2.610  1.00  0.00     0.152 A 
ATOM      8  C   UNL     1      -1.511   5.122  -3.573  1.00  0.00     0.127 A 
ATOM      9  N   UNL     1      -0.412   5.877  -3.448  1.00  0.00    -0.340 N 
ATOM     10  H   UNL     1       0.010   6.277  -2.581  1.00  0.00     0.168 HD
ENDROOT
BRANCH   7  11
ATOM     11  N   UNL     1      -2.243   4.946  -1.222  1.00  0.00    -0.382 N 
ATOM     12  H   UNL     1      -2.092   4.189  -0.520  1.00  0.00     0.158 HD
ATOM     13  H   UNL     1      -2.278   5.935  -0.888  1.00  0.00     0.158 HD
ENDBRANCH   7  11
TORSDOF 1
ENDMDL
MODEL 5
REMARK VINA RESULT:    -3.175      0.936      2.890
REMARK INTER + INTRA:          -3.268
REMARK INTER:                  -3.268
REMARK INTRA:                   0.000
REMARK UNBOUND:                 0.000
REMARK SMILES Nc1ncnc2nc[nH]c12
REMARK SMILES IDX 8 1 7 2 6 3 5 4 4 5 3 6 2 7 10 8 9 9 1 11
REMARK H PARENT 9 10 1 12 1 13
REMARK Flexibility Score: inf
ROOT
ATOM      1  C   UNL     1      -5.608   4.762  -0.371  1.00  0.00     0.199 A 
ATOM      2  N   UNL     1      -6.260   4.291  -1.470  1.00  0.00    -0.217 NA
ATOM      3  C   UNL     1      -5.264   4.169  -2.362  1.00  0.00     0.182 A 
ATOM      4  N   UNL     1      -5.372   3.732  -3.639  1.00  0.00    -0.215 NA
ATOM      5  C   UNL     1      -4.237   3.677  -4.401  1.00  0.00     0.226 A 
ATOM      6  N   UNL     1      -3.027   4.056  -3.876  1.00  0.00    -0.217 NA
ATOM      7  C   UNL     1      -2.916   4.497  -2.588  1.00  0.00     0.152 A 
ATOM      8  C   UNL     1      -4.081   4.547  -1.826  1.00  0.00     0.127 A 
ATOM      9  N   UNL     1      -4.275   4.929  -0.557  1.00  0.00    -0.340 N 
ATOM     10  H   UNL     1      -3.575   5.276   0.135  1.00  0.00     0.168 HD
ENDROOT
BRANCH   7  11
ATOM     11  N   UNL     1      -1.647   4.886  -2.063  1.00  0.00    -0.382 N 
ATOM     12  H   UNL     1      -1.387   5.890  -1.953  1.00  0.00     0.158 HD
ATOM     13  H   UNL     1      -0.953   4.158  -1.778  1.00  0.00     0.158 HD
ENDBRANCH   7  11
TORSDOF 1
ENDMDL
MODEL 6
REMARK VINA RESULT:    -3.156     12.383     13.257
REMARK INTER + INTRA:          -3.249
REMARK INTER:                  -3.249
REMARK INTRA:                   0.000
REMARK UNBOUND:                 0.000
REMARK SMILES Nc1ncnc2nc[nH]c12
REMARK SMILES IDX 8 1 7 2 6 3 5 4 4 5 3 6 2 7 10 8 9 9 1 11
REMARK H PARENT 9 10 1 12 1 13
REMARK Flexibility Score: inf
ROOT
ATOM      1  C   UNL     1      -0.716  -6.670   2.297  1.00  0.00     0.199 A 
ATOM      2  N   UNL     1      -0.909  -7.992   2.034  1.00  0.00    -0.217 NA
ATOM      3  C   UNL     1      -0.277  -8.144   0.859  1.00  0.00     0.182 A 
ATOM      4  N   UNL     1      -0.164  -9.289   0.144  1.00  0.00    -0.215 NA
ATOM      5  C   UNL     1       0.522  -9.247  -1.038  1.00  0.00     0.226 A 
ATOM      6  N   UNL     1       1.078  -8.073  -1.480  1.00  0.00    -0.217 NA
ATOM      7  C   UNL     1       0.966  -6.916  -0.759  1.00  0.00     0.152 A 
ATOM      8  C   UNL     1       0.264  -6.976   0.442  1.00  0.00     0.127 A 
ATOM      9  N   UNL     1      -0.003  -6.021   1.342  1.00  0.00    -0.340 N 
ATOM     10  H   UNL     1       0.267  -5.014   1.325  1.00  0.00     0.168 HD
ENDROOT
BRANCH   7  11
ATOM     11  N   UNL     1       1.552  -5.706  -1.238  1.00  0.00    -0.382 N 
ATOM     12  H   UNL     1       1.326  -4.784  -0.806  1.00  0.00     0.158 HD
ATOM     13  H   UNL     1       2.224  -5.731  -2.037  1.00  0.00     0.158 HD
ENDBRANCH   7  11
TORSDOF 1
ENDMDL
MODEL 7
REMARK VINA RESULT:    -3.085      1.108      2.618
REMARK INTER + INTRA:          -3.175
REMARK INTER:                  -3.175
REMARK INTRA:                   0.000
REMARK UNBOUND:                 0.000
REMARK SMILES Nc1ncnc2nc[nH]c12
REMARK SMILES IDX 8 1 7 2 6 3 5 4 4 5 3 6 2 7 10 8 9 9 1 11
REMARK H PARENT 9 10 1 12 1 13
REMARK Flexibility Score: inf
ROOT
ATOM      1  C   UNL     1      -6.519   4.077  -3.014  1.00  0.00     0.199 A 
ATOM      2  N   UNL     1      -5.496   3.609  -3.781  1.00  0.00    -0.217 NA
ATOM      3  C   UNL     1      -4.419   4.111  -3.158  1.00  0.00     0.182 A 
ATOM      4  N   UNL     1      -3.124   3.941  -3.519  1.00  0.00    -0.215 NA
ATOM      5  C   UNL     1      -2.158   4.535  -2.755  1.00  0.00     0.226 A 
ATOM      6  N   UNL     1      -2.500   5.280  -1.654  1.00  0.00    -0.217 NA
ATOM      7  C   UNL     1      -3.805   5.452  -1.288  1.00  0.00     0.152 A 
ATOM      8  C   UNL     1      -4.777   4.841  -2.077  1.00  0.00     0.127 A 
ATOM      9  N   UNL     1      -6.111   4.835  -1.964  1.00  0.00    -0.340 N 
ATOM     10  H   UNL     1      -6.708   5.298  -1.245  1.00  0.00     0.168 HD
ENDROOT
BRANCH   7  11
ATOM     11  N   UNL     1      -4.138   6.231  -0.139  1.00  0.00    -0.382 N 
ATOM     12  H   UNL     1      -4.316   5.786   0.788  1.00  0.00     0.158 HD
ATOM     13  H   UNL     1      -4.208   7.270  -0.214  1.00  0.00     0.158 HD
ENDBRANCH   7  11
TORSDOF 1
ENDMDL
MODEL 8
REMARK VINA RESULT:    -3.023     12.597     13.232
REMARK INTER + INTRA:          -3.111
REMARK INTER:                  -3.111
REMARK INTRA:                   0.000
REMARK UNBOUND:                 0.000
REMARK SMILES Nc1ncnc2nc[nH]c12
REMARK SMILES IDX 8 1 7 2 6 3 5 4 4 5 3 6 2 7 10 8 9 9 1 11
REMARK H PARENT 9 10 1 12 1 13
REMARK Flexibility Score: inf
ROOT
ATOM      1  C   UNL     1      -1.699  -5.168   3.737  1.00  0.00     0.199 A 
ATOM      2  N   UNL     1      -1.275  -6.236   4.466  1.00  0.00    -0.217 NA
ATOM      3  C   UNL     1      -0.490  -6.886   3.591  1.00  0.00     0.182 A 
ATOM      4  N   UNL     1       0.192  -8.034   3.815  1.00  0.00    -0.215 NA
ATOM      5  C   UNL     1       0.944  -8.548   2.794  1.00  0.00     0.226 A 
ATOM      6  N   UNL     1       1.001  -7.909   1.581  1.00  0.00    -0.217 NA
ATOM      7  C   UNL     1       0.313  -6.750   1.354  1.00  0.00     0.152 A 
ATOM      8  C   UNL     1      -0.448  -6.240   2.403  1.00  0.00     0.127 A 
ATOM      9  N   UNL     1      -1.211  -5.142   2.471  1.00  0.00    -0.340 N 
ATOM     10  H   UNL     1      -1.395  -4.428   1.733  1.00  0.00     0.168 HD
ENDROOT
BRANCH   7  11
ATOM     11  N   UNL     1       0.387  -6.102   0.084  1.00  0.00    -0.382 N 
ATOM     12  H   UNL     1       1.278  -5.687  -0.265  1.00  0.00     0.158 HD
ATOM     13  H   UNL     1      -0.464  -6.037  -0.520  1.00  0.00     0.158 HD
ENDBRANCH   7  11
TORSDOF 1
ENDMDL
MODEL 9
REMARK VINA RESULT:    -2.935     12.467     13.138
REMARK INTER + INTRA:          -3.021
REMARK INTER:                  -3.021
REMARK INTRA:                   0.000
REMARK UNBOUND:                 0.000
REMARK SMILES Nc1ncnc2nc[nH]c12
REMARK SMILES IDX 8 1 7 2 6 3 5 4 4 5 3 6 2 7 10 8 9 9 1 11
REMARK H PARENT 9 10 1 12 1 13
REMARK Flexibility Score: inf
ROOT
ATOM      1  C   UNL     1      -4.267  -3.245   8.048  1.00  0.00     0.199 A 
ATOM      2  N   UNL     1      -3.490  -4.349   8.215  1.00  0.00    -0.217 NA
ATOM      3  C   UNL     1      -3.534  -4.916   6.999  1.00  0.00     0.182 A 
ATOM      4  N   UNL     1      -2.916  -6.060   6.617  1.00  0.00    -0.215 NA
ATOM      5  C   UNL     1      -3.080  -6.482   5.327  1.00  0.00     0.226 A 
ATOM      6  N   UNL     1      -3.850  -5.760   4.450  1.00  0.00    -0.217 NA
ATOM      7  C   UNL     1      -4.474  -4.606   4.833  1.00  0.00     0.152 A 
ATOM      8  C   UNL     1      -4.297  -4.190   6.150  1.00  0.00     0.127 A 
ATOM      9  N   UNL     1      -4.776  -3.119   6.796  1.00  0.00    -0.340 N 
ATOM     10  H   UNL     1      -5.395  -2.361   6.434  1.00  0.00     0.168 HD
ENDROOT
BRANCH   7  11
ATOM     11  N   UNL     1      -5.270  -3.871   3.904  1.00  0.00    -0.382 N 
ATOM     12  H   UNL     1      -5.225  -4.060   2.879  1.00  0.00     0.158 HD
ATOM     13  H   UNL     1      -5.917  -3.125   4.245  1.00  0.00     0.158 HD
ENDBRANCH   7  11
TORSDOF 1
ENDMDL
