MODEL 1
REMARK VINA RESULT:    -3.090      0.000      0.000
REMARK INTER + INTRA:          -3.489
REMARK INTER:                  -3.451
REMARK INTRA:                  -0.038
REMARK UNBOUND:                -0.038
REMARK SMILES CCCC(=O)[O-]
REMARK SMILES IDX 3 1 4 2 5 3 6 4 2 5 1 6
REMARK H PARENT
REMARK Flexibility Score: inf
ROOT
ATOM      1  C   UNL     1      52.001  40.874  48.026  1.00  0.00     0.052 C 
ENDROOT
BRANCH   1   2
ATOM      2  C   UNL     1      53.152  39.985  47.661  1.00  0.00     0.041 C 
ATOM      3  O   UNL     1      53.272  39.558  46.482  1.00  0.00    -0.550 OA
ATOM      4  O   UNL     1      54.109  39.658  48.614  1.00  0.00    -0.550 OA
ENDBRANCH   1   2
BRANCH   1   5
ATOM      5  C   UNL     1      52.395  42.356  47.999  1.00  0.00     0.003 C 
ATOM      6  C   UNL     1      51.966  43.048  46.706  1.00  0.00     0.004 C 
ENDBRANCH   1   5
TORSDOF 2
ENDMDL
MODEL 2
REMARK VINA RESULT:    -3.020     11.560     12.058
REMARK INTER + INTRA:          -3.410
REMARK INTER:                  -3.372
REMARK INTRA:                  -0.038
REMARK UNBOUND:                -0.038
REMARK SMILES CCCC(=O)[O-]
REMARK SMILES IDX 3 1 4 2 5 3 6 4 2 5 1 6
REMARK H PARENT
REMARK Flexibility Score: inf
ROOT
ATOM      1  C   UNL     1      48.892  39.436  59.732  1.00  0.00     0.052 C 
ENDROOT
BRANCH   1   2
ATOM      2  C   UNL     1      49.701  38.526  58.857  1.00  0.00     0.041 C 
ATOM      3  O   UNL     1      50.103  37.417  59.298  1.00  0.00    -0.550 OA
ATOM      4  O   UNL     1      49.983  38.889  57.546  1.00  0.00    -0.550 OA
ENDBRANCH   1   2
BRANCH   1   5
ATOM      5  C   UNL     1      47.999  40.371  58.908  1.00  0.00     0.003 C 
ATOM      6  C   UNL     1      48.427  41.834  59.022  1.00  0.00     0.004 C 
ENDBRANCH   1   5
TORSDOF 2
ENDMDL
MODEL 3
REMARK VINA RESULT:    -2.932      1.385      1.808
REMARK INTER + INTRA:          -3.313
REMARK INTER:                  -3.308
REMARK INTRA:                  -0.005
REMARK UNBOUND:                -0.038
REMARK SMILES CCCC(=O)[O-]
REMARK SMILES IDX 3 1 4 2 5 3 6 4 2 5 1 6
REMARK H PARENT
REMARK Flexibility Score: inf
ROOT
ATOM      1  C   UNL     1      52.005  40.895  47.966  1.00  0.00     0.052 C 
ENDROOT
BRANCH   1   2
ATOM      2  C   UNL     1      52.522  40.215  49.197  1.00  0.00     0.041 C 
ATOM      3  O   UNL     1      53.721  39.833  49.254  1.00  0.00    -0.550 OA
ATOM      4  O   UNL     1      51.689  40.033  50.294  1.00  0.00    -0.550 OA
ENDBRANCH   1   2
BRANCH   1   5
ATOM      5  C   UNL     1      52.310  42.398  47.976  1.00  0.00     0.003 C 
ATOM      6  C   UNL     1      51.955  43.072  46.651  1.00  0.00     0.004 C 
ENDBRANCH   1   5
TORSDOF 2
ENDMDL
MODEL 4
REMARK VINA RESULT:    -2.885      2.104      3.333
REMARK INTER + INTRA:          -3.260
REMARK INTER:                  -3.235
REMARK INTRA:                  -0.025
REMARK UNBOUND:                -0.038
REMARK SMILES CCCC(=O)[O-]
REMARK SMILES IDX 3 1 4 2 5 3 6 4 2 5 1 6
REMARK H PARENT
REMARK Flexibility Score: inf
ROOT
ATOM      1  C   UNL     1      52.231  40.365  48.014  1.00  0.00     0.052 C 
ENDROOT
BRANCH   1   2
ATOM      2  C   UNL     1      52.210  41.862  48.083  1.00  0.00     0.041 C 
ATOM      3  O   UNL     1      52.610  42.453  49.121  1.00  0.00    -0.550 OA
ATOM      4  O   UNL     1      51.781  42.604  46.990  1.00  0.00    -0.550 OA
ENDBRANCH   1   2
BRANCH   1   5
ATOM      5  C   UNL     1      53.205  39.858  46.944  1.00  0.00     0.003 C 
ATOM      6  C   UNL     1      54.483  39.279  47.549  1.00  0.00     0.004 C 
ENDBRANCH   1   5
TORSDOF 2
ENDMDL
MODEL 5
REMARK VINA RESULT:    -2.865      2.374      2.786
REMARK INTER + INTRA:          -3.238
REMARK INTER:                  -3.200
REMARK INTRA:                  -0.038
REMARK UNBOUND:                -0.038
REMARK SMILES CCCC(=O)[O-]
REMARK SMILES IDX 3 1 4 2 5 3 6 4 2 5 1 6
REMARK H PARENT
REMARK Flexibility Score: inf
ROOT
ATOM      1  C   UNL     1      53.089  40.186  49.013  1.00  0.00     0.052 C 
ENDROOT
BRANCH   1   2
ATOM      2  C   UNL     1      52.608  39.880  50.399  1.00  0.00     0.041 C 
ATOM      3  O   UNL     1      51.706  40.584  50.925  1.00  0.00    -0.550 OA
ATOM      4  O   UNL     1      53.131  38.798  51.095  1.00  0.00    -0.550 OA
ENDBRANCH   1   2
BRANCH   1   5
ATOM      5  C   UNL     1      51.940  40.619  48.094  1.00  0.00     0.003 C 
ATOM      6  C   UNL     1      52.091  42.062  47.614  1.00  0.00     0.004 C 
ENDBRANCH   1   5
TORSDOF 2
ENDMDL
MODEL 6
REMARK VINA RESULT:    -2.796     11.671     12.307
REMARK INTER + INTRA:          -3.161
REMARK INTER:                  -3.130
REMARK INTRA:                  -0.030
REMARK UNBOUND:                -0.038
REMARK SMILES CCCC(=O)[O-]
REMARK SMILES IDX 3 1 4 2 5 3 6 4 2 5 1 6
REMARK H PARENT
REMARK Flexibility Score: inf
ROOT
ATOM      1  C   UNL     1      49.940  40.203  59.106  1.00  0.00     0.052 C 
ENDROOT
BRANCH   1   2
ATOM      2  C   UNL     1      48.746  41.108  59.052  1.00  0.00     0.041 C 
ATOM      3  O   UNL     1      48.901  42.356  58.970  1.00  0.00    -0.550 OA
ATOM      4  O   UNL     1      47.465  40.572  59.057  1.00  0.00    -0.550 OA
ENDBRANCH   1   2
BRANCH   1   5
ATOM      5  C   UNL     1      49.538  38.726  59.025  1.00  0.00     0.003 C 
ATOM      6  C   UNL     1      50.089  38.041  57.774  1.00  0.00     0.004 C 
ENDBRANCH   1   5
TORSDOF 2
ENDMDL
MODEL 7
REMARK VINA RESULT:    -2.777      1.817      2.732
REMARK INTER + INTRA:          -3.139
REMARK INTER:                  -3.108
REMARK INTRA:                  -0.031
REMARK UNBOUND:                -0.038
REMARK SMILES CCCC(=O)[O-]
REMARK SMILES IDX 3 1 4 2 5 3 6 4 2 5 1 6
REMARK H PARENT
REMARK Flexibility Score: inf
ROOT
ATOM      1  C   UNL     1      52.101  41.773  47.711  1.00  0.00     0.052 C 
ENDROOT
BRANCH   1   2
ATOM      2  C   UNL     1      53.233  41.824  46.730  1.00  0.00     0.041 C 
ATOM      3  O   UNL     1      53.673  42.934  46.327  1.00  0.00    -0.550 OA
ATOM      4  O   UNL     1      53.825  40.648  46.289  1.00  0.00    -0.550 OA
ENDBRANCH   1   2
BRANCH   1   5
ATOM      5  C   UNL     1      51.827  40.343  48.191  1.00  0.00     0.003 C 
ATOM      6  C   UNL     1      52.086  40.173  49.687  1.00  0.00     0.004 C 
ENDBRANCH   1   5
TORSDOF 2
ENDMDL
MODEL 8
REMARK VINA RESULT:    -2.765      2.392      2.860
REMARK INTER + INTRA:          -3.125
REMARK INTER:                  -3.071
REMARK INTRA:                  -0.054
REMARK UNBOUND:                -0.038
REMARK SMILES CCCC(=O)[O-]
REMARK SMILES IDX 3 1 4 2 5 3 6 4 2 5 1 6
REMARK H PARENT
REMARK Flexibility Score: inf
ROOT
ATOM      1  C   UNL     1      51.912  40.397  48.128  1.00  0.00     0.052 C 
ENDROOT
BRANCH   1   2
ATOM      2  C   UNL     1      52.352  40.559  49.551  1.00  0.00     0.041 C 
ATOM      3  O   UNL     1      52.251  39.597  50.358  1.00  0.00    -0.550 OA
ATOM      4  O   UNL     1      52.906  41.760  49.977  1.00  0.00    -0.550 OA
ENDBRANCH   1   2
BRANCH   1   5
ATOM      5  C   UNL     1      53.046  40.705  47.143  1.00  0.00     0.003 C 
ATOM      6  C   UNL     1      53.987  39.517  46.949  1.00  0.00     0.004 C 
ENDBRANCH   1   5
TORSDOF 2
ENDMDL
MODEL 9
REMARK VINA RESULT:    -2.700      2.277      3.265
REMARK INTER + INTRA:          -3.053
REMARK INTER:                  -2.983
REMARK INTRA:                  -0.070
REMARK UNBOUND:                -0.038
REMARK SMILES CCCC(=O)[O-]
REMARK SMILES IDX 3 1 4 2 5 3 6 4 2 5 1 6
REMARK H PARENT
REMARK Flexibility Score: inf
ROOT
ATOM      1  C   UNL     1      52.231  41.916  47.914  1.00  0.00     0.052 C 
ENDROOT
BRANCH   1   2
ATOM      2  C   UNL     1      53.146  42.610  48.877  1.00  0.00     0.041 C 
ATOM      3  O   UNL     1      54.391  42.431  48.808  1.00  0.00    -0.550 OA
ATOM      4  O   UNL     1      52.627  43.480  49.828  1.00  0.00    -0.550 OA
ENDBRANCH   1   2
BRANCH   1   5
ATOM      5  C   UNL     1      52.226  40.398  48.126  1.00  0.00     0.003 C 
ATOM      6  C   UNL     1      51.864  40.011  49.559  1.00  0.00     0.004 C 
ENDBRANCH   1   5
TORSDOF 2
ENDMDL
