MODEL 1
REMARK VINA RESULT:    -6.337      0.000      0.000
REMARK INTER + INTRA:          -6.337
REMARK INTER:                  -6.337
REMARK INTRA:                   0.000
REMARK UNBOUND:                 0.000
REMARK SMILES C[NH+]1CCN(C2=[NH+]c3ccccc3Oc3ccc(Cl)cc32)CC1
REMARK SMILES IDX 7 1 6 2 21 3 5 4 8 5 9 6 13 7 10 8 12 9 14 10 11 11 15 12
REMARK SMILES IDX 16 13 17 14 18 15 20 16 19 17 4 18 22 19 3 20 23 21 2 22
REMARK SMILES IDX 1 23
REMARK H PARENT 7 24 2 25
REMARK Flexibility Score: inf
ROOT
ATOM      1  N   UNL     1     108.327 103.551  86.358  1.00  0.00    -0.237 N 
ATOM      2  C   UNL     1     108.703 103.020  87.492  1.00  0.00     0.286 C 
ATOM      3  C   UNL     1     109.777 101.997  87.605  1.00  0.00     0.108 A 
ATOM      4  N   UNL     1     108.084 103.475  88.712  1.00  0.00    -0.250 N 
ATOM      5  C   UNL     1     108.841 103.271  85.044  1.00  0.00     0.168 A 
ATOM      6  C   UNL     1     108.850 104.312  84.099  1.00  0.00     0.056 A 
ATOM      7  C   UNL     1     109.150 101.963  84.619  1.00  0.00     0.173 A 
ATOM      8  C   UNL     1     109.168 104.062  82.763  1.00  0.00     0.005 A 
ATOM      9  C   UNL     1     109.435 101.716  83.269  1.00  0.00     0.052 A 
ATOM     10  O   UNL     1     109.191 100.885  85.499  1.00  0.00    -0.452 OA
ATOM     11  C   UNL     1     109.453 102.762  82.346  1.00  0.00     0.004 A 
ATOM     12  C   UNL     1     109.905 100.931  86.693  1.00  0.00     0.143 A 
ATOM     13  C   UNL     1     110.784  99.875  86.969  1.00  0.00     0.049 A 
ATOM     14  C   UNL     1     111.577  99.895  88.116  1.00  0.00     0.024 A 
ATOM     15  C   UNL     1     111.491 100.967  89.003  1.00  0.00     0.042 A 
ATOM     16  C   UNL     1     110.593 102.007  88.754  1.00  0.00     0.041 A 
ATOM     17  Cl  UNL     1     112.488 100.995  90.446  1.00  0.00    -0.084 Cl
ATOM     18  C   UNL     1     107.936 104.906  88.984  1.00  0.00     0.298 C 
ATOM     19  C   UNL     1     107.350 102.529  89.551  1.00  0.00     0.298 C 
ATOM     20  C   UNL     1     108.146 105.178  90.480  1.00  0.00     0.308 C 
ATOM     21  C   UNL     1     107.572 102.858  91.034  1.00  0.00     0.308 C 
ATOM     22  N   UNL     1     107.336 104.287  91.343  1.00  0.00    -0.331 N 
ATOM     23  C   UNL     1     105.903 104.636  91.317  1.00  0.00     0.332 C 
ATOM     24  H   UNL     1     107.594 104.296  86.397  1.00  0.00     0.312 HD
ATOM     25  H   UNL     1     107.660 104.443  92.329  1.00  0.00     0.348 HD
ENDROOT
TORSDOF 0
ENDMDL
MODEL 2
REMARK VINA RESULT:    -6.114      2.605      5.387
REMARK INTER + INTRA:          -6.114
REMARK INTER:                  -6.114
REMARK INTRA:                   0.000
REMARK UNBOUND:                 0.000
REMARK SMILES C[NH+]1CCN(C2=[NH+]c3ccccc3Oc3ccc(Cl)cc32)CC1
REMARK SMILES IDX 7 1 6 2 21 3 5 4 8 5 9 6 13 7 10 8 12 9 14 10 11 11 15 12
REMARK SMILES IDX 16 13 17 14 18 15 20 16 19 17 4 18 22 19 3 20 23 21 2 22
REMARK SMILES IDX 1 23
REMARK H PARENT 7 24 2 25
REMARK Flexibility Score: inf
ROOT
ATOM      1  N   UNL     1     108.571 103.066  89.208  1.00  0.00    -0.237 N 
ATOM      2  C   UNL     1     109.359 102.563  88.294  1.00  0.00     0.286 C 
ATOM      3  C   UNL     1     109.122 102.707  86.833  1.00  0.00     0.108 A 
ATOM      4  N   UNL     1     110.552 101.868  88.712  1.00  0.00    -0.250 N 
ATOM      5  C   UNL     1     107.365 103.823  89.006  1.00  0.00     0.168 A 
ATOM      6  C   UNL     1     107.034 104.809  89.952  1.00  0.00     0.056 A 
ATOM      7  C   UNL     1     106.419 103.485  88.016  1.00  0.00     0.173 A 
ATOM      8  C   UNL     1     105.796 105.453  89.911  1.00  0.00     0.005 A 
ATOM      9  C   UNL     1     105.166 104.113  88.004  1.00  0.00     0.052 A 
ATOM     10  O   UNL     1     106.683 102.542  87.027  1.00  0.00    -0.452 OA
ATOM     11  C   UNL     1     104.858 105.099  88.941  1.00  0.00     0.004 A 
ATOM     12  C   UNL     1     107.842 102.579  86.258  1.00  0.00     0.143 A 
ATOM     13  C   UNL     1     107.705 102.498  84.866  1.00  0.00     0.049 A 
ATOM     14  C   UNL     1     108.822 102.597  84.037  1.00  0.00     0.024 A 
ATOM     15  C   UNL     1     110.089 102.769  84.593  1.00  0.00     0.042 A 
ATOM     16  C   UNL     1     110.240 102.816  85.981  1.00  0.00     0.041 A 
ATOM     17  Cl  UNL     1     111.496 102.894  83.553  1.00  0.00    -0.084 Cl
ATOM     18  C   UNL     1     111.444 102.454  89.714  1.00  0.00     0.298 C 
ATOM     19  C   UNL     1     110.735 100.462  88.355  1.00  0.00     0.298 C 
ATOM     20  C   UNL     1     112.904 102.132  89.366  1.00  0.00     0.308 C 
ATOM     21  C   UNL     1     112.213 100.186  88.041  1.00  0.00     0.308 C 
ATOM     22  N   UNL     1     113.124 100.694  89.093  1.00  0.00    -0.331 N 
ATOM     23  C   UNL     1     113.069  99.877  90.321  1.00  0.00     0.332 C 
ATOM     24  H   UNL     1     108.856 102.945  90.207  1.00  0.00     0.312 HD
ATOM     25  H   UNL     1     114.100 100.601  88.720  1.00  0.00     0.348 HD
ENDROOT
TORSDOF 0
ENDMDL
MODEL 3
REMARK VINA RESULT:    -5.849      3.040      4.655
REMARK INTER + INTRA:          -5.849
REMARK INTER:                  -5.849
REMARK INTRA:                   0.000
REMARK UNBOUND:                 0.000
REMARK SMILES C[NH+]1CCN(C2=[NH+]c3ccccc3Oc3ccc(Cl)cc32)CC1
REMARK SMILES IDX 7 1 6 2 21 3 5 4 8 5 9 6 13 7 10 8 12 9 14 10 11 11 15 12
REMARK SMILES IDX 16 13 17 14 18 15 20 16 19 17 4 18 22 19 3 20 23 21 2 22
REMARK SMILES IDX 1 23
REMARK H PARENT 7 24 2 25
REMARK Flexibility Score: inf
ROOT
ATOM      1  N   UNL     1     111.029 102.534  84.927  1.00  0.00    -0.237 N 
ATOM      2  C   UNL     1     110.280 102.643  85.994  1.00  0.00     0.286 C 
ATOM      3  C   UNL     1     108.965 103.337  86.009  1.00  0.00     0.108 A 
ATOM      4  N   UNL     1     110.720 102.020  87.218  1.00  0.00    -0.250 N 
ATOM      5  C   UNL     1     110.757 103.041  83.609  1.00  0.00     0.168 A 
ATOM      6  C   UNL     1     111.247 102.319  82.506  1.00  0.00     0.056 A 
ATOM      7  C   UNL     1     110.194 104.315  83.393  1.00  0.00     0.173 A 
ATOM      8  C   UNL     1     111.172 102.847  81.216  1.00  0.00     0.005 A 
ATOM      9  C   UNL     1     110.154 104.850  82.098  1.00  0.00     0.052 A 
ATOM     10  O   UNL     1     109.661 105.078  84.427  1.00  0.00    -0.452 OA
ATOM     11  C   UNL     1     110.632 104.116  81.012  1.00  0.00     0.004 A 
ATOM     12  C   UNL     1     108.746 104.556  85.337  1.00  0.00     0.143 A 
ATOM     13  C   UNL     1     107.568 105.279  85.566  1.00  0.00     0.049 A 
ATOM     14  C   UNL     1     106.581 104.777  86.414  1.00  0.00     0.024 A 
ATOM     15  C   UNL     1     106.768 103.550  87.050  1.00  0.00     0.042 A 
ATOM     16  C   UNL     1     107.954 102.838  86.855  1.00  0.00     0.041 A 
ATOM     17  Cl  UNL     1     105.529 102.915  88.116  1.00  0.00    -0.084 Cl
ATOM     18  C   UNL     1     111.200 100.637  87.220  1.00  0.00     0.298 C 
ATOM     19  C   UNL     1     110.957 102.840  88.405  1.00  0.00     0.298 C 
ATOM     20  C   UNL     1     110.753  99.931  88.508  1.00  0.00     0.308 C 
ATOM     21  C   UNL     1     110.518 102.081  89.666  1.00  0.00     0.308 C 
ATOM     22  N   UNL     1     111.071 100.709  89.727  1.00  0.00    -0.331 N 
ATOM     23  C   UNL     1     112.515 100.701  90.034  1.00  0.00     0.332 C 
ATOM     24  H   UNL     1     111.914 101.985  85.017  1.00  0.00     0.312 HD
ATOM     25  H   UNL     1     110.597 100.225  90.528  1.00  0.00     0.348 HD
ENDROOT
TORSDOF 0
ENDMDL
MODEL 4
REMARK VINA RESULT:    -5.811     15.274     17.109
REMARK INTER + INTRA:          -5.811
REMARK INTER:                  -5.811
REMARK INTRA:                   0.000
REMARK UNBOUND:                 0.000
REMARK SMILES C[NH+]1CCN(C2=[NH+]c3ccccc3Oc3ccc(Cl)cc32)CC1
REMARK SMILES IDX 7 1 6 2 21 3 5 4 8 5 9 6 13 7 10 8 12 9 14 10 11 11 15 12
REMARK SMILES IDX 16 13 17 14 18 15 20 16 19 17 4 18 22 19 3 20 23 21 2 22
REMARK SMILES IDX 1 23
REMARK H PARENT 7 24 2 25
REMARK Flexibility Score: inf
ROOT
ATOM      1  N   UNL     1     104.060 116.191  84.528  1.00  0.00    -0.237 N 
ATOM      2  C   UNL     1     104.153 116.710  83.331  1.00  0.00     0.286 C 
ATOM      3  C   UNL     1     102.987 117.221  82.563  1.00  0.00     0.108 A 
ATOM      4  N   UNL     1     105.457 116.841  82.730  1.00  0.00    -0.250 N 
ATOM      5  C   UNL     1     102.870 116.010  85.315  1.00  0.00     0.168 A 
ATOM      6  C   UNL     1     102.981 116.092  86.714  1.00  0.00     0.056 A 
ATOM      7  C   UNL     1     101.655 115.567  84.754  1.00  0.00     0.173 A 
ATOM      8  C   UNL     1     101.907 115.752  87.538  1.00  0.00     0.005 A 
ATOM      9  C   UNL     1     100.594 115.196  85.590  1.00  0.00     0.052 A 
ATOM     10  O   UNL     1     101.456 115.487  83.379  1.00  0.00    -0.452 OA
ATOM     11  C   UNL     1     100.715 115.296  86.977  1.00  0.00     0.004 A 
ATOM     12  C   UNL     1     101.751 116.546  82.525  1.00  0.00     0.143 A 
ATOM     13  C   UNL     1     100.764 116.944  81.614  1.00  0.00     0.049 A 
ATOM     14  C   UNL     1     100.971 118.041  80.778  1.00  0.00     0.024 A 
ATOM     15  C   UNL     1     102.174 118.745  80.838  1.00  0.00     0.042 A 
ATOM     16  C   UNL     1     103.177 118.334  81.719  1.00  0.00     0.041 A 
ATOM     17  Cl  UNL     1     102.437 120.125  79.789  1.00  0.00    -0.084 Cl
ATOM     18  C   UNL     1     106.573 117.410  83.487  1.00  0.00     0.298 C 
ATOM     19  C   UNL     1     105.749 116.156  81.471  1.00  0.00     0.298 C 
ATOM     20  C   UNL     1     107.456 118.257  82.560  1.00  0.00     0.308 C 
ATOM     21  C   UNL     1     106.653 117.031  80.592  1.00  0.00     0.308 C 
ATOM     22  N   UNL     1     107.837 117.541  81.321  1.00  0.00    -0.331 N 
ATOM     23  C   UNL     1     108.837 116.485  81.572  1.00  0.00     0.332 C 
ATOM     24  H   UNL     1     104.950 115.904  84.996  1.00  0.00     0.312 HD
ATOM     25  H   UNL     1     108.301 118.244  80.695  1.00  0.00     0.348 HD
ENDROOT
TORSDOF 0
ENDMDL
MODEL 5
REMARK VINA RESULT:    -5.807      3.310      6.598
REMARK INTER + INTRA:          -5.807
REMARK INTER:                  -5.807
REMARK INTRA:                   0.000
REMARK UNBOUND:                 0.000
REMARK SMILES C[NH+]1CCN(C2=[NH+]c3ccccc3Oc3ccc(Cl)cc32)CC1
REMARK SMILES IDX 7 1 6 2 21 3 5 4 8 5 9 6 13 7 10 8 12 9 14 10 11 11 15 12
REMARK SMILES IDX 16 13 17 14 18 15 20 16 19 17 4 18 22 19 3 20 23 21 2 22
REMARK SMILES IDX 1 23
REMARK H PARENT 7 24 2 25
REMARK Flexibility Score: inf
ROOT
ATOM      1  N   UNL     1     111.480 102.141  86.134  1.00  0.00    -0.237 N 
ATOM      2  C   UNL     1     110.435 102.635  85.522  1.00  0.00     0.286 C 
ATOM      3  C   UNL     1     109.137 102.906  86.196  1.00  0.00     0.108 A 
ATOM      4  N   UNL     1     110.547 102.983  84.127  1.00  0.00    -0.250 N 
ATOM      5  C   UNL     1     111.590 101.770  87.519  1.00  0.00     0.168 A 
ATOM      6  C   UNL     1     112.841 101.910  88.146  1.00  0.00     0.056 A 
ATOM      7  C   UNL     1     110.557 101.100  88.205  1.00  0.00     0.173 A 
ATOM      8  C   UNL     1     113.059 101.404  89.429  1.00  0.00     0.005 A 
ATOM      9  C   UNL     1     110.795 100.566  89.479  1.00  0.00     0.052 A 
ATOM     10  O   UNL     1     109.283 100.947  87.665  1.00  0.00    -0.452 OA
ATOM     11  C   UNL     1     112.038 100.725  90.093  1.00  0.00     0.004 A 
ATOM     12  C   UNL     1     108.571 102.018  87.132  1.00  0.00     0.143 A 
ATOM     13  C   UNL     1     107.252 102.205  87.566  1.00  0.00     0.049 A 
ATOM     14  C   UNL     1     106.508 103.298  87.121  1.00  0.00     0.024 A 
ATOM     15  C   UNL     1     107.074 104.209  86.229  1.00  0.00     0.042 A 
ATOM     16  C   UNL     1     108.376 104.011  85.764  1.00  0.00     0.041 A 
ATOM     17  Cl  UNL     1     106.141 105.584  85.669  1.00  0.00    -0.084 Cl
ATOM     18  C   UNL     1     111.686 103.765  83.643  1.00  0.00     0.298 C 
ATOM     19  C   UNL     1     109.686 102.327  83.143  1.00  0.00     0.298 C 
ATOM     20  C   UNL     1     111.226 104.732  82.543  1.00  0.00     0.308 C 
ATOM     21  C   UNL     1     109.276 103.327  82.053  1.00  0.00     0.308 C 
ATOM     22  N   UNL     1     110.431 104.063  81.489  1.00  0.00    -0.331 N 
ATOM     23  C   UNL     1     111.263 103.212  80.616  1.00  0.00     0.332 C 
ATOM     24  H   UNL     1     112.356 102.033  85.575  1.00  0.00     0.312 HD
ATOM     25  H   UNL     1     110.040 104.820  80.877  1.00  0.00     0.348 HD
ENDROOT
TORSDOF 0
ENDMDL
MODEL 6
REMARK VINA RESULT:    -5.702      5.669      8.832
REMARK INTER + INTRA:          -5.702
REMARK INTER:                  -5.702
REMARK INTRA:                   0.000
REMARK UNBOUND:                 0.000
REMARK SMILES C[NH+]1CCN(C2=[NH+]c3ccccc3Oc3ccc(Cl)cc32)CC1
REMARK SMILES IDX 7 1 6 2 21 3 5 4 8 5 9 6 13 7 10 8 12 9 14 10 11 11 15 12
REMARK SMILES IDX 16 13 17 14 18 15 20 16 19 17 4 18 22 19 3 20 23 21 2 22
REMARK SMILES IDX 1 23
REMARK H PARENT 7 24 2 25
REMARK Flexibility Score: inf
ROOT
ATOM      1  N   UNL     1     106.419 104.199  80.709  1.00  0.00    -0.237 N 
ATOM      2  C   UNL     1     107.687 104.031  80.433  1.00  0.00     0.286 C 
ATOM      3  C   UNL     1     108.238 104.051  79.052  1.00  0.00     0.108 A 
ATOM      4  N   UNL     1     108.617 103.863  81.521  1.00  0.00    -0.250 N 
ATOM      5  C   UNL     1     105.342 104.422  79.781  1.00  0.00     0.168 A 
ATOM      6  C   UNL     1     104.259 105.214  80.202  1.00  0.00     0.056 A 
ATOM      7  C   UNL     1     105.244 103.729  78.558  1.00  0.00     0.173 A 
ATOM      8  C   UNL     1     103.107 105.323  79.420  1.00  0.00     0.005 A 
ATOM      9  C   UNL     1     104.070 103.817  77.798  1.00  0.00     0.052 A 
ATOM     10  O   UNL     1     106.284 102.950  78.060  1.00  0.00    -0.452 OA
ATOM     11  C   UNL     1     103.009 104.618  78.222  1.00  0.00     0.004 A 
ATOM     12  C   UNL     1     107.589 103.426  77.969  1.00  0.00     0.143 A 
ATOM     13  C   UNL     1     108.254 103.279  76.745  1.00  0.00     0.049 A 
ATOM     14  C   UNL     1     109.538 103.794  76.568  1.00  0.00     0.024 A 
ATOM     15  C   UNL     1     110.173 104.455  77.620  1.00  0.00     0.042 A 
ATOM     16  C   UNL     1     109.531 104.576  78.855  1.00  0.00     0.041 A 
ATOM     17  Cl  UNL     1     111.787 105.105  77.401  1.00  0.00    -0.084 Cl
ATOM     18  C   UNL     1     108.588 104.764  82.674  1.00  0.00     0.298 C 
ATOM     19  C   UNL     1     109.406 102.635  81.618  1.00  0.00     0.298 C 
ATOM     20  C   UNL     1     110.017 105.033  83.165  1.00  0.00     0.308 C 
ATOM     21  C   UNL     1     110.816 102.954  82.136  1.00  0.00     0.308 C 
ATOM     22  N   UNL     1     110.800 103.791  83.358  1.00  0.00    -0.331 N 
ATOM     23  C   UNL     1     110.362 103.035  84.547  1.00  0.00     0.332 C 
ATOM     24  H   UNL     1     106.146 104.212  81.718  1.00  0.00     0.312 HD
ATOM     25  H   UNL     1     111.791 104.082  83.541  1.00  0.00     0.348 HD
ENDROOT
TORSDOF 0
ENDMDL
MODEL 7
REMARK VINA RESULT:    -5.666      3.293      6.010
REMARK INTER + INTRA:          -5.666
REMARK INTER:                  -5.666
REMARK INTRA:                   0.000
REMARK UNBOUND:                 0.000
REMARK SMILES C[NH+]1CCN(C2=[NH+]c3ccccc3Oc3ccc(Cl)cc32)CC1
REMARK SMILES IDX 7 1 6 2 21 3 5 4 8 5 9 6 13 7 10 8 12 9 14 10 11 11 15 12
REMARK SMILES IDX 16 13 17 14 18 15 20 16 19 17 4 18 22 19 3 20 23 21 2 22
REMARK SMILES IDX 1 23
REMARK H PARENT 7 24 2 25
REMARK Flexibility Score: inf
ROOT
ATOM      1  N   UNL     1     110.024 103.187  84.863  1.00  0.00    -0.237 N 
ATOM      2  C   UNL     1     108.809 103.671  84.896  1.00  0.00     0.286 C 
ATOM      3  C   UNL     1     107.885 103.496  86.048  1.00  0.00     0.108 A 
ATOM      4  N   UNL     1     108.344 104.459  83.782  1.00  0.00    -0.250 N 
ATOM      5  C   UNL     1     110.689 102.417  85.879  1.00  0.00     0.168 A 
ATOM      6  C   UNL     1     112.083 102.554  86.009  1.00  0.00     0.056 A 
ATOM      7  C   UNL     1     110.034 101.404  86.608  1.00  0.00     0.173 A 
ATOM      8  C   UNL     1     112.809 101.709  86.851  1.00  0.00     0.005 A 
ATOM      9  C   UNL     1     110.777 100.539  87.423  1.00  0.00     0.052 A 
ATOM     10  O   UNL     1     108.655 101.223  86.556  1.00  0.00    -0.452 OA
ATOM     11  C   UNL     1     112.157 100.696  87.552  1.00  0.00     0.004 A 
ATOM     12  C   UNL     1     107.763 102.276  86.742  1.00  0.00     0.143 A 
ATOM     13  C   UNL     1     106.725 102.096  87.665  1.00  0.00     0.049 A 
ATOM     14  C   UNL     1     105.838 103.136  87.946  1.00  0.00     0.024 A 
ATOM     15  C   UNL     1     105.977 104.363  87.299  1.00  0.00     0.042 A 
ATOM     16  C   UNL     1     106.987 104.540  86.351  1.00  0.00     0.041 A 
ATOM     17  Cl  UNL     1     104.864 105.672  87.651  1.00  0.00    -0.084 Cl
ATOM     18  C   UNL     1     109.174 105.530  83.228  1.00  0.00     0.298 C 
ATOM     19  C   UNL     1     107.177 104.018  83.018  1.00  0.00     0.298 C 
ATOM     20  C   UNL     1     108.288 106.708  82.797  1.00  0.00     0.308 C 
ATOM     21  C   UNL     1     106.340 105.231  82.589  1.00  0.00     0.308 C 
ATOM     22  N   UNL     1     107.153 106.288  81.944  1.00  0.00    -0.331 N 
ATOM     23  C   UNL     1     107.586 105.908  80.586  1.00  0.00     0.332 C 
ATOM     24  H   UNL     1     110.605 103.409  84.022  1.00  0.00     0.312 HD
ATOM     25  H   UNL     1     106.531 107.125  81.832  1.00  0.00     0.348 HD
ENDROOT
TORSDOF 0
ENDMDL
MODEL 8
REMARK VINA RESULT:    -5.508      6.290      9.258
REMARK INTER + INTRA:          -5.508
REMARK INTER:                  -5.508
REMARK INTRA:                   0.000
REMARK UNBOUND:                 0.000
REMARK SMILES C[NH+]1CCN(C2=[NH+]c3ccccc3Oc3ccc(Cl)cc32)CC1
REMARK SMILES IDX 7 1 6 2 21 3 5 4 8 5 9 6 13 7 10 8 12 9 14 10 11 11 15 12
REMARK SMILES IDX 16 13 17 14 18 15 20 16 19 17 4 18 22 19 3 20 23 21 2 22
REMARK SMILES IDX 1 23
REMARK H PARENT 7 24 2 25
REMARK Flexibility Score: inf
ROOT
ATOM      1  N   UNL     1     107.638 104.562  78.374  1.00  0.00    -0.237 N 
ATOM      2  C   UNL     1     108.568 104.404  79.280  1.00  0.00     0.286 C 
ATOM      3  C   UNL     1     108.293 103.954  80.671  1.00  0.00     0.108 A 
ATOM      4  N   UNL     1     109.943 104.630  78.911  1.00  0.00    -0.250 N 
ATOM      5  C   UNL     1     106.223 104.349  78.523  1.00  0.00     0.168 A 
ATOM      6  C   UNL     1     105.497 103.910  77.402  1.00  0.00     0.056 A 
ATOM      7  C   UNL     1     105.519 104.745  79.678  1.00  0.00     0.173 A 
ATOM      8  C   UNL     1     104.102 103.855  77.430  1.00  0.00     0.005 A 
ATOM      9  C   UNL     1     104.117 104.719  79.684  1.00  0.00     0.052 A 
ATOM     10  O   UNL     1     106.166 105.163  80.837  1.00  0.00    -0.452 OA
ATOM     11  C   UNL     1     103.412 104.268  78.569  1.00  0.00     0.004 A 
ATOM     12  C   UNL     1     107.196 104.428  81.416  1.00  0.00     0.143 A 
ATOM     13  C   UNL     1     107.109 104.151  82.787  1.00  0.00     0.049 A 
ATOM     14  C   UNL     1     108.074 103.362  83.414  1.00  0.00     0.024 A 
ATOM     15  C   UNL     1     109.141 102.851  82.676  1.00  0.00     0.042 A 
ATOM     16  C   UNL     1     109.255 103.150  81.317  1.00  0.00     0.041 A 
ATOM     17  Cl  UNL     1     110.355 101.858  83.461  1.00  0.00    -0.084 Cl
ATOM     18  C   UNL     1     110.492 104.047  77.686  1.00  0.00     0.298 C 
ATOM     19  C   UNL     1     110.718 105.665  79.597  1.00  0.00     0.298 C 
ATOM     20  C   UNL     1     111.948 103.618  77.919  1.00  0.00     0.308 C 
ATOM     21  C   UNL     1     112.169 105.199  79.782  1.00  0.00     0.308 C 
ATOM     22  N   UNL     1     112.770 104.689  78.527  1.00  0.00    -0.331 N 
ATOM     23  C   UNL     1     113.073 105.772  77.572  1.00  0.00     0.332 C 
ATOM     24  H   UNL     1     107.947 104.838  77.414  1.00  0.00     0.312 HD
ATOM     25  H   UNL     1     113.690 104.257  78.785  1.00  0.00     0.348 HD
ENDROOT
TORSDOF 0
ENDMDL
