MODEL 1
REMARK VINA RESULT:    -7.931      0.000      0.000
REMARK INTER + INTRA:         -10.816
REMARK INTER:                 -10.482
REMARK INTRA:                  -0.334
REMARK UNBOUND:                -0.334
REMARK SMILES CC[C@H](C=C[C@H](C)[C@@H]1CC[C@@H]2[C@H]3CC[C@@H]4C[C@@H](O)CC[C@]4(C)[C@@H]3CC[C@]21C)C(C)C
REMARK SMILES IDX 6 1 7 2 5 3 4 4 3 5 2 6 1 7 28 8 29 9 30 10 8 11 9 12 26 13
REMARK SMILES IDX 10 14 11 15 25 16 27 17 12 18 24 19 23 20 13 21 21 22 14 23
REMARK SMILES IDX 15 24 20 25 22 26 16 27 19 28 17 29 18 30
REMARK H PARENT 18 31
REMARK Flexibility Score: inf
ROOT
ATOM      1  C   UNL     1     119.302 129.222 129.621  1.00  0.00     0.012 C 
ATOM      2  C   UNL     1     120.113 128.832 128.373  1.00  0.00     0.012 C 
ENDROOT
BRANCH   1   3
ATOM      3  C   UNL     1     118.627 130.597 129.607  1.00  0.00    -0.028 C 
ATOM      4  C   UNL     1     118.998 131.804 129.115  1.00  0.00    -0.027 C 
BRANCH   4   5
ATOM      5  C   UNL     1     120.221 132.211 128.304  1.00  0.00     0.014 C 
BRANCH   5   6
ATOM      6  C   UNL     1     119.937 133.609 127.679  1.00  0.00     0.004 C 
ATOM      7  C   UNL     1     118.749 133.630 126.709  1.00  0.00     0.004 C 
ENDBRANCH   5   6
BRANCH   5   8
ATOM      8  C   UNL     1     121.467 132.210 129.253  1.00  0.00    -0.011 C 
ATOM      9  C   UNL     1     121.894 133.620 129.693  1.00  0.00     0.008 C 
ATOM     10  C   UNL     1     122.670 131.518 128.581  1.00  0.00     0.008 C 
ENDBRANCH   5   8
ENDBRANCH   4   5
ENDBRANCH   1   3
BRANCH   1  11
ATOM     11  C   UNL     1     118.277 128.147 130.138  1.00  0.00     0.002 C 
ATOM     12  C   UNL     1     118.191 127.975 131.678  1.00  0.00     0.005 C 
ATOM     13  C   UNL     1     118.300 126.692 129.579  1.00  0.00    -0.026 C 
ATOM     14  C   UNL     1     117.712 126.534 131.928  1.00  0.00     0.005 C 
ATOM     15  C   UNL     1     117.303 126.031 130.550  1.00  0.00    -0.001 C 
ATOM     16  C   UNL     1     117.728 126.521 128.153  1.00  0.00     0.007 C 
ATOM     17  C   UNL     1     119.729 126.075 129.655  1.00  0.00     0.012 C 
ATOM     18  C   UNL     1     117.139 124.511 130.325  1.00  0.00    -0.004 C 
ATOM     19  C   UNL     1     117.510 125.030 127.810  1.00  0.00     0.005 C 
ATOM     20  C   UNL     1     116.635 124.272 128.863  1.00  0.00    -0.001 C 
ATOM     21  C   UNL     1     116.129 123.918 131.318  1.00  0.00     0.004 C 
ATOM     22  C   UNL     1     116.402 122.741 128.535  1.00  0.00    -0.026 C 
ATOM     23  C   UNL     1     115.988 122.418 131.089  1.00  0.00     0.004 C 
ATOM     24  C   UNL     1     115.501 122.097 129.656  1.00  0.00    -0.002 C 
ATOM     25  C   UNL     1     117.750 121.958 128.427  1.00  0.00     0.010 C 
ATOM     26  C   UNL     1     115.651 122.652 127.173  1.00  0.00     0.012 C 
ATOM     27  C   UNL     1     115.343 120.562 129.493  1.00  0.00     0.036 C 
ATOM     28  C   UNL     1     117.558 120.445 128.239  1.00  0.00     0.032 C 
ATOM     29  C   UNL     1     116.695 119.835 129.354  1.00  0.00     0.114 C 
BRANCH  29  30
ATOM     30  O   UNL     1     116.493 118.463 129.126  1.00  0.00    -0.393 OA
ATOM     31  H   UNL     1     116.889 117.967 129.891  1.00  0.00     0.210 HD
ENDBRANCH  29  30
ENDBRANCH   1  11
TORSDOF 6
ENDMDL
MODEL 2
REMARK VINA RESULT:    -7.916      1.244      2.702
REMARK INTER + INTRA:         -10.795
REMARK INTER:                 -10.363
REMARK INTRA:                  -0.433
REMARK UNBOUND:                -0.334
REMARK SMILES CC[C@H](C=C[C@H](C)[C@@H]1CC[C@@H]2[C@H]3CC[C@@H]4C[C@@H](O)CC[C@]4(C)[C@@H]3CC[C@]21C)C(C)C
REMARK SMILES IDX 6 1 7 2 5 3 4 4 3 5 2 6 1 7 28 8 29 9 30 10 8 11 9 12 26 13
REMARK SMILES IDX 10 14 11 15 25 16 27 17 12 18 24 19 23 20 13 21 21 22 14 23
REMARK SMILES IDX 15 24 20 25 22 26 16 27 19 28 17 29 18 30
REMARK H PARENT 18 31
REMARK Flexibility Score: inf
ROOT
ATOM      1  C   UNL     1     118.666 129.108 129.944  1.00  0.00     0.012 C 
ATOM      2  C   UNL     1     117.384 129.211 130.789  1.00  0.00     0.012 C 
ENDROOT
BRANCH   1   3
ATOM      3  C   UNL     1     119.886 129.891 130.438  1.00  0.00    -0.028 C 
ATOM      4  C   UNL     1     120.616 130.899 129.902  1.00  0.00    -0.027 C 
BRANCH   4   5
ATOM      5  C   UNL     1     120.422 131.689 128.615  1.00  0.00     0.014 C 
BRANCH   5   6
ATOM      6  C   UNL     1     119.124 132.537 128.766  1.00  0.00     0.004 C 
ATOM      7  C   UNL     1     118.690 133.251 127.480  1.00  0.00     0.004 C 
ENDBRANCH   5   6
BRANCH   5   8
ATOM      8  C   UNL     1     121.697 132.565 128.374  1.00  0.00    -0.011 C 
ATOM      9  C   UNL     1     123.000 131.750 128.377  1.00  0.00     0.008 C 
ATOM     10  C   UNL     1     121.810 133.678 129.435  1.00  0.00     0.008 C 
ENDBRANCH   5   8
ENDBRANCH   4   5
ENDBRANCH   1   3
BRANCH   1  11
ATOM     11  C   UNL     1     119.110 127.653 129.545  1.00  0.00     0.002 C 
ATOM     12  C   UNL     1     119.624 127.475 128.091  1.00  0.00     0.005 C 
ATOM     13  C   UNL     1     118.163 126.438 129.780  1.00  0.00    -0.026 C 
ATOM     14  C   UNL     1     119.360 126.006 127.714  1.00  0.00     0.005 C 
ATOM     15  C   UNL     1     118.952 125.350 129.028  1.00  0.00    -0.001 C 
ATOM     16  C   UNL     1     118.034 125.974 131.249  1.00  0.00     0.007 C 
ATOM     17  C   UNL     1     116.747 126.695 129.180  1.00  0.00     0.012 C 
ATOM     18  C   UNL     1     118.234 123.982 128.991  1.00  0.00    -0.004 C 
ATOM     19  C   UNL     1     117.334 124.599 131.344  1.00  0.00     0.005 C 
ATOM     20  C   UNL     1     118.006 123.496 130.460  1.00  0.00    -0.001 C 
ATOM     21  C   UNL     1     119.076 122.945 128.234  1.00  0.00     0.004 C 
ATOM     22  C   UNL     1     117.302 122.081 130.538  1.00  0.00    -0.026 C 
ATOM     23  C   UNL     1     118.350 121.606 128.199  1.00  0.00     0.004 C 
ATOM     24  C   UNL     1     118.076 121.060 129.620  1.00  0.00    -0.002 C 
ATOM     25  C   UNL     1     115.803 122.152 130.102  1.00  0.00     0.010 C 
ATOM     26  C   UNL     1     117.379 121.588 132.014  1.00  0.00     0.012 C 
ATOM     27  C   UNL     1     117.368 119.683 129.521  1.00  0.00     0.036 C 
ATOM     28  C   UNL     1     115.124 120.775 130.040  1.00  0.00     0.032 C 
ATOM     29  C   UNL     1     115.884 119.804 129.122  1.00  0.00     0.114 C 
BRANCH  29  30
ATOM     30  O   UNL     1     115.270 118.539 129.128  1.00  0.00    -0.393 OA
ATOM     31  H   UNL     1     115.946 117.872 128.836  1.00  0.00     0.210 HD
ENDBRANCH  29  30
ENDBRANCH   1  11
TORSDOF 6
ENDMDL
MODEL 3
REMARK VINA RESULT:    -7.427      1.649      2.585
REMARK INTER + INTRA:         -10.150
REMARK INTER:                  -9.538
REMARK INTRA:                  -0.612
REMARK UNBOUND:                -0.334
REMARK SMILES CC[C@H](C=C[C@H](C)[C@@H]1CC[C@@H]2[C@H]3CC[C@@H]4C[C@@H](O)CC[C@]4(C)[C@@H]3CC[C@]21C)C(C)C
REMARK SMILES IDX 6 1 7 2 5 3 4 4 3 5 2 6 1 7 28 8 29 9 30 10 8 11 9 12 26 13
REMARK SMILES IDX 10 14 11 15 25 16 27 17 12 18 24 19 23 20 13 21 21 22 14 23
REMARK SMILES IDX 15 24 20 25 22 26 16 27 19 28 17 29 18 30
REMARK H PARENT 18 31
REMARK Flexibility Score: inf
ROOT
ATOM      1  C   UNL     1     118.916 129.666 130.008  1.00  0.00     0.012 C 
ATOM      2  C   UNL     1     119.656 129.861 131.342  1.00  0.00     0.012 C 
ENDROOT
BRANCH   1   3
ATOM      3  C   UNL     1     119.712 129.940 128.728  1.00  0.00    -0.028 C 
ATOM      4  C   UNL     1     120.366 131.031 128.262  1.00  0.00    -0.027 C 
BRANCH   4   5
ATOM      5  C   UNL     1     120.618 132.387 128.908  1.00  0.00     0.014 C 
BRANCH   5   6
ATOM      6  C   UNL     1     121.924 132.974 128.294  1.00  0.00     0.004 C 
ATOM      7  C   UNL     1     123.120 132.015 128.337  1.00  0.00     0.004 C 
ENDBRANCH   5   6
BRANCH   5   8
ATOM      8  C   UNL     1     119.367 133.295 128.658  1.00  0.00    -0.011 C 
ATOM      9  C   UNL     1     118.927 133.329 127.186  1.00  0.00     0.008 C 
ATOM     10  C   UNL     1     119.632 134.740 129.127  1.00  0.00     0.008 C 
ENDBRANCH   5   8
ENDBRANCH   4   5
ENDBRANCH   1   3
BRANCH   1  11
ATOM     11  C   UNL     1     118.129 128.314 129.849  1.00  0.00     0.002 C 
ATOM     12  C   UNL     1     117.248 127.895 131.057  1.00  0.00     0.005 C 
ATOM     13  C   UNL     1     118.866 127.008 129.426  1.00  0.00    -0.026 C 
ATOM     14  C   UNL     1     117.138 126.361 131.002  1.00  0.00     0.005 C 
ATOM     15  C   UNL     1     117.730 125.991 129.648  1.00  0.00    -0.001 C 
ATOM     16  C   UNL     1     119.265 126.926 127.935  1.00  0.00     0.007 C 
ATOM     17  C   UNL     1     120.112 126.741 130.324  1.00  0.00     0.012 C 
ATOM     18  C   UNL     1     118.154 124.527 129.390  1.00  0.00    -0.004 C 
ATOM     19  C   UNL     1     119.704 125.495 127.548  1.00  0.00     0.005 C 
ATOM     20  C   UNL     1     118.644 124.401 127.910  1.00  0.00    -0.001 C 
ATOM     21  C   UNL     1     116.975 123.570 129.622  1.00  0.00     0.004 C 
ATOM     22  C   UNL     1     119.074 122.927 127.527  1.00  0.00    -0.026 C 
ATOM     23  C   UNL     1     117.413 122.132 129.373  1.00  0.00     0.004 C 
ATOM     24  C   UNL     1     117.925 121.926 127.928  1.00  0.00    -0.002 C 
ATOM     25  C   UNL     1     120.406 122.509 128.229  1.00  0.00     0.010 C 
ATOM     26  C   UNL     1     119.275 122.872 125.983  1.00  0.00     0.012 C 
ATOM     27  C   UNL     1     118.322 120.440 127.723  1.00  0.00     0.036 C 
ATOM     28  C   UNL     1     120.785 121.040 127.985  1.00  0.00     0.032 C 
ATOM     29  C   UNL     1     119.658 120.082 128.402  1.00  0.00     0.114 C 
BRANCH  29  30
ATOM     30  O   UNL     1     120.012 118.751 128.117  1.00  0.00    -0.393 OA
ATOM     31  H   UNL     1     120.153 118.679 127.136  1.00  0.00     0.210 HD
ENDBRANCH  29  30
ENDBRANCH   1  11
TORSDOF 6
ENDMDL
MODEL 4
REMARK VINA RESULT:    -7.358     10.034     13.475
REMARK INTER + INTRA:         -10.057
REMARK INTER:                  -8.393
REMARK INTRA:                  -1.665
REMARK UNBOUND:                -0.334
REMARK SMILES CC[C@H](C=C[C@H](C)[C@@H]1CC[C@@H]2[C@H]3CC[C@@H]4C[C@@H](O)CC[C@]4(C)[C@@H]3CC[C@]21C)C(C)C
REMARK SMILES IDX 6 1 7 2 5 3 4 4 3 5 2 6 1 7 28 8 29 9 30 10 8 11 9 12 26 13
REMARK SMILES IDX 10 14 11 15 25 16 27 17 12 18 24 19 23 20 13 21 21 22 14 23
REMARK SMILES IDX 15 24 20 25 22 26 16 27 19 28 17 29 18 30
REMARK H PARENT 18 31
REMARK Flexibility Score: inf
ROOT
ATOM      1  C   UNL     1     126.461 116.429 120.336  1.00  0.00     0.012 C 
ATOM      2  C   UNL     1     126.659 114.913 120.511  1.00  0.00     0.012 C 
ENDROOT
BRANCH   1   3
ATOM      3  C   UNL     1     126.989 117.052 119.040  1.00  0.00    -0.028 C 
ATOM      4  C   UNL     1     127.549 118.252 118.752  1.00  0.00    -0.027 C 
BRANCH   4   5
ATOM      5  C   UNL     1     127.938 119.409 119.663  1.00  0.00     0.014 C 
BRANCH   5   6
ATOM      6  C   UNL     1     129.444 119.248 120.025  1.00  0.00     0.004 C 
ATOM      7  C   UNL     1     129.714 118.224 121.135  1.00  0.00     0.004 C 
ENDBRANCH   5   6
BRANCH   5   8
ATOM      8  C   UNL     1     127.631 120.752 118.917  1.00  0.00    -0.011 C 
ATOM      9  C   UNL     1     128.052 121.997 119.714  1.00  0.00     0.008 C 
ATOM     10  C   UNL     1     126.131 120.865 118.582  1.00  0.00     0.008 C 
ENDBRANCH   5   8
ENDBRANCH   4   5
ENDBRANCH   1   3
BRANCH   1  11
ATOM     11  C   UNL     1     125.011 116.970 120.618  1.00  0.00     0.002 C 
ATOM     12  C   UNL     1     124.378 117.835 119.495  1.00  0.00     0.005 C 
ATOM     13  C   UNL     1     124.689 117.736 121.936  1.00  0.00    -0.026 C 
ATOM     14  C   UNL     1     123.361 118.762 120.183  1.00  0.00     0.005 C 
ATOM     15  C   UNL     1     123.266 118.224 121.606  1.00  0.00    -0.001 C 
ATOM     16  C   UNL     1     124.586 116.858 123.204  1.00  0.00     0.007 C 
ATOM     17  C   UNL     1     125.696 118.901 122.178  1.00  0.00     0.012 C 
ATOM     18  C   UNL     1     122.650 119.118 122.705  1.00  0.00    -0.004 C 
ATOM     19  C   UNL     1     123.970 117.645 124.384  1.00  0.00     0.005 C 
ATOM     20  C   UNL     1     122.592 118.303 124.040  1.00  0.00    -0.001 C 
ATOM     21  C   UNL     1     121.232 119.562 122.316  1.00  0.00     0.004 C 
ATOM     22  C   UNL     1     121.945 119.119 125.232  1.00  0.00    -0.026 C 
ATOM     23  C   UNL     1     120.644 120.450 123.406  1.00  0.00     0.004 C 
ATOM     24  C   UNL     1     120.564 119.717 124.766  1.00  0.00    -0.002 C 
ATOM     25  C   UNL     1     122.880 120.269 125.724  1.00  0.00     0.010 C 
ATOM     26  C   UNL     1     121.694 118.128 126.408  1.00  0.00     0.012 C 
ATOM     27  C   UNL     1     119.927 120.656 125.826  1.00  0.00     0.036 C 
ATOM     28  C   UNL     1     122.229 121.163 126.792  1.00  0.00     0.032 C 
ATOM     29  C   UNL     1     120.896 121.753 126.308  1.00  0.00     0.114 C 
BRANCH  29  30
ATOM     30  O   UNL     1     120.300 122.521 127.324  1.00  0.00    -0.393 OA
ATOM     31  H   UNL     1     120.434 123.479 127.098  1.00  0.00     0.210 HD
ENDBRANCH  29  30
ENDBRANCH   1  11
TORSDOF 6
ENDMDL
MODEL 5
REMARK VINA RESULT:    -7.302      6.332      9.533
REMARK INTER + INTRA:          -9.984
REMARK INTER:                  -8.579
REMARK INTRA:                  -1.405
REMARK UNBOUND:                -0.334
REMARK SMILES CC[C@H](C=C[C@H](C)[C@@H]1CC[C@@H]2[C@H]3CC[C@@H]4C[C@@H](O)CC[C@]4(C)[C@@H]3CC[C@]21C)C(C)C
REMARK SMILES IDX 6 1 7 2 5 3 4 4 3 5 2 6 1 7 28 8 29 9 30 10 8 11 9 12 26 13
REMARK SMILES IDX 10 14 11 15 25 16 27 17 12 18 24 19 23 20 13 21 21 22 14 23
REMARK SMILES IDX 15 24 20 25 22 26 16 27 19 28 17 29 18 30
REMARK H PARENT 18 31
REMARK Flexibility Score: inf
ROOT
ATOM      1  C   UNL     1     122.277 118.723 125.753  1.00  0.00     0.012 C 
ATOM      2  C   UNL     1     121.899 117.300 125.303  1.00  0.00     0.012 C 
ENDROOT
BRANCH   1   3
ATOM      3  C   UNL     1     123.345 119.448 124.929  1.00  0.00    -0.028 C 
ATOM      4  C   UNL     1     123.532 119.612 123.597  1.00  0.00    -0.027 C 
BRANCH   4   5
ATOM      5  C   UNL     1     122.671 119.189 122.415  1.00  0.00     0.014 C 
BRANCH   5   6
ATOM      6  C   UNL     1     121.390 120.074 122.415  1.00  0.00     0.004 C 
ATOM      7  C   UNL     1     120.097 119.304 122.710  1.00  0.00     0.004 C 
ENDBRANCH   5   6
BRANCH   5   8
ATOM      8  C   UNL     1     123.517 119.341 121.105  1.00  0.00    -0.011 C 
ATOM      9  C   UNL     1     123.246 118.230 120.078  1.00  0.00     0.008 C 
ATOM     10  C   UNL     1     125.025 119.362 121.424  1.00  0.00     0.008 C 
ENDBRANCH   5   8
ENDBRANCH   4   5
ENDBRANCH   1   3
BRANCH   1  11
ATOM     11  C   UNL     1     121.075 119.701 126.021  1.00  0.00     0.002 C 
ATOM     12  C   UNL     1     121.394 121.216 125.907  1.00  0.00     0.005 C 
ATOM     13  C   UNL     1     120.218 119.573 127.315  1.00  0.00    -0.026 C 
ATOM     14  C   UNL     1     120.379 121.941 126.810  1.00  0.00     0.005 C 
ATOM     15  C   UNL     1     119.378 120.859 127.193  1.00  0.00    -0.001 C 
ATOM     16  C   UNL     1     119.230 118.384 127.341  1.00  0.00     0.007 C 
ATOM     17  C   UNL     1     121.113 119.545 128.591  1.00  0.00     0.012 C 
ATOM     18  C   UNL     1     118.438 121.099 128.396  1.00  0.00    -0.004 C 
ATOM     19  C   UNL     1     118.223 118.516 128.507  1.00  0.00     0.005 C 
ATOM     20  C   UNL     1     117.461 119.883 128.520  1.00  0.00    -0.001 C 
ATOM     21  C   UNL     1     117.628 122.389 128.206  1.00  0.00     0.004 C 
ATOM     22  C   UNL     1     116.428 120.041 129.708  1.00  0.00    -0.026 C 
ATOM     23  C   UNL     1     116.715 122.615 129.406  1.00  0.00     0.004 C 
ATOM     24  C   UNL     1     115.722 121.446 129.603  1.00  0.00    -0.002 C 
ATOM     25  C   UNL     1     117.120 119.901 131.102  1.00  0.00     0.010 C 
ATOM     26  C   UNL     1     115.352 118.924 129.560  1.00  0.00     0.012 C 
ATOM     27  C   UNL     1     114.798 121.747 130.813  1.00  0.00     0.036 C 
ATOM     28  C   UNL     1     116.172 120.180 132.279  1.00  0.00     0.032 C 
ATOM     29  C   UNL     1     115.511 121.562 132.167  1.00  0.00     0.114 C 
BRANCH  29  30
ATOM     30  O   UNL     1     114.611 121.765 133.228  1.00  0.00    -0.393 OA
ATOM     31  H   UNL     1     115.089 121.559 134.074  1.00  0.00     0.210 HD
ENDBRANCH  29  30
ENDBRANCH   1  11
TORSDOF 6
ENDMDL
MODEL 6
REMARK VINA RESULT:    -7.288      4.273      7.084
REMARK INTER + INTRA:          -9.966
REMARK INTER:                  -8.579
REMARK INTRA:                  -1.386
REMARK UNBOUND:                -0.334
REMARK SMILES CC[C@H](C=C[C@H](C)[C@@H]1CC[C@@H]2[C@H]3CC[C@@H]4C[C@@H](O)CC[C@]4(C)[C@@H]3CC[C@]21C)C(C)C
REMARK SMILES IDX 6 1 7 2 5 3 4 4 3 5 2 6 1 7 28 8 29 9 30 10 8 11 9 12 26 13
REMARK SMILES IDX 10 14 11 15 25 16 27 17 12 18 24 19 23 20 13 21 21 22 14 23
REMARK SMILES IDX 15 24 20 25 22 26 16 27 19 28 17 29 18 30
REMARK H PARENT 18 31
REMARK Flexibility Score: inf
ROOT
ATOM      1  C   UNL     1     118.505 123.540 130.248  1.00  0.00     0.012 C 
ATOM      2  C   UNL     1     117.498 122.668 131.018  1.00  0.00     0.012 C 
ENDROOT
BRANCH   1   3
ATOM      3  C   UNL     1     118.975 124.826 130.933  1.00  0.00    -0.028 C 
ATOM      4  C   UNL     1     118.532 126.106 130.900  1.00  0.00    -0.027 C 
BRANCH   4   5
ATOM      5  C   UNL     1     117.321 126.719 130.211  1.00  0.00     0.014 C 
BRANCH   5   6
ATOM      6  C   UNL     1     116.954 128.031 130.966  1.00  0.00     0.004 C 
ATOM      7  C   UNL     1     117.360 128.036 132.445  1.00  0.00     0.004 C 
ENDBRANCH   5   6
BRANCH   5   8
ATOM      8  C   UNL     1     117.677 126.962 128.705  1.00  0.00    -0.011 C 
ATOM      9  C   UNL     1     116.997 125.964 127.754  1.00  0.00     0.008 C 
ATOM     10  C   UNL     1     119.201 126.896 128.483  1.00  0.00     0.008 C 
ENDBRANCH   5   8
ENDBRANCH   4   5
ENDBRANCH   1   3
BRANCH   1  11
ATOM     11  C   UNL     1     119.748 122.786 129.649  1.00  0.00     0.002 C 
ATOM     12  C   UNL     1     121.091 123.565 129.673  1.00  0.00     0.005 C 
ATOM     13  C   UNL     1     119.686 122.150 128.228  1.00  0.00    -0.026 C 
ATOM     14  C   UNL     1     121.939 123.003 128.519  1.00  0.00     0.005 C 
ATOM     15  C   UNL     1     121.169 121.774 128.051  1.00  0.00    -0.001 C 
ATOM     16  C   UNL     1     118.869 120.842 128.123  1.00  0.00     0.007 C 
ATOM     17  C   UNL     1     119.184 123.176 127.166  1.00  0.00     0.012 C 
ATOM     18  C   UNL     1     121.492 121.169 126.667  1.00  0.00    -0.004 C 
ATOM     19  C   UNL     1     119.116 120.133 126.771  1.00  0.00     0.005 C 
ATOM     20  C   UNL     1     120.631 119.878 126.471  1.00  0.00    -0.001 C 
ATOM     21  C   UNL     1     122.982 120.811 126.562  1.00  0.00     0.004 C 
ATOM     22  C   UNL     1     120.908 119.156 125.090  1.00  0.00    -0.026 C 
ATOM     23  C   UNL     1     123.284 120.225 125.188  1.00  0.00     0.004 C 
ATOM     24  C   UNL     1     122.459 118.946 124.912  1.00  0.00    -0.002 C 
ATOM     25  C   UNL     1     120.344 119.973 123.884  1.00  0.00     0.010 C 
ATOM     26  C   UNL     1     120.212 117.762 125.130  1.00  0.00     0.012 C 
ATOM     27  C   UNL     1     122.834 118.377 123.517  1.00  0.00     0.036 C 
ATOM     28  C   UNL     1     120.709 119.369 122.519  1.00  0.00     0.032 C 
ATOM     29  C   UNL     1     122.227 119.193 122.359  1.00  0.00     0.114 C 
BRANCH  29  30
ATOM     30  O   UNL     1     122.526 118.589 121.125  1.00  0.00    -0.393 OA
ATOM     31  H   UNL     1     123.253 117.930 121.278  1.00  0.00     0.210 HD
ENDBRANCH  29  30
ENDBRANCH   1  11
TORSDOF 6
ENDMDL
MODEL 7
REMARK VINA RESULT:    -7.249      6.423     10.414
REMARK INTER + INTRA:          -9.913
REMARK INTER:                  -8.711
REMARK INTRA:                  -1.202
REMARK UNBOUND:                -0.334
REMARK SMILES CC[C@H](C=C[C@H](C)[C@@H]1CC[C@@H]2[C@H]3CC[C@@H]4C[C@@H](O)CC[C@]4(C)[C@@H]3CC[C@]21C)C(C)C
REMARK SMILES IDX 6 1 7 2 5 3 4 4 3 5 2 6 1 7 28 8 29 9 30 10 8 11 9 12 26 13
REMARK SMILES IDX 10 14 11 15 25 16 27 17 12 18 24 19 23 20 13 21 21 22 14 23
REMARK SMILES IDX 15 24 20 25 22 26 16 27 19 28 17 29 18 30
REMARK H PARENT 18 31
REMARK Flexibility Score: inf
ROOT
ATOM      1  C   UNL     1     123.304 119.406 124.157  1.00  0.00     0.012 C 
ATOM      2  C   UNL     1     124.673 119.823 124.721  1.00  0.00     0.012 C 
ENDROOT
BRANCH   1   3
ATOM      3  C   UNL     1     123.301 118.318 123.079  1.00  0.00    -0.028 C 
ATOM      4  C   UNL     1     123.763 118.277 121.806  1.00  0.00    -0.027 C 
BRANCH   4   5
ATOM      5  C   UNL     1     124.550 119.304 121.003  1.00  0.00     0.014 C 
BRANCH   5   6
ATOM      6  C   UNL     1     126.065 119.002 121.193  1.00  0.00     0.004 C 
ATOM      7  C   UNL     1     126.860 120.159 121.811  1.00  0.00     0.004 C 
ENDBRANCH   5   6
BRANCH   5   8
ATOM      8  C   UNL     1     124.094 119.218 119.507  1.00  0.00    -0.011 C 
ATOM      9  C   UNL     1     124.107 117.784 118.952  1.00  0.00     0.008 C 
ATOM     10  C   UNL     1     124.981 120.102 118.609  1.00  0.00     0.008 C 
ENDBRANCH   5   8
ENDBRANCH   4   5
ENDBRANCH   1   3
BRANCH   1  11
ATOM     11  C   UNL     1     122.192 119.085 125.222  1.00  0.00     0.002 C 
ATOM     12  C   UNL     1     121.415 117.757 125.013  1.00  0.00     0.005 C 
ATOM     13  C   UNL     1     121.094 120.134 125.569  1.00  0.00    -0.026 C 
ATOM     14  C   UNL     1     120.037 117.952 125.672  1.00  0.00     0.005 C 
ATOM     15  C   UNL     1     120.172 119.261 126.440  1.00  0.00    -0.001 C 
ATOM     16  C   UNL     1     121.562 121.318 126.445  1.00  0.00     0.007 C 
ATOM     17  C   UNL     1     120.393 120.672 124.284  1.00  0.00     0.012 C 
ATOM     18  C   UNL     1     118.892 119.990 126.908  1.00  0.00    -0.004 C 
ATOM     19  C   UNL     1     120.361 122.127 126.986  1.00  0.00     0.005 C 
ATOM     20  C   UNL     1     119.308 121.248 127.740  1.00  0.00    -0.001 C 
ATOM     21  C   UNL     1     118.025 119.067 127.776  1.00  0.00     0.004 C 
ATOM     22  C   UNL     1     118.066 122.056 128.297  1.00  0.00    -0.026 C 
ATOM     23  C   UNL     1     116.764 119.799 128.219  1.00  0.00     0.004 C 
ATOM     24  C   UNL     1     117.091 121.067 129.042  1.00  0.00    -0.002 C 
ATOM     25  C   UNL     1     117.296 122.798 127.158  1.00  0.00     0.010 C 
ATOM     26  C   UNL     1     118.597 123.105 129.320  1.00  0.00     0.012 C 
ATOM     27  C   UNL     1     115.773 121.748 129.495  1.00  0.00     0.036 C 
ATOM     28  C   UNL     1     116.010 123.484 127.644  1.00  0.00     0.032 C 
ATOM     29  C   UNL     1     115.066 122.497 128.348  1.00  0.00     0.114 C 
BRANCH  29  30
ATOM     30  O   UNL     1     113.925 123.164 128.828  1.00  0.00    -0.393 OA
ATOM     31  H   UNL     1     113.686 122.763 129.705  1.00  0.00     0.210 HD
ENDBRANCH  29  30
ENDBRANCH   1  11
TORSDOF 6
ENDMDL
MODEL 8
REMARK VINA RESULT:    -7.155      3.328      5.659
REMARK INTER + INTRA:          -9.789
REMARK INTER:                  -8.694
REMARK INTRA:                  -1.095
REMARK UNBOUND:                -0.334
REMARK SMILES CC[C@H](C=C[C@H](C)[C@@H]1CC[C@@H]2[C@H]3CC[C@@H]4C[C@@H](O)CC[C@]4(C)[C@@H]3CC[C@]21C)C(C)C
REMARK SMILES IDX 6 1 7 2 5 3 4 4 3 5 2 6 1 7 28 8 29 9 30 10 8 11 9 12 26 13
REMARK SMILES IDX 10 14 11 15 25 16 27 17 12 18 24 19 23 20 13 21 21 22 14 23
REMARK SMILES IDX 15 24 20 25 22 26 16 27 19 28 17 29 18 30
REMARK H PARENT 18 31
REMARK Flexibility Score: inf
ROOT
ATOM      1  C   UNL     1     117.193 125.490 128.665  1.00  0.00     0.012 C 
ATOM      2  C   UNL     1     116.118 126.294 127.913  1.00  0.00     0.012 C 
ENDROOT
BRANCH   1   3
ATOM      3  C   UNL     1     117.311 125.733 130.173  1.00  0.00    -0.028 C 
ATOM      4  C   UNL     1     117.536 126.845 130.915  1.00  0.00    -0.027 C 
BRANCH   4   5
ATOM      5  C   UNL     1     117.671 128.304 130.500  1.00  0.00     0.014 C 
BRANCH   5   6
ATOM      6  C   UNL     1     117.056 129.181 131.631  1.00  0.00     0.004 C 
ATOM      7  C   UNL     1     117.549 128.823 133.038  1.00  0.00     0.004 C 
ENDBRANCH   5   6
BRANCH   5   8
ATOM      8  C   UNL     1     119.186 128.609 130.248  1.00  0.00    -0.011 C 
ATOM      9  C   UNL     1     119.523 130.107 130.331  1.00  0.00     0.008 C 
ATOM     10  C   UNL     1     119.633 128.079 128.871  1.00  0.00     0.008 C 
ENDBRANCH   5   8
ENDBRANCH   4   5
ENDBRANCH   1   3
BRANCH   1  11
ATOM     11  C   UNL     1     117.214 123.943 128.386  1.00  0.00     0.002 C 
ATOM     12  C   UNL     1     116.823 123.031 129.581  1.00  0.00     0.005 C 
ATOM     13  C   UNL     1     118.470 123.262 127.765  1.00  0.00    -0.026 C 
ATOM     14  C   UNL     1     117.523 121.681 129.344  1.00  0.00     0.005 C 
ATOM     15  C   UNL     1     118.065 121.784 127.923  1.00  0.00    -0.001 C 
ATOM     16  C   UNL     1     118.683 123.517 126.255  1.00  0.00     0.007 C 
ATOM     17  C   UNL     1     119.765 123.630 128.551  1.00  0.00     0.012 C 
ATOM     18  C   UNL     1     119.157 120.792 127.464  1.00  0.00    -0.004 C 
ATOM     19  C   UNL     1     119.756 122.569 125.671  1.00  0.00     0.005 C 
ATOM     20  C   UNL     1     119.471 121.057 125.954  1.00  0.00    -0.001 C 
ATOM     21  C   UNL     1     118.685 119.342 127.642  1.00  0.00     0.004 C 
ATOM     22  C   UNL     1     120.560 120.069 125.370  1.00  0.00    -0.026 C 
ATOM     23  C   UNL     1     119.778 118.378 127.193  1.00  0.00     0.004 C 
ATOM     24  C   UNL     1     120.154 118.584 125.707  1.00  0.00    -0.002 C 
ATOM     25  C   UNL     1     121.984 120.369 125.939  1.00  0.00     0.010 C 
ATOM     26  C   UNL     1     120.585 120.244 123.821  1.00  0.00     0.012 C 
ATOM     27  C   UNL     1     121.242 117.555 125.299  1.00  0.00     0.036 C 
ATOM     28  C   UNL     1     123.042 119.348 125.495  1.00  0.00     0.032 C 
ATOM     29  C   UNL     1     122.636 117.910 125.854  1.00  0.00     0.114 C 
BRANCH  29  30
ATOM     30  O   UNL     1     123.597 116.996 125.388  1.00  0.00    -0.393 OA
ATOM     31  H   UNL     1     123.813 116.377 126.134  1.00  0.00     0.210 HD
ENDBRANCH  29  30
ENDBRANCH   1  11
TORSDOF 6
ENDMDL
MODEL 9
REMARK VINA RESULT:    -7.149      6.527      9.312
REMARK INTER + INTRA:          -9.782
REMARK INTER:                  -8.171
REMARK INTRA:                  -1.611
REMARK UNBOUND:                -0.334
REMARK SMILES CC[C@H](C=C[C@H](C)[C@@H]1CC[C@@H]2[C@H]3CC[C@@H]4C[C@@H](O)CC[C@]4(C)[C@@H]3CC[C@]21C)C(C)C
REMARK SMILES IDX 6 1 7 2 5 3 4 4 3 5 2 6 1 7 28 8 29 9 30 10 8 11 9 12 26 13
REMARK SMILES IDX 10 14 11 15 25 16 27 17 12 18 24 19 23 20 13 21 21 22 14 23
REMARK SMILES IDX 15 24 20 25 22 26 16 27 19 28 17 29 18 30
REMARK H PARENT 18 31
REMARK Flexibility Score: inf
ROOT
ATOM      1  C   UNL     1     119.141 119.571 133.120  1.00  0.00     0.012 C 
ATOM      2  C   UNL     1     119.918 118.664 134.090  1.00  0.00     0.012 C 
ENDROOT
BRANCH   1   3
ATOM      3  C   UNL     1     118.340 120.721 133.739  1.00  0.00    -0.028 C 
ATOM      4  C   UNL     1     117.109 121.229 133.488  1.00  0.00    -0.027 C 
BRANCH   4   5
ATOM      5  C   UNL     1     116.021 120.767 132.528  1.00  0.00     0.014 C 
BRANCH   5   6
ATOM      6  C   UNL     1     114.748 120.447 133.365  1.00  0.00     0.004 C 
ATOM      7  C   UNL     1     114.858 120.836 134.844  1.00  0.00     0.004 C 
ENDBRANCH   5   6
BRANCH   5   8
ATOM      8  C   UNL     1     115.785 121.894 131.467  1.00  0.00    -0.011 C 
ATOM      9  C   UNL     1     116.630 123.153 131.723  1.00  0.00     0.008 C 
ATOM     10  C   UNL     1     114.299 122.300 131.415  1.00  0.00     0.008 C 
ENDBRANCH   5   8
ENDBRANCH   4   5
ENDBRANCH   1   3
BRANCH   1  11
ATOM     11  C   UNL     1     119.952 120.110 131.885  1.00  0.00     0.002 C 
ATOM     12  C   UNL     1     119.959 121.650 131.696  1.00  0.00     0.005 C 
ATOM     13  C   UNL     1     119.701 119.538 130.458  1.00  0.00    -0.026 C 
ATOM     14  C   UNL     1     120.179 121.902 130.194  1.00  0.00     0.005 C 
ATOM     15  C   UNL     1     120.540 120.532 129.633  1.00  0.00    -0.001 C 
ATOM     16  C   UNL     1     120.280 118.128 130.197  1.00  0.00     0.007 C 
ATOM     17  C   UNL     1     118.186 119.564 130.092  1.00  0.00     0.012 C 
ATOM     18  C   UNL     1     120.451 120.299 128.108  1.00  0.00    -0.004 C 
ATOM     19  C   UNL     1     120.253 117.779 128.691  1.00  0.00     0.005 C 
ATOM     20  C   UNL     1     120.953 118.852 127.792  1.00  0.00    -0.001 C 
ATOM     21  C   UNL     1     121.314 121.318 127.350  1.00  0.00     0.004 C 
ATOM     22  C   UNL     1     120.934 118.517 126.245  1.00  0.00    -0.026 C 
ATOM     23  C   UNL     1     121.207 121.080 125.848  1.00  0.00     0.004 C 
ATOM     24  C   UNL     1     121.677 119.660 125.454  1.00  0.00    -0.002 C 
ATOM     25  C   UNL     1     119.477 118.361 125.703  1.00  0.00     0.010 C 
ATOM     26  C   UNL     1     121.701 117.178 126.035  1.00  0.00     0.012 C 
ATOM     27  C   UNL     1     121.578 119.488 123.915  1.00  0.00     0.036 C 
ATOM     28  C   UNL     1     119.416 118.166 124.179  1.00  0.00     0.032 C 
ATOM     29  C   UNL     1     120.127 119.302 123.428  1.00  0.00     0.114 C 
BRANCH  29  30
ATOM     30  O   UNL     1     120.101 119.068 122.042  1.00  0.00    -0.393 OA
ATOM     31  H   UNL     1     121.037 118.922 121.742  1.00  0.00     0.210 HD
ENDBRANCH  29  30
ENDBRANCH   1  11
TORSDOF 6
ENDMDL
