MODEL 1
REMARK VINA RESULT:     0.192      0.000      0.000
REMARK INTER + INTRA:          -0.587
REMARK INTER:                   0.338
REMARK INTRA:                  -0.925
REMARK UNBOUND:                -0.925
REMARK SMILES CCCCCCCCCCCCCCC(=O)[O-]
REMARK SMILES IDX 9 1 10 2 11 3 12 4 13 5 14 6 15 7 16 8 17 9 8 10 7 11 6 12
REMARK SMILES IDX 5 13 4 14 3 15 2 16 1 17
REMARK H PARENT
REMARK Flexibility Score: inf
ROOT
ATOM      1  C   UNL     1      17.192   2.692  24.933  1.00  0.00     0.000 C 
ENDROOT
BRANCH   1   2
ATOM      2  C   UNL     1      16.535   3.376  26.153  1.00  0.00     0.000 C 
BRANCH   2   3
ATOM      3  C   UNL     1      15.018   3.617  26.002  1.00  0.00     0.000 C 
BRANCH   3   4
ATOM      4  C   UNL     1      14.196   2.393  25.544  1.00  0.00     0.000 C 
BRANCH   4   5
ATOM      5  C   UNL     1      13.359   2.599  24.270  1.00  0.00     0.006 C 
BRANCH   5   6
ATOM      6  C   UNL     1      14.036   3.527  23.254  1.00  0.00     0.053 C 
BRANCH   6   7
ATOM      7  C   UNL     1      13.079   4.576  22.784  1.00  0.00     0.041 C 
ATOM      8  O   UNL     1      11.954   4.247  22.324  1.00  0.00    -0.550 OA
ATOM      9  O   UNL     1      13.409   5.921  22.902  1.00  0.00    -0.550 OA
ENDBRANCH   6   7
ENDBRANCH   5   6
ENDBRANCH   4   5
ENDBRANCH   3   4
ENDBRANCH   2   3
ENDBRANCH   1   2
BRANCH   1  10
ATOM     10  C   UNL     1      17.825   1.323  25.252  1.00  0.00     0.000 C 
BRANCH  10  11
ATOM     11  C   UNL     1      19.341   1.232  25.003  1.00  0.00    -0.000 C 
BRANCH  11  12
ATOM     12  C   UNL     1      20.162   1.248  26.305  1.00  0.00    -0.000 C 
BRANCH  12  13
ATOM     13  C   UNL     1      19.286   1.142  27.566  1.00  0.00    -0.000 C 
BRANCH  13  14
ATOM     14  C   UNL     1      19.079   2.462  28.332  1.00  0.00    -0.000 C 
BRANCH  14  15
ATOM     15  C   UNL     1      19.484   2.368  29.811  1.00  0.00    -0.000 C 
BRANCH  15  16
ATOM     16  C   UNL     1      19.242   3.698  30.531  1.00  0.00    -0.003 C 
ATOM     17  C   UNL     1      17.757   4.048  30.561  1.00  0.00     0.004 C 
ENDBRANCH  15  16
ENDBRANCH  14  15
ENDBRANCH  13  14
ENDBRANCH  12  13
ENDBRANCH  11  12
ENDBRANCH  10  11
ENDBRANCH   1  10
TORSDOF 13
ENDMDL
MODEL 2
REMARK VINA RESULT:     0.278      3.434      7.272
REMARK INTER + INTRA:          -0.435
REMARK INTER:                   0.798
REMARK INTRA:                  -1.233
REMARK UNBOUND:                -0.925
REMARK SMILES CCCCCCCCCCCCCCC(=O)[O-]
REMARK SMILES IDX 9 1 10 2 11 3 12 4 13 5 14 6 15 7 16 8 17 9 8 10 7 11 6 12
REMARK SMILES IDX 5 13 4 14 3 15 2 16 1 17
REMARK H PARENT
REMARK Flexibility Score: inf
ROOT
ATOM      1  C   UNL     1      17.981   1.307  25.358  1.00  0.00     0.000 C 
ENDROOT
BRANCH   1   2
ATOM      2  C   UNL     1      19.524   1.388  25.343  1.00  0.00     0.000 C 
BRANCH   2   3
ATOM      3  C   UNL     1      20.187   1.082  26.702  1.00  0.00     0.000 C 
BRANCH   3   4
ATOM      4  C   UNL     1      19.220   0.980  27.901  1.00  0.00     0.000 C 
BRANCH   4   5
ATOM      5  C   UNL     1      19.556   1.885  29.100  1.00  0.00     0.006 C 
BRANCH   5   6
ATOM      6  C   UNL     1      18.776   3.205  29.089  1.00  0.00     0.053 C 
BRANCH   6   7
ATOM      7  C   UNL     1      18.624   3.733  30.480  1.00  0.00     0.041 C 
ATOM      8  O   UNL     1      19.540   3.563  31.327  1.00  0.00    -0.550 OA
ATOM      9  O   UNL     1      17.491   4.459  30.827  1.00  0.00    -0.550 OA
ENDBRANCH   6   7
ENDBRANCH   5   6
ENDBRANCH   4   5
ENDBRANCH   3   4
ENDBRANCH   2   3
ENDBRANCH   1   2
BRANCH   1  10
ATOM     10  C   UNL     1      17.283   2.625  24.968  1.00  0.00     0.000 C 
BRANCH  10  11
ATOM     11  C   UNL     1      16.561   3.345  26.119  1.00  0.00    -0.000 C 
BRANCH  11  12
ATOM     12  C   UNL     1      15.091   3.668  25.793  1.00  0.00    -0.000 C 
BRANCH  12  13
ATOM     13  C   UNL     1      14.232   2.406  25.596  1.00  0.00    -0.000 C 
BRANCH  13  14
ATOM     14  C   UNL     1      13.259   2.458  24.404  1.00  0.00    -0.000 C 
BRANCH  14  15
ATOM     15  C   UNL     1      13.794   3.288  23.227  1.00  0.00    -0.000 C 
BRANCH  15  16
ATOM     16  C   UNL     1      12.768   4.336  22.784  1.00  0.00    -0.003 C 
ATOM     17  C   UNL     1      13.275   5.752  23.047  1.00  0.00     0.004 C 
ENDBRANCH  15  16
ENDBRANCH  14  15
ENDBRANCH  13  14
ENDBRANCH  12  13
ENDBRANCH  11  12
ENDBRANCH  10  11
ENDBRANCH   1  10
TORSDOF 13
ENDMDL
MODEL 3
REMARK VINA RESULT:     0.378      0.792      1.594
REMARK INTER + INTRA:          -0.259
REMARK INTER:                   0.570
REMARK INTRA:                  -0.829
REMARK UNBOUND:                -0.925
REMARK SMILES CCCCCCCCCCCCCCC(=O)[O-]
REMARK SMILES IDX 9 1 10 2 11 3 12 4 13 5 14 6 15 7 16 8 17 9 8 10 7 11 6 12
REMARK SMILES IDX 5 13 4 14 3 15 2 16 1 17
REMARK H PARENT
REMARK Flexibility Score: inf
ROOT
ATOM      1  C   UNL     1      18.000   1.315  25.162  1.00  0.00     0.000 C 
ENDROOT
BRANCH   1   2
ATOM      2  C   UNL     1      17.440   2.733  24.913  1.00  0.00     0.000 C 
BRANCH   2   3
ATOM      3  C   UNL     1      16.653   3.321  26.102  1.00  0.00     0.000 C 
BRANCH   3   4
ATOM      4  C   UNL     1      15.139   3.512  25.864  1.00  0.00     0.000 C 
BRANCH   4   5
ATOM      5  C   UNL     1      14.376   2.250  25.423  1.00  0.00     0.006 C 
BRANCH   5   6
ATOM      6  C   UNL     1      13.116   2.568  24.609  1.00  0.00     0.053 C 
BRANCH   6   7
ATOM      7  C   UNL     1      13.467   3.367  23.394  1.00  0.00     0.041 C 
ATOM      8  O   UNL     1      14.039   2.816  22.416  1.00  0.00    -0.550 OA
ATOM      9  O   UNL     1      13.117   4.709  23.320  1.00  0.00    -0.550 OA
ENDBRANCH   6   7
ENDBRANCH   5   6
ENDBRANCH   4   5
ENDBRANCH   3   4
ENDBRANCH   2   3
ENDBRANCH   1   2
BRANCH   1  10
ATOM     10  C   UNL     1      19.530   1.212  25.006  1.00  0.00     0.000 C 
BRANCH  10  11
ATOM     11  C   UNL     1      20.302   0.959  26.312  1.00  0.00    -0.000 C 
BRANCH  11  12
ATOM     12  C   UNL     1      19.384   0.881  27.544  1.00  0.00    -0.000 C 
BRANCH  12  13
ATOM     13  C   UNL     1      19.156   2.251  28.208  1.00  0.00    -0.000 C 
BRANCH  13  14
ATOM     14  C   UNL     1      19.471   2.310  29.714  1.00  0.00    -0.000 C 
BRANCH  14  15
ATOM     15  C   UNL     1      19.374   3.729  30.293  1.00  0.00    -0.000 C 
BRANCH  15  16
ATOM     16  C   UNL     1      18.042   3.933  31.023  1.00  0.00    -0.003 C 
ATOM     17  C   UNL     1      17.032   4.656  30.136  1.00  0.00     0.004 C 
ENDBRANCH  15  16
ENDBRANCH  14  15
ENDBRANCH  13  14
ENDBRANCH  12  13
ENDBRANCH  11  12
ENDBRANCH  10  11
ENDBRANCH   1  10
TORSDOF 13
ENDMDL
MODEL 4
REMARK VINA RESULT:     0.947      3.423      7.112
REMARK INTER + INTRA:           0.742
REMARK INTER:                   1.535
REMARK INTRA:                  -0.793
REMARK UNBOUND:                -0.925
REMARK SMILES CCCCCCCCCCCCCCC(=O)[O-]
REMARK SMILES IDX 9 1 10 2 11 3 12 4 13 5 14 6 15 7 16 8 17 9 8 10 7 11 6 12
REMARK SMILES IDX 5 13 4 14 3 15 2 16 1 17
REMARK H PARENT
REMARK Flexibility Score: inf
ROOT
ATOM      1  C   UNL     1      19.628   1.943  25.353  1.00  0.00     0.000 C 
ENDROOT
BRANCH   1   2
ATOM      2  C   UNL     1      20.618   0.832  25.768  1.00  0.00     0.000 C 
BRANCH   2   3
ATOM      3  C   UNL     1      20.769   0.656  27.293  1.00  0.00     0.000 C 
BRANCH   3   4
ATOM      4  C   UNL     1      19.487   0.901  28.118  1.00  0.00     0.000 C 
BRANCH   4   5
ATOM      5  C   UNL     1      19.638   1.873  29.302  1.00  0.00     0.006 C 
BRANCH   5   6
ATOM      6  C   UNL     1      18.768   3.127  29.159  1.00  0.00     0.053 C 
BRANCH   6   7
ATOM      7  C   UNL     1      18.588   3.793  30.487  1.00  0.00     0.041 C 
ATOM      8  O   UNL     1      19.505   3.743  31.349  1.00  0.00    -0.550 OA
ATOM      9  O   UNL     1      17.430   4.511  30.753  1.00  0.00    -0.550 OA
ENDBRANCH   6   7
ENDBRANCH   5   6
ENDBRANCH   4   5
ENDBRANCH   3   4
ENDBRANCH   2   3
ENDBRANCH   1   2
BRANCH   1  10
ATOM     10  C   UNL     1      18.152   1.499  25.364  1.00  0.00     0.000 C 
BRANCH  10  11
ATOM     11  C   UNL     1      17.148   2.558  24.876  1.00  0.00    -0.000 C 
BRANCH  11  12
ATOM     12  C   UNL     1      16.526   3.367  26.028  1.00  0.00    -0.000 C 
BRANCH  12  13
ATOM     13  C   UNL     1      15.004   3.545  25.879  1.00  0.00    -0.000 C 
BRANCH  13  14
ATOM     14  C   UNL     1      14.236   2.282  25.448  1.00  0.00    -0.000 C 
BRANCH  14  15
ATOM     15  C   UNL     1      13.138   2.572  24.413  1.00  0.00    -0.000 C 
BRANCH  15  16
ATOM     16  C   UNL     1      13.717   3.274  23.181  1.00  0.00    -0.003 C 
ATOM     17  C   UNL     1      13.040   4.622  22.945  1.00  0.00     0.004 C 
ENDBRANCH  15  16
ENDBRANCH  14  15
ENDBRANCH  13  14
ENDBRANCH  12  13
ENDBRANCH  11  12
ENDBRANCH  10  11
ENDBRANCH   1  10
TORSDOF 13
ENDMDL
MODEL 5
REMARK VINA RESULT:     1.111      1.149      2.250
REMARK INTER + INTRA:           1.031
REMARK INTER:                   2.312
REMARK INTRA:                  -1.282
REMARK UNBOUND:                -0.925
REMARK SMILES CCCCCCCCCCCCCCC(=O)[O-]
REMARK SMILES IDX 9 1 10 2 11 3 12 4 13 5 14 6 15 7 16 8 17 9 8 10 7 11 6 12
REMARK SMILES IDX 5 13 4 14 3 15 2 16 1 17
REMARK H PARENT
REMARK Flexibility Score: inf
ROOT
ATOM      1  C   UNL     1      18.375   1.466  25.549  1.00  0.00     0.000 C 
ENDROOT
BRANCH   1   2
ATOM      2  C   UNL     1      17.259   2.348  24.946  1.00  0.00     0.000 C 
BRANCH   2   3
ATOM      3  C   UNL     1      16.661   3.374  25.932  1.00  0.00     0.000 C 
BRANCH   3   4
ATOM      4  C   UNL     1      15.122   3.497  25.904  1.00  0.00     0.000 C 
BRANCH   4   5
ATOM      5  C   UNL     1      14.370   2.262  25.376  1.00  0.00     0.006 C 
BRANCH   5   6
ATOM      6  C   UNL     1      13.106   2.625  24.588  1.00  0.00     0.053 C 
BRANCH   6   7
ATOM      7  C   UNL     1      13.462   3.386  23.350  1.00  0.00     0.041 C 
ATOM      8  O   UNL     1      14.097   2.822  22.420  1.00  0.00    -0.550 OA
ATOM      9  O   UNL     1      13.049   4.704  23.201  1.00  0.00    -0.550 OA
ENDBRANCH   6   7
ENDBRANCH   5   6
ENDBRANCH   4   5
ENDBRANCH   3   4
ENDBRANCH   2   3
ENDBRANCH   1   2
BRANCH   1  10
ATOM     10  C   UNL     1      19.035   2.067  26.805  1.00  0.00     0.000 C 
BRANCH  10  11
ATOM     11  C   UNL     1      19.569   1.038  27.817  1.00  0.00    -0.000 C 
BRANCH  11  12
ATOM     12  C   UNL     1      19.524   1.549  29.268  1.00  0.00    -0.000 C 
BRANCH  12  13
ATOM     13  C   UNL     1      19.143   3.038  29.367  1.00  0.00    -0.000 C 
BRANCH  13  14
ATOM     14  C   UNL     1      18.853   3.546  30.791  1.00  0.00    -0.000 C 
BRANCH  14  15
ATOM     15  C   UNL     1      17.637   4.483  30.858  1.00  0.00    -0.000 C 
BRANCH  15  16
ATOM     16  C   UNL     1      17.001   4.655  29.474  1.00  0.00    -0.003 C 
ATOM     17  C   UNL     1      15.513   4.979  29.588  1.00  0.00     0.004 C 
ENDBRANCH  15  16
ENDBRANCH  14  15
ENDBRANCH  13  14
ENDBRANCH  12  13
ENDBRANCH  11  12
ENDBRANCH  10  11
ENDBRANCH   1  10
TORSDOF 13
ENDMDL
MODEL 6
REMARK VINA RESULT:     2.650     12.640     15.097
REMARK INTER + INTRA:           3.739
REMARK INTER:                   1.677
REMARK INTRA:                   2.062
REMARK UNBOUND:                -0.925
REMARK SMILES CCCCCCCCCCCCCCC(=O)[O-]
REMARK SMILES IDX 9 1 10 2 11 3 12 4 13 5 14 6 15 7 16 8 17 9 8 10 7 11 6 12
REMARK SMILES IDX 5 13 4 14 3 15 2 16 1 17
REMARK H PARENT
REMARK Flexibility Score: inf
ROOT
ATOM      1  C   UNL     1      11.679  18.114  22.352  1.00  0.00     0.000 C 
ENDROOT
BRANCH   1   2
ATOM      2  C   UNL     1      12.229  16.919  21.542  1.00  0.00     0.000 C 
BRANCH   2   3
ATOM      3  C   UNL     1      13.447  17.260  20.658  1.00  0.00     0.000 C 
BRANCH   3   4
ATOM      4  C   UNL     1      13.184  17.248  19.137  1.00  0.00     0.000 C 
BRANCH   4   5
ATOM      5  C   UNL     1      11.787  17.728  18.705  1.00  0.00     0.006 C 
BRANCH   5   6
ATOM      6  C   UNL     1      10.966  16.633  18.013  1.00  0.00     0.053 C 
BRANCH   6   7
ATOM      7  C   UNL     1      11.312  15.289  18.571  1.00  0.00     0.041 C 
ATOM      8  O   UNL     1      11.959  14.462  17.876  1.00  0.00    -0.550 OA
ATOM      9  O   UNL     1      10.965  14.968  19.877  1.00  0.00    -0.550 OA
ENDBRANCH   6   7
ENDBRANCH   5   6
ENDBRANCH   4   5
ENDBRANCH   3   4
ENDBRANCH   2   3
ENDBRANCH   1   2
BRANCH   1  10
ATOM     10  C   UNL     1      11.693  17.893  23.878  1.00  0.00     0.000 C 
BRANCH  10  11
ATOM     11  C   UNL     1      10.882  16.682  24.369  1.00  0.00    -0.000 C 
BRANCH  11  12
ATOM     12  C   UNL     1      10.937  16.506  25.896  1.00  0.00    -0.000 C 
BRANCH  12  13
ATOM     13  C   UNL     1      11.567  15.167  26.322  1.00  0.00    -0.000 C 
BRANCH  13  14
ATOM     14  C   UNL     1      11.218  13.966  25.424  1.00  0.00    -0.000 C 
BRANCH  14  15
ATOM     15  C   UNL     1      11.131  14.335  23.935  1.00  0.00    -0.000 C 
BRANCH  15  16
ATOM     16  C   UNL     1      10.876  13.092  23.076  1.00  0.00    -0.003 C 
ATOM     17  C   UNL     1      11.422  13.276  21.663  1.00  0.00     0.004 C 
ENDBRANCH  15  16
ENDBRANCH  14  15
ENDBRANCH  13  14
ENDBRANCH  12  13
ENDBRANCH  11  12
ENDBRANCH  10  11
ENDBRANCH   1  10
TORSDOF 13
ENDMDL
