MODEL 1
REMARK VINA RESULT:    -8.413      0.000      0.000
REMARK INTER + INTRA:         -14.271
REMARK INTER:                 -13.085
REMARK INTRA:                  -1.186
REMARK UNBOUND:                -1.186
REMARK SMILES C[C@@]12C[C@@]3(O)O[C@@H](O1)[C@]1(COC(=O)c4ccccc4)[C@H]3C[C@@]12O[C@H]1O[C@@H](CO)[C@@H](O)[C@H](O)[C@@H]1O
REMARK SMILES IDX 1 1 2 2 3 3 4 4 20 5 21 6 22 7 9 8 7 9 8 10 6 11 23 12 24 13
REMARK SMILES IDX 33 14 25 15 31 16 26 17 29 18 34 19 32 21 27 23 28 24 30 26
REMARK SMILES IDX 5 28 10 30 11 31 12 32 13 33 14 34 15 35 19 36 16 37 18 38
REMARK SMILES IDX 17 39
REMARK H PARENT 34 20 32 22 28 25 30 27 5 29
REMARK Flexibility Score: inf
ROOT
ATOM      1  C   UNL     1      -6.170   1.715   9.925  1.00  0.00     0.046 C 
ATOM      2  C   UNL     1      -5.501   1.153  11.176  1.00  0.00     0.104 C 
ATOM      3  C   UNL     1      -5.773   2.057  12.434  1.00  0.00     0.104 C 
ATOM      4  C   UNL     1      -4.940   1.362  13.570  1.00  0.00     0.175 C 
ATOM      5  C   UNL     1      -3.482   1.085  13.084  1.00  0.00     0.070 C 
ATOM      6  C   UNL     1      -3.088   1.909  11.850  1.00  0.00     0.050 C 
ATOM      7  C   UNL     1      -3.953   0.917  11.026  1.00  0.00     0.115 C 
ATOM      8  C   UNL     1      -3.784  -0.089  12.161  1.00  0.00     0.096 C 
ATOM      9  C   UNL     1      -5.171  -0.583  12.529  1.00  0.00     0.267 C 
ATOM     10  O   UNL     1      -6.027  -0.120  11.498  1.00  0.00    -0.342 OA
ATOM     11  O   UNL     1      -5.503   0.075  13.741  1.00  0.00    -0.320 OA
ENDROOT
BRANCH   7  12
ATOM     12  O   UNL     1      -3.526   0.407   9.766  1.00  0.00    -0.339 OA
BRANCH  12  13
ATOM     13  C   UNL     1      -3.024   1.414   8.903  1.00  0.00     0.282 C 
ATOM     14  C   UNL     1      -3.215   0.959   7.436  1.00  0.00     0.202 C 
ATOM     15  O   UNL     1      -1.648   1.607   9.216  1.00  0.00    -0.341 OA
ATOM     16  C   UNL     1      -2.717   2.048   6.445  1.00  0.00     0.179 C 
ATOM     17  C   UNL     1      -0.851   2.214   8.200  1.00  0.00     0.178 C 
ATOM     18  C   UNL     1      -1.670   2.970   7.121  1.00  0.00     0.177 C 
BRANCH  14  19
ATOM     19  O   UNL     1      -4.550   0.596   7.171  1.00  0.00    -0.385 OA
ATOM     20  H   UNL     1      -4.575  -0.388   7.055  1.00  0.00     0.211 HD
ENDBRANCH  14  19
BRANCH  16  21
ATOM     21  O   UNL     1      -3.795   2.826   5.983  1.00  0.00    -0.387 OA
ATOM     22  H   UNL     1      -3.633   2.996   5.016  1.00  0.00     0.211 HD
ENDBRANCH  16  21
BRANCH  17  23
ATOM     23  C   UNL     1       0.113   1.167   7.599  1.00  0.00     0.191 C 
BRANCH  23  24
ATOM     24  O   UNL     1       1.363   1.749   7.332  1.00  0.00    -0.394 OA
ATOM     25  H   UNL     1       1.179   2.617   6.881  1.00  0.00     0.210 HD
ENDBRANCH  23  24
ENDBRANCH  17  23
BRANCH  18  26
ATOM     26  O   UNL     1      -0.838   3.603   6.181  1.00  0.00    -0.387 OA
ATOM     27  H   UNL     1      -0.870   4.582   6.345  1.00  0.00     0.211 HD
ENDBRANCH  18  26
ENDBRANCH  12  13
ENDBRANCH   7  12
BRANCH   4  28
ATOM     28  O   UNL     1      -4.953   2.096  14.765  1.00  0.00    -0.365 OA
ATOM     29  H   UNL     1      -4.113   1.874  15.243  1.00  0.00     0.214 HD
ENDBRANCH   4  28
BRANCH   8  30
ATOM     30  C   UNL     1      -2.673  -1.146  12.045  1.00  0.00     0.249 C 
BRANCH  30  31
ATOM     31  O   UNL     1      -3.219  -2.421  12.366  1.00  0.00    -0.461 OA
BRANCH  31  32
ATOM     32  C   UNL     1      -3.383  -3.449  11.436  1.00  0.00     0.338 C 
ATOM     33  O   UNL     1      -2.824  -4.567  11.619  1.00  0.00    -0.246 OA
BRANCH  32  34
ATOM     34  C   UNL     1      -4.224  -3.215  10.243  1.00  0.00     0.060 A 
ATOM     35  C   UNL     1      -3.622  -2.994   8.990  1.00  0.00     0.015 A 
ATOM     36  C   UNL     1      -5.628  -3.196  10.339  1.00  0.00     0.015 A 
ATOM     37  C   UNL     1      -4.410  -2.752   7.859  1.00  0.00     0.001 A 
ATOM     38  C   UNL     1      -6.409  -2.957   9.205  1.00  0.00     0.001 A 
ATOM     39  C   UNL     1      -5.802  -2.729   7.968  1.00  0.00     0.000 A 
ENDBRANCH  32  34
ENDBRANCH  31  32
ENDBRANCH  30  31
ENDBRANCH   8  30
TORSDOF 12
ENDMDL
MODEL 2
REMARK VINA RESULT:    -8.310      1.657      3.971
REMARK INTER + INTRA:         -14.111
REMARK INTER:                 -14.524
REMARK INTRA:                   0.412
REMARK UNBOUND:                -1.186
REMARK SMILES C[C@@]12C[C@@]3(O)O[C@@H](O1)[C@]1(COC(=O)c4ccccc4)[C@H]3C[C@@]12O[C@H]1O[C@@H](CO)[C@@H](O)[C@H](O)[C@@H]1O
REMARK SMILES IDX 1 1 2 2 3 3 4 4 20 5 21 6 22 7 9 8 7 9 8 10 6 11 23 12 24 13
REMARK SMILES IDX 33 14 25 15 31 16 26 17 29 18 34 19 32 21 27 23 28 24 30 26
REMARK SMILES IDX 5 28 10 30 11 31 12 32 13 33 14 34 15 35 19 36 16 37 18 38
REMARK SMILES IDX 17 39
REMARK H PARENT 34 20 32 22 28 25 30 27 5 29
REMARK Flexibility Score: inf
ROOT
ATOM      1  C   UNL     1      -1.280   1.397  12.240  1.00  0.00     0.046 C 
ATOM      2  C   UNL     1      -1.631  -0.049  11.903  1.00  0.00     0.104 C 
ATOM      3  C   UNL     1      -0.362  -0.977  11.938  1.00  0.00     0.104 C 
ATOM      4  C   UNL     1      -0.918  -2.374  11.485  1.00  0.00     0.175 C 
ATOM      5  C   UNL     1      -1.765  -2.227  10.182  1.00  0.00     0.070 C 
ATOM      6  C   UNL     1      -1.503  -0.911   9.436  1.00  0.00     0.050 C 
ATOM      7  C   UNL     1      -2.371  -0.227  10.527  1.00  0.00     0.115 C 
ATOM      8  C   UNL     1      -3.002  -1.589  10.803  1.00  0.00     0.096 C 
ATOM      9  C   UNL     1      -2.908  -1.828  12.298  1.00  0.00     0.267 C 
ATOM     10  O   UNL     1      -2.524  -0.585  12.860  1.00  0.00    -0.342 OA
ATOM     11  O   UNL     1      -1.856  -2.764  12.471  1.00  0.00    -0.320 OA
ENDROOT
BRANCH   7  12
ATOM     12  O   UNL     1      -3.334   0.775  10.209  1.00  0.00    -0.339 OA
BRANCH  12  13
ATOM     13  C   UNL     1      -2.928   1.614   9.141  1.00  0.00     0.282 C 
ATOM     14  C   UNL     1      -3.192   0.884   7.802  1.00  0.00     0.202 C 
ATOM     15  O   UNL     1      -1.544   1.902   9.316  1.00  0.00    -0.341 OA
ATOM     16  C   UNL     1      -2.802   1.779   6.593  1.00  0.00     0.179 C 
ATOM     17  C   UNL     1      -0.838   2.328   8.152  1.00  0.00     0.178 C 
ATOM     18  C   UNL     1      -1.753   2.842   7.010  1.00  0.00     0.177 C 
BRANCH  14  19
ATOM     19  O   UNL     1      -4.525   0.440   7.702  1.00  0.00    -0.385 OA
ATOM     20  H   UNL     1      -4.639  -0.311   8.339  1.00  0.00     0.211 HD
ENDBRANCH  14  19
BRANCH  16  21
ATOM     21  O   UNL     1      -3.937   2.425   6.069  1.00  0.00    -0.387 OA
ATOM     22  H   UNL     1      -4.546   1.711   5.736  1.00  0.00     0.211 HD
ENDBRANCH  16  21
BRANCH  17  23
ATOM     23  C   UNL     1       0.128   1.213   7.693  1.00  0.00     0.191 C 
BRANCH  23  24
ATOM     24  O   UNL     1       1.371   1.760   7.336  1.00  0.00    -0.394 OA
ATOM     25  H   UNL     1       1.177   2.584   6.813  1.00  0.00     0.210 HD
ENDBRANCH  23  24
ENDBRANCH  17  23
BRANCH  18  26
ATOM     26  O   UNL     1      -1.008   3.309   5.913  1.00  0.00    -0.387 OA
ATOM     27  H   UNL     1      -1.153   4.287   5.831  1.00  0.00     0.211 HD
ENDBRANCH  18  26
ENDBRANCH  12  13
ENDBRANCH   7  12
BRANCH   4  28
ATOM     28  O   UNL     1       0.098  -3.328  11.333  1.00  0.00    -0.365 OA
ATOM     29  H   UNL     1      -0.350  -4.203  11.202  1.00  0.00     0.214 HD
ENDBRANCH   4  28
BRANCH   8  30
ATOM     30  C   UNL     1      -4.338  -1.930  10.122  1.00  0.00     0.249 C 
BRANCH  30  31
ATOM     31  O   UNL     1      -5.273  -2.323  11.121  1.00  0.00    -0.461 OA
BRANCH  31  32
ATOM     32  C   UNL     1      -6.348  -1.531  11.529  1.00  0.00     0.338 C 
ATOM     33  O   UNL     1      -7.533  -1.948  11.393  1.00  0.00    -0.246 OA
BRANCH  32  34
ATOM     34  C   UNL     1      -6.081  -0.208  12.131  1.00  0.00     0.060 A 
ATOM     35  C   UNL     1      -6.310   0.964  11.384  1.00  0.00     0.015 A 
ATOM     36  C   UNL     1      -5.584  -0.094  13.442  1.00  0.00     0.015 A 
ATOM     37  C   UNL     1      -6.042   2.221  11.938  1.00  0.00     0.001 A 
ATOM     38  C   UNL     1      -5.320   1.164  13.991  1.00  0.00     0.001 A 
ATOM     39  C   UNL     1      -5.543   2.319  13.238  1.00  0.00     0.000 A 
ENDBRANCH  32  34
ENDBRANCH  31  32
ENDBRANCH  30  31
ENDBRANCH   8  30
TORSDOF 12
ENDMDL
MODEL 3
REMARK VINA RESULT:    -8.269      1.962      4.429
REMARK INTER + INTRA:         -14.047
REMARK INTER:                 -12.961
REMARK INTRA:                  -1.087
REMARK UNBOUND:                -1.186
REMARK SMILES C[C@@]12C[C@@]3(O)O[C@@H](O1)[C@]1(COC(=O)c4ccccc4)[C@H]3C[C@@]12O[C@H]1O[C@@H](CO)[C@@H](O)[C@H](O)[C@@H]1O
REMARK SMILES IDX 1 1 2 2 3 3 4 4 20 5 21 6 22 7 9 8 7 9 8 10 6 11 23 12 24 13
REMARK SMILES IDX 33 14 25 15 31 16 26 17 29 18 34 19 32 21 27 23 28 24 30 26
REMARK SMILES IDX 5 28 10 30 11 31 12 32 13 33 14 34 15 35 19 36 16 37 18 38
REMARK SMILES IDX 17 39
REMARK H PARENT 34 20 32 22 28 25 30 27 5 29
REMARK Flexibility Score: inf
ROOT
ATOM      1  C   UNL     1      -0.793   0.921  12.398  1.00  0.00     0.046 C 
ATOM      2  C   UNL     1      -1.329  -0.483  12.139  1.00  0.00     0.104 C 
ATOM      3  C   UNL     1      -0.220  -1.576  12.354  1.00  0.00     0.104 C 
ATOM      4  C   UNL     1      -0.942  -2.913  11.958  1.00  0.00     0.175 C 
ATOM      5  C   UNL     1      -1.656  -2.758  10.577  1.00  0.00     0.070 C 
ATOM      6  C   UNL     1      -1.144  -1.562   9.762  1.00  0.00     0.050 C 
ATOM      7  C   UNL     1      -1.981  -0.671  10.720  1.00  0.00     0.115 C 
ATOM      8  C   UNL     1      -2.827  -1.900  11.038  1.00  0.00     0.096 C 
ATOM      9  C   UNL     1      -2.884  -2.021  12.550  1.00  0.00     0.267 C 
ATOM     10  O   UNL     1      -2.363  -0.802  13.051  1.00  0.00    -0.342 OA
ATOM     11  O   UNL     1      -2.000  -3.079  12.883  1.00  0.00    -0.320 OA
ENDROOT
BRANCH   7  12
ATOM     12  O   UNL     1      -2.756   0.428  10.246  1.00  0.00    -0.339 OA
BRANCH  12  13
ATOM     13  C   UNL     1      -2.035   1.276   9.368  1.00  0.00     0.282 C 
ATOM     14  C   UNL     1      -2.609   2.709   9.470  1.00  0.00     0.202 C 
ATOM     15  O   UNL     1      -2.169   0.751   8.051  1.00  0.00    -0.341 OA
ATOM     16  C   UNL     1      -1.825   3.691   8.555  1.00  0.00     0.179 C 
ATOM     17  C   UNL     1      -1.926   1.665   6.982  1.00  0.00     0.178 C 
ATOM     18  C   UNL     1      -1.129   2.928   7.398  1.00  0.00     0.177 C 
BRANCH  14  19
ATOM     19  O   UNL     1      -2.642   3.166  10.802  1.00  0.00    -0.385 OA
ATOM     20  H   UNL     1      -2.951   2.414  11.368  1.00  0.00     0.211 HD
ENDBRANCH  14  19
BRANCH  16  21
ATOM     21  O   UNL     1      -0.859   4.394   9.298  1.00  0.00    -0.387 OA
ATOM     22  H   UNL     1      -0.012   4.356   8.777  1.00  0.00     0.211 HD
ENDBRANCH  16  21
BRANCH  17  23
ATOM     23  C   UNL     1      -3.257   2.001   6.273  1.00  0.00     0.191 C 
BRANCH  23  24
ATOM     24  O   UNL     1      -3.093   1.960   4.879  1.00  0.00    -0.394 OA
ATOM     25  H   UNL     1      -3.321   1.034   4.595  1.00  0.00     0.210 HD
ENDBRANCH  23  24
ENDBRANCH  17  23
BRANCH  18  26
ATOM     26  O   UNL     1      -0.861   3.764   6.300  1.00  0.00    -0.387 OA
ATOM     27  H   UNL     1      -1.709   3.908   5.804  1.00  0.00     0.211 HD
ENDBRANCH  18  26
ENDBRANCH  12  13
ENDBRANCH   7  12
BRANCH   4  28
ATOM     28  O   UNL     1      -0.071  -4.012  11.965  1.00  0.00    -0.365 OA
ATOM     29  H   UNL     1      -0.634  -4.822  11.861  1.00  0.00     0.214 HD
ENDBRANCH   4  28
BRANCH   8  30
ATOM     30  C   UNL     1      -4.143  -2.103  10.270  1.00  0.00     0.249 C 
BRANCH  30  31
ATOM     31  O   UNL     1      -5.177  -2.400  11.203  1.00  0.00    -0.461 OA
BRANCH  31  32
ATOM     32  C   UNL     1      -6.246  -1.543  11.471  1.00  0.00     0.338 C 
ATOM     33  O   UNL     1      -7.430  -1.906  11.220  1.00  0.00    -0.246 OA
BRANCH  32  34
ATOM     34  C   UNL     1      -5.976  -0.214  12.059  1.00  0.00     0.060 A 
ATOM     35  C   UNL     1      -6.164   0.949  11.287  1.00  0.00     0.015 A 
ATOM     36  C   UNL     1      -5.516  -0.087  13.383  1.00  0.00     0.015 A 
ATOM     37  C   UNL     1      -5.892   2.210  11.829  1.00  0.00     0.001 A 
ATOM     38  C   UNL     1      -5.249   1.176  13.919  1.00  0.00     0.001 A 
ATOM     39  C   UNL     1      -5.431   2.322  13.142  1.00  0.00     0.000 A 
ENDBRANCH  32  34
ENDBRANCH  31  32
ENDBRANCH  30  31
ENDBRANCH   8  30
TORSDOF 12
ENDMDL
MODEL 4
REMARK VINA RESULT:    -8.258      3.370      4.992
REMARK INTER + INTRA:         -14.030
REMARK INTER:                 -14.683
REMARK INTRA:                   0.653
REMARK UNBOUND:                -1.186
REMARK SMILES C[C@@]12C[C@@]3(O)O[C@@H](O1)[C@]1(COC(=O)c4ccccc4)[C@H]3C[C@@]12O[C@H]1O[C@@H](CO)[C@@H](O)[C@H](O)[C@@H]1O
REMARK SMILES IDX 1 1 2 2 3 3 4 4 20 5 21 6 22 7 9 8 7 9 8 10 6 11 23 12 24 13
REMARK SMILES IDX 33 14 25 15 31 16 26 17 29 18 34 19 32 21 27 23 28 24 30 26
REMARK SMILES IDX 5 28 10 30 11 31 12 32 13 33 14 34 15 35 19 36 16 37 18 38
REMARK SMILES IDX 17 39
REMARK H PARENT 34 20 32 22 28 25 30 27 5 29
REMARK Flexibility Score: inf
ROOT
ATOM      1  C   UNL     1      -5.636  -1.403   8.910  1.00  0.00     0.046 C 
ATOM      2  C   UNL     1      -5.761  -0.819  10.313  1.00  0.00     0.104 C 
ATOM      3  C   UNL     1      -5.941   0.743  10.276  1.00  0.00     0.104 C 
ATOM      4  C   UNL     1      -5.960   1.145  11.794  1.00  0.00     0.175 C 
ATOM      5  C   UNL     1      -4.754   0.496  12.545  1.00  0.00     0.070 C 
ATOM      6  C   UNL     1      -3.642   0.016  11.602  1.00  0.00     0.050 C 
ATOM      7  C   UNL     1      -4.569  -1.185  11.270  1.00  0.00     0.115 C 
ATOM      8  C   UNL     1      -5.280  -0.933  12.597  1.00  0.00     0.096 C 
ATOM      9  C   UNL     1      -6.766  -0.859  12.298  1.00  0.00     0.267 C 
ATOM     10  O   UNL     1      -6.911  -1.321  10.966  1.00  0.00    -0.342 OA
ATOM     11  O   UNL     1      -7.099   0.518  12.353  1.00  0.00    -0.320 OA
ENDROOT
BRANCH   7  12
ATOM     12  O   UNL     1      -4.070  -2.516  11.153  1.00  0.00    -0.339 OA
BRANCH  12  13
ATOM     13  C   UNL     1      -2.782  -2.574  10.564  1.00  0.00     0.282 C 
ATOM     14  C   UNL     1      -1.752  -1.963  11.544  1.00  0.00     0.202 C 
ATOM     15  O   UNL     1      -2.832  -1.849   9.339  1.00  0.00    -0.341 OA
ATOM     16  C   UNL     1      -0.313  -2.040  10.962  1.00  0.00     0.179 C 
ATOM     17  C   UNL     1      -1.581  -1.394   8.825  1.00  0.00     0.178 C 
ATOM     18  C   UNL     1      -0.350  -2.131   9.414  1.00  0.00     0.177 C 
BRANCH  14  19
ATOM     19  O   UNL     1      -1.823  -2.562  12.817  1.00  0.00    -0.385 OA
ATOM     20  H   UNL     1      -0.941  -2.443  13.253  1.00  0.00     0.211 HD
ENDBRANCH  14  19
BRANCH  16  21
ATOM     21  O   UNL     1       0.370  -3.156  11.479  1.00  0.00    -0.387 OA
ATOM     22  H   UNL     1      -0.275  -3.914  11.478  1.00  0.00     0.211 HD
ENDBRANCH  16  21
BRANCH  17  23
ATOM     23  C   UNL     1      -1.487   0.141   8.966  1.00  0.00     0.191 C 
BRANCH  23  24
ATOM     24  O   UNL     1      -0.692   0.679   7.942  1.00  0.00    -0.394 OA
ATOM     25  H   UNL     1       0.046   1.174   8.388  1.00  0.00     0.210 HD
ENDBRANCH  23  24
ENDBRANCH  17  23
BRANCH  18  26
ATOM     26  O   UNL     1       0.852  -1.693   8.831  1.00  0.00    -0.387 OA
ATOM     27  H   UNL     1       1.573  -1.768   9.509  1.00  0.00     0.211 HD
ENDBRANCH  18  26
ENDBRANCH  12  13
ENDBRANCH   7  12
BRANCH   4  28
ATOM     28  O   UNL     1      -5.992   2.535  11.978  1.00  0.00    -0.365 OA
ATOM     29  H   UNL     1      -5.404   2.927  11.282  1.00  0.00     0.214 HD
ENDBRANCH   4  28
BRANCH   8  30
ATOM     30  C   UNL     1      -4.854  -1.754  13.825  1.00  0.00     0.249 C 
BRANCH  30  31
ATOM     31  O   UNL     1      -5.900  -2.663  14.154  1.00  0.00    -0.461 OA
BRANCH  31  32
ATOM     32  C   UNL     1      -5.692  -4.017  14.420  1.00  0.00     0.338 C 
ATOM     33  O   UNL     1      -4.721  -4.627  13.889  1.00  0.00    -0.246 OA
BRANCH  32  34
ATOM     34  C   UNL     1      -6.612  -4.722  15.336  1.00  0.00     0.060 A 
ATOM     35  C   UNL     1      -6.672  -4.355  16.694  1.00  0.00     0.015 A 
ATOM     36  C   UNL     1      -7.429  -5.773  14.877  1.00  0.00     0.015 A 
ATOM     37  C   UNL     1      -7.526  -5.030  17.573  1.00  0.00     0.001 A 
ATOM     38  C   UNL     1      -8.281  -6.441  15.760  1.00  0.00     0.001 A 
ATOM     39  C   UNL     1      -8.326  -6.075  17.107  1.00  0.00     0.000 A 
ENDBRANCH  32  34
ENDBRANCH  31  32
ENDBRANCH  30  31
ENDBRANCH   8  30
TORSDOF 12
ENDMDL
MODEL 5
REMARK VINA RESULT:    -8.218      1.994      4.456
REMARK INTER + INTRA:         -13.969
REMARK INTER:                 -12.709
REMARK INTRA:                  -1.261
REMARK UNBOUND:                -1.186
REMARK SMILES C[C@@]12C[C@@]3(O)O[C@@H](O1)[C@]1(COC(=O)c4ccccc4)[C@H]3C[C@@]12O[C@H]1O[C@@H](CO)[C@@H](O)[C@H](O)[C@@H]1O
REMARK SMILES IDX 1 1 2 2 3 3 4 4 20 5 21 6 22 7 9 8 7 9 8 10 6 11 23 12 24 13
REMARK SMILES IDX 33 14 25 15 31 16 26 17 29 18 34 19 32 21 27 23 28 24 30 26
REMARK SMILES IDX 5 28 10 30 11 31 12 32 13 33 14 34 15 35 19 36 16 37 18 38
REMARK SMILES IDX 17 39
REMARK H PARENT 34 20 32 22 28 25 30 27 5 29
REMARK Flexibility Score: inf
ROOT
ATOM      1  C   UNL     1      -2.535  -2.717   7.941  1.00  0.00     0.046 C 
ATOM      2  C   UNL     1      -3.824  -2.470   8.718  1.00  0.00     0.104 C 
ATOM      3  C   UNL     1      -5.088  -2.944   7.910  1.00  0.00     0.104 C 
ATOM      4  C   UNL     1      -6.289  -2.526   8.832  1.00  0.00     0.175 C 
ATOM      5  C   UNL     1      -6.138  -1.038   9.281  1.00  0.00     0.070 C 
ATOM      6  C   UNL     1      -5.157  -0.240   8.411  1.00  0.00     0.050 C 
ATOM      7  C   UNL     1      -4.024  -0.978   9.174  1.00  0.00     0.115 C 
ATOM      8  C   UNL     1      -5.022  -1.235  10.299  1.00  0.00     0.096 C 
ATOM      9  C   UNL     1      -4.974  -2.720  10.607  1.00  0.00     0.267 C 
ATOM     10  O   UNL     1      -3.837  -3.215   9.921  1.00  0.00    -0.342 OA
ATOM     11  O   UNL     1      -6.146  -3.270  10.027  1.00  0.00    -0.320 OA
ENDROOT
BRANCH   7  12
ATOM     12  O   UNL     1      -2.849  -0.306   9.618  1.00  0.00    -0.339 OA
BRANCH  12  13
ATOM     13  C   UNL     1      -2.293   0.547   8.632  1.00  0.00     0.282 C 
ATOM     14  C   UNL     1      -0.754   0.565   8.792  1.00  0.00     0.202 C 
ATOM     15  O   UNL     1      -2.852   1.844   8.814  1.00  0.00    -0.341 OA
ATOM     16  C   UNL     1      -0.089   1.455   7.706  1.00  0.00     0.179 C 
ATOM     17  C   UNL     1      -2.116   2.931   8.255  1.00  0.00     0.178 C 
ATOM     18  C   UNL     1      -1.092   2.509   7.169  1.00  0.00     0.177 C 
BRANCH  14  19
ATOM     19  O   UNL     1      -0.213  -0.736   8.790  1.00  0.00    -0.385 OA
ATOM     20  H   UNL     1      -0.742  -1.281   9.427  1.00  0.00     0.211 HD
ENDBRANCH  14  19
BRANCH  16  21
ATOM     21  O   UNL     1       0.376   0.667   6.637  1.00  0.00    -0.387 OA
ATOM     22  H   UNL     1      -0.429   0.322   6.163  1.00  0.00     0.211 HD
ENDBRANCH  16  21
BRANCH  17  23
ATOM     23  C   UNL     1      -1.482   3.767   9.388  1.00  0.00     0.191 C 
BRANCH  23  24
ATOM     24  O   UNL     1      -1.810   5.124   9.237  1.00  0.00    -0.394 OA
ATOM     25  H   UNL     1      -2.056   5.457  10.142  1.00  0.00     0.210 HD
ENDBRANCH  23  24
ENDBRANCH  17  23
BRANCH  18  26
ATOM     26  O   UNL     1      -0.439   3.620   6.606  1.00  0.00    -0.387 OA
ATOM     27  H   UNL     1      -0.738   4.434   7.087  1.00  0.00     0.211 HD
ENDBRANCH  18  26
ENDBRANCH  12  13
ENDBRANCH   7  12
BRANCH   4  28
ATOM     28  O   UNL     1      -7.532  -2.757   8.225  1.00  0.00    -0.365 OA
ATOM     29  H   UNL     1      -7.631  -3.740   8.145  1.00  0.00     0.214 HD
ENDBRANCH   4  28
BRANCH   8  30
ATOM     30  C   UNL     1      -5.039  -0.272  11.498  1.00  0.00     0.249 C 
BRANCH  30  31
ATOM     31  O   UNL     1      -4.900  -1.030  12.695  1.00  0.00    -0.461 OA
BRANCH  31  32
ATOM     32  C   UNL     1      -3.794  -0.942  13.542  1.00  0.00     0.338 C 
ATOM     33  O   UNL     1      -3.929  -0.517  14.724  1.00  0.00    -0.246 OA
BRANCH  32  34
ATOM     34  C   UNL     1      -2.468  -1.364  13.042  1.00  0.00     0.060 A 
ATOM     35  C   UNL     1      -1.452  -0.408  12.849  1.00  0.00     0.015 A 
ATOM     36  C   UNL     1      -2.202  -2.712  12.739  1.00  0.00     0.015 A 
ATOM     37  C   UNL     1      -0.201  -0.794  12.358  1.00  0.00     0.001 A 
ATOM     38  C   UNL     1      -0.949  -3.092  12.251  1.00  0.00     0.001 A 
ATOM     39  C   UNL     1       0.048  -2.134  12.055  1.00  0.00     0.000 A 
ENDBRANCH  32  34
ENDBRANCH  31  32
ENDBRANCH  30  31
ENDBRANCH   8  30
TORSDOF 12
ENDMDL
MODEL 6
REMARK VINA RESULT:    -8.173      3.299      5.230
REMARK INTER + INTRA:         -13.898
REMARK INTER:                 -14.527
REMARK INTRA:                   0.629
REMARK UNBOUND:                -1.186
REMARK SMILES C[C@@]12C[C@@]3(O)O[C@@H](O1)[C@]1(COC(=O)c4ccccc4)[C@H]3C[C@@]12O[C@H]1O[C@@H](CO)[C@@H](O)[C@H](O)[C@@H]1O
REMARK SMILES IDX 1 1 2 2 3 3 4 4 20 5 21 6 22 7 9 8 7 9 8 10 6 11 23 12 24 13
REMARK SMILES IDX 33 14 25 15 31 16 26 17 29 18 34 19 32 21 27 23 28 24 30 26
REMARK SMILES IDX 5 28 10 30 11 31 12 32 13 33 14 34 15 35 19 36 16 37 18 38
REMARK SMILES IDX 17 39
REMARK H PARENT 34 20 32 22 28 25 30 27 5 29
REMARK Flexibility Score: inf
ROOT
ATOM      1  C   UNL     1      -3.878   1.339  12.669  1.00  0.00     0.046 C 
ATOM      2  C   UNL     1      -3.099   0.030  12.747  1.00  0.00     0.104 C 
ATOM      3  C   UNL     1      -1.574   0.244  12.429  1.00  0.00     0.104 C 
ATOM      4  C   UNL     1      -0.983  -1.211  12.476  1.00  0.00     0.175 C 
ATOM      5  C   UNL     1      -1.852  -2.180  11.613  1.00  0.00     0.070 C 
ATOM      6  C   UNL     1      -2.763  -1.450  10.615  1.00  0.00     0.050 C 
ATOM      7  C   UNL     1      -3.669  -1.113  11.830  1.00  0.00     0.115 C 
ATOM      8  C   UNL     1      -3.041  -2.299  12.558  1.00  0.00     0.096 C 
ATOM      9  C   UNL     1      -2.572  -1.793  13.910  1.00  0.00     0.267 C 
ATOM     10  O   UNL     1      -3.146  -0.505  14.056  1.00  0.00    -0.342 OA
ATOM     11  O   UNL     1      -1.163  -1.667  13.803  1.00  0.00    -0.320 OA
ENDROOT
BRANCH   7  12
ATOM     12  O   UNL     1      -5.091  -1.197  11.759  1.00  0.00    -0.339 OA
BRANCH  12  13
ATOM     13  C   UNL     1      -5.602  -0.854  10.482  1.00  0.00     0.282 C 
ATOM     14  C   UNL     1      -5.188  -1.946   9.466  1.00  0.00     0.202 C 
ATOM     15  O   UNL     1      -5.070   0.419  10.128  1.00  0.00    -0.341 OA
ATOM     16  C   UNL     1      -5.760  -1.640   8.054  1.00  0.00     0.179 C 
ATOM     17  C   UNL     1      -5.075   0.738   8.737  1.00  0.00     0.178 C 
ATOM     18  C   UNL     1      -6.050  -0.125   7.894  1.00  0.00     0.177 C 
BRANCH  14  19
ATOM     19  O   UNL     1      -5.559  -3.233   9.901  1.00  0.00    -0.385 OA
ATOM     20  H   UNL     1      -4.727  -3.754  10.038  1.00  0.00     0.211 HD
ENDBRANCH  14  19
BRANCH  16  21
ATOM     21  O   UNL     1      -6.943  -2.367   7.832  1.00  0.00    -0.387 OA
ATOM     22  H   UNL     1      -7.361  -1.992   7.010  1.00  0.00     0.211 HD
ENDBRANCH  16  21
BRANCH  17  23
ATOM     23  C   UNL     1      -3.630   0.718   8.194  1.00  0.00     0.191 C 
BRANCH  23  24
ATOM     24  O   UNL     1      -3.486   1.647   7.151  1.00  0.00    -0.394 OA
ATOM     25  H   UNL     1      -2.585   1.493   6.758  1.00  0.00     0.210 HD
ENDBRANCH  23  24
ENDBRANCH  17  23
BRANCH  18  26
ATOM     26  O   UNL     1      -6.065   0.270   6.545  1.00  0.00    -0.387 OA
ATOM     27  H   UNL     1      -5.989   1.259   6.509  1.00  0.00     0.211 HD
ENDBRANCH  18  26
ENDBRANCH  12  13
ENDBRANCH   7  12
BRANCH   4  28
ATOM     28  O   UNL     1       0.365  -1.251  12.093  1.00  0.00    -0.365 OA
ATOM     29  H   UNL     1       0.738  -0.350  12.271  1.00  0.00     0.214 HD
ENDBRANCH   4  28
BRANCH   8  30
ATOM     30  C   UNL     1      -3.778  -3.648  12.533  1.00  0.00     0.249 C 
BRANCH  30  31
ATOM     31  O   UNL     1      -4.262  -3.929  13.842  1.00  0.00    -0.461 OA
BRANCH  31  32
ATOM     32  C   UNL     1      -5.615  -4.091  14.148  1.00  0.00     0.338 C 
ATOM     33  O   UNL     1      -6.500  -3.590  13.397  1.00  0.00    -0.246 OA
BRANCH  32  34
ATOM     34  C   UNL     1      -5.996  -4.862  15.349  1.00  0.00     0.060 A 
ATOM     35  C   UNL     1      -6.799  -4.267  16.342  1.00  0.00     0.015 A 
ATOM     36  C   UNL     1      -5.558  -6.186  15.531  1.00  0.00     0.015 A 
ATOM     37  C   UNL     1      -7.149  -4.982  17.492  1.00  0.00     0.001 A 
ATOM     38  C   UNL     1      -5.913  -6.897  16.681  1.00  0.00     0.001 A 
ATOM     39  C   UNL     1      -6.702  -6.294  17.663  1.00  0.00     0.000 A 
ENDBRANCH  32  34
ENDBRANCH  31  32
ENDBRANCH  30  31
ENDBRANCH   8  30
TORSDOF 12
ENDMDL
MODEL 7
REMARK VINA RESULT:    -8.146      3.152      5.691
REMARK INTER + INTRA:         -13.857
REMARK INTER:                 -14.497
REMARK INTRA:                   0.641
REMARK UNBOUND:                -1.186
REMARK SMILES C[C@@]12C[C@@]3(O)O[C@@H](O1)[C@]1(COC(=O)c4ccccc4)[C@H]3C[C@@]12O[C@H]1O[C@@H](CO)[C@@H](O)[C@H](O)[C@@H]1O
REMARK SMILES IDX 1 1 2 2 3 3 4 4 20 5 21 6 22 7 9 8 7 9 8 10 6 11 23 12 24 13
REMARK SMILES IDX 33 14 25 15 31 16 26 17 29 18 34 19 32 21 27 23 28 24 30 26
REMARK SMILES IDX 5 28 10 30 11 31 12 32 13 33 14 34 15 35 19 36 16 37 18 38
REMARK SMILES IDX 17 39
REMARK H PARENT 34 20 32 22 28 25 30 27 5 29
REMARK Flexibility Score: inf
ROOT
ATOM      1  C   UNL     1      -1.290  -2.244  11.031  1.00  0.00     0.046 C 
ATOM      2  C   UNL     1      -2.708  -2.592  10.589  1.00  0.00     0.104 C 
ATOM      3  C   UNL     1      -2.856  -2.547   9.024  1.00  0.00     0.104 C 
ATOM      4  C   UNL     1      -4.380  -2.843   8.792  1.00  0.00     0.175 C 
ATOM      5  C   UNL     1      -5.258  -1.929   9.705  1.00  0.00     0.070 C 
ATOM      6  C   UNL     1      -4.498  -0.713  10.254  1.00  0.00     0.050 C 
ATOM      7  C   UNL     1      -3.824  -1.699  11.246  1.00  0.00     0.115 C 
ATOM      8  C   UNL     1      -5.003  -2.643  11.027  1.00  0.00     0.096 C 
ATOM      9  C   UNL     1      -4.427  -4.003  10.682  1.00  0.00     0.267 C 
ATOM     10  O   UNL     1      -3.042  -3.915  10.967  1.00  0.00    -0.342 OA
ATOM     11  O   UNL     1      -4.607  -4.151   9.282  1.00  0.00    -0.320 OA
ENDROOT
BRANCH   7  12
ATOM     12  O   UNL     1      -3.623  -1.372  12.619  1.00  0.00    -0.339 OA
BRANCH  12  13
ATOM     13  C   UNL     1      -3.338   0.002  12.824  1.00  0.00     0.282 C 
ATOM     14  C   UNL     1      -4.594   0.834  12.470  1.00  0.00     0.202 C 
ATOM     15  O   UNL     1      -2.232   0.345  11.995  1.00  0.00    -0.341 OA
ATOM     16  C   UNL     1      -4.348   2.348  12.718  1.00  0.00     0.179 C 
ATOM     17  C   UNL     1      -2.075   1.731  11.697  1.00  0.00     0.178 C 
ATOM     18  C   UNL     1      -2.834   2.676  12.666  1.00  0.00     0.177 C 
BRANCH  14  19
ATOM     19  O   UNL     1      -5.734   0.380  13.161  1.00  0.00    -0.385 OA
ATOM     20  H   UNL     1      -5.494  -0.472  13.607  1.00  0.00     0.211 HD
ENDBRANCH  14  19
BRANCH  16  21
ATOM     21  O   UNL     1      -4.866   2.735  13.968  1.00  0.00    -0.387 OA
ATOM     22  H   UNL     1      -5.489   2.014  14.256  1.00  0.00     0.211 HD
ENDBRANCH  16  21
BRANCH  17  23
ATOM     23  C   UNL     1      -2.422   1.987  10.213  1.00  0.00     0.191 C 
BRANCH  23  24
ATOM     24  O   UNL     1      -1.821   3.176   9.769  1.00  0.00    -0.394 OA
ATOM     25  H   UNL     1      -0.881   2.947   9.537  1.00  0.00     0.210 HD
ENDBRANCH  23  24
ENDBRANCH  17  23
BRANCH  18  26
ATOM     26  O   UNL     1      -2.596   4.029  12.370  1.00  0.00    -0.387 OA
ATOM     27  H   UNL     1      -1.845   4.080  11.723  1.00  0.00     0.211 HD
ENDBRANCH  18  26
ENDBRANCH  12  13
ENDBRANCH   7  12
BRANCH   4  28
ATOM     28  O   UNL     1      -4.747  -2.725   7.443  1.00  0.00    -0.365 OA
ATOM     29  H   UNL     1      -4.686  -3.635   7.052  1.00  0.00     0.214 HD
ENDBRANCH   4  28
BRANCH   8  30
ATOM     30  C   UNL     1      -6.165  -2.610  12.035  1.00  0.00     0.249 C 
BRANCH  30  31
ATOM     31  O   UNL     1      -6.132  -3.804  12.809  1.00  0.00    -0.461 OA
BRANCH  31  32
ATOM     32  C   UNL     1      -5.980  -3.821  14.197  1.00  0.00     0.338 C 
ATOM     33  O   UNL     1      -5.480  -2.826  14.794  1.00  0.00    -0.246 OA
BRANCH  32  34
ATOM     34  C   UNL     1      -6.421  -5.010  14.956  1.00  0.00     0.060 A 
ATOM     35  C   UNL     1      -5.484  -5.763  15.691  1.00  0.00     0.015 A 
ATOM     36  C   UNL     1      -7.767  -5.417  14.949  1.00  0.00     0.015 A 
ATOM     37  C   UNL     1      -5.888  -6.901  16.397  1.00  0.00     0.001 A 
ATOM     38  C   UNL     1      -8.165  -6.554  15.658  1.00  0.00     0.001 A 
ATOM     39  C   UNL     1      -7.227  -7.298  16.376  1.00  0.00     0.000 A 
ENDBRANCH  32  34
ENDBRANCH  31  32
ENDBRANCH  30  31
ENDBRANCH   8  30
TORSDOF 12
ENDMDL
MODEL 8
REMARK VINA RESULT:    -7.980      2.138      6.225
REMARK INTER + INTRA:         -13.598
REMARK INTER:                 -12.907
REMARK INTRA:                  -0.691
REMARK UNBOUND:                -1.186
REMARK SMILES C[C@@]12C[C@@]3(O)O[C@@H](O1)[C@]1(COC(=O)c4ccccc4)[C@H]3C[C@@]12O[C@H]1O[C@@H](CO)[C@@H](O)[C@H](O)[C@@H]1O
REMARK SMILES IDX 1 1 2 2 3 3 4 4 20 5 21 6 22 7 9 8 7 9 8 10 6 11 23 12 24 13
REMARK SMILES IDX 33 14 25 15 31 16 26 17 29 18 34 19 32 21 27 23 28 24 30 26
REMARK SMILES IDX 5 28 10 30 11 31 12 32 13 33 14 34 15 35 19 36 16 37 18 38
REMARK SMILES IDX 17 39
REMARK H PARENT 34 20 32 22 28 25 30 27 5 29
REMARK Flexibility Score: inf
ROOT
ATOM      1  C   UNL     1      -1.824   3.891   9.770  1.00  0.00     0.046 C 
ATOM      2  C   UNL     1      -1.761   2.770   8.737  1.00  0.00     0.104 C 
ATOM      3  C   UNL     1      -2.223   3.264   7.317  1.00  0.00     0.104 C 
ATOM      4  C   UNL     1      -2.167   1.962   6.441  1.00  0.00     0.175 C 
ATOM      5  C   UNL     1      -2.907   0.790   7.161  1.00  0.00     0.070 C 
ATOM      6  C   UNL     1      -3.849   1.262   8.277  1.00  0.00     0.050 C 
ATOM      7  C   UNL     1      -2.573   1.483   9.133  1.00  0.00     0.115 C 
ATOM      8  C   UNL     1      -1.854   0.493   8.221  1.00  0.00     0.096 C 
ATOM      9  C   UNL     1      -0.573   1.162   7.759  1.00  0.00     0.267 C 
ATOM     10  O   UNL     1      -0.431   2.316   8.570  1.00  0.00    -0.342 OA
ATOM     11  O   UNL     1      -0.811   1.560   6.419  1.00  0.00    -0.320 OA
ENDROOT
BRANCH   7  12
ATOM     12  O   UNL     1      -2.512   1.114  10.509  1.00  0.00    -0.339 OA
BRANCH  12  13
ATOM     13  C   UNL     1      -3.741   1.306  11.188  1.00  0.00     0.282 C 
ATOM     14  C   UNL     1      -3.506   1.142  12.709  1.00  0.00     0.202 C 
ATOM     15  O   UNL     1      -4.665   0.341  10.694  1.00  0.00    -0.341 OA
ATOM     16  C   UNL     1      -4.818   1.383  13.506  1.00  0.00     0.179 C 
ATOM     17  C   UNL     1      -5.782   0.051  11.535  1.00  0.00     0.178 C 
ATOM     18  C   UNL     1      -6.060   1.132  12.612  1.00  0.00     0.177 C 
BRANCH  14  19
ATOM     19  O   UNL     1      -2.466   1.972  13.170  1.00  0.00    -0.385 OA
ATOM     20  H   UNL     1      -2.795   2.445  13.977  1.00  0.00     0.211 HD
ENDBRANCH  14  19
BRANCH  16  21
ATOM     21  O   UNL     1      -4.859   2.699  14.003  1.00  0.00    -0.387 OA
ATOM     22  H   UNL     1      -4.098   2.791  14.638  1.00  0.00     0.211 HD
ENDBRANCH  16  21
BRANCH  17  23
ATOM     23  C   UNL     1      -5.631  -1.366  12.129  1.00  0.00     0.191 C 
BRANCH  23  24
ATOM     24  O   UNL     1      -6.894  -1.933  12.369  1.00  0.00    -0.394 OA
ATOM     25  H   UNL     1      -6.761  -2.634  13.062  1.00  0.00     0.210 HD
ENDBRANCH  23  24
ENDBRANCH  17  23
BRANCH  18  26
ATOM     26  O   UNL     1      -7.205   0.833  13.370  1.00  0.00    -0.387 OA
ATOM     27  H   UNL     1      -7.924   1.467  13.112  1.00  0.00     0.211 HD
ENDBRANCH  18  26
ENDBRANCH  12  13
ENDBRANCH   7  12
BRANCH   4  28
ATOM     28  O   UNL     1      -2.668   2.168   5.148  1.00  0.00    -0.365 OA
ATOM     29  H   UNL     1      -2.722   1.276   4.718  1.00  0.00     0.214 HD
ENDBRANCH   4  28
BRANCH   8  30
ATOM     30  C   UNL     1      -1.755  -0.976   8.667  1.00  0.00     0.249 C 
BRANCH  30  31
ATOM     31  O   UNL     1      -0.381  -1.347   8.716  1.00  0.00    -0.461 OA
BRANCH  31  32
ATOM     32  C   UNL     1       0.204  -2.002   9.801  1.00  0.00     0.338 C 
ATOM     33  O   UNL     1       1.337  -2.549   9.677  1.00  0.00    -0.246 OA
BRANCH  32  34
ATOM     34  C   UNL     1      -0.510  -2.036  11.094  1.00  0.00     0.060 A 
ATOM     35  C   UNL     1      -0.050  -1.256  12.173  1.00  0.00     0.015 A 
ATOM     36  C   UNL     1      -1.642  -2.851  11.276  1.00  0.00     0.015 A 
ATOM     37  C   UNL     1      -0.708  -1.297  13.407  1.00  0.00     0.001 A 
ATOM     38  C   UNL     1      -2.296  -2.886  12.510  1.00  0.00     0.001 A 
ATOM     39  C   UNL     1      -1.827  -2.115  13.576  1.00  0.00     0.000 A 
ENDBRANCH  32  34
ENDBRANCH  31  32
ENDBRANCH  30  31
ENDBRANCH   8  30
TORSDOF 12
ENDMDL
MODEL 9
REMARK VINA RESULT:    -7.607      1.108      2.002
REMARK INTER + INTRA:         -13.018
REMARK INTER:                 -13.512
REMARK INTRA:                   0.493
REMARK UNBOUND:                -1.186
REMARK SMILES C[C@@]12C[C@@]3(O)O[C@@H](O1)[C@]1(COC(=O)c4ccccc4)[C@H]3C[C@@]12O[C@H]1O[C@@H](CO)[C@@H](O)[C@H](O)[C@@H]1O
REMARK SMILES IDX 1 1 2 2 3 3 4 4 20 5 21 6 22 7 9 8 7 9 8 10 6 11 23 12 24 13
REMARK SMILES IDX 33 14 25 15 31 16 26 17 29 18 34 19 32 21 27 23 28 24 30 26
REMARK SMILES IDX 5 28 10 30 11 31 12 32 13 33 14 34 15 35 19 36 16 37 18 38
REMARK SMILES IDX 17 39
REMARK H PARENT 34 20 32 22 28 25 30 27 5 29
REMARK Flexibility Score: inf
ROOT
ATOM      1  C   UNL     1      -5.991   0.952   9.343  1.00  0.00     0.046 C 
ATOM      2  C   UNL     1      -5.236   0.703  10.644  1.00  0.00     0.104 C 
ATOM      3  C   UNL     1      -5.488   1.851  11.690  1.00  0.00     0.104 C 
ATOM      4  C   UNL     1      -4.569   1.453  12.899  1.00  0.00     0.175 C 
ATOM      5  C   UNL     1      -3.125   1.128  12.401  1.00  0.00     0.070 C 
ATOM      6  C   UNL     1      -2.831   1.674  10.997  1.00  0.00     0.050 C 
ATOM      7  C   UNL     1      -3.688   0.495  10.460  1.00  0.00     0.115 C 
ATOM      8  C   UNL     1      -3.416  -0.230  11.775  1.00  0.00     0.096 C 
ATOM      9  C   UNL     1      -4.758  -0.680  12.321  1.00  0.00     0.267 C 
ATOM     10  O   UNL     1      -5.684  -0.486  11.266  1.00  0.00    -0.342 OA
ATOM     11  O   UNL     1      -5.061   0.216  13.378  1.00  0.00    -0.320 OA
ENDROOT
BRANCH   7  12
ATOM     12  O   UNL     1      -3.299  -0.264   9.318  1.00  0.00    -0.339 OA
BRANCH  12  13
ATOM     13  C   UNL     1      -2.654   0.518   8.327  1.00  0.00     0.282 C 
ATOM     14  C   UNL     1      -1.161   0.672   8.702  1.00  0.00     0.202 C 
ATOM     15  O   UNL     1      -3.313   1.780   8.273  1.00  0.00    -0.341 OA
ATOM     16  C   UNL     1      -0.396   1.489   7.624  1.00  0.00     0.179 C 
ATOM     17  C   UNL     1      -2.568   2.854   7.700  1.00  0.00     0.178 C 
ATOM     18  C   UNL     1      -1.368   2.399   6.830  1.00  0.00     0.177 C 
BRANCH  14  19
ATOM     19  O   UNL     1      -0.548  -0.575   8.930  1.00  0.00    -0.385 OA
ATOM     20  H   UNL     1      -0.001  -0.791   8.132  1.00  0.00     0.211 HD
ENDBRANCH  14  19
BRANCH  16  21
ATOM     21  O   UNL     1       0.271   0.628   6.733  1.00  0.00    -0.387 OA
ATOM     22  H   UNL     1       0.932   0.114   7.270  1.00  0.00     0.211 HD
ENDBRANCH  16  21
BRANCH  17  23
ATOM     23  C   UNL     1      -2.163   3.854   8.806  1.00  0.00     0.191 C 
BRANCH  23  24
ATOM     24  O   UNL     1      -1.930   5.125   8.255  1.00  0.00    -0.394 OA
ATOM     25  H   UNL     1      -2.394   5.778   8.845  1.00  0.00     0.210 HD
ENDBRANCH  23  24
ENDBRANCH  17  23
BRANCH  18  26
ATOM     26  O   UNL     1      -0.708   3.489   6.237  1.00  0.00    -0.387 OA
ATOM     27  H   UNL     1      -0.102   3.891   6.913  1.00  0.00     0.211 HD
ENDBRANCH  18  26
ENDBRANCH  12  13
ENDBRANCH   7  12
BRANCH   4  28
ATOM     28  O   UNL     1      -4.558   2.430  13.904  1.00  0.00    -0.365 OA
ATOM     29  H   UNL     1      -3.893   3.113  13.630  1.00  0.00     0.214 HD
ENDBRANCH   4  28
BRANCH   8  30
ATOM     30  C   UNL     1      -2.264  -1.247  11.827  1.00  0.00     0.249 C 
BRANCH  30  31
ATOM     31  O   UNL     1      -2.760  -2.475  12.350  1.00  0.00    -0.461 OA
BRANCH  31  32
ATOM     32  C   UNL     1      -3.011  -3.603  11.567  1.00  0.00     0.338 C 
ATOM     33  O   UNL     1      -2.642  -4.745  11.962  1.00  0.00    -0.246 OA
BRANCH  32  34
ATOM     34  C   UNL     1      -3.722  -3.445  10.281  1.00  0.00     0.060 A 
ATOM     35  C   UNL     1      -5.130  -3.464  10.248  1.00  0.00     0.015 A 
ATOM     36  C   UNL     1      -3.014  -3.290   9.075  1.00  0.00     0.015 A 
ATOM     37  C   UNL     1      -5.811  -3.335   9.033  1.00  0.00     0.001 A 
ATOM     38  C   UNL     1      -3.701  -3.159   7.865  1.00  0.00     0.001 A 
ATOM     39  C   UNL     1      -5.097  -3.188   7.843  1.00  0.00     0.000 A 
ENDBRANCH  32  34
ENDBRANCH  31  32
ENDBRANCH  30  31
ENDBRANCH   8  30
TORSDOF 12
ENDMDL
