MODEL 1
REMARK VINA RESULT:    -3.332      0.000      0.000
REMARK INTER + INTRA:          -9.052
REMARK INTER:                  -6.448
REMARK INTRA:                  -2.604
REMARK UNBOUND:                -2.604
REMARK SMILES CCCCCCCCCCCCCCCCCC(=O)[O-]
REMARK SMILES IDX 10 1 11 2 12 3 13 4 14 5 15 6 16 7 17 8 18 9 19 10 20 11
REMARK SMILES IDX 9 12 8 13 7 14 6 15 5 16 4 17 3 18 2 19 1 20
REMARK H PARENT
REMARK Flexibility Score: inf
ROOT
ATOM      1  C   UNL     1      53.732  56.989  48.622  1.00  0.00     0.000 C 
ENDROOT
BRANCH   1   2
ATOM      2  C   UNL     1      53.108  55.593  48.442  1.00  0.00     0.000 C 
BRANCH   2   3
ATOM      3  C   UNL     1      54.146  54.535  48.034  1.00  0.00     0.000 C 
BRANCH   3   4
ATOM      4  C   UNL     1      53.532  53.399  47.198  1.00  0.00     0.000 C 
BRANCH   4   5
ATOM      5  C   UNL     1      52.700  52.428  48.052  1.00  0.00     0.000 C 
BRANCH   5   6
ATOM      6  C   UNL     1      53.534  51.754  49.151  1.00  0.00     0.000 C 
BRANCH   6   7
ATOM      7  C   UNL     1      52.728  51.624  50.452  1.00  0.00     0.006 C 
BRANCH   7   8
ATOM      8  C   UNL     1      51.884  52.874  50.743  1.00  0.00     0.053 C 
BRANCH   8   9
ATOM      9  C   UNL     1      52.545  53.769  51.743  1.00  0.00     0.041 C 
ATOM     10  O   UNL     1      52.312  55.005  51.734  1.00  0.00    -0.550 OA
ATOM     11  O   UNL     1      53.443  53.245  52.662  1.00  0.00    -0.550 OA
ENDBRANCH   8   9
ENDBRANCH   7   8
ENDBRANCH   6   7
ENDBRANCH   5   6
ENDBRANCH   4   5
ENDBRANCH   3   4
ENDBRANCH   2   3
ENDBRANCH   1   2
BRANCH   1  12
ATOM     12  C   UNL     1      52.771  58.122  48.204  1.00  0.00     0.000 C 
BRANCH  12  13
ATOM     13  C   UNL     1      53.466  59.297  47.489  1.00  0.00    -0.000 C 
BRANCH  13  14
ATOM     14  C   UNL     1      54.798  58.946  46.797  1.00  0.00    -0.000 C 
BRANCH  14  15
ATOM     15  C   UNL     1      54.678  58.606  45.299  1.00  0.00    -0.000 C 
BRANCH  15  16
ATOM     16  C   UNL     1      55.357  57.274  44.933  1.00  0.00    -0.000 C 
BRANCH  16  17
ATOM     17  C   UNL     1      54.350  56.119  44.783  1.00  0.00    -0.000 C 
BRANCH  17  18
ATOM     18  C   UNL     1      52.934  56.561  44.358  1.00  0.00    -0.000 C 
BRANCH  18  19
ATOM     19  C   UNL     1      51.850  56.127  45.357  1.00  0.00    -0.003 C 
ATOM     20  C   UNL     1      50.540  56.870  45.099  1.00  0.00     0.004 C 
ENDBRANCH  18  19
ENDBRANCH  17  18
ENDBRANCH  16  17
ENDBRANCH  15  16
ENDBRANCH  14  15
ENDBRANCH  13  14
ENDBRANCH  12  13
ENDBRANCH   1  12
TORSDOF 16
ENDMDL
MODEL 2
REMARK VINA RESULT:    -3.228      3.093      6.533
REMARK INTER + INTRA:          -8.851
REMARK INTER:                  -6.314
REMARK INTRA:                  -2.537
REMARK UNBOUND:                -2.604
REMARK SMILES CCCCCCCCCCCCCCCCCC(=O)[O-]
REMARK SMILES IDX 10 1 11 2 12 3 13 4 14 5 15 6 16 7 17 8 18 9 19 10 20 11
REMARK SMILES IDX 9 12 8 13 7 14 6 15 5 16 4 17 3 18 2 19 1 20
REMARK H PARENT
REMARK Flexibility Score: inf
ROOT
ATOM      1  C   UNL     1      54.490  52.852  47.348  1.00  0.00     0.000 C 
ENDROOT
BRANCH   1   2
ATOM      2  C   UNL     1      55.381  53.019  48.593  1.00  0.00     0.000 C 
BRANCH   2   3
ATOM      3  C   UNL     1      55.987  54.427  48.696  1.00  0.00     0.000 C 
BRANCH   3   4
ATOM      4  C   UNL     1      54.944  55.492  49.074  1.00  0.00     0.000 C 
BRANCH   4   5
ATOM      5  C   UNL     1      54.678  56.483  47.929  1.00  0.00     0.000 C 
BRANCH   5   6
ATOM      6  C   UNL     1      53.543  57.464  48.256  1.00  0.00     0.000 C 
BRANCH   6   7
ATOM      7  C   UNL     1      52.503  57.500  47.126  1.00  0.00     0.006 C 
BRANCH   7   8
ATOM      8  C   UNL     1      52.370  56.145  46.413  1.00  0.00     0.053 C 
BRANCH   8   9
ATOM      9  C   UNL     1      52.296  56.305  44.928  1.00  0.00     0.041 C 
ATOM     10  O   UNL     1      51.182  56.259  44.345  1.00  0.00    -0.550 OA
ATOM     11  O   UNL     1      53.456  56.469  44.185  1.00  0.00    -0.550 OA
ENDBRANCH   8   9
ENDBRANCH   7   8
ENDBRANCH   6   7
ENDBRANCH   5   6
ENDBRANCH   4   5
ENDBRANCH   3   4
ENDBRANCH   2   3
ENDBRANCH   1   2
BRANCH   1  12
ATOM     12  C   UNL     1      53.112  52.244  47.687  1.00  0.00     0.000 C 
BRANCH  12  13
ATOM     13  C   UNL     1      52.342  53.014  48.777  1.00  0.00    -0.000 C 
BRANCH  13  14
ATOM     14  C   UNL     1      52.261  52.307  50.144  1.00  0.00    -0.000 C 
BRANCH  14  15
ATOM     15  C   UNL     1      51.969  53.236  51.337  1.00  0.00    -0.000 C 
BRANCH  15  16
ATOM     16  C   UNL     1      53.248  53.766  52.008  1.00  0.00    -0.000 C 
BRANCH  16  17
ATOM     17  C   UNL     1      53.209  55.289  52.236  1.00  0.00    -0.000 C 
BRANCH  17  18
ATOM     18  C   UNL     1      52.120  56.024  51.426  1.00  0.00    -0.000 C 
BRANCH  18  19
ATOM     19  C   UNL     1      52.061  57.528  51.737  1.00  0.00    -0.003 C 
ATOM     20  C   UNL     1      53.461  58.093  51.972  1.00  0.00     0.004 C 
ENDBRANCH  18  19
ENDBRANCH  17  18
ENDBRANCH  16  17
ENDBRANCH  15  16
ENDBRANCH  14  15
ENDBRANCH  13  14
ENDBRANCH  12  13
ENDBRANCH   1  12
TORSDOF 16
ENDMDL
MODEL 3
REMARK VINA RESULT:    -3.227      2.470      4.433
REMARK INTER + INTRA:          -8.850
REMARK INTER:                  -6.342
REMARK INTRA:                  -2.507
REMARK UNBOUND:                -2.604
REMARK SMILES CCCCCCCCCCCCCCCCCC(=O)[O-]
REMARK SMILES IDX 10 1 11 2 12 3 13 4 14 5 15 6 16 7 17 8 18 9 19 10 20 11
REMARK SMILES IDX 9 12 8 13 7 14 6 15 5 16 4 17 3 18 2 19 1 20
REMARK H PARENT
REMARK Flexibility Score: inf
ROOT
ATOM      1  C   UNL     1      55.931  54.135  50.788  1.00  0.00     0.000 C 
ENDROOT
BRANCH   1   2
ATOM      2  C   UNL     1      54.818  55.021  50.197  1.00  0.00     0.000 C 
BRANCH   2   3
ATOM      3  C   UNL     1      53.574  55.078  51.098  1.00  0.00     0.000 C 
BRANCH   3   4
ATOM      4  C   UNL     1      52.383  54.304  50.508  1.00  0.00     0.000 C 
BRANCH   4   5
ATOM      5  C   UNL     1      51.960  53.120  51.394  1.00  0.00     0.000 C 
BRANCH   5   6
ATOM      6  C   UNL     1      52.099  51.771  50.673  1.00  0.00     0.000 C 
BRANCH   6   7
ATOM      7  C   UNL     1      53.207  50.918  51.309  1.00  0.00     0.006 C 
BRANCH   7   8
ATOM      8  C   UNL     1      53.022  49.419  51.029  1.00  0.00     0.053 C 
BRANCH   8   9
ATOM      9  C   UNL     1      53.315  48.589  52.238  1.00  0.00     0.041 C 
ATOM     10  O   UNL     1      52.993  47.373  52.261  1.00  0.00    -0.550 OA
ATOM     11  O   UNL     1      53.912  49.163  53.351  1.00  0.00    -0.550 OA
ENDBRANCH   8   9
ENDBRANCH   7   8
ENDBRANCH   6   7
ENDBRANCH   5   6
ENDBRANCH   4   5
ENDBRANCH   3   4
ENDBRANCH   2   3
ENDBRANCH   1   2
BRANCH   1  12
ATOM     12  C   UNL     1      56.091  52.803  50.025  1.00  0.00     0.000 C 
BRANCH  12  13
ATOM     13  C   UNL     1      55.788  52.907  48.518  1.00  0.00    -0.000 C 
BRANCH  13  14
ATOM     14  C   UNL     1      54.655  51.992  48.013  1.00  0.00    -0.000 C 
BRANCH  14  15
ATOM     15  C   UNL     1      53.479  52.727  47.343  1.00  0.00    -0.000 C 
BRANCH  15  16
ATOM     16  C   UNL     1      53.892  54.072  46.721  1.00  0.00    -0.000 C 
BRANCH  16  17
ATOM     17  C   UNL     1      52.797  55.146  46.855  1.00  0.00    -0.000 C 
BRANCH  17  18
ATOM     18  C   UNL     1      53.098  56.457  46.098  1.00  0.00    -0.000 C 
BRANCH  18  19
ATOM     19  C   UNL     1      53.025  56.293  44.572  1.00  0.00    -0.003 C 
ATOM     20  C   UNL     1      51.585  56.413  44.077  1.00  0.00     0.004 C 
ENDBRANCH  18  19
ENDBRANCH  17  18
ENDBRANCH  16  17
ENDBRANCH  15  16
ENDBRANCH  14  15
ENDBRANCH  13  14
ENDBRANCH  12  13
ENDBRANCH   1  12
TORSDOF 16
ENDMDL
MODEL 4
REMARK VINA RESULT:    -3.223      2.791      6.349
REMARK INTER + INTRA:          -8.842
REMARK INTER:                  -5.845
REMARK INTRA:                  -2.997
REMARK UNBOUND:                -2.604
REMARK SMILES CCCCCCCCCCCCCCCCCC(=O)[O-]
REMARK SMILES IDX 10 1 11 2 12 3 13 4 14 5 15 6 16 7 17 8 18 9 19 10 20 11
REMARK SMILES IDX 9 12 8 13 7 14 6 15 5 16 4 17 3 18 2 19 1 20
REMARK H PARENT
REMARK Flexibility Score: inf
ROOT
ATOM      1  C   UNL     1      53.740  53.747  51.901  1.00  0.00     0.000 C 
ENDROOT
BRANCH   1   2
ATOM      2  C   UNL     1      53.992  55.220  51.534  1.00  0.00     0.000 C 
BRANCH   2   3
ATOM      3  C   UNL     1      52.810  55.847  50.776  1.00  0.00     0.000 C 
BRANCH   3   4
ATOM      4  C   UNL     1      52.626  57.339  51.102  1.00  0.00     0.000 C 
BRANCH   4   5
ATOM      5  C   UNL     1      52.723  58.226  49.850  1.00  0.00     0.000 C 
BRANCH   5   6
ATOM      6  C   UNL     1      53.433  57.520  48.685  1.00  0.00     0.000 C 
BRANCH   6   7
ATOM      7  C   UNL     1      52.589  57.586  47.404  1.00  0.00     0.006 C 
BRANCH   7   8
ATOM      8  C   UNL     1      53.456  57.580  46.135  1.00  0.00     0.053 C 
BRANCH   8   9
ATOM      9  C   UNL     1      53.034  56.507  45.181  1.00  0.00     0.041 C 
ATOM     10  O   UNL     1      53.902  55.815  44.588  1.00  0.00    -0.550 OA
ATOM     11  O   UNL     1      51.688  56.294  44.921  1.00  0.00    -0.550 OA
ENDBRANCH   8   9
ENDBRANCH   7   8
ENDBRANCH   6   7
ENDBRANCH   5   6
ENDBRANCH   4   5
ENDBRANCH   3   4
ENDBRANCH   2   3
ENDBRANCH   1   2
BRANCH   1  12
ATOM     12  C   UNL     1      52.258  53.345  51.744  1.00  0.00     0.000 C 
BRANCH  12  13
ATOM     13  C   UNL     1      52.036  52.124  50.831  1.00  0.00    -0.000 C 
BRANCH  13  14
ATOM     14  C   UNL     1      53.323  51.450  50.316  1.00  0.00    -0.000 C 
BRANCH  14  15
ATOM     15  C   UNL     1      53.539  51.546  48.794  1.00  0.00    -0.000 C 
BRANCH  15  16
ATOM     16  C   UNL     1      52.535  52.486  48.106  1.00  0.00    -0.000 C 
BRANCH  16  17
ATOM     17  C   UNL     1      53.164  53.834  47.705  1.00  0.00    -0.000 C 
BRANCH  17  18
ATOM     18  C   UNL     1      54.653  53.747  47.309  1.00  0.00    -0.000 C 
BRANCH  18  19
ATOM     19  C   UNL     1      55.548  54.664  48.155  1.00  0.00    -0.003 C 
ATOM     20  C   UNL     1      56.418  53.850  49.112  1.00  0.00     0.004 C 
ENDBRANCH  18  19
ENDBRANCH  17  18
ENDBRANCH  16  17
ENDBRANCH  15  16
ENDBRANCH  14  15
ENDBRANCH  13  14
ENDBRANCH  12  13
ENDBRANCH   1  12
TORSDOF 16
ENDMDL
MODEL 5
REMARK VINA RESULT:    -3.162      1.172      2.802
REMARK INTER + INTRA:          -8.723
REMARK INTER:                  -5.742
REMARK INTRA:                  -2.982
REMARK UNBOUND:                -2.604
REMARK SMILES CCCCCCCCCCCCCCCCCC(=O)[O-]
REMARK SMILES IDX 10 1 11 2 12 3 13 4 14 5 15 6 16 7 17 8 18 9 19 10 20 11
REMARK SMILES IDX 9 12 8 13 7 14 6 15 5 16 4 17 3 18 2 19 1 20
REMARK H PARENT
REMARK Flexibility Score: inf
ROOT
ATOM      1  C   UNL     1      54.597  55.442  48.643  1.00  0.00     0.000 C 
ENDROOT
BRANCH   1   2
ATOM      2  C   UNL     1      55.260  54.469  47.651  1.00  0.00     0.000 C 
BRANCH   2   3
ATOM      3  C   UNL     1      55.429  53.059  48.237  1.00  0.00     0.000 C 
BRANCH   3   4
ATOM      4  C   UNL     1      54.234  52.143  47.923  1.00  0.00     0.000 C 
BRANCH   4   5
ATOM      5  C   UNL     1      53.435  51.773  49.184  1.00  0.00     0.000 C 
BRANCH   5   6
ATOM      6  C   UNL     1      52.221  52.689  49.397  1.00  0.00     0.000 C 
BRANCH   6   7
ATOM      7  C   UNL     1      52.020  53.000  50.887  1.00  0.00     0.006 C 
BRANCH   7   8
ATOM      8  C   UNL     1      53.284  53.583  51.536  1.00  0.00     0.053 C 
BRANCH   8   9
ATOM      9  C   UNL     1      53.077  54.994  51.987  1.00  0.00     0.041 C 
ATOM     10  O   UNL     1      53.828  55.492  52.865  1.00  0.00    -0.550 OA
ATOM     11  O   UNL     1      52.035  55.747  51.465  1.00  0.00    -0.550 OA
ENDBRANCH   8   9
ENDBRANCH   7   8
ENDBRANCH   6   7
ENDBRANCH   5   6
ENDBRANCH   4   5
ENDBRANCH   3   4
ENDBRANCH   2   3
ENDBRANCH   1   2
BRANCH   1  12
ATOM     12  C   UNL     1      53.283  56.039  48.094  1.00  0.00     0.000 C 
BRANCH  12  13
ATOM     13  C   UNL     1      52.779  55.358  46.807  1.00  0.00    -0.000 C 
BRANCH  13  14
ATOM     14  C   UNL     1      52.009  56.277  45.839  1.00  0.00    -0.000 C 
BRANCH  14  15
ATOM     15  C   UNL     1      52.791  56.689  44.578  1.00  0.00    -0.000 C 
BRANCH  15  16
ATOM     16  C   UNL     1      54.234  56.158  44.569  1.00  0.00    -0.000 C 
BRANCH  16  17
ATOM     17  C   UNL     1      55.275  57.267  44.810  1.00  0.00    -0.000 C 
BRANCH  17  18
ATOM     18  C   UNL     1      54.667  58.644  45.151  1.00  0.00    -0.000 C 
BRANCH  18  19
ATOM     19  C   UNL     1      54.833  59.017  46.632  1.00  0.00    -0.003 C 
ATOM     20  C   UNL     1      56.164  58.505  47.179  1.00  0.00     0.004 C 
ENDBRANCH  18  19
ENDBRANCH  17  18
ENDBRANCH  16  17
ENDBRANCH  15  16
ENDBRANCH  14  15
ENDBRANCH  13  14
ENDBRANCH  12  13
ENDBRANCH   1  12
TORSDOF 16
ENDMDL
MODEL 6
REMARK VINA RESULT:    -3.157      2.894      6.885
REMARK INTER + INTRA:          -8.715
REMARK INTER:                  -5.761
REMARK INTRA:                  -2.954
REMARK UNBOUND:                -2.604
REMARK SMILES CCCCCCCCCCCCCCCCCC(=O)[O-]
REMARK SMILES IDX 10 1 11 2 12 3 13 4 14 5 15 6 16 7 17 8 18 9 19 10 20 11
REMARK SMILES IDX 9 12 8 13 7 14 6 15 5 16 4 17 3 18 2 19 1 20
REMARK H PARENT
REMARK Flexibility Score: inf
ROOT
ATOM      1  C   UNL     1      54.521  54.409  47.877  1.00  0.00     0.000 C 
ENDROOT
BRANCH   1   2
ATOM      2  C   UNL     1      54.488  55.935  48.077  1.00  0.00     0.000 C 
BRANCH   2   3
ATOM      3  C   UNL     1      53.057  56.477  48.226  1.00  0.00     0.000 C 
BRANCH   3   4
ATOM      4  C   UNL     1      52.668  57.433  47.086  1.00  0.00     0.000 C 
BRANCH   4   5
ATOM      5  C   UNL     1      51.657  56.802  46.114  1.00  0.00     0.000 C 
BRANCH   5   6
ATOM      6  C   UNL     1      52.333  56.214  44.866  1.00  0.00     0.000 C 
BRANCH   6   7
ATOM      7  C   UNL     1      53.620  56.979  44.525  1.00  0.00     0.006 C 
BRANCH   7   8
ATOM      8  C   UNL     1      54.839  56.050  44.419  1.00  0.00     0.053 C 
BRANCH   8   9
ATOM      9  C   UNL     1      56.098  56.738  44.840  1.00  0.00     0.041 C 
ATOM     10  O   UNL     1      57.214  56.199  44.622  1.00  0.00    -0.550 OA
ATOM     11  O   UNL     1      56.041  57.955  45.504  1.00  0.00    -0.550 OA
ENDBRANCH   8   9
ENDBRANCH   7   8
ENDBRANCH   6   7
ENDBRANCH   5   6
ENDBRANCH   4   5
ENDBRANCH   3   4
ENDBRANCH   2   3
ENDBRANCH   1   2
BRANCH   1  12
ATOM     12  C   UNL     1      53.119  53.819  47.609  1.00  0.00     0.000 C 
BRANCH  12  13
ATOM     13  C   UNL     1      52.996  52.323  47.956  1.00  0.00    -0.000 C 
BRANCH  13  14
ATOM     14  C   UNL     1      53.893  51.844  49.114  1.00  0.00    -0.000 C 
BRANCH  14  15
ATOM     15  C   UNL     1      53.135  51.266  50.324  1.00  0.00    -0.000 C 
BRANCH  15  16
ATOM     16  C   UNL     1      51.920  52.118  50.730  1.00  0.00    -0.000 C 
BRANCH  16  17
ATOM     17  C   UNL     1      52.271  53.180  51.789  1.00  0.00    -0.000 C 
BRANCH  17  18
ATOM     18  C   UNL     1      52.439  54.608  51.226  1.00  0.00    -0.000 C 
BRANCH  18  19
ATOM     19  C   UNL     1      53.639  55.349  51.834  1.00  0.00    -0.003 C 
ATOM     20  C   UNL     1      54.939  54.588  51.577  1.00  0.00     0.004 C 
ENDBRANCH  18  19
ENDBRANCH  17  18
ENDBRANCH  16  17
ENDBRANCH  15  16
ENDBRANCH  14  15
ENDBRANCH  13  14
ENDBRANCH  12  13
ENDBRANCH   1  12
TORSDOF 16
ENDMDL
MODEL 7
REMARK VINA RESULT:    -3.121      2.768      6.992
REMARK INTER + INTRA:          -8.644
REMARK INTER:                  -6.538
REMARK INTRA:                  -2.106
REMARK UNBOUND:                -2.604
REMARK SMILES CCCCCCCCCCCCCCCCCC(=O)[O-]
REMARK SMILES IDX 10 1 11 2 12 3 13 4 14 5 15 6 16 7 17 8 18 9 19 10 20 11
REMARK SMILES IDX 9 12 8 13 7 14 6 15 5 16 4 17 3 18 2 19 1 20
REMARK H PARENT
REMARK Flexibility Score: inf
ROOT
ATOM      1  C   UNL     1      54.010  54.510  48.829  1.00  0.00     0.000 C 
ENDROOT
BRANCH   1   2
ATOM      2  C   UNL     1      53.294  53.829  47.648  1.00  0.00     0.000 C 
BRANCH   2   3
ATOM      3  C   UNL     1      54.228  52.912  46.844  1.00  0.00     0.000 C 
BRANCH   3   4
ATOM      4  C   UNL     1      55.579  53.577  46.530  1.00  0.00     0.000 C 
BRANCH   4   5
ATOM      5  C   UNL     1      55.475  54.598  45.384  1.00  0.00     0.000 C 
BRANCH   5   6
ATOM      6  C   UNL     1      55.617  56.046  45.876  1.00  0.00     0.000 C 
BRANCH   6   7
ATOM      7  C   UNL     1      54.404  56.891  45.460  1.00  0.00     0.006 C 
BRANCH   7   8
ATOM      8  C   UNL     1      53.445  56.120  44.540  1.00  0.00     0.053 C 
BRANCH   8   9
ATOM      9  C   UNL     1      52.014  56.394  44.876  1.00  0.00     0.041 C 
ATOM     10  O   UNL     1      51.673  56.587  46.072  1.00  0.00    -0.550 OA
ATOM     11  O   UNL     1      51.051  56.403  43.876  1.00  0.00    -0.550 OA
ENDBRANCH   8   9
ENDBRANCH   7   8
ENDBRANCH   6   7
ENDBRANCH   5   6
ENDBRANCH   4   5
ENDBRANCH   3   4
ENDBRANCH   2   3
ENDBRANCH   1   2
BRANCH   1  12
ATOM     12  C   UNL     1      53.121  55.556  49.535  1.00  0.00     0.000 C 
BRANCH  12  13
ATOM     13  C   UNL     1      52.844  55.239  51.017  1.00  0.00    -0.000 C 
BRANCH  13  14
ATOM     14  C   UNL     1      51.934  54.020  51.266  1.00  0.00    -0.000 C 
BRANCH  14  15
ATOM     15  C   UNL     1      52.669  52.745  51.719  1.00  0.00    -0.000 C 
BRANCH  15  16
ATOM     16  C   UNL     1      52.349  51.525  50.837  1.00  0.00    -0.000 C 
BRANCH  16  17
ATOM     17  C   UNL     1      53.582  51.003  50.078  1.00  0.00    -0.000 C 
BRANCH  17  18
ATOM     18  C   UNL     1      53.970  49.549  50.420  1.00  0.00    -0.000 C 
BRANCH  18  19
ATOM     19  C   UNL     1      52.918  48.842  51.288  1.00  0.00    -0.003 C 
ATOM     20  C   UNL     1      53.557  48.236  52.537  1.00  0.00     0.004 C 
ENDBRANCH  18  19
ENDBRANCH  17  18
ENDBRANCH  16  17
ENDBRANCH  15  16
ENDBRANCH  14  15
ENDBRANCH  13  14
ENDBRANCH  12  13
ENDBRANCH   1  12
TORSDOF 16
ENDMDL
MODEL 8
REMARK VINA RESULT:    -3.091      1.809      3.664
REMARK INTER + INTRA:          -8.585
REMARK INTER:                  -5.604
REMARK INTRA:                  -2.981
REMARK UNBOUND:                -2.604
REMARK SMILES CCCCCCCCCCCCCCCCCC(=O)[O-]
REMARK SMILES IDX 10 1 11 2 12 3 13 4 14 5 15 6 16 7 17 8 18 9 19 10 20 11
REMARK SMILES IDX 9 12 8 13 7 14 6 15 5 16 4 17 3 18 2 19 1 20
REMARK H PARENT
REMARK Flexibility Score: inf
ROOT
ATOM      1  C   UNL     1      54.744  53.043  47.722  1.00  0.00     0.000 C 
ENDROOT
BRANCH   1   2
ATOM      2  C   UNL     1      53.234  53.217  47.475  1.00  0.00     0.000 C 
BRANCH   2   3
ATOM      3  C   UNL     1      52.383  52.653  48.624  1.00  0.00     0.000 C 
BRANCH   3   4
ATOM      4  C   UNL     1      53.062  52.814  49.995  1.00  0.00     0.000 C 
BRANCH   4   5
ATOM      5  C   UNL     1      52.103  53.369  51.061  1.00  0.00     0.000 C 
BRANCH   5   6
ATOM      6  C   UNL     1      52.312  54.870  51.311  1.00  0.00     0.000 C 
BRANCH   6   7
ATOM      7  C   UNL     1      53.586  55.120  52.131  1.00  0.00     0.006 C 
BRANCH   7   8
ATOM      8  C   UNL     1      54.101  56.560  51.984  1.00  0.00     0.053 C 
BRANCH   8   9
ATOM      9  C   UNL     1      53.063  57.562  52.378  1.00  0.00     0.041 C 
ATOM     10  O   UNL     1      52.672  57.628  53.573  1.00  0.00    -0.550 OA
ATOM     11  O   UNL     1      52.503  58.399  51.424  1.00  0.00    -0.550 OA
ENDBRANCH   8   9
ENDBRANCH   7   8
ENDBRANCH   6   7
ENDBRANCH   5   6
ENDBRANCH   4   5
ENDBRANCH   3   4
ENDBRANCH   2   3
ENDBRANCH   1   2
BRANCH   1  12
ATOM     12  C   UNL     1      55.527  54.360  47.539  1.00  0.00     0.000 C 
BRANCH  12  13
ATOM     13  C   UNL     1      55.339  55.363  48.693  1.00  0.00    -0.000 C 
BRANCH  13  14
ATOM     14  C   UNL     1      54.723  56.717  48.289  1.00  0.00    -0.000 C 
BRANCH  14  15
ATOM     15  C   UNL     1      53.186  56.774  48.355  1.00  0.00    -0.000 C 
BRANCH  15  16
ATOM     16  C   UNL     1      52.559  57.437  47.116  1.00  0.00    -0.000 C 
BRANCH  16  17
ATOM     17  C   UNL     1      52.087  56.409  46.070  1.00  0.00    -0.000 C 
BRANCH  17  18
ATOM     18  C   UNL     1      52.762  56.553  44.689  1.00  0.00    -0.000 C 
BRANCH  18  19
ATOM     19  C   UNL     1      54.170  55.939  44.649  1.00  0.00    -0.003 C 
ATOM     20  C   UNL     1      55.240  57.029  44.599  1.00  0.00     0.004 C 
ENDBRANCH  18  19
ENDBRANCH  17  18
ENDBRANCH  16  17
ENDBRANCH  15  16
ENDBRANCH  14  15
ENDBRANCH  13  14
ENDBRANCH  12  13
ENDBRANCH   1  12
TORSDOF 16
ENDMDL
MODEL 9
REMARK VINA RESULT:    -3.078      2.739      5.506
REMARK INTER + INTRA:          -8.561
REMARK INTER:                  -6.376
REMARK INTRA:                  -2.185
REMARK UNBOUND:                -2.604
REMARK SMILES CCCCCCCCCCCCCCCCCC(=O)[O-]
REMARK SMILES IDX 10 1 11 2 12 3 13 4 14 5 15 6 16 7 17 8 18 9 19 10 20 11
REMARK SMILES IDX 9 12 8 13 7 14 6 15 5 16 4 17 3 18 2 19 1 20
REMARK H PARENT
REMARK Flexibility Score: inf
ROOT
ATOM      1  C   UNL     1      52.750  53.385  52.165  1.00  0.00     0.000 C 
ENDROOT
BRANCH   1   2
ATOM      2  C   UNL     1      52.052  52.614  51.030  1.00  0.00     0.000 C 
BRANCH   2   3
ATOM      3  C   UNL     1      52.931  51.490  50.458  1.00  0.00     0.000 C 
BRANCH   3   4
ATOM      4  C   UNL     1      53.485  51.829  49.063  1.00  0.00     0.000 C 
BRANCH   4   5
ATOM      5  C   UNL     1      52.589  52.821  48.303  1.00  0.00     0.000 C 
BRANCH   5   6
ATOM      6  C   UNL     1      53.367  53.624  47.250  1.00  0.00     0.000 C 
BRANCH   6   7
ATOM      7  C   UNL     1      52.879  55.079  47.195  1.00  0.00     0.006 C 
BRANCH   7   8
ATOM      8  C   UNL     1      53.235  55.763  45.867  1.00  0.00     0.053 C 
BRANCH   8   9
ATOM      9  C   UNL     1      52.014  56.216  45.131  1.00  0.00     0.041 C 
ATOM     10  O   UNL     1      51.973  56.144  43.875  1.00  0.00    -0.550 OA
ATOM     11  O   UNL     1      50.938  56.748  45.826  1.00  0.00    -0.550 OA
ENDBRANCH   8   9
ENDBRANCH   7   8
ENDBRANCH   6   7
ENDBRANCH   5   6
ENDBRANCH   4   5
ENDBRANCH   3   4
ENDBRANCH   2   3
ENDBRANCH   1   2
BRANCH   1  12
ATOM     12  C   UNL     1      53.877  54.304  51.647  1.00  0.00     0.000 C 
BRANCH  12  13
ATOM     13  C   UNL     1      53.369  55.557  50.908  1.00  0.00    -0.000 C 
BRANCH  13  14
ATOM     14  C   UNL     1      52.000  56.084  51.379  1.00  0.00    -0.000 C 
BRANCH  14  15
ATOM     15  C   UNL     1      51.997  57.552  51.846  1.00  0.00    -0.000 C 
BRANCH  15  16
ATOM     16  C   UNL     1      53.006  58.425  51.080  1.00  0.00    -0.000 C 
BRANCH  16  17
ATOM     17  C   UNL     1      52.365  59.164  49.891  1.00  0.00    -0.000 C 
BRANCH  17  18
ATOM     18  C   UNL     1      52.963  58.795  48.517  1.00  0.00    -0.000 C 
BRANCH  18  19
ATOM     19  C   UNL     1      54.379  58.210  48.623  1.00  0.00    -0.003 C 
ATOM     20  C   UNL     1      55.170  58.456  47.339  1.00  0.00     0.004 C 
ENDBRANCH  18  19
ENDBRANCH  17  18
ENDBRANCH  16  17
ENDBRANCH  15  16
ENDBRANCH  14  15
ENDBRANCH  13  14
ENDBRANCH  12  13
ENDBRANCH   1  12
TORSDOF 16
ENDMDL
