MODEL 1
REMARK VINA RESULT:    -4.332      0.000      0.000
REMARK INTER + INTRA:         -11.433
REMARK INTER:                  -9.398
REMARK INTRA:                  -2.035
REMARK UNBOUND:                -2.035
REMARK SMILES CCCCCCCCCCCCCCCCCCCCCC(=O)[O-]
REMARK SMILES IDX 12 1 11 2 10 3 9 4 8 5 7 6 6 7 5 8 4 9 3 10 2 11 1 12 13 13
REMARK SMILES IDX 14 14 15 15 16 16 17 17 18 18 19 19 20 20 21 21 22 22 23 23
REMARK SMILES IDX 24 24
REMARK H PARENT
REMARK Flexibility Score: inf
ROOT
ATOM      1  C   UNL     1      -8.675  -4.385  -6.226  1.00  0.00     0.000 C 
ENDROOT
BRANCH   1   2
ATOM      2  C   UNL     1      -8.971  -5.394  -5.106  1.00  0.00     0.000 C 
BRANCH   2   3
ATOM      3  C   UNL     1     -10.472  -5.704  -5.029  1.00  0.00     0.000 C 
BRANCH   3   4
ATOM      4  C   UNL     1     -11.096  -5.089  -3.768  1.00  0.00    -0.000 C 
BRANCH   4   5
ATOM      5  C   UNL     1     -10.732  -3.606  -3.578  1.00  0.00    -0.000 C 
BRANCH   5   6
ATOM      6  C   UNL     1     -10.745  -3.113  -2.119  1.00  0.00    -0.000 C 
BRANCH   6   7
ATOM      7  C   UNL     1      -9.362  -3.192  -1.449  1.00  0.00    -0.000 C 
BRANCH   7   8
ATOM      8  C   UNL     1      -8.221  -2.820  -2.411  1.00  0.00    -0.000 C 
BRANCH   8   9
ATOM      9  C   UNL     1      -7.482  -1.543  -1.975  1.00  0.00    -0.000 C 
BRANCH   9  10
ATOM     10  C   UNL     1      -8.414  -0.521  -1.302  1.00  0.00    -0.000 C 
BRANCH  10  11
ATOM     11  C   UNL     1      -7.681   0.756  -0.868  1.00  0.00    -0.003 C 
ATOM     12  C   UNL     1      -8.620   1.959  -0.878  1.00  0.00     0.004 C 
ENDBRANCH  10  11
ENDBRANCH   9  10
ENDBRANCH   8   9
ENDBRANCH   7   8
ENDBRANCH   6   7
ENDBRANCH   5   6
ENDBRANCH   4   5
ENDBRANCH   3   4
ENDBRANCH   2   3
ENDBRANCH   1   2
BRANCH   1  13
ATOM     13  C   UNL     1      -9.274  -4.810  -7.576  1.00  0.00     0.000 C 
BRANCH  13  14
ATOM     14  C   UNL     1      -8.356  -4.471  -8.765  1.00  0.00     0.000 C 
BRANCH  14  15
ATOM     15  C   UNL     1      -8.380  -5.552  -9.863  1.00  0.00     0.000 C 
BRANCH  15  16
ATOM     16  C   UNL     1      -7.042  -6.290 -10.064  1.00  0.00     0.000 C 
BRANCH  16  17
ATOM     17  C   UNL     1      -6.629  -7.115  -8.834  1.00  0.00     0.000 C 
BRANCH  17  18
ATOM     18  C   UNL     1      -5.431  -6.509  -8.086  1.00  0.00     0.000 C 
BRANCH  18  19
ATOM     19  C   UNL     1      -5.451  -6.809  -6.580  1.00  0.00     0.000 C 
BRANCH  19  20
ATOM     20  C   UNL     1      -4.366  -6.014  -5.842  1.00  0.00     0.006 C 
BRANCH  20  21
ATOM     21  C   UNL     1      -4.595  -4.506  -5.990  1.00  0.00     0.053 C 
BRANCH  21  22
ATOM     22  C   UNL     1      -3.369  -3.745  -5.595  1.00  0.00     0.041 C 
ATOM     23  O   UNL     1      -3.429  -2.500  -5.412  1.00  0.00    -0.550 OA
ATOM     24  O   UNL     1      -2.153  -4.404  -5.456  1.00  0.00    -0.550 OA
ENDBRANCH  21  22
ENDBRANCH  20  21
ENDBRANCH  19  20
ENDBRANCH  18  19
ENDBRANCH  17  18
ENDBRANCH  16  17
ENDBRANCH  15  16
ENDBRANCH  14  15
ENDBRANCH  13  14
ENDBRANCH   1  13
TORSDOF 20
ENDMDL
MODEL 2
REMARK VINA RESULT:    -4.323      2.281      6.949
REMARK INTER + INTRA:         -11.411
REMARK INTER:                  -9.171
REMARK INTRA:                  -2.240
REMARK UNBOUND:                -2.035
REMARK SMILES CCCCCCCCCCCCCCCCCCCCCC(=O)[O-]
REMARK SMILES IDX 12 1 11 2 10 3 9 4 8 5 7 6 6 7 5 8 4 9 3 10 2 11 1 12 13 13
REMARK SMILES IDX 14 14 15 15 16 16 17 17 18 18 19 19 20 20 21 21 22 22 23 23
REMARK SMILES IDX 24 24
REMARK H PARENT
REMARK Flexibility Score: inf
ROOT
ATOM      1  C   UNL     1      -8.917  -5.609  -4.882  1.00  0.00     0.000 C 
ENDROOT
BRANCH   1   2
ATOM      2  C   UNL     1      -8.242  -4.848  -6.034  1.00  0.00     0.000 C 
BRANCH   2   3
ATOM      3  C   UNL     1      -8.923  -5.163  -7.372  1.00  0.00     0.000 C 
BRANCH   3   4
ATOM      4  C   UNL     1      -7.902  -5.670  -8.402  1.00  0.00    -0.000 C 
BRANCH   4   5
ATOM      5  C   UNL     1      -6.448  -5.335  -8.023  1.00  0.00    -0.000 C 
BRANCH   5   6
ATOM      6  C   UNL     1      -5.504  -6.548  -7.927  1.00  0.00    -0.000 C 
BRANCH   6   7
ATOM      7  C   UNL     1      -5.387  -7.104  -6.497  1.00  0.00    -0.000 C 
BRANCH   7   8
ATOM      8  C   UNL     1      -4.731  -6.104  -5.530  1.00  0.00    -0.000 C 
BRANCH   8   9
ATOM      9  C   UNL     1      -3.263  -5.819  -5.891  1.00  0.00    -0.000 C 
BRANCH   9  10
ATOM     10  C   UNL     1      -2.827  -4.395  -5.510  1.00  0.00    -0.000 C 
BRANCH  10  11
ATOM     11  C   UNL     1      -3.865  -3.332  -5.896  1.00  0.00    -0.003 C 
ATOM     12  C   UNL     1      -3.227  -1.949  -5.987  1.00  0.00     0.004 C 
ENDBRANCH  10  11
ENDBRANCH   9  10
ENDBRANCH   8   9
ENDBRANCH   7   8
ENDBRANCH   6   7
ENDBRANCH   5   6
ENDBRANCH   4   5
ENDBRANCH   3   4
ENDBRANCH   2   3
ENDBRANCH   1   2
BRANCH   1  13
ATOM     13  C   UNL     1     -10.450  -5.597  -4.985  1.00  0.00     0.000 C 
BRANCH  13  14
ATOM     14  C   UNL     1     -11.123  -5.010  -3.731  1.00  0.00     0.000 C 
BRANCH  14  15
ATOM     15  C   UNL     1     -11.098  -3.470  -3.705  1.00  0.00     0.000 C 
BRANCH  15  16
ATOM     16  C   UNL     1     -10.971  -2.854  -2.299  1.00  0.00     0.000 C 
BRANCH  16  17
ATOM     17  C   UNL     1     -10.179  -3.748  -1.329  1.00  0.00     0.000 C 
BRANCH  17  18
ATOM     18  C   UNL     1      -8.658  -3.632  -1.520  1.00  0.00     0.000 C 
BRANCH  18  19
ATOM     19  C   UNL     1      -8.262  -2.541  -2.526  1.00  0.00     0.000 C 
BRANCH  19  20
ATOM     20  C   UNL     1      -7.377  -1.476  -1.867  1.00  0.00     0.006 C 
BRANCH  20  21
ATOM     21  C   UNL     1      -8.196  -0.589  -0.923  1.00  0.00     0.053 C 
BRANCH  21  22
ATOM     22  C   UNL     1      -7.792   0.844  -1.063  1.00  0.00     0.041 C 
ATOM     23  O   UNL     1      -6.598   1.142  -1.332  1.00  0.00    -0.550 OA
ATOM     24  O   UNL     1      -8.727   1.855  -0.870  1.00  0.00    -0.550 OA
ENDBRANCH  21  22
ENDBRANCH  20  21
ENDBRANCH  19  20
ENDBRANCH  18  19
ENDBRANCH  17  18
ENDBRANCH  16  17
ENDBRANCH  15  16
ENDBRANCH  14  15
ENDBRANCH  13  14
ENDBRANCH   1  13
TORSDOF 20
ENDMDL
MODEL 3
REMARK VINA RESULT:    -4.260      1.075      1.821
REMARK INTER + INTRA:         -11.275
REMARK INTER:                  -9.077
REMARK INTRA:                  -2.199
REMARK UNBOUND:                -2.035
REMARK SMILES CCCCCCCCCCCCCCCCCCCCCC(=O)[O-]
REMARK SMILES IDX 12 1 11 2 10 3 9 4 8 5 7 6 6 7 5 8 4 9 3 10 2 11 1 12 13 13
REMARK SMILES IDX 14 14 15 15 16 16 17 17 18 18 19 19 20 20 21 21 22 22 23 23
REMARK SMILES IDX 24 24
REMARK H PARENT
REMARK Flexibility Score: inf
ROOT
ATOM      1  C   UNL     1      -9.138  -4.898  -5.370  1.00  0.00     0.000 C 
ENDROOT
BRANCH   1   2
ATOM      2  C   UNL     1     -10.333  -5.743  -4.901  1.00  0.00     0.000 C 
BRANCH   2   3
ATOM      3  C   UNL     1     -11.122  -5.016  -3.805  1.00  0.00     0.000 C 
BRANCH   3   4
ATOM      4  C   UNL     1     -10.798  -3.515  -3.798  1.00  0.00    -0.000 C 
BRANCH   4   5
ATOM      5  C   UNL     1     -10.957  -2.872  -2.409  1.00  0.00    -0.000 C 
BRANCH   5   6
ATOM      6  C   UNL     1     -10.027  -3.438  -1.318  1.00  0.00    -0.000 C 
BRANCH   6   7
ATOM      7  C   UNL     1      -8.543  -3.402  -1.720  1.00  0.00    -0.000 C 
BRANCH   7   8
ATOM      8  C   UNL     1      -7.806  -2.185  -1.136  1.00  0.00    -0.000 C 
BRANCH   8   9
ATOM      9  C   UNL     1      -7.521  -1.108  -2.197  1.00  0.00    -0.000 C 
BRANCH   9  10
ATOM     10  C   UNL     1      -7.180   0.257  -1.578  1.00  0.00    -0.000 C 
BRANCH  10  11
ATOM     11  C   UNL     1      -8.301   0.799  -0.679  1.00  0.00    -0.003 C 
ATOM     12  C   UNL     1      -8.504   2.295  -0.895  1.00  0.00     0.004 C 
ENDBRANCH  10  11
ENDBRANCH   9  10
ENDBRANCH   8   9
ENDBRANCH   7   8
ENDBRANCH   6   7
ENDBRANCH   5   6
ENDBRANCH   4   5
ENDBRANCH   3   4
ENDBRANCH   2   3
ENDBRANCH   1   2
BRANCH   1  13
ATOM     13  C   UNL     1      -9.123  -4.692  -6.893  1.00  0.00     0.000 C 
BRANCH  13  14
ATOM     14  C   UNL     1     -10.312  -5.374  -7.595  1.00  0.00     0.000 C 
BRANCH  14  15
ATOM     15  C   UNL     1     -10.237  -5.269  -9.130  1.00  0.00     0.000 C 
BRANCH  15  16
ATOM     16  C   UNL     1      -8.848  -5.563  -9.727  1.00  0.00     0.000 C 
BRANCH  16  17
ATOM     17  C   UNL     1      -8.442  -7.041  -9.586  1.00  0.00     0.000 C 
BRANCH  17  18
ATOM     18  C   UNL     1      -6.925  -7.256  -9.707  1.00  0.00     0.000 C 
BRANCH  18  19
ATOM     19  C   UNL     1      -6.107  -6.160  -9.007  1.00  0.00     0.000 C 
BRANCH  19  20
ATOM     20  C   UNL     1      -5.866  -6.508  -7.532  1.00  0.00     0.006 C 
BRANCH  20  21
ATOM     21  C   UNL     1      -5.366  -5.287  -6.754  1.00  0.00     0.053 C 
BRANCH  21  22
ATOM     22  C   UNL     1      -4.134  -5.624  -5.976  1.00  0.00     0.041 C 
ATOM     23  O   UNL     1      -3.872  -6.824  -5.696  1.00  0.00    -0.550 OA
ATOM     24  O   UNL     1      -3.288  -4.613  -5.534  1.00  0.00    -0.550 OA
ENDBRANCH  21  22
ENDBRANCH  20  21
ENDBRANCH  19  20
ENDBRANCH  18  19
ENDBRANCH  17  18
ENDBRANCH  16  17
ENDBRANCH  15  16
ENDBRANCH  14  15
ENDBRANCH  13  14
ENDBRANCH   1  13
TORSDOF 20
ENDMDL
MODEL 4
REMARK VINA RESULT:    -3.989      1.196      2.228
REMARK INTER + INTRA:         -10.687
REMARK INTER:                  -8.414
REMARK INTRA:                  -2.273
REMARK UNBOUND:                -2.035
REMARK SMILES CCCCCCCCCCCCCCCCCCCCCC(=O)[O-]
REMARK SMILES IDX 12 1 11 2 10 3 9 4 8 5 7 6 6 7 5 8 4 9 3 10 2 11 1 12 13 13
REMARK SMILES IDX 14 14 15 15 16 16 17 17 18 18 19 19 20 20 21 21 22 22 23 23
REMARK SMILES IDX 24 24
REMARK H PARENT
REMARK Flexibility Score: inf
ROOT
ATOM      1  C   UNL     1     -10.445  -5.941  -9.381  1.00  0.00     0.000 C 
ENDROOT
BRANCH   1   2
ATOM      2  C   UNL     1     -10.299  -5.186  -8.051  1.00  0.00     0.000 C 
BRANCH   2   3
ATOM      3  C   UNL     1     -10.233  -6.162  -6.870  1.00  0.00     0.000 C 
BRANCH   3   4
ATOM      4  C   UNL     1     -10.158  -5.406  -5.535  1.00  0.00    -0.000 C 
BRANCH   4   5
ATOM      5  C   UNL     1      -9.131  -4.260  -5.549  1.00  0.00    -0.000 C 
BRANCH   5   6
ATOM      6  C   UNL     1      -9.200  -3.307  -4.341  1.00  0.00    -0.000 C 
BRANCH   6   7
ATOM      7  C   UNL     1     -10.423  -3.566  -3.444  1.00  0.00    -0.000 C 
BRANCH   7   8
ATOM      8  C   UNL     1     -10.030  -3.886  -1.992  1.00  0.00    -0.000 C 
BRANCH   8   9
ATOM      9  C   UNL     1      -8.593  -3.443  -1.664  1.00  0.00    -0.000 C 
BRANCH   9  10
ATOM     10  C   UNL     1      -8.525  -1.999  -1.140  1.00  0.00    -0.000 C 
BRANCH  10  11
ATOM     11  C   UNL     1      -7.426  -1.170  -1.820  1.00  0.00    -0.003 C 
ATOM     12  C   UNL     1      -7.459   0.280  -1.347  1.00  0.00     0.004 C 
ENDBRANCH  10  11
ENDBRANCH   9  10
ENDBRANCH   8   9
ENDBRANCH   7   8
ENDBRANCH   6   7
ENDBRANCH   5   6
ENDBRANCH   4   5
ENDBRANCH   3   4
ENDBRANCH   2   3
ENDBRANCH   1   2
BRANCH   1  13
ATOM     13  C   UNL     1      -9.104  -6.476  -9.905  1.00  0.00     0.000 C 
BRANCH  13  14
ATOM     14  C   UNL     1      -8.012  -5.391  -9.958  1.00  0.00     0.000 C 
BRANCH  14  15
ATOM     15  C   UNL     1      -6.684  -5.852  -9.328  1.00  0.00     0.000 C 
BRANCH  15  16
ATOM     16  C   UNL     1      -6.478  -5.406  -7.867  1.00  0.00     0.000 C 
BRANCH  16  17
ATOM     17  C   UNL     1      -6.430  -6.590  -6.887  1.00  0.00     0.000 C 
BRANCH  17  18
ATOM     18  C   UNL     1      -5.460  -6.355  -5.717  1.00  0.00     0.000 C 
BRANCH  18  19
ATOM     19  C   UNL     1      -3.993  -6.269  -6.163  1.00  0.00     0.000 C 
BRANCH  19  20
ATOM     20  C   UNL     1      -3.335  -4.981  -5.652  1.00  0.00     0.006 C 
BRANCH  20  21
ATOM     21  C   UNL     1      -4.193  -3.756  -5.986  1.00  0.00     0.053 C 
BRANCH  21  22
ATOM     22  C   UNL     1      -3.418  -2.495  -5.770  1.00  0.00     0.041 C 
ATOM     23  O   UNL     1      -3.250  -1.686  -6.722  1.00  0.00    -0.550 OA
ATOM     24  O   UNL     1      -2.857  -2.223  -4.528  1.00  0.00    -0.550 OA
ENDBRANCH  21  22
ENDBRANCH  20  21
ENDBRANCH  19  20
ENDBRANCH  18  19
ENDBRANCH  17  18
ENDBRANCH  16  17
ENDBRANCH  15  16
ENDBRANCH  14  15
ENDBRANCH  13  14
ENDBRANCH   1  13
TORSDOF 20
ENDMDL
MODEL 5
REMARK VINA RESULT:    -3.614      2.165      7.268
REMARK INTER + INTRA:          -9.874
REMARK INTER:                  -7.320
REMARK INTRA:                  -2.554
REMARK UNBOUND:                -2.035
REMARK SMILES CCCCCCCCCCCCCCCCCCCCCC(=O)[O-]
REMARK SMILES IDX 12 1 11 2 10 3 9 4 8 5 7 6 6 7 5 8 4 9 3 10 2 11 1 12 13 13
REMARK SMILES IDX 14 14 15 15 16 16 17 17 18 18 19 19 20 20 21 21 22 22 23 23
REMARK SMILES IDX 24 24
REMARK H PARENT
REMARK Flexibility Score: inf
ROOT
ATOM      1  C   UNL     1      -6.122  -6.156  -4.989  1.00  0.00     0.000 C 
ENDROOT
BRANCH   1   2
ATOM      2  C   UNL     1      -5.120  -6.237  -6.150  1.00  0.00     0.000 C 
BRANCH   2   3
ATOM      3  C   UNL     1      -5.797  -6.759  -7.424  1.00  0.00     0.000 C 
BRANCH   3   4
ATOM      4  C   UNL     1      -6.279  -5.597  -8.306  1.00  0.00    -0.000 C 
BRANCH   4   5
ATOM      5  C   UNL     1      -6.448  -5.993  -9.783  1.00  0.00    -0.000 C 
BRANCH   5   6
ATOM      6  C   UNL     1      -6.609  -7.504 -10.038  1.00  0.00    -0.000 C 
BRANCH   6   7
ATOM      7  C   UNL     1      -8.080  -7.954 -10.059  1.00  0.00    -0.000 C 
BRANCH   7   8
ATOM      8  C   UNL     1      -9.056  -6.768 -10.124  1.00  0.00    -0.000 C 
BRANCH   8   9
ATOM      9  C   UNL     1      -9.997  -6.717  -8.909  1.00  0.00    -0.000 C 
BRANCH   9  10
ATOM     10  C   UNL     1     -10.621  -5.327  -8.702  1.00  0.00    -0.000 C 
BRANCH  10  11
ATOM     11  C   UNL     1      -9.570  -4.212  -8.609  1.00  0.00    -0.003 C 
ATOM     12  C   UNL     1      -9.658  -3.272  -9.808  1.00  0.00     0.004 C 
ENDBRANCH  10  11
ENDBRANCH   9  10
ENDBRANCH   8   9
ENDBRANCH   7   8
ENDBRANCH   6   7
ENDBRANCH   5   6
ENDBRANCH   4   5
ENDBRANCH   3   4
ENDBRANCH   2   3
ENDBRANCH   1   2
BRANCH   1  13
ATOM     13  C   UNL     1      -7.555  -6.503  -5.422  1.00  0.00     0.000 C 
BRANCH  13  14
ATOM     14  C   UNL     1      -8.557  -5.373  -5.116  1.00  0.00     0.000 C 
BRANCH  14  15
ATOM     15  C   UNL     1     -10.023  -5.811  -5.298  1.00  0.00     0.000 C 
BRANCH  15  16
ATOM     16  C   UNL     1     -11.063  -4.800  -4.779  1.00  0.00     0.000 C 
BRANCH  16  17
ATOM     17  C   UNL     1     -10.507  -3.368  -4.693  1.00  0.00     0.000 C 
BRANCH  17  18
ATOM     18  C   UNL     1     -10.741  -2.721  -3.318  1.00  0.00     0.000 C 
BRANCH  18  19
ATOM     19  C   UNL     1     -10.424  -3.665  -2.150  1.00  0.00     0.000 C 
BRANCH  19  20
ATOM     20  C   UNL     1      -8.912  -3.752  -1.904  1.00  0.00     0.006 C 
BRANCH  20  21
ATOM     21  C   UNL     1      -8.423  -2.566  -1.066  1.00  0.00     0.053 C 
BRANCH  21  22
ATOM     22  C   UNL     1      -7.879  -1.486  -1.947  1.00  0.00     0.041 C 
ATOM     23  O   UNL     1      -7.370  -1.777  -3.062  1.00  0.00    -0.550 OA
ATOM     24  O   UNL     1      -7.908  -0.161  -1.527  1.00  0.00    -0.550 OA
ENDBRANCH  21  22
ENDBRANCH  20  21
ENDBRANCH  19  20
ENDBRANCH  18  19
ENDBRANCH  17  18
ENDBRANCH  16  17
ENDBRANCH  15  16
ENDBRANCH  14  15
ENDBRANCH  13  14
ENDBRANCH   1  13
TORSDOF 20
ENDMDL
MODEL 6
REMARK VINA RESULT:    -3.462      2.150      7.267
REMARK INTER + INTRA:          -9.545
REMARK INTER:                  -7.791
REMARK INTRA:                  -1.753
REMARK UNBOUND:                -2.035
REMARK SMILES CCCCCCCCCCCCCCCCCCCCCC(=O)[O-]
REMARK SMILES IDX 12 1 11 2 10 3 9 4 8 5 7 6 6 7 5 8 4 9 3 10 2 11 1 12 13 13
REMARK SMILES IDX 14 14 15 15 16 16 17 17 18 18 19 19 20 20 21 21 22 22 23 23
REMARK SMILES IDX 24 24
REMARK H PARENT
REMARK Flexibility Score: inf
ROOT
ATOM      1  C   UNL     1      -9.057  -4.441  -5.899  1.00  0.00     0.000 C 
ENDROOT
BRANCH   1   2
ATOM      2  C   UNL     1     -10.054  -4.192  -7.041  1.00  0.00     0.000 C 
BRANCH   2   3
ATOM      3  C   UNL     1      -9.481  -4.668  -8.383  1.00  0.00     0.000 C 
BRANCH   3   4
ATOM      4  C   UNL     1      -9.855  -6.133  -8.651  1.00  0.00    -0.000 C 
BRANCH   4   5
ATOM      5  C   UNL     1      -9.137  -6.721  -9.879  1.00  0.00    -0.000 C 
BRANCH   5   6
ATOM      6  C   UNL     1      -7.648  -6.346 -10.006  1.00  0.00    -0.000 C 
BRANCH   6   7
ATOM      7  C   UNL     1      -6.717  -7.352  -9.308  1.00  0.00    -0.000 C 
BRANCH   7   8
ATOM      8  C   UNL     1      -5.584  -6.661  -8.531  1.00  0.00    -0.000 C 
BRANCH   8   9
ATOM      9  C   UNL     1      -6.088  -5.472  -7.696  1.00  0.00    -0.000 C 
BRANCH   9  10
ATOM     10  C   UNL     1      -5.302  -5.293  -6.387  1.00  0.00    -0.000 C 
BRANCH  10  11
ATOM     11  C   UNL     1      -4.117  -6.263  -6.268  1.00  0.00    -0.003 C 
ATOM     12  C   UNL     1      -2.974  -5.638  -5.473  1.00  0.00     0.004 C 
ENDBRANCH  10  11
ENDBRANCH   9  10
ENDBRANCH   8   9
ENDBRANCH   7   8
ENDBRANCH   6   7
ENDBRANCH   5   6
ENDBRANCH   4   5
ENDBRANCH   3   4
ENDBRANCH   2   3
ENDBRANCH   1   2
BRANCH   1  13
ATOM     13  C   UNL     1      -9.435  -5.659  -5.042  1.00  0.00     0.000 C 
BRANCH  13  14
ATOM     14  C   UNL     1     -10.902  -5.624  -4.575  1.00  0.00     0.000 C 
BRANCH  14  15
ATOM     15  C   UNL     1     -11.086  -4.867  -3.246  1.00  0.00     0.000 C 
BRANCH  15  16
ATOM     16  C   UNL     1     -11.125  -3.333  -3.381  1.00  0.00     0.000 C 
BRANCH  16  17
ATOM     17  C   UNL     1     -11.003  -2.615  -2.026  1.00  0.00     0.000 C 
BRANCH  17  18
ATOM     18  C   UNL     1      -9.874  -3.182  -1.150  1.00  0.00     0.000 C 
BRANCH  18  19
ATOM     19  C   UNL     1      -8.547  -3.334  -1.909  1.00  0.00     0.000 C 
BRANCH  19  20
ATOM     20  C   UNL     1      -7.792  -2.000  -1.973  1.00  0.00     0.006 C 
BRANCH  20  21
ATOM     21  C   UNL     1      -8.278  -1.041  -0.882  1.00  0.00     0.053 C 
BRANCH  21  22
ATOM     22  C   UNL     1      -7.766   0.343  -1.129  1.00  0.00     0.041 C 
ATOM     23  O   UNL     1      -8.463   1.342  -0.807  1.00  0.00    -0.550 OA
ATOM     24  O   UNL     1      -6.532   0.532  -1.741  1.00  0.00    -0.550 OA
ENDBRANCH  21  22
ENDBRANCH  20  21
ENDBRANCH  19  20
ENDBRANCH  18  19
ENDBRANCH  17  18
ENDBRANCH  16  17
ENDBRANCH  15  16
ENDBRANCH  14  15
ENDBRANCH  13  14
ENDBRANCH   1  13
TORSDOF 20
ENDMDL
MODEL 7
REMARK VINA RESULT:    -3.070      2.953      4.465
REMARK INTER + INTRA:          -8.694
REMARK INTER:                  -6.444
REMARK INTRA:                  -2.250
REMARK UNBOUND:                -2.035
REMARK SMILES CCCCCCCCCCCCCCCCCCCCCC(=O)[O-]
REMARK SMILES IDX 12 1 11 2 10 3 9 4 8 5 7 6 6 7 5 8 4 9 3 10 2 11 1 12 13 13
REMARK SMILES IDX 14 14 15 15 16 16 17 17 18 18 19 19 20 20 21 21 22 22 23 23
REMARK SMILES IDX 24 24
REMARK H PARENT
REMARK Flexibility Score: inf
ROOT
ATOM      1  C   UNL     1      -6.516  -5.373  -5.144  1.00  0.00     0.000 C 
ENDROOT
BRANCH   1   2
ATOM      2  C   UNL     1      -7.808  -5.016  -5.896  1.00  0.00     0.000 C 
BRANCH   2   3
ATOM      3  C   UNL     1      -9.042  -5.291  -5.028  1.00  0.00     0.000 C 
BRANCH   3   4
ATOM      4  C   UNL     1     -10.147  -4.260  -5.301  1.00  0.00    -0.000 C 
BRANCH   4   5
ATOM      5  C   UNL     1     -11.115  -4.089  -4.117  1.00  0.00    -0.000 C 
BRANCH   5   6
ATOM      6  C   UNL     1     -10.982  -2.757  -3.353  1.00  0.00    -0.000 C 
BRANCH   6   7
ATOM      7  C   UNL     1     -10.534  -2.947  -1.894  1.00  0.00    -0.000 C 
BRANCH   7   8
ATOM      8  C   UNL     1      -9.175  -3.658  -1.785  1.00  0.00    -0.000 C 
BRANCH   8   9
ATOM      9  C   UNL     1      -7.993  -2.693  -1.981  1.00  0.00    -0.000 C 
BRANCH   9  10
ATOM     10  C   UNL     1      -8.044  -1.492  -1.023  1.00  0.00    -0.000 C 
BRANCH  10  11
ATOM     11  C   UNL     1      -7.732  -0.161  -1.721  1.00  0.00    -0.003 C 
ATOM     12  C   UNL     1      -8.040   1.023  -0.809  1.00  0.00     0.004 C 
ENDBRANCH  10  11
ENDBRANCH   9  10
ENDBRANCH   8   9
ENDBRANCH   7   8
ENDBRANCH   6   7
ENDBRANCH   5   6
ENDBRANCH   4   5
ENDBRANCH   3   4
ENDBRANCH   2   3
ENDBRANCH   1   2
BRANCH   1  13
ATOM     13  C   UNL     1      -5.256  -5.135  -5.991  1.00  0.00     0.000 C 
BRANCH  13  14
ATOM     14  C   UNL     1      -4.686  -6.436  -6.586  1.00  0.00     0.000 C 
BRANCH  14  15
ATOM     15  C   UNL     1      -4.859  -6.519  -8.114  1.00  0.00     0.000 C 
BRANCH  15  16
ATOM     16  C   UNL     1      -6.231  -7.048  -8.576  1.00  0.00     0.000 C 
BRANCH  16  17
ATOM     17  C   UNL     1      -6.754  -6.325  -9.829  1.00  0.00     0.000 C 
BRANCH  17  18
ATOM     18  C   UNL     1      -7.376  -4.956  -9.511  1.00  0.00     0.000 C 
BRANCH  18  19
ATOM     19  C   UNL     1      -8.815  -4.818 -10.029  1.00  0.00     0.000 C 
BRANCH  19  20
ATOM     20  C   UNL     1      -9.701  -4.087  -9.011  1.00  0.00     0.006 C 
BRANCH  20  21
ATOM     21  C   UNL     1     -11.124  -4.655  -9.013  1.00  0.00     0.053 C 
BRANCH  21  22
ATOM     22  C   UNL     1     -11.105  -6.125  -8.738  1.00  0.00     0.041 C 
ATOM     23  O   UNL     1     -11.114  -6.545  -7.551  1.00  0.00    -0.550 OA
ATOM     24  O   UNL     1     -11.049  -7.032  -9.790  1.00  0.00    -0.550 OA
ENDBRANCH  21  22
ENDBRANCH  20  21
ENDBRANCH  19  20
ENDBRANCH  18  19
ENDBRANCH  17  18
ENDBRANCH  16  17
ENDBRANCH  15  16
ENDBRANCH  14  15
ENDBRANCH  13  14
ENDBRANCH   1  13
TORSDOF 20
ENDMDL
MODEL 8
REMARK VINA RESULT:    -2.889      2.678      4.705
REMARK INTER + INTRA:          -8.302
REMARK INTER:                  -6.907
REMARK INTRA:                  -1.395
REMARK UNBOUND:                -2.035
REMARK SMILES CCCCCCCCCCCCCCCCCCCCCC(=O)[O-]
REMARK SMILES IDX 12 1 11 2 10 3 9 4 8 5 7 6 6 7 5 8 4 9 3 10 2 11 1 12 13 13
REMARK SMILES IDX 14 14 15 15 16 16 17 17 18 18 19 19 20 20 21 21 22 22 23 23
REMARK SMILES IDX 24 24
REMARK H PARENT
REMARK Flexibility Score: inf
ROOT
ATOM      1  C   UNL     1      -5.148  -5.504  -6.072  1.00  0.00     0.000 C 
ENDROOT
BRANCH   1   2
ATOM      2  C   UNL     1      -6.561  -4.954  -6.324  1.00  0.00     0.000 C 
BRANCH   2   3
ATOM      3  C   UNL     1      -7.551  -5.487  -5.282  1.00  0.00     0.000 C 
BRANCH   3   4
ATOM      4  C   UNL     1      -8.889  -5.863  -5.936  1.00  0.00    -0.000 C 
BRANCH   4   5
ATOM      5  C   UNL     1     -10.078  -5.059  -5.379  1.00  0.00    -0.000 C 
BRANCH   5   6
ATOM      6  C   UNL     1      -9.798  -4.309  -4.063  1.00  0.00    -0.000 C 
BRANCH   6   7
ATOM      7  C   UNL     1     -10.978  -3.431  -3.612  1.00  0.00    -0.000 C 
BRANCH   7   8
ATOM      8  C   UNL     1     -10.887  -3.042  -2.127  1.00  0.00    -0.000 C 
BRANCH   8   9
ATOM      9  C   UNL     1      -9.655  -3.653  -1.437  1.00  0.00    -0.000 C 
BRANCH   9  10
ATOM     10  C   UNL     1      -8.334  -3.059  -1.951  1.00  0.00    -0.000 C 
BRANCH  10  11
ATOM     11  C   UNL     1      -7.807  -1.922  -1.063  1.00  0.00    -0.003 C 
ATOM     12  C   UNL     1      -7.378  -0.723  -1.902  1.00  0.00     0.004 C 
ENDBRANCH  10  11
ENDBRANCH   9  10
ENDBRANCH   8   9
ENDBRANCH   7   8
ENDBRANCH   6   7
ENDBRANCH   5   6
ENDBRANCH   4   5
ENDBRANCH   3   4
ENDBRANCH   2   3
ENDBRANCH   1   2
BRANCH   1  13
ATOM     13  C   UNL     1      -4.625  -6.343  -7.248  1.00  0.00     0.000 C 
BRANCH  13  14
ATOM     14  C   UNL     1      -5.724  -7.203  -7.899  1.00  0.00     0.000 C 
BRANCH  14  15
ATOM     15  C   UNL     1      -5.724  -7.107  -9.436  1.00  0.00     0.000 C 
BRANCH  15  16
ATOM     16  C   UNL     1      -7.039  -6.585 -10.046  1.00  0.00     0.000 C 
BRANCH  16  17
ATOM     17  C   UNL     1      -8.194  -7.593  -9.915  1.00  0.00     0.000 C 
BRANCH  17  18
ATOM     18  C   UNL     1      -9.360  -7.056  -9.069  1.00  0.00     0.000 C 
BRANCH  18  19
ATOM     19  C   UNL     1     -10.687  -7.007  -9.841  1.00  0.00     0.000 C 
BRANCH  19  20
ATOM     20  C   UNL     1     -11.109  -5.558 -10.122  1.00  0.00     0.006 C 
BRANCH  20  21
ATOM     21  C   UNL     1     -10.862  -4.667  -8.901  1.00  0.00     0.053 C 
BRANCH  21  22
ATOM     22  C   UNL     1     -10.292  -3.348  -9.316  1.00  0.00     0.041 C 
ATOM     23  O   UNL     1      -9.053  -3.226  -9.504  1.00  0.00    -0.550 OA
ATOM     24  O   UNL     1     -11.125  -2.245  -9.469  1.00  0.00    -0.550 OA
ENDBRANCH  21  22
ENDBRANCH  20  21
ENDBRANCH  19  20
ENDBRANCH  18  19
ENDBRANCH  17  18
ENDBRANCH  16  17
ENDBRANCH  15  16
ENDBRANCH  14  15
ENDBRANCH  13  14
ENDBRANCH   1  13
TORSDOF 20
ENDMDL
MODEL 9
REMARK VINA RESULT:    -1.357      2.030      6.628
REMARK INTER + INTRA:          -4.979
REMARK INTER:                  -3.585
REMARK INTRA:                  -1.394
REMARK UNBOUND:                -2.035
REMARK SMILES CCCCCCCCCCCCCCCCCCCCCC(=O)[O-]
REMARK SMILES IDX 12 1 11 2 10 3 9 4 8 5 7 6 6 7 5 8 4 9 3 10 2 11 1 12 13 13
REMARK SMILES IDX 14 14 15 15 16 16 17 17 18 18 19 19 20 20 21 21 22 22 23 23
REMARK SMILES IDX 24 24
REMARK H PARENT
REMARK Flexibility Score: inf
ROOT
ATOM      1  C   UNL     1      -9.412  -5.804  -7.567  1.00  0.00     0.000 C 
ENDROOT
BRANCH   1   2
ATOM      2  C   UNL     1      -9.081  -5.371  -9.004  1.00  0.00     0.000 C 
BRANCH   2   3
ATOM      3  C   UNL     1      -7.569  -5.194  -9.188  1.00  0.00     0.000 C 
BRANCH   3   4
ATOM      4  C   UNL     1      -6.868  -6.554  -9.321  1.00  0.00    -0.000 C 
BRANCH   4   5
ATOM      5  C   UNL     1      -5.623  -6.679  -8.424  1.00  0.00    -0.000 C 
BRANCH   5   6
ATOM      6  C   UNL     1      -5.902  -7.152  -6.985  1.00  0.00    -0.000 C 
BRANCH   6   7
ATOM      7  C   UNL     1      -6.083  -5.987  -5.996  1.00  0.00    -0.000 C 
BRANCH   7   8
ATOM      8  C   UNL     1      -5.095  -4.838  -6.256  1.00  0.00    -0.000 C 
BRANCH   8   9
ATOM      9  C   UNL     1      -3.696  -5.130  -5.687  1.00  0.00    -0.000 C 
BRANCH   9  10
ATOM     10  C   UNL     1      -2.816  -3.872  -5.607  1.00  0.00    -0.000 C 
BRANCH  10  11
ATOM     11  C   UNL     1      -3.635  -2.582  -5.451  1.00  0.00    -0.003 C 
ATOM     12  C   UNL     1      -3.082  -1.470  -6.337  1.00  0.00     0.004 C 
ENDBRANCH  10  11
ENDBRANCH   9  10
ENDBRANCH   8   9
ENDBRANCH   7   8
ENDBRANCH   6   7
ENDBRANCH   5   6
ENDBRANCH   4   5
ENDBRANCH   3   4
ENDBRANCH   2   3
ENDBRANCH   1   2
BRANCH   1  13
ATOM     13  C   UNL     1     -10.502  -4.931  -6.925  1.00  0.00     0.000 C 
BRANCH  13  14
ATOM     14  C   UNL     1      -9.921  -3.782  -6.081  1.00  0.00     0.000 C 
BRANCH  14  15
ATOM     15  C   UNL     1     -10.978  -3.104  -5.188  1.00  0.00     0.000 C 
BRANCH  15  16
ATOM     16  C   UNL     1     -11.125  -3.725  -3.786  1.00  0.00     0.000 C 
BRANCH  16  17
ATOM     17  C   UNL     1     -10.849  -2.715  -2.658  1.00  0.00     0.000 C 
BRANCH  17  18
ATOM     18  C   UNL     1     -10.847  -3.364  -1.265  1.00  0.00     0.000 C 
BRANCH  18  19
ATOM     19  C   UNL     1      -9.550  -4.129  -0.964  1.00  0.00     0.000 C 
BRANCH  19  20
ATOM     20  C   UNL     1      -8.317  -3.261  -1.249  1.00  0.00     0.006 C 
BRANCH  20  21
ATOM     21  C   UNL     1      -8.571  -1.802  -0.857  1.00  0.00     0.053 C 
BRANCH  21  22
ATOM     22  C   UNL     1      -7.763  -0.878  -1.711  1.00  0.00     0.041 C 
ATOM     23  O   UNL     1      -7.749   0.358  -1.469  1.00  0.00    -0.550 OA
ATOM     24  O   UNL     1      -7.047  -1.376  -2.794  1.00  0.00    -0.550 OA
ENDBRANCH  21  22
ENDBRANCH  20  21
ENDBRANCH  19  20
ENDBRANCH  18  19
ENDBRANCH  17  18
ENDBRANCH  16  17
ENDBRANCH  15  16
ENDBRANCH  14  15
ENDBRANCH  13  14
ENDBRANCH   1  13
TORSDOF 20
ENDMDL
