MODEL 1
REMARK VINA RESULT:    -3.996      0.000      0.000
REMARK INTER + INTRA:          -4.175
REMARK INTER:                  -4.931
REMARK INTRA:                   0.756
REMARK UNBOUND:                 0.756
REMARK SMILES CC1=CC=CC(C)(C)CC1=O
REMARK SMILES IDX 1 1 2 2 3 3 10 4 11 5 9 6 4 8 5 9 6 10 7 11 8 12
REMARK H PARENT
REMARK Flexibility Score: 80.00
ROOT
ATOM      1  C   UNL     1     -13.916 -14.372  28.503  1.00  0.00     0.048 C 
ATOM      2  C   UNL     1     -12.871 -15.447  28.691  1.00  0.00    -0.008 C 
ATOM      3  C   UNL     1     -12.277 -15.943  27.584  1.00  0.00     0.007 C 
ENDROOT
BRANCH   2   4
ATOM      4  C   UNL     1     -12.636 -15.926  30.076  1.00  0.00     0.159 C 
ATOM      5  O   UNL     1     -13.436 -15.571  30.986  1.00  0.00    -0.295 OA
BRANCH   4   6
ATOM      6  C   UNL     1     -11.485 -16.803  30.464  1.00  0.00     0.091 CG0
ATOM      7  G   UNL     1     -11.469 -18.153  29.713  1.00  0.00     0.000 G0
ENDBRANCH   4   6
ENDBRANCH   2   4
BRANCH   3   8
ATOM      8  C   UNL     1     -11.252 -17.005  27.450  1.00  0.00    -0.003 C 
ATOM      9  C   UNL     1     -10.899 -17.954  28.327  1.00  0.00    -0.020 C 
BRANCH   9  10
ATOM     10  C   UNL     1     -11.464 -18.150  29.713  1.00  0.00    -0.010 CG0
ATOM     11  C   UNL     1     -12.859 -18.811  29.626  1.00  0.00     0.016 C 
ATOM     12  C   UNL     1     -10.531 -19.108  30.488  1.00  0.00     0.016 C 
ATOM     13  G   UNL     1     -11.492 -16.798  30.460  1.00  0.00     0.000 G0
ENDBRANCH   9  10
ENDBRANCH   3   8
TORSDOF 0
ENDMDL
MODEL 2
REMARK VINA RESULT:    -3.858      1.866      3.425
REMARK INTER + INTRA:          -4.004
REMARK INTER:                  -4.769
REMARK INTRA:                   0.765
REMARK UNBOUND:                 0.756
REMARK SMILES CC1=CC=CC(C)(C)CC1=O
REMARK SMILES IDX 1 1 2 2 3 3 10 4 11 5 9 6 4 8 5 9 6 10 7 11 8 12
REMARK H PARENT
REMARK Flexibility Score: 80.00
ROOT
ATOM      1  C   UNL     1     -13.654 -20.250  28.614  1.00  0.00     0.048 C 
ATOM      2  C   UNL     1     -12.483 -19.358  28.954  1.00  0.00    -0.008 C 
ATOM      3  C   UNL     1     -11.662 -19.754  29.950  1.00  0.00     0.007 C 
ENDROOT
BRANCH   2   4
ATOM      4  C   UNL     1     -12.373 -18.077  28.212  1.00  0.00     0.159 C 
ATOM      5  O   UNL     1     -13.336 -17.711  27.483  1.00  0.00    -0.295 OA
BRANCH   4   6
ATOM      6  C   UNL     1     -11.168 -17.189  28.270  1.00  0.00     0.091 CG0
ATOM      7  G   UNL     1     -10.845 -16.690  29.695  1.00  0.00     0.000 G0
ENDBRANCH   4   6
ENDBRANCH   2   4
BRANCH   3   8
ATOM      8  C   UNL     1     -10.466 -19.088  30.518  1.00  0.00    -0.003 C 
ATOM      9  C   UNL     1     -10.096 -17.803  30.437  1.00  0.00    -0.020 C 
BRANCH   9  10
ATOM     10  C   UNL     1     -10.823 -16.705  29.698  1.00  0.00    -0.010 CG0
ATOM     11  C   UNL     1     -12.068 -16.263  30.501  1.00  0.00     0.016 C 
ATOM     12  C   UNL     1      -9.875 -15.489  29.580  1.00  0.00     0.016 C 
ATOM     13  G   UNL     1     -11.173 -17.181  28.271  1.00  0.00     0.000 G0
ENDBRANCH   9  10
ENDBRANCH   3   8
TORSDOF 0
ENDMDL
MODEL 3
REMARK VINA RESULT:    -3.699      1.859      3.113
REMARK INTER + INTRA:          -3.808
REMARK INTER:                  -4.857
REMARK INTRA:                   1.049
REMARK UNBOUND:                 0.756
REMARK SMILES CC1=CC=CC(C)(C)CC1=O
REMARK SMILES IDX 1 1 2 2 3 3 10 4 11 5 9 6 4 8 5 9 6 10 7 11 8 12
REMARK H PARENT
REMARK Flexibility Score: 80.00
ROOT
ATOM      1  C   UNL     1     -13.761 -20.239  28.566  1.00  0.00     0.048 C 
ATOM      2  C   UNL     1     -12.798 -19.084  28.705  1.00  0.00    -0.008 C 
ATOM      3  C   UNL     1     -12.789 -18.155  27.725  1.00  0.00     0.007 C 
ENDROOT
BRANCH   2   4
ATOM      4  C   UNL     1     -11.882 -19.104  29.873  1.00  0.00     0.159 C 
ATOM      5  O   UNL     1     -12.143 -19.876  30.837  1.00  0.00    -0.295 OA
BRANCH   4   6
ATOM      6  C   UNL     1     -10.661 -18.244  29.981  1.00  0.00     0.091 CG0
ATOM      7  G   UNL     1     -10.973 -16.732  29.920  1.00  0.00     0.000 G0
ENDBRANCH   4   6
ENDBRANCH   2   4
BRANCH   3   8
ATOM      8  C   UNL     1     -11.951 -16.943  27.571  1.00  0.00    -0.003 C 
ATOM      9  C   UNL     1     -11.169 -16.336  28.474  1.00  0.00    -0.020 C 
BRANCH   9  10
ATOM     10  C   UNL     1     -10.978 -16.745  29.915  1.00  0.00    -0.010 CG0
ATOM     11  C   UNL     1      -9.879 -15.876  30.569  1.00  0.00     0.016 C 
ATOM     12  C   UNL     1     -12.302 -16.490  30.671  1.00  0.00     0.016 C 
ATOM     13  G   UNL     1     -10.666 -18.256  29.990  1.00  0.00     0.000 G0
ENDBRANCH   9  10
ENDBRANCH   3   8
TORSDOF 0
ENDMDL
MODEL 4
REMARK VINA RESULT:    -3.507      1.770      2.675
REMARK INTER + INTRA:          -3.571
REMARK INTER:                  -4.607
REMARK INTRA:                   1.036
REMARK UNBOUND:                 0.756
REMARK SMILES CC1=CC=CC(C)(C)CC1=O
REMARK SMILES IDX 1 1 2 2 3 3 10 4 11 5 9 6 4 8 5 9 6 10 7 11 8 12
REMARK H PARENT
REMARK Flexibility Score: 80.00
ROOT
ATOM      1  C   UNL     1     -13.572 -15.780  26.396  1.00  0.00     0.048 C 
ATOM      2  C   UNL     1     -12.756 -16.172  27.605  1.00  0.00    -0.008 C 
ATOM      3  C   UNL     1     -13.145 -15.691  28.805  1.00  0.00     0.007 C 
ENDROOT
BRANCH   2   4
ATOM      4  C   UNL     1     -11.545 -16.996  27.364  1.00  0.00     0.159 C 
ATOM      5  O   UNL     1     -11.411 -17.569  26.248  1.00  0.00    -0.295 OA
BRANCH   4   6
ATOM      6  C   UNL     1     -10.467 -17.198  28.385  1.00  0.00     0.091 CG0
ATOM      7  G   UNL     1     -10.977 -17.852  29.688  1.00  0.00     0.000 G0
ENDBRANCH   4   6
ENDBRANCH   2   4
BRANCH   3   8
ATOM      8  C   UNL     1     -12.539 -15.876  30.145  1.00  0.00    -0.003 C 
ATOM      9  C   UNL     1     -11.621 -16.766  30.542  1.00  0.00    -0.020 C 
BRANCH   9  10
ATOM     10  C   UNL     1     -10.989 -17.842  29.691  1.00  0.00    -0.010 CG0
ATOM     11  C   UNL     1      -9.876 -18.561  30.489  1.00  0.00     0.016 C 
ATOM     12  C   UNL     1     -12.075 -18.886  29.343  1.00  0.00     0.016 C 
ATOM     13  G   UNL     1     -10.473 -17.228  28.372  1.00  0.00     0.000 G0
ENDBRANCH   9  10
ENDBRANCH   3   8
TORSDOF 0
ENDMDL
MODEL 5
REMARK VINA RESULT:    -3.307      1.576      2.763
REMARK INTER + INTRA:          -3.324
REMARK INTER:                  -4.076
REMARK INTRA:                   0.751
REMARK UNBOUND:                 0.756
REMARK SMILES CC1=CC=CC(C)(C)CC1=O
REMARK SMILES IDX 1 1 2 2 3 3 10 4 11 5 9 6 4 8 5 9 6 10 7 11 8 12
REMARK H PARENT
REMARK Flexibility Score: 80.00
ROOT
ATOM      1  C   UNL     1     -13.982 -15.002  31.251  1.00  0.00     0.048 C 
ATOM      2  C   UNL     1     -13.292 -15.962  30.311  1.00  0.00    -0.008 C 
ATOM      3  C   UNL     1     -12.855 -17.133  30.822  1.00  0.00     0.007 C 
ENDROOT
BRANCH   2   4
ATOM      4  C   UNL     1     -13.083 -15.506  28.914  1.00  0.00     0.159 C 
ATOM      5  O   UNL     1     -13.300 -14.296  28.630  1.00  0.00    -0.295 OA
BRANCH   4   6
ATOM      6  C   UNL     1     -12.637 -16.412  27.807  1.00  0.00     0.091 CG0
ATOM      7  G   UNL     1     -11.259 -17.059  28.067  1.00  0.00     0.000 G0
ENDBRANCH   4   6
ENDBRANCH   2   4
BRANCH   3   8
ATOM      8  C   UNL     1     -12.131 -18.246  30.164  1.00  0.00    -0.003 C 
ATOM      9  C   UNL     1     -11.445 -18.245  29.013  1.00  0.00    -0.020 C 
BRANCH   9  10
ATOM     10  C   UNL     1     -11.270 -17.075  28.075  1.00  0.00    -0.010 CG0
ATOM     11  C   UNL     1     -10.221 -16.093  28.646  1.00  0.00     0.016 C 
ATOM     12  C   UNL     1     -10.738 -17.610  26.726  1.00  0.00     0.016 C 
ATOM     13  G   UNL     1     -12.637 -16.403  27.819  1.00  0.00     0.000 G0
ENDBRANCH   9  10
ENDBRANCH   3   8
TORSDOF 0
ENDMDL
MODEL 6
REMARK VINA RESULT:    -3.089      1.790      3.171
REMARK INTER + INTRA:          -3.055
REMARK INTER:                  -4.106
REMARK INTRA:                   1.051
REMARK UNBOUND:                 0.756
REMARK SMILES CC1=CC=CC(C)(C)CC1=O
REMARK SMILES IDX 1 1 2 2 3 3 10 4 11 5 9 6 4 8 5 9 6 10 7 11 8 12
REMARK H PARENT
REMARK Flexibility Score: 80.00
ROOT
ATOM      1  C   UNL     1     -10.810 -17.619  26.207  1.00  0.00     0.048 C 
ATOM      2  C   UNL     1     -11.115 -17.301  27.652  1.00  0.00    -0.008 C 
ATOM      3  C   UNL     1     -10.119 -16.783  28.403  1.00  0.00     0.007 C 
ENDROOT
BRANCH   2   4
ATOM      4  C   UNL     1     -12.467 -17.656  28.151  1.00  0.00     0.159 C 
ATOM      5  O   UNL     1     -13.374 -17.921  27.314  1.00  0.00    -0.295 OA
BRANCH   4   6
ATOM      6  C   UNL     1     -12.826 -17.705  29.604  1.00  0.00     0.091 CG0
ATOM      7  G   UNL     1     -12.600 -16.362  30.333  1.00  0.00     0.000 G0
ENDBRANCH   4   6
ENDBRANCH   2   4
BRANCH   3   8
ATOM      8  C   UNL     1     -10.108 -16.401  29.835  1.00  0.00    -0.003 C 
ATOM      9  C   UNL     1     -11.140 -16.227  30.671  1.00  0.00    -0.020 C 
BRANCH   9  10
ATOM     10  C   UNL     1     -12.604 -16.358  30.328  1.00  0.00    -0.010 CG0
ATOM     11  C   UNL     1     -13.462 -16.210  31.606  1.00  0.00     0.016 C 
ATOM     12  C   UNL     1     -12.982 -15.209  29.365  1.00  0.00     0.016 C 
ATOM     13  G   UNL     1     -12.851 -17.697  29.598  1.00  0.00     0.000 G0
ENDBRANCH   9  10
ENDBRANCH   3   8
TORSDOF 0
ENDMDL
MODEL 7
REMARK VINA RESULT:    -3.006      1.451      2.352
REMARK INTER + INTRA:          -2.953
REMARK INTER:                  -3.965
REMARK INTRA:                   1.012
REMARK UNBOUND:                 0.756
REMARK SMILES CC1=CC=CC(C)(C)CC1=O
REMARK SMILES IDX 1 1 2 2 3 3 10 4 11 5 9 6 4 8 5 9 6 10 7 11 8 12
REMARK H PARENT
REMARK Flexibility Score: 80.00
ROOT
ATOM      1  C   UNL     1     -13.517 -16.222  26.382  1.00  0.00     0.048 C 
ATOM      2  C   UNL     1     -12.624 -16.582  27.546  1.00  0.00    -0.008 C 
ATOM      3  C   UNL     1     -11.862 -17.691  27.431  1.00  0.00     0.007 C 
ENDROOT
BRANCH   2   4
ATOM      4  C   UNL     1     -12.714 -15.726  28.755  1.00  0.00     0.159 C 
ATOM      5  O   UNL     1     -13.333 -14.629  28.680  1.00  0.00    -0.295 OA
BRANCH   4   6
ATOM      6  C   UNL     1     -12.095 -16.087  30.071  1.00  0.00     0.091 CG0
ATOM      7  G   UNL     1     -10.577 -16.358  29.976  1.00  0.00     0.000 G0
ENDBRANCH   4   6
ENDBRANCH   2   4
BRANCH   3   8
ATOM      8  C   UNL     1     -10.922 -18.303  28.399  1.00  0.00    -0.003 C 
ATOM      9  C   UNL     1     -10.375 -17.769  29.499  1.00  0.00    -0.020 C 
BRANCH   9  10
ATOM     10  C   UNL     1     -10.576 -16.361  30.008  1.00  0.00    -0.010 CG0
ATOM     11  C   UNL     1      -9.877 -16.190  31.376  1.00  0.00     0.016 C 
ATOM     12  C   UNL     1      -9.914 -15.385  29.009  1.00  0.00     0.016 C 
ATOM     13  G   UNL     1     -12.085 -16.039  30.066  1.00  0.00     0.000 G0
ENDBRANCH   9  10
ENDBRANCH   3   8
TORSDOF 0
ENDMDL
MODEL 8
REMARK VINA RESULT:    -2.836      1.587      2.756
REMARK INTER + INTRA:          -2.744
REMARK INTER:                  -3.512
REMARK INTRA:                   0.768
REMARK UNBOUND:                 0.756
REMARK SMILES CC1=CC=CC(C)(C)CC1=O
REMARK SMILES IDX 1 1 2 2 3 3 10 4 11 5 9 6 4 8 5 9 6 10 7 11 8 12
REMARK H PARENT
REMARK Flexibility Score: 80.00
ROOT
ATOM      1  C   UNL     1     -13.365 -16.619  32.000  1.00  0.00     0.048 C 
ATOM      2  C   UNL     1     -12.804 -16.486  30.605  1.00  0.00    -0.008 C 
ATOM      3  C   UNL     1     -13.251 -15.462  29.845  1.00  0.00     0.007 C 
ENDROOT
BRANCH   2   4
ATOM      4  C   UNL     1     -11.860 -17.539  30.153  1.00  0.00     0.159 C 
ATOM      5  O   UNL     1     -11.729 -18.579  30.855  1.00  0.00    -0.295 OA
BRANCH   4   6
ATOM      6  C   UNL     1     -11.037 -17.431  28.906  1.00  0.00     0.091 CG0
ATOM      7  G   UNL     1     -11.887 -17.265  27.627  1.00  0.00     0.000 G0
ENDBRANCH   4   6
ENDBRANCH   2   4
BRANCH   3   8
ATOM      8  C   UNL     1     -12.911 -15.094  28.450  1.00  0.00    -0.003 C 
ATOM      9  C   UNL     1     -12.349 -15.842  27.492  1.00  0.00    -0.020 C 
BRANCH   9  10
ATOM     10  C   UNL     1     -11.890 -17.275  27.626  1.00  0.00    -0.010 CG0
ATOM     11  C   UNL     1     -13.110 -18.225  27.605  1.00  0.00     0.016 C 
ATOM     12  C   UNL     1     -10.999 -17.615  26.409  1.00  0.00     0.016 C 
ATOM     13  G   UNL     1     -11.037 -17.431  28.904  1.00  0.00     0.000 G0
ENDBRANCH   9  10
ENDBRANCH   3   8
TORSDOF 0
ENDMDL
MODEL 9
REMARK VINA RESULT:    -2.808      1.939      2.956
REMARK INTER + INTRA:          -2.709
REMARK INTER:                  -3.474
REMARK INTRA:                   0.765
REMARK UNBOUND:                 0.756
REMARK SMILES CC1=CC=CC(C)(C)CC1=O
REMARK SMILES IDX 1 1 2 2 3 3 10 4 11 5 9 6 4 8 5 9 6 10 7 11 8 12
REMARK H PARENT
REMARK Flexibility Score: 80.00
ROOT
ATOM      1  C   UNL     1     -12.094 -15.374  28.221  1.00  0.00     0.048 C 
ATOM      2  C   UNL     1     -12.402 -16.615  29.024  1.00  0.00    -0.008 C 
ATOM      3  C   UNL     1     -12.885 -16.449  30.274  1.00  0.00     0.007 C 
ENDROOT
BRANCH   2   4
ATOM      4  C   UNL     1     -12.077 -17.922  28.400  1.00  0.00     0.159 C 
ATOM      5  O   UNL     1     -11.383 -17.937  27.346  1.00  0.00    -0.295 OA
BRANCH   4   6
ATOM      6  C   UNL     1     -12.541 -19.238  28.946  1.00  0.00     0.091 CG0
ATOM      7  G   UNL     1     -12.049 -19.508  30.385  1.00  0.00     0.000 G0
ENDBRANCH   4   6
ENDBRANCH   2   4
BRANCH   3   8
ATOM      8  C   UNL     1     -13.250 -17.458  31.295  1.00  0.00    -0.003 C 
ATOM      9  C   UNL     1     -12.894 -18.747  31.374  1.00  0.00    -0.020 C 
BRANCH   9  10
ATOM     10  C   UNL     1     -12.032 -19.501  30.390  1.00  0.00    -0.010 CG0
ATOM     11  C   UNL     1     -10.548 -19.112  30.582  1.00  0.00     0.016 C 
ATOM     12  C   UNL     1     -12.169 -21.013  30.683  1.00  0.00     0.016 C 
ATOM     13  G   UNL     1     -12.534 -19.243  28.953  1.00  0.00     0.000 G0
ENDBRANCH   9  10
ENDBRANCH   3   8
TORSDOF 0
ENDMDL
