MODEL 1
REMARK VINA RESULT:    -5.790      0.000      0.000
REMARK INTER + INTRA:          -8.632
REMARK INTER:                  -7.820
REMARK INTRA:                  -0.811
REMARK UNBOUND:                -0.811
REMARK SMILES CC(=O)CCC=C(C)CCC=C(C)C
REMARK SMILES IDX 7 1 6 2 8 3 9 4 10 5 11 6 13 7 12 8 14 9 5 10 4 11 2 12 3 13
REMARK SMILES IDX 1 14
REMARK H PARENT
REMARK Flexibility Score: inf
ROOT
ATOM      1  C   UNL     1      -8.099  32.290  21.428  1.00  0.00    -0.077 C 
ATOM      2  C   UNL     1      -8.185  33.102  22.505  1.00  0.00    -0.028 C 
ATOM      3  C   UNL     1      -7.560  32.776  20.102  1.00  0.00     0.039 C 
ENDROOT
BRANCH   1   4
ATOM      4  C   UNL     1      -8.538  30.847  21.558  1.00  0.00     0.034 C 
BRANCH   4   5
ATOM      5  C   UNL     1      -7.466  30.017  22.272  1.00  0.00     0.032 C 
BRANCH   5   6
ATOM      6  C   UNL     1      -8.097  29.054  23.248  1.00  0.00    -0.028 C 
ATOM      7  C   UNL     1      -7.519  30.451  25.244  1.00  0.00     0.039 C 
ATOM      8  C   UNL     1      -8.156  29.254  24.584  1.00  0.00    -0.080 C 
ATOM      9  C   UNL     1      -8.837  28.237  25.465  1.00  0.00     0.039 C 
ENDBRANCH   5   6
ENDBRANCH   4   5
ENDBRANCH   1   4
BRANCH   2  10
ATOM     10  C   UNL     1      -7.826  34.567  22.499  1.00  0.00     0.035 C 
BRANCH  10  11
ATOM     11  C   UNL     1      -6.984  34.922  23.728  1.00  0.00     0.079 C 
BRANCH  11  12
ATOM     12  C   UNL     1      -7.867  35.252  24.903  1.00  0.00     0.130 C 
ATOM     13  O   UNL     1      -8.794  36.034  24.756  1.00  0.00    -0.300 OA
ATOM     14  C   UNL     1      -7.643  34.629  26.249  1.00  0.00     0.087 C 
ENDBRANCH  11  12
ENDBRANCH  10  11
ENDBRANCH   2  10
TORSDOF 6
ENDMDL
MODEL 2
REMARK VINA RESULT:    -5.786      1.243      3.710
REMARK INTER + INTRA:          -8.626
REMARK INTER:                  -7.507
REMARK INTRA:                  -1.119
REMARK UNBOUND:                -0.811
REMARK SMILES CC(=O)CCC=C(C)CCC=C(C)C
REMARK SMILES IDX 7 1 6 2 8 3 9 4 10 5 11 6 13 7 12 8 14 9 5 10 4 11 2 12 3 13
REMARK SMILES IDX 1 14
REMARK H PARENT
REMARK Flexibility Score: inf
ROOT
ATOM      1  C   UNL     1      -8.477  31.371  24.760  1.00  0.00    -0.077 C 
ATOM      2  C   UNL     1      -7.707  32.265  25.419  1.00  0.00    -0.028 C 
ATOM      3  C   UNL     1      -9.984  31.487  24.726  1.00  0.00     0.039 C 
ENDROOT
BRANCH   1   4
ATOM      4  C   UNL     1      -7.812  30.231  24.019  1.00  0.00     0.034 C 
BRANCH   4   5
ATOM      5  C   UNL     1      -8.405  30.077  22.615  1.00  0.00     0.032 C 
BRANCH   5   6
ATOM      6  C   UNL     1      -7.704  30.985  21.635  1.00  0.00    -0.028 C 
ATOM      7  C   UNL     1      -9.761  32.337  21.174  1.00  0.00     0.039 C 
ATOM      8  C   UNL     1      -8.295  32.025  21.004  1.00  0.00    -0.080 C 
ATOM      9  C   UNL     1      -7.491  32.887  20.065  1.00  0.00     0.039 C 
ENDBRANCH   5   6
ENDBRANCH   4   5
ENDBRANCH   1   4
BRANCH   2  10
ATOM     10  C   UNL     1      -8.242  33.417  26.232  1.00  0.00     0.035 C 
BRANCH  10  11
ATOM     11  C   UNL     1      -7.504  34.713  25.886  1.00  0.00     0.079 C 
BRANCH  11  12
ATOM     12  C   UNL     1      -8.042  35.308  24.610  1.00  0.00     0.130 C 
ATOM     13  O   UNL     1      -8.957  36.115  24.663  1.00  0.00    -0.300 OA
ATOM     14  C   UNL     1      -7.468  34.940  23.274  1.00  0.00     0.087 C 
ENDBRANCH  11  12
ENDBRANCH  10  11
ENDBRANCH   2  10
TORSDOF 6
ENDMDL
MODEL 3
REMARK VINA RESULT:    -5.708      1.697      3.746
REMARK INTER + INTRA:          -8.521
REMARK INTER:                  -7.355
REMARK INTRA:                  -1.165
REMARK UNBOUND:                -0.811
REMARK SMILES CC(=O)CCC=C(C)CCC=C(C)C
REMARK SMILES IDX 7 1 6 2 8 3 9 4 10 5 11 6 13 7 12 8 14 9 5 10 4 11 2 12 3 13
REMARK SMILES IDX 1 14
REMARK H PARENT
REMARK Flexibility Score: inf
ROOT
ATOM      1  C   UNL     1      -8.812  32.007  25.033  1.00  0.00    -0.077 C 
ATOM      2  C   UNL     1      -9.827  31.870  24.149  1.00  0.00    -0.028 C 
ATOM      3  C   UNL     1      -7.869  33.187  24.988  1.00  0.00     0.039 C 
ENDROOT
BRANCH   1   4
ATOM      4  C   UNL     1      -8.628  30.959  26.109  1.00  0.00     0.034 C 
BRANCH   4   5
ATOM      5  C   UNL     1      -7.623  29.893  25.661  1.00  0.00     0.032 C 
BRANCH   5   6
ATOM      6  C   UNL     1      -8.253  28.944  24.672  1.00  0.00    -0.028 C 
ATOM      7  C   UNL     1      -6.933  29.831  22.737  1.00  0.00     0.039 C 
ATOM      8  C   UNL     1      -7.929  28.884  23.360  1.00  0.00    -0.080 C 
ATOM      9  C   UNL     1      -8.603  27.875  22.466  1.00  0.00     0.039 C 
ENDBRANCH   5   6
ENDBRANCH   4   5
ENDBRANCH   1   4
BRANCH   2  10
ATOM     10  C   UNL     1     -10.093  32.815  23.004  1.00  0.00     0.035 C 
BRANCH  10  11
ATOM     11  C   UNL     1      -9.511  32.261  21.700  1.00  0.00     0.079 C 
BRANCH  11  12
ATOM     12  C   UNL     1      -8.430  33.168  21.171  1.00  0.00     0.130 C 
ATOM     13  O   UNL     1      -8.262  34.264  21.684  1.00  0.00    -0.300 OA
ATOM     14  C   UNL     1      -7.545  32.750  20.035  1.00  0.00     0.087 C 
ENDBRANCH  11  12
ENDBRANCH  10  11
ENDBRANCH   2  10
TORSDOF 6
ENDMDL
MODEL 4
REMARK VINA RESULT:    -5.592      1.996      4.259
REMARK INTER + INTRA:          -8.365
REMARK INTER:                  -7.086
REMARK INTRA:                  -1.279
REMARK UNBOUND:                -0.811
REMARK SMILES CC(=O)CCC=C(C)CCC=C(C)C
REMARK SMILES IDX 7 1 6 2 8 3 9 4 10 5 11 6 13 7 12 8 14 9 5 10 4 11 2 12 3 13
REMARK SMILES IDX 1 14
REMARK H PARENT
REMARK Flexibility Score: inf
ROOT
ATOM      1  C   UNL     1      -7.835  34.855  24.722  1.00  0.00    -0.077 C 
ATOM      2  C   UNL     1      -7.312  34.300  23.605  1.00  0.00    -0.028 C 
ATOM      3  C   UNL     1      -8.920  35.905  24.658  1.00  0.00     0.039 C 
ENDROOT
BRANCH   1   4
ATOM      4  C   UNL     1      -7.332  34.398  26.074  1.00  0.00     0.034 C 
BRANCH   4   5
ATOM      5  C   UNL     1      -8.254  33.325  26.661  1.00  0.00     0.032 C 
BRANCH   5   6
ATOM      6  C   UNL     1      -7.785  31.945  26.273  1.00  0.00    -0.028 C 
ATOM      7  C   UNL     1      -9.676  31.578  24.673  1.00  0.00     0.039 C 
ATOM      8  C   UNL     1      -8.397  31.161  25.356  1.00  0.00    -0.080 C 
ATOM      9  C   UNL     1      -7.824  29.808  25.023  1.00  0.00     0.039 C 
ENDBRANCH   5   6
ENDBRANCH   4   5
ENDBRANCH   1   4
BRANCH   2  10
ATOM     10  C   UNL     1      -7.688  34.697  22.199  1.00  0.00     0.035 C 
BRANCH  10  11
ATOM     11  C   UNL     1      -8.651  33.674  21.589  1.00  0.00     0.079 C 
BRANCH  11  12
ATOM     12  C   UNL     1      -7.891  32.576  20.892  1.00  0.00     0.130 C 
ATOM     13  O   UNL     1      -7.364  32.802  19.813  1.00  0.00    -0.300 OA
ATOM     14  C   UNL     1      -7.755  31.211  21.500  1.00  0.00     0.087 C 
ENDBRANCH  11  12
ENDBRANCH  10  11
ENDBRANCH   2  10
TORSDOF 6
ENDMDL
MODEL 5
REMARK VINA RESULT:    -5.582      2.114      5.475
REMARK INTER + INTRA:          -8.351
REMARK INTER:                  -7.426
REMARK INTRA:                  -0.926
REMARK UNBOUND:                -0.811
REMARK SMILES CC(=O)CCC=C(C)CCC=C(C)C
REMARK SMILES IDX 7 1 6 2 8 3 9 4 10 5 11 6 13 7 12 8 14 9 5 10 4 11 2 12 3 13
REMARK SMILES IDX 1 14
REMARK H PARENT
REMARK Flexibility Score: inf
ROOT
ATOM      1  C   UNL     1      -7.666  33.792  25.245  1.00  0.00    -0.077 C 
ATOM      2  C   UNL     1      -7.807  32.502  24.865  1.00  0.00    -0.028 C 
ATOM      3  C   UNL     1      -7.834  34.224  26.684  1.00  0.00     0.039 C 
ENDROOT
BRANCH   1   4
ATOM      4  C   UNL     1      -7.311  34.831  24.203  1.00  0.00     0.034 C 
BRANCH   4   5
ATOM      5  C   UNL     1      -8.351  34.848  23.078  1.00  0.00     0.032 C 
BRANCH   5   6
ATOM      6  C   UNL     1      -7.722  34.460  21.762  1.00  0.00    -0.028 C 
ATOM      7  C   UNL     1      -9.203  32.462  21.462  1.00  0.00     0.039 C 
ATOM      8  C   UNL     1      -8.118  33.408  21.009  1.00  0.00    -0.080 C 
ATOM      9  C   UNL     1      -7.437  33.129  19.694  1.00  0.00     0.039 C 
ENDBRANCH   5   6
ENDBRANCH   4   5
ENDBRANCH   1   4
BRANCH   2  10
ATOM     10  C   UNL     1      -8.204  31.379  25.791  1.00  0.00     0.035 C 
BRANCH  10  11
ATOM     11  C   UNL     1      -7.519  30.072  25.380  1.00  0.00     0.079 C 
BRANCH  11  12
ATOM     12  C   UNL     1      -7.846  29.726  23.951  1.00  0.00     0.130 C 
ATOM     13  O   UNL     1      -8.982  29.381  23.662  1.00  0.00    -0.300 OA
ATOM     14  C   UNL     1      -6.810  29.808  22.869  1.00  0.00     0.087 C 
ENDBRANCH  11  12
ENDBRANCH  10  11
ENDBRANCH   2  10
TORSDOF 6
ENDMDL
MODEL 6
REMARK VINA RESULT:    -5.572      1.561      2.788
REMARK INTER + INTRA:          -8.338
REMARK INTER:                  -7.031
REMARK INTRA:                  -1.306
REMARK UNBOUND:                -0.811
REMARK SMILES CC(=O)CCC=C(C)CCC=C(C)C
REMARK SMILES IDX 7 1 6 2 8 3 9 4 10 5 11 6 13 7 12 8 14 9 5 10 4 11 2 12 3 13
REMARK SMILES IDX 1 14
REMARK H PARENT
REMARK Flexibility Score: inf
ROOT
ATOM      1  C   UNL     1      -7.641  29.515  22.632  1.00  0.00    -0.077 C 
ATOM      2  C   UNL     1      -8.379  30.350  21.866  1.00  0.00    -0.028 C 
ATOM      3  C   UNL     1      -6.451  30.002  23.427  1.00  0.00     0.039 C 
ENDROOT
BRANCH   1   4
ATOM      4  C   UNL     1      -8.028  28.054  22.709  1.00  0.00     0.034 C 
BRANCH   4   5
ATOM      5  C   UNL     1      -9.307  27.875  23.534  1.00  0.00     0.032 C 
BRANCH   5   6
ATOM      6  C   UNL     1      -8.999  27.897  25.011  1.00  0.00    -0.028 C 
ATOM      7  C   UNL     1     -10.005  30.165  25.350  1.00  0.00     0.039 C 
ATOM      8  C   UNL     1      -9.337  28.907  25.845  1.00  0.00    -0.080 C 
ATOM      9  C   UNL     1      -9.004  28.811  27.312  1.00  0.00     0.039 C 
ENDBRANCH   5   6
ENDBRANCH   4   5
ENDBRANCH   1   4
BRANCH   2  10
ATOM     10  C   UNL     1      -8.075  31.814  21.665  1.00  0.00     0.035 C 
BRANCH  10  11
ATOM     11  C   UNL     1      -8.931  32.677  22.598  1.00  0.00     0.079 C 
BRANCH  11  12
ATOM     12  C   UNL     1      -8.061  33.539  23.475  1.00  0.00     0.130 C 
ATOM     13  O   UNL     1      -7.579  34.565  23.019  1.00  0.00    -0.300 OA
ATOM     14  C   UNL     1      -7.783  33.172  24.902  1.00  0.00     0.087 C 
ENDBRANCH  11  12
ENDBRANCH  10  11
ENDBRANCH   2  10
TORSDOF 6
ENDMDL
MODEL 7
REMARK VINA RESULT:    -5.566      2.418      5.367
REMARK INTER + INTRA:          -8.329
REMARK INTER:                  -7.396
REMARK INTRA:                  -0.934
REMARK UNBOUND:                -0.811
REMARK SMILES CC(=O)CCC=C(C)CCC=C(C)C
REMARK SMILES IDX 7 1 6 2 8 3 9 4 10 5 11 6 13 7 12 8 14 9 5 10 4 11 2 12 3 13
REMARK SMILES IDX 1 14
REMARK H PARENT
REMARK Flexibility Score: inf
ROOT
ATOM      1  C   UNL     1      -7.722  30.175  22.406  1.00  0.00    -0.077 C 
ATOM      2  C   UNL     1      -8.580  29.142  22.254  1.00  0.00    -0.028 C 
ATOM      3  C   UNL     1      -6.593  30.134  23.411  1.00  0.00     0.039 C 
ENDROOT
BRANCH   1   4
ATOM      4  C   UNL     1      -7.884  31.400  21.533  1.00  0.00     0.034 C 
BRANCH   4   5
ATOM      5  C   UNL     1      -8.976  32.321  22.088  1.00  0.00     0.032 C 
BRANCH   5   6
ATOM      6  C   UNL     1      -8.513  32.996  23.356  1.00  0.00    -0.028 C 
ATOM      7  C   UNL     1      -7.562  34.972  22.146  1.00  0.00     0.039 C 
ATOM      8  C   UNL     1      -7.904  34.203  23.398  1.00  0.00    -0.080 C 
ATOM      9  C   UNL     1      -7.509  34.797  24.726  1.00  0.00     0.039 C 
ENDBRANCH   5   6
ENDBRANCH   4   5
ENDBRANCH   1   4
BRANCH   2  10
ATOM     10  C   UNL     1      -8.558  27.885  23.089  1.00  0.00     0.035 C 
BRANCH  10  11
ATOM     11  C   UNL     1      -9.725  27.875  24.081  1.00  0.00     0.079 C 
BRANCH  11  12
ATOM     12  C   UNL     1      -9.396  28.701  25.298  1.00  0.00     0.130 C 
ATOM     13  O   UNL     1      -8.629  28.254  26.137  1.00  0.00    -0.300 OA
ATOM     14  C   UNL     1      -9.981  30.068  25.496  1.00  0.00     0.087 C 
ENDBRANCH  11  12
ENDBRANCH  10  11
ENDBRANCH   2  10
TORSDOF 6
ENDMDL
MODEL 8
REMARK VINA RESULT:    -5.478      1.856      4.446
REMARK INTER + INTRA:          -8.210
REMARK INTER:                  -7.167
REMARK INTRA:                  -1.043
REMARK UNBOUND:                -0.811
REMARK SMILES CC(=O)CCC=C(C)CCC=C(C)C
REMARK SMILES IDX 7 1 6 2 8 3 9 4 10 5 11 6 13 7 12 8 14 9 5 10 4 11 2 12 3 13
REMARK SMILES IDX 1 14
REMARK H PARENT
REMARK Flexibility Score: inf
ROOT
ATOM      1  C   UNL     1      -8.028  30.194  23.492  1.00  0.00    -0.077 C 
ATOM      2  C   UNL     1      -9.135  30.218  24.269  1.00  0.00    -0.028 C 
ATOM      3  C   UNL     1      -6.638  30.149  24.083  1.00  0.00     0.039 C 
ENDROOT
BRANCH   1   4
ATOM      4  C   UNL     1      -8.188  30.195  21.987  1.00  0.00     0.034 C 
BRANCH   4   5
ATOM      5  C   UNL     1      -9.167  31.288  21.546  1.00  0.00     0.032 C 
BRANCH   5   6
ATOM      6  C   UNL     1      -8.714  32.642  22.034  1.00  0.00    -0.028 C 
ATOM      7  C   UNL     1      -7.505  33.180  19.908  1.00  0.00     0.039 C 
ATOM      8  C   UNL     1      -7.993  33.516  21.295  1.00  0.00    -0.080 C 
ATOM      9  C   UNL     1      -7.619  34.856  21.874  1.00  0.00     0.039 C 
ENDBRANCH   5   6
ENDBRANCH   4   5
ENDBRANCH   1   4
BRANCH   2  10
ATOM     10  C   UNL     1      -9.117  30.267  25.777  1.00  0.00     0.035 C 
BRANCH  10  11
ATOM     11  C   UNL     1      -9.464  31.672  26.276  1.00  0.00     0.079 C 
BRANCH  11  12
ATOM     12  C   UNL     1      -8.219  32.506  26.428  1.00  0.00     0.130 C 
ATOM     13  O   UNL     1      -7.425  32.245  27.320  1.00  0.00    -0.300 OA
ATOM     14  C   UNL     1      -7.923  33.646  25.499  1.00  0.00     0.087 C 
ENDBRANCH  11  12
ENDBRANCH  10  11
ENDBRANCH   2  10
TORSDOF 6
ENDMDL
MODEL 9
REMARK VINA RESULT:    -5.434      2.048      3.957
REMARK INTER + INTRA:          -8.151
REMARK INTER:                  -7.340
REMARK INTRA:                  -0.811
REMARK UNBOUND:                -0.811
REMARK SMILES CC(=O)CCC=C(C)CCC=C(C)C
REMARK SMILES IDX 7 1 6 2 8 3 9 4 10 5 11 6 13 7 12 8 14 9 5 10 4 11 2 12 3 13
REMARK SMILES IDX 1 14
REMARK H PARENT
REMARK Flexibility Score: inf
ROOT
ATOM      1  C   UNL     1      -7.930  29.667  22.894  1.00  0.00    -0.077 C 
ATOM      2  C   UNL     1      -8.130  30.914  22.412  1.00  0.00    -0.028 C 
ATOM      3  C   UNL     1      -8.538  28.449  22.237  1.00  0.00     0.039 C 
ENDROOT
BRANCH   1   4
ATOM      4  C   UNL     1      -7.058  29.483  24.117  1.00  0.00     0.034 C 
BRANCH   4   5
ATOM      5  C   UNL     1      -7.913  29.399  25.386  1.00  0.00     0.032 C 
BRANCH   5   6
ATOM      6  C   UNL     1      -7.472  30.430  26.397  1.00  0.00    -0.028 C 
ATOM      7  C   UNL     1      -9.300  32.033  25.796  1.00  0.00     0.039 C 
ATOM      8  C   UNL     1      -8.107  31.604  26.613  1.00  0.00    -0.080 C 
ATOM      9  C   UNL     1      -7.596  32.548  27.671  1.00  0.00     0.039 C 
ENDBRANCH   5   6
ENDBRANCH   4   5
ENDBRANCH   1   4
BRANCH   2  10
ATOM     10  C   UNL     1      -9.012  31.240  21.232  1.00  0.00     0.035 C 
BRANCH  10  11
ATOM     11  C   UNL     1      -9.398  32.723  21.240  1.00  0.00     0.079 C 
BRANCH  11  12
ATOM     12  C   UNL     1      -8.212  33.584  20.891  1.00  0.00     0.130 C 
ATOM     13  O   UNL     1      -7.963  34.567  21.572  1.00  0.00    -0.300 OA
ATOM     14  C   UNL     1      -7.319  33.252  19.733  1.00  0.00     0.087 C 
ENDBRANCH  11  12
ENDBRANCH  10  11
ENDBRANCH   2  10
TORSDOF 6
ENDMDL
