MODEL 1
REMARK VINA RESULT:    -4.748      0.000      0.000
REMARK INTER + INTRA:          -5.569
REMARK INTER:                  -5.580
REMARK INTRA:                   0.011
REMARK UNBOUND:                 0.011
REMARK SMILES O=C([O-])C=Cc1ccc(O)c(O)c1
REMARK SMILES IDX 6 1 13 2 7 3 11 4 8 5 9 6 5 7 4 8 2 9 1 10 3 11 12 12 10 14
REMARK H PARENT 12 13 10 15
REMARK Flexibility Score: inf
ROOT
ATOM      1  C   UNL     1     -45.220 -52.209  11.134  1.00  0.00    -0.022 A 
ATOM      2  C   UNL     1     -45.251 -52.741   9.834  1.00  0.00     0.058 A 
ATOM      3  C   UNL     1     -45.679 -50.902  11.352  1.00  0.00     0.012 A 
ATOM      4  C   UNL     1     -45.684 -51.957   8.755  1.00  0.00     0.157 A 
ATOM      5  C   UNL     1     -46.111 -50.119  10.279  1.00  0.00     0.051 A 
ATOM      6  C   UNL     1     -46.113 -50.637   8.980  1.00  0.00     0.157 A 
ENDROOT
BRANCH   1   7
ATOM      7  C   UNL     1     -44.817 -53.035  12.291  1.00  0.00     0.010 C 
ATOM      8  C   UNL     1     -43.613 -53.604  12.457  1.00  0.00     0.025 C 
BRANCH   8   9
ATOM      9  C   UNL     1     -42.425 -53.352  11.619  1.00  0.00     0.064 C 
ATOM     10  O   UNL     1     -41.723 -54.325  11.238  1.00  0.00    -0.545 OA
ATOM     11  O   UNL     1     -42.022 -52.061  11.298  1.00  0.00    -0.545 OA
ENDBRANCH   8   9
ENDBRANCH   1   7
BRANCH   4  12
ATOM     12  O   UNL     1     -45.695 -52.485   7.465  1.00  0.00    -0.504 OA
ATOM     13  H   UNL     1     -45.940 -53.451   7.289  1.00  0.00     0.293 HD
ENDBRANCH   4  12
BRANCH   6  14
ATOM     14  O   UNL     1     -46.546 -49.830   7.928  1.00  0.00    -0.504 OA
ATOM     15  H   UNL     1     -47.267 -50.130   7.282  1.00  0.00     0.293 HD
ENDBRANCH   6  14
TORSDOF 4
ENDMDL
MODEL 2
REMARK VINA RESULT:    -4.708      2.329      3.325
REMARK INTER + INTRA:          -5.523
REMARK INTER:                  -5.386
REMARK INTRA:                  -0.138
REMARK UNBOUND:                 0.011
REMARK SMILES O=C([O-])C=Cc1ccc(O)c(O)c1
REMARK SMILES IDX 6 1 13 2 7 3 11 4 8 5 9 6 5 7 4 8 2 9 1 10 3 11 12 12 10 14
REMARK H PARENT 12 13 10 15
REMARK Flexibility Score: inf
ROOT
ATOM      1  C   UNL     1     -45.131 -52.766   9.598  1.00  0.00    -0.022 A 
ATOM      2  C   UNL     1     -45.803 -53.986   9.420  1.00  0.00     0.058 A 
ATOM      3  C   UNL     1     -44.245 -52.319   8.607  1.00  0.00     0.012 A 
ATOM      4  C   UNL     1     -45.553 -54.778   8.290  1.00  0.00     0.157 A 
ATOM      5  C   UNL     1     -43.992 -53.107   7.481  1.00  0.00     0.051 A 
ATOM      6  C   UNL     1     -44.639 -54.337   7.318  1.00  0.00     0.157 A 
ENDROOT
BRANCH   1   7
ATOM      7  C   UNL     1     -45.421 -51.893  10.754  1.00  0.00     0.010 C 
ATOM      8  C   UNL     1     -45.145 -52.183  12.035  1.00  0.00     0.025 C 
BRANCH   8   9
ATOM      9  C   UNL     1     -44.338 -53.329  12.498  1.00  0.00     0.064 C 
ATOM     10  O   UNL     1     -44.845 -54.152  13.303  1.00  0.00    -0.545 OA
ATOM     11  O   UNL     1     -43.009 -53.480  12.121  1.00  0.00    -0.545 OA
ENDBRANCH   8   9
ENDBRANCH   1   7
BRANCH   4  12
ATOM     12  O   UNL     1     -46.210 -55.997   8.129  1.00  0.00    -0.504 OA
ATOM     13  H   UNL     1     -46.255 -56.679   8.876  1.00  0.00     0.293 HD
ENDBRANCH   4  12
BRANCH   6  14
ATOM     14  O   UNL     1     -44.364 -55.102   6.185  1.00  0.00    -0.504 OA
ATOM     15  H   UNL     1     -44.209 -54.682   5.276  1.00  0.00     0.293 HD
ENDBRANCH   6  14
TORSDOF 4
ENDMDL
MODEL 3
REMARK VINA RESULT:    -4.587      7.152      8.751
REMARK INTER + INTRA:          -5.381
REMARK INTER:                  -5.198
REMARK INTRA:                  -0.183
REMARK UNBOUND:                 0.011
REMARK SMILES O=C([O-])C=Cc1ccc(O)c(O)c1
REMARK SMILES IDX 6 1 13 2 7 3 11 4 8 5 9 6 5 7 4 8 2 9 1 10 3 11 12 12 10 14
REMARK H PARENT 12 13 10 15
REMARK Flexibility Score: inf
ROOT
ATOM      1  C   UNL     1     -46.916 -44.642  13.410  1.00  0.00    -0.022 A 
ATOM      2  C   UNL     1     -47.785 -45.483  14.125  1.00  0.00     0.058 A 
ATOM      3  C   UNL     1     -46.197 -43.654  14.096  1.00  0.00     0.012 A 
ATOM      4  C   UNL     1     -47.975 -45.303  15.502  1.00  0.00     0.157 A 
ATOM      5  C   UNL     1     -46.385 -43.471  15.469  1.00  0.00     0.051 A 
ATOM      6  C   UNL     1     -47.274 -44.288  16.176  1.00  0.00     0.157 A 
ENDROOT
BRANCH   1   7
ATOM      7  C   UNL     1     -46.662 -44.850  11.969  1.00  0.00     0.010 C 
ATOM      8  C   UNL     1     -45.915 -45.834  11.446  1.00  0.00     0.025 C 
BRANCH   8   9
ATOM      9  C   UNL     1     -45.374 -46.986  12.192  1.00  0.00     0.064 C 
ATOM     10  O   UNL     1     -46.051 -48.044  12.266  1.00  0.00    -0.545 OA
ATOM     11  O   UNL     1     -44.166 -46.906  12.875  1.00  0.00    -0.545 OA
ENDBRANCH   8   9
ENDBRANCH   1   7
BRANCH   4  12
ATOM     12  O   UNL     1     -48.853 -46.129  16.203  1.00  0.00    -0.504 OA
ATOM     13  H   UNL     1     -49.343 -45.804  17.027  1.00  0.00     0.293 HD
ENDBRANCH   4  12
BRANCH   6  14
ATOM     14  O   UNL     1     -47.443 -44.081  17.545  1.00  0.00    -0.504 OA
ATOM     15  H   UNL     1     -47.888 -43.248  17.912  1.00  0.00     0.293 HD
ENDBRANCH   6  14
TORSDOF 4
ENDMDL
MODEL 4
REMARK VINA RESULT:    -4.543      2.108      4.073
REMARK INTER + INTRA:          -5.329
REMARK INTER:                  -5.109
REMARK INTRA:                  -0.220
REMARK UNBOUND:                 0.011
REMARK SMILES O=C([O-])C=Cc1ccc(O)c(O)c1
REMARK SMILES IDX 6 1 13 2 7 3 11 4 8 5 9 6 5 7 4 8 2 9 1 10 3 11 12 12 10 14
REMARK H PARENT 12 13 10 15
REMARK Flexibility Score: inf
ROOT
ATOM      1  C   UNL     1     -45.630 -50.972  10.668  1.00  0.00    -0.022 A 
ATOM      2  C   UNL     1     -45.254 -51.996  11.554  1.00  0.00     0.058 A 
ATOM      3  C   UNL     1     -45.890 -51.286   9.327  1.00  0.00     0.012 A 
ATOM      4  C   UNL     1     -45.087 -53.310  11.092  1.00  0.00     0.157 A 
ATOM      5  C   UNL     1     -45.724 -52.594   8.864  1.00  0.00     0.051 A 
ATOM      6  C   UNL     1     -45.321 -53.608   9.739  1.00  0.00     0.157 A 
ENDROOT
BRANCH   1   7
ATOM      7  C   UNL     1     -45.861 -49.593  11.146  1.00  0.00     0.010 C 
ATOM      8  C   UNL     1     -45.007 -48.568  11.005  1.00  0.00     0.025 C 
BRANCH   8   9
ATOM      9  C   UNL     1     -43.778 -48.585  10.188  1.00  0.00     0.064 C 
ATOM     10  O   UNL     1     -42.660 -48.667  10.760  1.00  0.00    -0.545 OA
ATOM     11  O   UNL     1     -43.822 -48.442   8.806  1.00  0.00    -0.545 OA
ENDBRANCH   8   9
ENDBRANCH   1   7
BRANCH   4  12
ATOM     12  O   UNL     1     -44.697 -54.318  11.973  1.00  0.00    -0.504 OA
ATOM     13  H   UNL     1     -43.928 -54.941  11.758  1.00  0.00     0.293 HD
ENDBRANCH   4  12
BRANCH   6  14
ATOM     14  O   UNL     1     -45.161 -54.903   9.247  1.00  0.00    -0.504 OA
ATOM     15  H   UNL     1     -44.898 -55.085   8.286  1.00  0.00     0.293 HD
ENDBRANCH   6  14
TORSDOF 4
ENDMDL
MODEL 5
REMARK VINA RESULT:    -4.533      2.211      4.171
REMARK INTER + INTRA:          -5.317
REMARK INTER:                  -5.040
REMARK INTRA:                  -0.276
REMARK UNBOUND:                 0.011
REMARK SMILES O=C([O-])C=Cc1ccc(O)c(O)c1
REMARK SMILES IDX 6 1 13 2 7 3 11 4 8 5 9 6 5 7 4 8 2 9 1 10 3 11 12 12 10 14
REMARK H PARENT 12 13 10 15
REMARK Flexibility Score: inf
ROOT
ATOM      1  C   UNL     1     -45.877 -50.992  10.083  1.00  0.00    -0.022 A 
ATOM      2  C   UNL     1     -45.381 -52.127   9.419  1.00  0.00     0.058 A 
ATOM      3  C   UNL     1     -45.924 -50.982  11.484  1.00  0.00     0.012 A 
ATOM      4  C   UNL     1     -44.988 -53.260  10.146  1.00  0.00     0.157 A 
ATOM      5  C   UNL     1     -45.533 -52.110  12.210  1.00  0.00     0.051 A 
ATOM      6  C   UNL     1     -45.069 -53.251  11.549  1.00  0.00     0.157 A 
ENDROOT
BRANCH   1   7
ATOM      7  C   UNL     1     -46.246 -49.770   9.339  1.00  0.00     0.010 C 
ATOM      8  C   UNL     1     -45.445 -48.713   9.135  1.00  0.00     0.025 C 
BRANCH   8   9
ATOM      9  C   UNL     1     -44.004 -48.658   9.449  1.00  0.00     0.064 C 
ATOM     10  O   UNL     1     -43.167 -48.927   8.548  1.00  0.00    -0.545 OA
ATOM     11  O   UNL     1     -43.551 -48.387  10.735  1.00  0.00    -0.545 OA
ENDBRANCH   8   9
ENDBRANCH   1   7
BRANCH   4  12
ATOM     12  O   UNL     1     -44.514 -54.390   9.480  1.00  0.00    -0.504 OA
ATOM     13  H   UNL     1     -45.114 -54.945   8.883  1.00  0.00     0.293 HD
ENDBRANCH   4  12
BRANCH   6  14
ATOM     14  O   UNL     1     -44.689 -54.363  12.301  1.00  0.00    -0.504 OA
ATOM     15  H   UNL     1     -44.367 -54.281  13.258  1.00  0.00     0.293 HD
ENDBRANCH   6  14
TORSDOF 4
ENDMDL
MODEL 6
REMARK VINA RESULT:    -4.508      9.239     11.194
REMARK INTER + INTRA:          -5.288
REMARK INTER:                  -5.010
REMARK INTRA:                  -0.278
REMARK UNBOUND:                 0.011
REMARK SMILES O=C([O-])C=Cc1ccc(O)c(O)c1
REMARK SMILES IDX 6 1 13 2 7 3 11 4 8 5 9 6 5 7 4 8 2 9 1 10 3 11 12 12 10 14
REMARK H PARENT 12 13 10 15
REMARK Flexibility Score: inf
ROOT
ATOM      1  C   UNL     1     -43.823 -42.308  10.363  1.00  0.00    -0.022 A 
ATOM      2  C   UNL     1     -44.261 -41.316   9.470  1.00  0.00     0.058 A 
ATOM      3  C   UNL     1     -42.882 -41.979  11.348  1.00  0.00     0.012 A 
ATOM      4  C   UNL     1     -43.724 -40.021   9.526  1.00  0.00     0.157 A 
ATOM      5  C   UNL     1     -42.344 -40.690  11.405  1.00  0.00     0.051 A 
ATOM      6  C   UNL     1     -42.757 -39.710  10.498  1.00  0.00     0.157 A 
ENDROOT
BRANCH   1   7
ATOM      7  C   UNL     1     -44.415 -43.662  10.354  1.00  0.00     0.010 C 
ATOM      8  C   UNL     1     -45.502 -44.039  11.044  1.00  0.00     0.025 C 
BRANCH   8   9
ATOM      9  C   UNL     1     -46.405 -43.133  11.780  1.00  0.00     0.064 C 
ATOM     10  O   UNL     1     -47.307 -42.520  11.153  1.00  0.00    -0.545 OA
ATOM     11  O   UNL     1     -46.237 -42.886  13.138  1.00  0.00    -0.545 OA
ENDBRANCH   8   9
ENDBRANCH   1   7
BRANCH   4  12
ATOM     12  O   UNL     1     -44.150 -39.046   8.626  1.00  0.00    -0.504 OA
ATOM     13  H   UNL     1     -45.130 -38.917   8.409  1.00  0.00     0.293 HD
ENDBRANCH   4  12
BRANCH   6  14
ATOM     14  O   UNL     1     -42.200 -38.433  10.578  1.00  0.00    -0.504 OA
ATOM     15  H   UNL     1     -42.276 -37.765   9.821  1.00  0.00     0.293 HD
ENDBRANCH   6  14
TORSDOF 4
ENDMDL
MODEL 7
REMARK VINA RESULT:    -4.507      1.788      2.555
REMARK INTER + INTRA:          -5.286
REMARK INTER:                  -5.135
REMARK INTRA:                  -0.151
REMARK UNBOUND:                 0.011
REMARK SMILES O=C([O-])C=Cc1ccc(O)c(O)c1
REMARK SMILES IDX 6 1 13 2 7 3 11 4 8 5 9 6 5 7 4 8 2 9 1 10 3 11 12 12 10 14
REMARK H PARENT 12 13 10 15
REMARK Flexibility Score: inf
ROOT
ATOM      1  C   UNL     1     -45.908 -50.106  10.733  1.00  0.00    -0.022 A 
ATOM      2  C   UNL     1     -46.252 -50.223   9.375  1.00  0.00     0.058 A 
ATOM      3  C   UNL     1     -45.642 -48.838  11.267  1.00  0.00     0.012 A 
ATOM      4  C   UNL     1     -46.278 -49.091   8.548  1.00  0.00     0.157 A 
ATOM      5  C   UNL     1     -45.666 -47.708  10.444  1.00  0.00     0.051 A 
ATOM      6  C   UNL     1     -45.979 -47.828   9.087  1.00  0.00     0.157 A 
ENDROOT
BRANCH   1   7
ATOM      7  C   UNL     1     -45.927 -51.279  11.631  1.00  0.00     0.010 C 
ATOM      8  C   UNL     1     -45.132 -52.354  11.522  1.00  0.00     0.025 C 
BRANCH   8   9
ATOM      9  C   UNL     1     -43.977 -52.476  10.611  1.00  0.00     0.064 C 
ATOM     10  O   UNL     1     -44.029 -53.296   9.658  1.00  0.00    -0.545 OA
ATOM     11  O   UNL     1     -42.806 -51.757  10.823  1.00  0.00    -0.545 OA
ENDBRANCH   8   9
ENDBRANCH   1   7
BRANCH   4  12
ATOM     12  O   UNL     1     -46.603 -49.217   7.198  1.00  0.00    -0.504 OA
ATOM     13  H   UNL     1     -46.362 -48.499   6.526  1.00  0.00     0.293 HD
ENDBRANCH   4  12
BRANCH   6  14
ATOM     14  O   UNL     1     -45.992 -46.683   8.290  1.00  0.00    -0.504 OA
ATOM     15  H   UNL     1     -46.837 -46.350   7.840  1.00  0.00     0.293 HD
ENDBRANCH   6  14
TORSDOF 4
ENDMDL
MODEL 8
REMARK VINA RESULT:    -4.482      3.222      4.729
REMARK INTER + INTRA:          -5.257
REMARK INTER:                  -4.972
REMARK INTRA:                  -0.285
REMARK UNBOUND:                 0.011
REMARK SMILES O=C([O-])C=Cc1ccc(O)c(O)c1
REMARK SMILES IDX 6 1 13 2 7 3 11 4 8 5 9 6 5 7 4 8 2 9 1 10 3 11 12 12 10 14
REMARK H PARENT 12 13 10 15
REMARK Flexibility Score: inf
ROOT
ATOM      1  C   UNL     1     -44.593 -49.401   7.102  1.00  0.00    -0.022 A 
ATOM      2  C   UNL     1     -44.863 -49.967   5.845  1.00  0.00     0.058 A 
ATOM      3  C   UNL     1     -45.223 -48.202   7.464  1.00  0.00     0.012 A 
ATOM      4  C   UNL     1     -45.711 -49.315   4.938  1.00  0.00     0.157 A 
ATOM      5  C   UNL     1     -46.068 -47.549   6.562  1.00  0.00     0.051 A 
ATOM      6  C   UNL     1     -46.313 -48.097   5.299  1.00  0.00     0.157 A 
ENDROOT
BRANCH   1   7
ATOM      7  C   UNL     1     -43.745 -50.099   8.090  1.00  0.00     0.010 C 
ATOM      8  C   UNL     1     -44.190 -50.923   9.051  1.00  0.00     0.025 C 
BRANCH   8   9
ATOM      9  C   UNL     1     -45.572 -51.427   9.173  1.00  0.00     0.064 C 
ATOM     10  O   UNL     1     -45.878 -52.521   8.633  1.00  0.00    -0.545 OA
ATOM     11  O   UNL     1     -46.561 -50.686   9.810  1.00  0.00    -0.545 OA
ENDBRANCH   8   9
ENDBRANCH   1   7
BRANCH   4  12
ATOM     12  O   UNL     1     -45.961 -49.874   3.685  1.00  0.00    -0.504 OA
ATOM     13  H   UNL     1     -46.654 -49.482   3.059  1.00  0.00     0.293 HD
ENDBRANCH   4  12
BRANCH   6  14
ATOM     14  O   UNL     1     -47.158 -47.421   4.419  1.00  0.00    -0.504 OA
ATOM     15  H   UNL     1     -46.950 -46.488   4.083  1.00  0.00     0.293 HD
ENDBRANCH   6  14
TORSDOF 4
ENDMDL
MODEL 9
REMARK VINA RESULT:    -4.459      1.743      4.743
REMARK INTER + INTRA:          -5.231
REMARK INTER:                  -5.056
REMARK INTRA:                  -0.175
REMARK UNBOUND:                 0.011
REMARK SMILES O=C([O-])C=Cc1ccc(O)c(O)c1
REMARK SMILES IDX 6 1 13 2 7 3 11 4 8 5 9 6 5 7 4 8 2 9 1 10 3 11 12 12 10 14
REMARK H PARENT 12 13 10 15
REMARK Flexibility Score: inf
ROOT
ATOM      1  C   UNL     1     -43.796 -51.083  10.440  1.00  0.00    -0.022 A 
ATOM      2  C   UNL     1     -42.891 -52.152  10.549  1.00  0.00     0.058 A 
ATOM      3  C   UNL     1     -45.015 -51.141  11.129  1.00  0.00     0.012 A 
ATOM      4  C   UNL     1     -43.224 -53.291  11.296  1.00  0.00     0.157 A 
ATOM      5  C   UNL     1     -45.350 -52.276  11.873  1.00  0.00     0.051 A 
ATOM      6  C   UNL     1     -44.463 -53.354  11.957  1.00  0.00     0.157 A 
ENDROOT
BRANCH   1   7
ATOM      7  C   UNL     1     -43.441 -49.852   9.702  1.00  0.00     0.010 C 
ATOM      8  C   UNL     1     -43.968 -49.472   8.528  1.00  0.00     0.025 C 
BRANCH   8   9
ATOM      9  C   UNL     1     -45.121 -50.107   7.861  1.00  0.00     0.064 C 
ATOM     10  O   UNL     1     -46.276 -49.647   8.058  1.00  0.00    -0.545 OA
ATOM     11  O   UNL     1     -44.971 -51.246   7.078  1.00  0.00    -0.545 OA
ENDBRANCH   8   9
ENDBRANCH   1   7
BRANCH   4  12
ATOM     12  O   UNL     1     -42.330 -54.357  11.386  1.00  0.00    -0.504 OA
ATOM     13  H   UNL     1     -42.572 -55.213  11.868  1.00  0.00     0.293 HD
ENDBRANCH   4  12
BRANCH   6  14
ATOM     14  O   UNL     1     -44.826 -54.474  12.705  1.00  0.00    -0.504 OA
ATOM     15  H   UNL     1     -45.523 -54.428  13.439  1.00  0.00     0.293 HD
ENDBRANCH   6  14
TORSDOF 4
ENDMDL
