MODEL 1
REMARK VINA RESULT:    -5.910      0.000      0.000
REMARK INTER + INTRA:          -8.040
REMARK INTER:                  -8.847
REMARK INTRA:                   0.808
REMARK UNBOUND:                 0.808
REMARK SMILES C=C(CC[C@@H](C(=O)[O-])[C@@H]1[C@H](O)C[C@]2(C)C3=C(CC[C@]12C)[C@@]1(C)CC[C@H](OC(C)=O)C(C)(C)[C@H]1CC3)C(C)C
REMARK SMILES IDX 4 1 5 2 6 3 7 4 8 5 9 6 10 7 19 8 12 9 13 10 18 11 20 12
REMARK SMILES IDX 14 13 15 14 17 15 16 16 35 17 21 18 34 19 33 20 23 21 22 22
REMARK SMILES IDX 30 23 24 24 25 25 31 26 32 27 11 28 26 30 27 31 29 32 28 33
REMARK SMILES IDX 3 34 2 35 1 36 36 37 37 38 38 39
REMARK H PARENT 11 29
REMARK Flexibility Score: inf
ROOT
ATOM      1  C   UNL     1       4.810  29.596  16.776  1.00  0.00     0.014 C 
ENDROOT
BRANCH   1   2
ATOM      2  C   UNL     1       6.241  29.421  16.184  1.00  0.00     0.042 C 
BRANCH   2   3
ATOM      3  C   UNL     1       7.313  29.819  17.195  1.00  0.00     0.045 C 
ATOM      4  O   UNL     1       7.218  30.903  17.836  1.00  0.00    -0.550 OA
ATOM      5  O   UNL     1       8.437  29.032  17.403  1.00  0.00    -0.550 OA
ENDBRANCH   2   3
BRANCH   2   6
ATOM      6  C   UNL     1       6.414  28.016  15.470  1.00  0.00     0.033 C 
ATOM      7  C   UNL     1       6.419  26.731  16.342  1.00  0.00     0.119 C 
ATOM      8  C   UNL     1       7.577  27.855  14.403  1.00  0.00    -0.017 C 
ATOM      9  C   UNL     1       7.687  25.986  15.966  1.00  0.00     0.043 C 
ATOM     10  C   UNL     1       7.980  26.325  14.491  1.00  0.00    -0.003 C 
ATOM     11  C   UNL     1       8.824  28.725  14.724  1.00  0.00     0.012 C 
ATOM     12  C   UNL     1       7.045  28.280  12.996  1.00  0.00     0.013 C 
ATOM     13  C   UNL     1       7.072  25.443  13.580  1.00  0.00     0.017 C 
ATOM     14  C   UNL     1       9.470  25.985  14.209  1.00  0.00    -0.064 C 
ATOM     15  C   UNL     1       9.987  28.373  13.811  1.00  0.00     0.032 C 
ATOM     16  C   UNL     1      10.432  26.938  14.035  1.00  0.00    -0.064 C 
ATOM     17  C   UNL     1       9.882  24.536  14.264  1.00  0.00     0.032 C 
ATOM     18  C   UNL     1      11.962  26.643  14.164  1.00  0.00    -0.008 C 
ATOM     19  C   UNL     1      11.174  24.362  15.032  1.00  0.00     0.009 C 
ATOM     20  C   UNL     1      12.321  25.093  14.295  1.00  0.00     0.009 C 
ATOM     21  C   UNL     1      12.440  27.401  15.439  1.00  0.00     0.015 C 
ATOM     22  C   UNL     1      12.630  27.224  12.887  1.00  0.00     0.016 C 
ATOM     23  C   UNL     1      13.767  24.746  14.900  1.00  0.00     0.005 C 
ATOM     24  C   UNL     1      13.880  27.121  15.843  1.00  0.00     0.047 C 
ATOM     25  C   UNL     1      14.086  25.635  16.138  1.00  0.00     0.182 C 
ATOM     26  C   UNL     1      14.885  24.888  13.820  1.00  0.00     0.015 C 
ATOM     27  C   UNL     1      13.848  23.264  15.370  1.00  0.00     0.015 C 
BRANCH   7  28
ATOM     28  O   UNL     1       6.379  26.963  17.728  1.00  0.00    -0.393 OA
ATOM     29  H   UNL     1       7.270  26.721  18.100  1.00  0.00     0.210 HD
ENDBRANCH   7  28
BRANCH  25  30
ATOM     30  O   UNL     1      15.435  25.420  16.571  1.00  0.00    -0.462 OA
BRANCH  30  31
ATOM     31  C   UNL     1      16.548  26.010  15.957  1.00  0.00     0.302 C 
ATOM     32  O   UNL     1      16.560  27.244  15.700  1.00  0.00    -0.253 OA
ATOM     33  C   UNL     1      17.702  25.148  15.551  1.00  0.00     0.139 C 
ENDBRANCH  30  31
ENDBRANCH  25  30
ENDBRANCH   2   6
ENDBRANCH   1   2
BRANCH   1  34
ATOM     34  C   UNL     1       3.899  30.528  15.961  1.00  0.00     0.031 C 
BRANCH  34  35
ATOM     35  C   UNL     1       2.705  29.764  15.431  1.00  0.00    -0.075 C 
ATOM     36  C   UNL     1       1.585  29.692  16.173  1.00  0.00     0.008 C 
BRANCH  35  37
ATOM     37  C   UNL     1       2.763  29.163  14.034  1.00  0.00     0.008 C 
ATOM     38  C   UNL     1       3.717  29.947  13.127  1.00  0.00     0.012 C 
ATOM     39  C   UNL     1       3.145  27.678  14.082  1.00  0.00     0.012 C 
ENDBRANCH  35  37
ENDBRANCH  34  35
ENDBRANCH   1  34
TORSDOF 9
ENDMDL
MODEL 2
REMARK VINA RESULT:    -5.513      2.955      9.365
REMARK INTER + INTRA:          -7.445
REMARK INTER:                  -7.155
REMARK INTRA:                  -0.290
REMARK UNBOUND:                 0.808
REMARK SMILES C=C(CC[C@@H](C(=O)[O-])[C@@H]1[C@H](O)C[C@]2(C)C3=C(CC[C@]12C)[C@@]1(C)CC[C@H](OC(C)=O)C(C)(C)[C@H]1CC3)C(C)C
REMARK SMILES IDX 4 1 5 2 6 3 7 4 8 5 9 6 10 7 19 8 12 9 13 10 18 11 20 12
REMARK SMILES IDX 14 13 15 14 17 15 16 16 35 17 21 18 34 19 33 20 23 21 22 22
REMARK SMILES IDX 30 23 24 24 25 25 31 26 32 27 11 28 26 30 27 31 29 32 28 33
REMARK SMILES IDX 3 34 2 35 1 36 36 37 37 38 38 39
REMARK H PARENT 11 29
REMARK Flexibility Score: inf
ROOT
ATOM      1  C   UNL     1       9.344  26.825  14.872  1.00  0.00     0.014 C 
ENDROOT
BRANCH   1   2
ATOM      2  C   UNL     1       9.754  28.261  15.316  1.00  0.00     0.042 C 
BRANCH   2   3
ATOM      3  C   UNL     1      11.030  28.717  14.612  1.00  0.00     0.045 C 
ATOM      4  O   UNL     1      10.969  29.316  13.501  1.00  0.00    -0.550 OA
ATOM      5  O   UNL     1      12.284  28.448  15.143  1.00  0.00    -0.550 OA
ENDBRANCH   2   3
BRANCH   2   6
ATOM      6  C   UNL     1       8.523  29.260  15.288  1.00  0.00     0.033 C 
ATOM      7  C   UNL     1       7.920  29.740  16.637  1.00  0.00     0.119 C 
ATOM      8  C   UNL     1       7.303  28.919  14.332  1.00  0.00    -0.017 C 
ATOM      9  C   UNL     1       6.434  29.442  16.550  1.00  0.00     0.043 C 
ATOM     10  C   UNL     1       6.046  29.550  15.062  1.00  0.00    -0.003 C 
ATOM     11  C   UNL     1       7.073  27.393  14.157  1.00  0.00     0.012 C 
ATOM     12  C   UNL     1       7.573  29.529  12.919  1.00  0.00     0.013 C 
ATOM     13  C   UNL     1       5.867  31.054  14.694  1.00  0.00     0.017 C 
ATOM     14  C   UNL     1       4.692  28.812  14.867  1.00  0.00    -0.064 C 
ATOM     15  C   UNL     1       5.771  27.116  13.423  1.00  0.00     0.032 C 
ATOM     16  C   UNL     1       4.582  27.610  14.229  1.00  0.00    -0.064 C 
ATOM     17  C   UNL     1       3.472  29.398  15.531  1.00  0.00     0.032 C 
ATOM     18  C   UNL     1       3.341  26.671  14.380  1.00  0.00    -0.008 C 
ATOM     19  C   UNL     1       2.651  28.325  16.214  1.00  0.00     0.009 C 
ATOM     20  C   UNL     1       2.114  27.330  15.160  1.00  0.00     0.009 C 
ATOM     21  C   UNL     1       3.843  25.416  15.155  1.00  0.00     0.015 C 
ATOM     22  C   UNL     1       2.899  26.296  12.938  1.00  0.00     0.016 C 
ATOM     23  C   UNL     1       1.028  26.313  15.764  1.00  0.00     0.005 C 
ATOM     24  C   UNL     1       2.750  24.434  15.550  1.00  0.00     0.047 C 
ATOM     25  C   UNL     1       1.717  25.101  16.459  1.00  0.00     0.182 C 
ATOM     26  C   UNL     1       0.034  25.822  14.665  1.00  0.00     0.015 C 
ATOM     27  C   UNL     1       0.133  27.004  16.835  1.00  0.00     0.015 C 
BRANCH   7  28
ATOM     28  O   UNL     1       8.476  29.134  17.777  1.00  0.00    -0.393 OA
ATOM     29  H   UNL     1       8.713  29.857  18.417  1.00  0.00     0.210 HD
ENDBRANCH   7  28
BRANCH  25  30
ATOM     30  O   UNL     1       0.739  24.133  16.857  1.00  0.00    -0.462 OA
BRANCH  30  31
ATOM     31  C   UNL     1       0.976  23.145  17.821  1.00  0.00     0.302 C 
ATOM     32  O   UNL     1       0.377  22.036  17.764  1.00  0.00    -0.253 OA
ATOM     33  C   UNL     1       1.902  23.439  18.959  1.00  0.00     0.139 C 
ENDBRANCH  30  31
ENDBRANCH  25  30
ENDBRANCH   2   6
ENDBRANCH   1   2
BRANCH   1  34
ATOM     34  C   UNL     1      10.268  25.714  15.396  1.00  0.00     0.031 C 
BRANCH  34  35
ATOM     35  C   UNL     1      11.045  25.094  14.256  1.00  0.00    -0.075 C 
ATOM     36  C   UNL     1      10.570  25.195  13.001  1.00  0.00     0.008 C 
BRANCH  35  37
ATOM     37  C   UNL     1      12.390  24.440  14.538  1.00  0.00     0.008 C 
ATOM     38  C   UNL     1      13.551  25.325  14.073  1.00  0.00     0.012 C 
ATOM     39  C   UNL     1      12.534  24.078  16.022  1.00  0.00     0.012 C 
ENDBRANCH  35  37
ENDBRANCH  34  35
ENDBRANCH   1  34
TORSDOF 9
ENDMDL
MODEL 3
REMARK VINA RESULT:    -5.406      4.537      8.961
REMARK INTER + INTRA:          -7.285
REMARK INTER:                  -5.782
REMARK INTRA:                  -1.502
REMARK UNBOUND:                 0.808
REMARK SMILES C=C(CC[C@@H](C(=O)[O-])[C@@H]1[C@H](O)C[C@]2(C)C3=C(CC[C@]12C)[C@@]1(C)CC[C@H](OC(C)=O)C(C)(C)[C@H]1CC3)C(C)C
REMARK SMILES IDX 4 1 5 2 6 3 7 4 8 5 9 6 10 7 19 8 12 9 13 10 18 11 20 12
REMARK SMILES IDX 14 13 15 14 17 15 16 16 35 17 21 18 34 19 33 20 23 21 22 22
REMARK SMILES IDX 30 23 24 24 25 25 31 26 32 27 11 28 26 30 27 31 29 32 28 33
REMARK SMILES IDX 3 34 2 35 1 36 36 37 37 38 38 39
REMARK H PARENT 11 29
REMARK Flexibility Score: inf
ROOT
ATOM      1  C   UNL     1       8.473  29.013  14.224  1.00  0.00     0.014 C 
ENDROOT
BRANCH   1   2
ATOM      2  C   UNL     1       7.672  27.680  14.134  1.00  0.00     0.042 C 
BRANCH   2   3
ATOM      3  C   UNL     1       8.606  26.474  14.079  1.00  0.00     0.045 C 
ATOM      4  O   UNL     1       9.811  26.579  14.444  1.00  0.00    -0.550 OA
ATOM      5  O   UNL     1       8.177  25.249  13.586  1.00  0.00    -0.550 OA
ENDBRANCH   2   3
BRANCH   2   6
ATOM      6  C   UNL     1       6.495  27.629  15.196  1.00  0.00     0.033 C 
ATOM      7  C   UNL     1       6.693  26.793  16.490  1.00  0.00     0.119 C 
ATOM      8  C   UNL     1       5.027  27.330  14.672  1.00  0.00    -0.017 C 
ATOM      9  C   UNL     1       5.495  25.862  16.563  1.00  0.00     0.043 C 
ATOM     10  C   UNL     1       4.321  26.596  15.887  1.00  0.00    -0.003 C 
ATOM     11  C   UNL     1       4.999  26.396  13.432  1.00  0.00     0.012 C 
ATOM     12  C   UNL     1       4.341  28.678  14.275  1.00  0.00     0.013 C 
ATOM     13  C   UNL     1       3.715  27.618  16.897  1.00  0.00     0.017 C 
ATOM     14  C   UNL     1       3.242  25.539  15.522  1.00  0.00    -0.064 C 
ATOM     15  C   UNL     1       3.579  25.961  13.106  1.00  0.00     0.032 C 
ATOM     16  C   UNL     1       2.995  25.137  14.241  1.00  0.00    -0.064 C 
ATOM     17  C   UNL     1       2.536  24.837  16.654  1.00  0.00     0.032 C 
ATOM     18  C   UNL     1       2.237  23.815  13.889  1.00  0.00    -0.008 C 
ATOM     19  C   UNL     1       2.443  23.347  16.403  1.00  0.00     0.009 C 
ATOM     20  C   UNL     1       1.579  23.084  15.147  1.00  0.00     0.009 C 
ATOM     21  C   UNL     1       3.293  22.877  13.231  1.00  0.00     0.015 C 
ATOM     22  C   UNL     1       1.126  24.203  12.875  1.00  0.00     0.016 C 
ATOM     23  C   UNL     1       1.217  21.532  14.958  1.00  0.00     0.005 C 
ATOM     24  C   UNL     1       2.800  21.464  12.951  1.00  0.00     0.047 C 
ATOM     25  C   UNL     1       2.370  20.768  14.242  1.00  0.00     0.182 C 
ATOM     26  C   UNL     1      -0.125  21.350  14.181  1.00  0.00     0.015 C 
ATOM     27  C   UNL     1       0.986  20.829  16.328  1.00  0.00     0.015 C 
BRANCH   7  28
ATOM     28  O   UNL     1       7.890  26.057  16.535  1.00  0.00    -0.393 OA
ATOM     29  H   UNL     1       8.621  26.686  16.779  1.00  0.00     0.210 HD
ENDBRANCH   7  28
BRANCH  25  30
ATOM     30  O   UNL     1       1.970  19.425  13.946  1.00  0.00    -0.462 OA
BRANCH  30  31
ATOM     31  C   UNL     1       2.764  18.303  14.219  1.00  0.00     0.302 C 
ATOM     32  O   UNL     1       2.574  17.621  15.263  1.00  0.00    -0.253 OA
ATOM     33  C   UNL     1       3.884  17.954  13.289  1.00  0.00     0.139 C 
ENDBRANCH  30  31
ENDBRANCH  25  30
ENDBRANCH   2   6
ENDBRANCH   1   2
BRANCH   1  34
ATOM     34  C   UNL     1       7.628  30.232  14.631  1.00  0.00     0.031 C 
BRANCH  34  35
ATOM     35  C   UNL     1       7.747  30.482  16.118  1.00  0.00    -0.075 C 
ATOM     36  C   UNL     1       8.943  30.338  16.718  1.00  0.00     0.008 C 
BRANCH  35  37
ATOM     37  C   UNL     1       6.533  30.974  16.892  1.00  0.00     0.008 C 
ATOM     38  C   UNL     1       5.306  31.104  15.984  1.00  0.00     0.012 C 
ATOM     39  C   UNL     1       6.234  30.069  18.095  1.00  0.00     0.012 C 
ENDBRANCH  35  37
ENDBRANCH  34  35
ENDBRANCH   1  34
TORSDOF 9
ENDMDL
MODEL 4
REMARK VINA RESULT:    -5.173      2.581      9.651
REMARK INTER + INTRA:          -6.936
REMARK INTER:                  -5.596
REMARK INTRA:                  -1.340
REMARK UNBOUND:                 0.808
REMARK SMILES C=C(CC[C@@H](C(=O)[O-])[C@@H]1[C@H](O)C[C@]2(C)C3=C(CC[C@]12C)[C@@]1(C)CC[C@H](OC(C)=O)C(C)(C)[C@H]1CC3)C(C)C
REMARK SMILES IDX 4 1 5 2 6 3 7 4 8 5 9 6 10 7 19 8 12 9 13 10 18 11 20 12
REMARK SMILES IDX 14 13 15 14 17 15 16 16 35 17 21 18 34 19 33 20 23 21 22 22
REMARK SMILES IDX 30 23 24 24 25 25 31 26 32 27 11 28 26 30 27 31 29 32 28 33
REMARK SMILES IDX 3 34 2 35 1 36 36 37 37 38 38 39
REMARK H PARENT 11 29
REMARK Flexibility Score: inf
ROOT
ATOM      1  C   UNL     1      12.177  26.007  13.079  1.00  0.00     0.014 C 
ENDROOT
BRANCH   1   2
ATOM      2  C   UNL     1      10.641  26.265  13.134  1.00  0.00     0.042 C 
BRANCH   2   3
ATOM      3  C   UNL     1       9.854  24.968  12.964  1.00  0.00     0.045 C 
ATOM      4  O   UNL     1       8.594  24.990  12.877  1.00  0.00    -0.550 OA
ATOM      5  O   UNL     1      10.490  23.734  12.948  1.00  0.00    -0.550 OA
ENDBRANCH   2   3
BRANCH   2   6
ATOM      6  C   UNL     1      10.244  27.191  14.359  1.00  0.00     0.033 C 
ATOM      7  C   UNL     1       9.767  26.520  15.677  1.00  0.00     0.119 C 
ATOM      8  C   UNL     1       9.276  28.418  14.088  1.00  0.00    -0.017 C 
ATOM      9  C   UNL     1       8.435  27.170  16.008  1.00  0.00     0.043 C 
ATOM     10  C   UNL     1       8.492  28.606  15.453  1.00  0.00    -0.003 C 
ATOM     11  C   UNL     1       8.253  28.149  12.951  1.00  0.00     0.012 C 
ATOM     12  C   UNL     1      10.128  29.664  13.683  1.00  0.00     0.013 C 
ATOM     13  C   UNL     1       9.289  29.501  16.450  1.00  0.00     0.017 C 
ATOM     14  C   UNL     1       7.034  29.136  15.345  1.00  0.00    -0.064 C 
ATOM     15  C   UNL     1       7.211  29.253  12.879  1.00  0.00     0.032 C 
ATOM     16  C   UNL     1       6.387  29.301  14.154  1.00  0.00    -0.064 C 
ATOM     17  C   UNL     1       6.268  29.346  16.626  1.00  0.00     0.032 C 
ATOM     18  C   UNL     1       4.834  29.426  14.035  1.00  0.00    -0.008 C 
ATOM     19  C   UNL     1       4.863  28.795  16.521  1.00  0.00     0.009 C 
ATOM     20  C   UNL     1       4.079  29.569  15.436  1.00  0.00     0.009 C 
ATOM     21  C   UNL     1       4.353  28.133  13.310  1.00  0.00     0.015 C 
ATOM     22  C   UNL     1       4.561  30.686  13.168  1.00  0.00     0.016 C 
ATOM     23  C   UNL     1       2.512  29.223  15.437  1.00  0.00     0.005 C 
ATOM     24  C   UNL     1       2.841  27.974  13.230  1.00  0.00     0.047 C 
ATOM     25  C   UNL     1       2.220  27.926  14.626  1.00  0.00     0.182 C 
ATOM     26  C   UNL     1       1.665  30.414  14.887  1.00  0.00     0.015 C 
ATOM     27  C   UNL     1       1.981  28.987  16.882  1.00  0.00     0.015 C 
BRANCH   7  28
ATOM     28  O   UNL     1       9.628  25.123  15.607  1.00  0.00    -0.393 OA
ATOM     29  H   UNL     1       8.718  24.894  15.937  1.00  0.00     0.210 HD
ENDBRANCH   7  28
BRANCH  25  30
ATOM     30  O   UNL     1       0.808  27.717  14.510  1.00  0.00    -0.462 OA
BRANCH  30  31
ATOM     31  C   UNL     1       0.212  26.450  14.496  1.00  0.00     0.302 C 
ATOM     32  O   UNL     1      -0.125  25.887  15.574  1.00  0.00    -0.253 OA
ATOM     33  C   UNL     1       0.032  25.739  13.192  1.00  0.00     0.139 C 
ENDBRANCH  30  31
ENDBRANCH  25  30
ENDBRANCH   2   6
ENDBRANCH   1   2
BRANCH   1  34
ATOM     34  C   UNL     1      13.026  27.280  12.927  1.00  0.00     0.031 C 
BRANCH  34  35
ATOM     35  C   UNL     1      13.744  27.591  14.222  1.00  0.00    -0.075 C 
ATOM     36  C   UNL     1      13.732  28.849  14.699  1.00  0.00     0.008 C 
BRANCH  35  37
ATOM     37  C   UNL     1      14.396  26.459  15.004  1.00  0.00     0.008 C 
ATOM     38  C   UNL     1      15.918  26.620  15.058  1.00  0.00     0.012 C 
ATOM     39  C   UNL     1      13.803  26.343  16.415  1.00  0.00     0.012 C 
ENDBRANCH  35  37
ENDBRANCH  34  35
ENDBRANCH   1  34
TORSDOF 9
ENDMDL
MODEL 5
REMARK VINA RESULT:    -5.165      3.850      6.783
REMARK INTER + INTRA:          -6.924
REMARK INTER:                  -6.904
REMARK INTRA:                  -0.019
REMARK UNBOUND:                 0.808
REMARK SMILES C=C(CC[C@@H](C(=O)[O-])[C@@H]1[C@H](O)C[C@]2(C)C3=C(CC[C@]12C)[C@@]1(C)CC[C@H](OC(C)=O)C(C)(C)[C@H]1CC3)C(C)C
REMARK SMILES IDX 4 1 5 2 6 3 7 4 8 5 9 6 10 7 19 8 12 9 13 10 18 11 20 12
REMARK SMILES IDX 14 13 15 14 17 15 16 16 35 17 21 18 34 19 33 20 23 21 22 22
REMARK SMILES IDX 30 23 24 24 25 25 31 26 32 27 11 28 26 30 27 31 29 32 28 33
REMARK SMILES IDX 3 34 2 35 1 36 36 37 37 38 38 39
REMARK H PARENT 11 29
REMARK Flexibility Score: inf
ROOT
ATOM      1  C   UNL     1       0.545  24.149  16.027  1.00  0.00     0.014 C 
ENDROOT
BRANCH   1   2
ATOM      2  C   UNL     1       1.710  25.102  16.430  1.00  0.00     0.042 C 
BRANCH   2   3
ATOM      3  C   UNL     1       2.993  24.323  16.712  1.00  0.00     0.045 C 
ATOM      4  O   UNL     1       3.226  23.870  17.868  1.00  0.00    -0.550 OA
ATOM      5  O   UNL     1       3.953  24.133  15.728  1.00  0.00    -0.550 OA
ENDBRANCH   2   3
BRANCH   2   6
ATOM      6  C   UNL     1       1.824  26.340  15.445  1.00  0.00     0.033 C 
ATOM      7  C   UNL     1       2.259  26.087  13.975  1.00  0.00     0.119 C 
ATOM      8  C   UNL     1       2.609  27.625  15.944  1.00  0.00    -0.017 C 
ATOM      9  C   UNL     1       3.429  27.023  13.728  1.00  0.00     0.043 C 
ATOM     10  C   UNL     1       3.204  28.259  14.619  1.00  0.00    -0.003 C 
ATOM     11  C   UNL     1       3.776  27.290  16.912  1.00  0.00     0.012 C 
ATOM     12  C   UNL     1       1.618  28.571  16.697  1.00  0.00     0.013 C 
ATOM     13  C   UNL     1       2.174  29.202  13.925  1.00  0.00     0.017 C 
ATOM     14  C   UNL     1       4.562  29.002  14.758  1.00  0.00    -0.064 C 
ATOM     15  C   UNL     1       4.632  28.517  17.185  1.00  0.00     0.032 C 
ATOM     16  C   UNL     1       5.298  29.003  15.908  1.00  0.00    -0.064 C 
ATOM     17  C   UNL     1       5.146  29.635  13.521  1.00  0.00     0.032 C 
ATOM     18  C   UNL     1       6.816  29.373  15.953  1.00  0.00    -0.008 C 
ATOM     19  C   UNL     1       6.624  29.335  13.396  1.00  0.00     0.009 C 
ATOM     20  C   UNL     1       7.385  29.966  14.585  1.00  0.00     0.009 C 
ATOM     21  C   UNL     1       7.569  28.056  16.307  1.00  0.00     0.015 C 
ATOM     22  C   UNL     1       6.976  30.428  17.083  1.00  0.00     0.016 C 
ATOM     23  C   UNL     1       8.979  29.917  14.397  1.00  0.00     0.005 C 
ATOM     24  C   UNL     1       9.087  28.156  16.249  1.00  0.00     0.047 C 
ATOM     25  C   UNL     1       9.556  28.542  14.845  1.00  0.00     0.182 C 
ATOM     26  C   UNL     1       9.680  31.082  15.165  1.00  0.00     0.015 C 
ATOM     27  C   UNL     1       9.384  30.118  12.907  1.00  0.00     0.015 C 
BRANCH   7  28
ATOM     28  O   UNL     1       2.624  24.759  13.692  1.00  0.00    -0.393 OA
ATOM     29  H   UNL     1       1.877  24.172  13.986  1.00  0.00     0.210 HD
ENDBRANCH   7  28
BRANCH  25  30
ATOM     30  O   UNL     1      10.988  28.568  14.815  1.00  0.00    -0.462 OA
BRANCH  30  31
ATOM     31  C   UNL     1      11.787  27.431  14.992  1.00  0.00     0.302 C 
ATOM     32  O   UNL     1      12.836  27.487  15.689  1.00  0.00    -0.253 OA
ATOM     33  C   UNL     1      11.417  26.160  14.294  1.00  0.00     0.139 C 
ENDBRANCH  30  31
ENDBRANCH  25  30
ENDBRANCH   2   6
ENDBRANCH   1   2
BRANCH   1  34
ATOM     34  C   UNL     1       1.001  22.752  15.576  1.00  0.00     0.031 C 
BRANCH  34  35
ATOM     35  C   UNL     1       0.264  21.682  16.352  1.00  0.00    -0.075 C 
ATOM     36  C   UNL     1      -0.111  21.927  17.620  1.00  0.00     0.008 C 
BRANCH  35  37
ATOM     37  C   UNL     1      -0.112  20.382  15.656  1.00  0.00     0.008 C 
ATOM     38  C   UNL     1       0.812  20.094  14.468  1.00  0.00     0.012 C 
ATOM     39  C   UNL     1      -0.125  19.205  16.641  1.00  0.00     0.012 C 
ENDBRANCH  35  37
ENDBRANCH  34  35
ENDBRANCH   1  34
TORSDOF 9
ENDMDL
MODEL 6
REMARK VINA RESULT:    -5.143      5.118      8.877
REMARK INTER + INTRA:          -6.890
REMARK INTER:                  -6.959
REMARK INTRA:                   0.069
REMARK UNBOUND:                 0.808
REMARK SMILES C=C(CC[C@@H](C(=O)[O-])[C@@H]1[C@H](O)C[C@]2(C)C3=C(CC[C@]12C)[C@@]1(C)CC[C@H](OC(C)=O)C(C)(C)[C@H]1CC3)C(C)C
REMARK SMILES IDX 4 1 5 2 6 3 7 4 8 5 9 6 10 7 19 8 12 9 13 10 18 11 20 12
REMARK SMILES IDX 14 13 15 14 17 15 16 16 35 17 21 18 34 19 33 20 23 21 22 22
REMARK SMILES IDX 30 23 24 24 25 25 31 26 32 27 11 28 26 30 27 31 29 32 28 33
REMARK SMILES IDX 3 34 2 35 1 36 36 37 37 38 38 39
REMARK H PARENT 11 29
REMARK Flexibility Score: inf
ROOT
ATOM      1  C   UNL     1       0.892  20.925  14.262  1.00  0.00     0.014 C 
ENDROOT
BRANCH   1   2
ATOM      2  C   UNL     1       1.992  21.843  14.875  1.00  0.00     0.042 C 
BRANCH   2   3
ATOM      3  C   UNL     1       3.215  21.927  13.966  1.00  0.00     0.045 C 
ATOM      4  O   UNL     1       3.173  22.597  12.895  1.00  0.00    -0.550 OA
ATOM      5  O   UNL     1       4.383  21.239  14.261  1.00  0.00    -0.550 OA
ENDBRANCH   2   3
BRANCH   2   6
ATOM      6  C   UNL     1       1.389  23.214  15.396  1.00  0.00     0.033 C 
ATOM      7  C   UNL     1       0.735  24.180  14.371  1.00  0.00     0.119 C 
ATOM      8  C   UNL     1       2.276  24.102  16.367  1.00  0.00    -0.017 C 
ATOM      9  C   UNL     1       1.417  25.521  14.579  1.00  0.00     0.043 C 
ATOM     10  C   UNL     1       1.818  25.589  16.065  1.00  0.00    -0.003 C 
ATOM     11  C   UNL     1       3.799  23.976  16.087  1.00  0.00     0.012 C 
ATOM     12  C   UNL     1       2.021  23.659  17.844  1.00  0.00     0.013 C 
ATOM     13  C   UNL     1       0.567  25.982  16.908  1.00  0.00     0.017 C 
ATOM     14  C   UNL     1       2.903  26.691  16.218  1.00  0.00    -0.064 C 
ATOM     15  C   UNL     1       4.589  25.004  16.882  1.00  0.00     0.032 C 
ATOM     16  C   UNL     1       4.219  26.414  16.455  1.00  0.00    -0.064 C 
ATOM     17  C   UNL     1       2.494  28.119  15.958  1.00  0.00     0.032 C 
ATOM     18  C   UNL     1       5.368  27.443  16.204  1.00  0.00    -0.008 C 
ATOM     19  C   UNL     1       3.516  28.835  15.103  1.00  0.00     0.009 C 
ATOM     20  C   UNL     1       4.863  28.918  15.859  1.00  0.00     0.009 C 
ATOM     21  C   UNL     1       6.196  26.880  15.009  1.00  0.00     0.015 C 
ATOM     22  C   UNL     1       6.219  27.477  17.504  1.00  0.00     0.016 C 
ATOM     23  C   UNL     1       5.923  29.882  15.134  1.00  0.00     0.005 C 
ATOM     24  C   UNL     1       7.281  27.813  14.492  1.00  0.00     0.047 C 
ATOM     25  C   UNL     1       6.683  29.132  14.002  1.00  0.00     0.182 C 
ATOM     26  C   UNL     1       6.930  30.494  16.159  1.00  0.00     0.015 C 
ATOM     27  C   UNL     1       5.223  31.109  14.479  1.00  0.00     0.015 C 
BRANCH   7  28
ATOM     28  O   UNL     1       0.848  23.775  13.029  1.00  0.00    -0.393 OA
ATOM     29  H   UNL     1       0.387  24.455  12.469  1.00  0.00     0.210 HD
ENDBRANCH   7  28
BRANCH  25  30
ATOM     30  O   UNL     1       7.726  29.957  13.470  1.00  0.00    -0.462 OA
BRANCH  30  31
ATOM     31  C   UNL     1       9.085  29.627  13.539  1.00  0.00     0.302 C 
ATOM     32  O   UNL     1       9.544  28.656  12.878  1.00  0.00    -0.253 OA
ATOM     33  C   UNL     1       9.981  30.400  14.455  1.00  0.00     0.139 C 
ENDBRANCH  30  31
ENDBRANCH  25  30
ENDBRANCH   2   6
ENDBRANCH   1   2
BRANCH   1  34
ATOM     34  C   UNL     1       1.440  19.706  13.501  1.00  0.00     0.031 C 
BRANCH  34  35
ATOM     35  C   UNL     1       1.737  18.576  14.462  1.00  0.00    -0.075 C 
ATOM     36  C   UNL     1       0.878  18.321  15.467  1.00  0.00     0.008 C 
BRANCH  35  37
ATOM     37  C   UNL     1       2.955  17.695  14.225  1.00  0.00     0.008 C 
ATOM     38  C   UNL     1       3.647  17.330  15.542  1.00  0.00     0.012 C 
ATOM     39  C   UNL     1       2.587  16.437  13.428  1.00  0.00     0.012 C 
ENDBRANCH  35  37
ENDBRANCH  34  35
ENDBRANCH   1  34
TORSDOF 9
ENDMDL
MODEL 7
REMARK VINA RESULT:    -4.961      3.813      9.157
REMARK INTER + INTRA:          -6.619
REMARK INTER:                  -6.068
REMARK INTRA:                  -0.551
REMARK UNBOUND:                 0.808
REMARK SMILES C=C(CC[C@@H](C(=O)[O-])[C@@H]1[C@H](O)C[C@]2(C)C3=C(CC[C@]12C)[C@@]1(C)CC[C@H](OC(C)=O)C(C)(C)[C@H]1CC3)C(C)C
REMARK SMILES IDX 4 1 5 2 6 3 7 4 8 5 9 6 10 7 19 8 12 9 13 10 18 11 20 12
REMARK SMILES IDX 14 13 15 14 17 15 16 16 35 17 21 18 34 19 33 20 23 21 22 22
REMARK SMILES IDX 30 23 24 24 25 25 31 26 32 27 11 28 26 30 27 31 29 32 28 33
REMARK SMILES IDX 3 34 2 35 1 36 36 37 37 38 38 39
REMARK H PARENT 11 29
REMARK Flexibility Score: inf
ROOT
ATOM      1  C   UNL     1       8.810  26.714  14.502  1.00  0.00     0.014 C 
ENDROOT
BRANCH   1   2
ATOM      2  C   UNL     1       8.681  28.111  15.179  1.00  0.00     0.042 C 
BRANCH   2   3
ATOM      3  C   UNL     1       8.931  29.237  14.178  1.00  0.00     0.045 C 
ATOM      4  O   UNL     1       8.476  29.161  13.002  1.00  0.00    -0.550 OA
ATOM      5  O   UNL     1       9.697  30.345  14.513  1.00  0.00    -0.550 OA
ENDBRANCH   2   3
BRANCH   2   6
ATOM      6  C   UNL     1       7.371  28.216  16.066  1.00  0.00     0.033 C 
ATOM      7  C   UNL     1       7.255  27.328  17.335  1.00  0.00     0.119 C 
ATOM      8  C   UNL     1       5.964  28.162  15.334  1.00  0.00    -0.017 C 
ATOM      9  C   UNL     1       5.934  26.593  17.200  1.00  0.00     0.043 C 
ATOM     10  C   UNL     1       4.991  27.517  16.405  1.00  0.00    -0.003 C 
ATOM     11  C   UNL     1       5.973  27.275  14.059  1.00  0.00     0.012 C 
ATOM     12  C   UNL     1       5.551  29.609  14.909  1.00  0.00     0.013 C 
ATOM     13  C   UNL     1       4.408  28.594  17.369  1.00  0.00     0.017 C 
ATOM     14  C   UNL     1       3.829  26.648  15.847  1.00  0.00    -0.064 C 
ATOM     15  C   UNL     1       4.565  27.073  13.522  1.00  0.00     0.032 C 
ATOM     16  C   UNL     1       3.709  26.321  14.527  1.00  0.00    -0.064 C 
ATOM     17  C   UNL     1       2.872  26.036  16.838  1.00  0.00     0.032 C 
ATOM     18  C   UNL     1       2.819  25.143  14.015  1.00  0.00    -0.008 C 
ATOM     19  C   UNL     1       2.593  24.586  16.508  1.00  0.00     0.009 C 
ATOM     20  C   UNL     1       1.887  24.491  15.136  1.00  0.00     0.009 C 
ATOM     21  C   UNL     1       3.805  24.068  13.464  1.00  0.00     0.015 C 
ATOM     22  C   UNL     1       1.935  25.723  12.877  1.00  0.00     0.016 C 
ATOM     23  C   UNL     1       1.327  23.019  14.827  1.00  0.00     0.005 C 
ATOM     24  C   UNL     1       3.151  22.757  13.054  1.00  0.00     0.047 C 
ATOM     25  C   UNL     1       2.443  22.104  14.241  1.00  0.00     0.182 C 
ATOM     26  C   UNL     1       0.097  23.066  13.867  1.00  0.00     0.015 C 
ATOM     27  C   UNL     1       0.801  22.326  16.119  1.00  0.00     0.015 C 
BRANCH   7  28
ATOM     28  O   UNL     1       8.310  26.415  17.509  1.00  0.00    -0.393 OA
ATOM     29  H   UNL     1       8.399  25.894  16.667  1.00  0.00     0.210 HD
ENDBRANCH   7  28
BRANCH  25  30
ATOM     30  O   UNL     1       1.892  20.846  13.831  1.00  0.00    -0.462 OA
BRANCH  30  31
ATOM     31  C   UNL     1       2.494  19.612  14.104  1.00  0.00     0.302 C 
ATOM     32  O   UNL     1       1.807  18.641  14.524  1.00  0.00    -0.253 OA
ATOM     33  C   UNL     1       3.976  19.470  13.953  1.00  0.00     0.139 C 
ENDBRANCH  30  31
ENDBRANCH  25  30
ENDBRANCH   2   6
ENDBRANCH   1   2
BRANCH   1  34
ATOM     34  C   UNL     1      10.164  26.468  13.815  1.00  0.00     0.031 C 
BRANCH  34  35
ATOM     35  C   UNL     1      11.162  25.907  14.805  1.00  0.00    -0.075 C 
ATOM     36  C   UNL     1      10.864  24.778  15.475  1.00  0.00     0.008 C 
BRANCH  35  37
ATOM     37  C   UNL     1      12.517  26.582  14.962  1.00  0.00     0.008 C 
ATOM     38  C   UNL     1      12.369  28.093  15.166  1.00  0.00     0.012 C 
ATOM     39  C   UNL     1      13.326  25.948  16.101  1.00  0.00     0.012 C 
ENDBRANCH  35  37
ENDBRANCH  34  35
ENDBRANCH   1  34
TORSDOF 9
ENDMDL
MODEL 8
REMARK VINA RESULT:    -4.872      3.443      9.592
REMARK INTER + INTRA:          -6.485
REMARK INTER:                  -5.452
REMARK INTRA:                  -1.033
REMARK UNBOUND:                 0.808
REMARK SMILES C=C(CC[C@@H](C(=O)[O-])[C@@H]1[C@H](O)C[C@]2(C)C3=C(CC[C@]12C)[C@@]1(C)CC[C@H](OC(C)=O)C(C)(C)[C@H]1CC3)C(C)C
REMARK SMILES IDX 4 1 5 2 6 3 7 4 8 5 9 6 10 7 19 8 12 9 13 10 18 11 20 12
REMARK SMILES IDX 14 13 15 14 17 15 16 16 35 17 21 18 34 19 33 20 23 21 22 22
REMARK SMILES IDX 30 23 24 24 25 25 31 26 32 27 11 28 26 30 27 31 29 32 28 33
REMARK SMILES IDX 3 34 2 35 1 36 36 37 37 38 38 39
REMARK H PARENT 11 29
REMARK Flexibility Score: inf
ROOT
ATOM      1  C   UNL     1      12.301  26.416  13.230  1.00  0.00     0.014 C 
ENDROOT
BRANCH   1   2
ATOM      2  C   UNL     1      10.806  25.978  13.263  1.00  0.00     0.042 C 
BRANCH   2   3
ATOM      3  C   UNL     1      10.669  24.463  13.127  1.00  0.00     0.045 C 
ATOM      4  O   UNL     1      11.696  23.731  13.059  1.00  0.00    -0.550 OA
ATOM      5  O   UNL     1       9.425  23.856  13.026  1.00  0.00    -0.550 OA
ENDBRANCH   2   3
BRANCH   2   6
ATOM      6  C   UNL     1      10.017  26.665  14.455  1.00  0.00     0.033 C 
ATOM      7  C   UNL     1       9.854  25.887  15.789  1.00  0.00     0.119 C 
ATOM      8  C   UNL     1       8.616  27.336  14.137  1.00  0.00    -0.017 C 
ATOM      9  C   UNL     1       8.366  25.895  16.088  1.00  0.00     0.043 C 
ATOM     10  C   UNL     1       7.800  27.196  15.488  1.00  0.00    -0.003 C 
ATOM     11  C   UNL     1       7.838  26.617  13.000  1.00  0.00     0.012 C 
ATOM     12  C   UNL     1       8.845  28.819  13.698  1.00  0.00     0.013 C 
ATOM     13  C   UNL     1       8.103  28.375  16.462  1.00  0.00     0.017 C 
ATOM     14  C   UNL     1       6.260  27.030  15.351  1.00  0.00    -0.064 C 
ATOM     15  C   UNL     1       6.420  27.151  12.884  1.00  0.00     0.032 C 
ATOM     16  C   UNL     1       5.631  26.865  14.151  1.00  0.00    -0.064 C 
ATOM     17  C   UNL     1       5.452  26.915  16.619  1.00  0.00     0.032 C 
ATOM     18  C   UNL     1       4.183  26.293  14.015  1.00  0.00    -0.008 C 
ATOM     19  C   UNL     1       4.432  25.801  16.520  1.00  0.00     0.009 C 
ATOM     20  C   UNL     1       3.413  26.126  15.404  1.00  0.00     0.009 C 
ATOM     21  C   UNL     1       4.333  24.902  13.328  1.00  0.00     0.015 C 
ATOM     22  C   UNL     1       3.404  27.283  13.106  1.00  0.00     0.016 C 
ATOM     23  C   UNL     1       2.155  25.128  15.403  1.00  0.00     0.005 C 
ATOM     24  C   UNL     1       3.046  24.095  13.240  1.00  0.00     0.047 C 
ATOM     25  C   UNL     1       2.479  23.814  14.632  1.00  0.00     0.182 C 
ATOM     26  C   UNL     1       0.884  25.813  14.809  1.00  0.00     0.015 C 
ATOM     27  C   UNL     1       1.751  24.719  16.851  1.00  0.00     0.015 C 
BRANCH   7  28
ATOM     28  O   UNL     1      10.343  24.569  15.763  1.00  0.00    -0.393 OA
ATOM     29  H   UNL     1      10.931  24.482  14.965  1.00  0.00     0.210 HD
ENDBRANCH   7  28
BRANCH  25  30
ATOM     30  O   UNL     1       1.304  23.004  14.511  1.00  0.00    -0.462 OA
BRANCH  30  31
ATOM     31  C   UNL     1       1.290  21.622  14.737  1.00  0.00     0.302 C 
ATOM     32  O   UNL     1       2.002  20.851  14.037  1.00  0.00    -0.253 OA
ATOM     33  C   UNL     1       0.374  21.058  15.778  1.00  0.00     0.139 C 
ENDBRANCH  30  31
ENDBRANCH  25  30
ENDBRANCH   2   6
ENDBRANCH   1   2
BRANCH   1  34
ATOM     34  C   UNL     1      12.511  27.936  13.134  1.00  0.00     0.031 C 
BRANCH  34  35
ATOM     35  C   UNL     1      13.979  28.275  13.274  1.00  0.00    -0.075 C 
ATOM     36  C   UNL     1      14.419  29.482  12.875  1.00  0.00     0.008 C 
BRANCH  35  37
ATOM     37  C   UNL     1      14.914  27.277  13.941  1.00  0.00     0.008 C 
ATOM     38  C   UNL     1      16.196  27.080  13.126  1.00  0.00     0.012 C 
ATOM     39  C   UNL     1      15.236  27.692  15.383  1.00  0.00     0.012 C 
ENDBRANCH  35  37
ENDBRANCH  34  35
ENDBRANCH   1  34
TORSDOF 9
ENDMDL
MODEL 9
REMARK VINA RESULT:    -3.652      3.328      9.804
REMARK INTER + INTRA:          -4.658
REMARK INTER:                  -4.022
REMARK INTRA:                  -0.636
REMARK UNBOUND:                 0.808
REMARK SMILES C=C(CC[C@@H](C(=O)[O-])[C@@H]1[C@H](O)C[C@]2(C)C3=C(CC[C@]12C)[C@@]1(C)CC[C@H](OC(C)=O)C(C)(C)[C@H]1CC3)C(C)C
REMARK SMILES IDX 4 1 5 2 6 3 7 4 8 5 9 6 10 7 19 8 12 9 13 10 18 11 20 12
REMARK SMILES IDX 14 13 15 14 17 15 16 16 35 17 21 18 34 19 33 20 23 21 22 22
REMARK SMILES IDX 30 23 24 24 25 25 31 26 32 27 11 28 26 30 27 31 29 32 28 33
REMARK SMILES IDX 3 34 2 35 1 36 36 37 37 38 38 39
REMARK H PARENT 11 29
REMARK Flexibility Score: inf
ROOT
ATOM      1  C   UNL     1      11.367  27.388  14.390  1.00  0.00     0.014 C 
ENDROOT
BRANCH   1   2
ATOM      2  C   UNL     1       9.886  26.991  14.109  1.00  0.00     0.042 C 
BRANCH   2   3
ATOM      3  C   UNL     1       9.769  25.516  13.735  1.00  0.00     0.045 C 
ATOM      4  O   UNL     1      10.613  24.677  14.160  1.00  0.00    -0.550 OA
ATOM      5  O   UNL     1       8.769  25.063  12.885  1.00  0.00    -0.550 OA
ENDBRANCH   2   3
BRANCH   2   6
ATOM      6  C   UNL     1       8.910  27.525  15.239  1.00  0.00     0.033 C 
ATOM      7  C   UNL     1       8.622  26.617  16.466  1.00  0.00     0.119 C 
ATOM      8  C   UNL     1       7.524  28.156  14.795  1.00  0.00    -0.017 C 
ATOM      9  C   UNL     1       7.109  26.526  16.561  1.00  0.00     0.043 C 
ATOM     10  C   UNL     1       6.549  27.850  16.006  1.00  0.00    -0.003 C 
ATOM     11  C   UNL     1       6.945  27.512  13.505  1.00  0.00     0.012 C 
ATOM     12  C   UNL     1       7.720  29.683  14.523  1.00  0.00     0.013 C 
ATOM     13  C   UNL     1       6.652  28.945  17.112  1.00  0.00     0.017 C 
ATOM     14  C   UNL     1       5.053  27.625  15.649  1.00  0.00    -0.064 C 
ATOM     15  C   UNL     1       5.524  27.986  13.246  1.00  0.00     0.032 C 
ATOM     16  C   UNL     1       4.597  27.545  14.365  1.00  0.00    -0.064 C 
ATOM     17  C   UNL     1       4.095  27.353  16.781  1.00  0.00     0.032 C 
ATOM     18  C   UNL     1       3.215  26.920  13.986  1.00  0.00    -0.008 C 
ATOM     19  C   UNL     1       3.165  26.206  16.449  1.00  0.00     0.009 C 
ATOM     20  C   UNL     1       2.282  26.586  15.238  1.00  0.00     0.009 C 
ATOM     21  C   UNL     1       3.535  25.609  13.206  1.00  0.00     0.015 C 
ATOM     22  C   UNL     1       2.503  27.954  13.070  1.00  0.00     0.016 C 
ATOM     23  C   UNL     1       1.097  25.534  14.980  1.00  0.00     0.005 C 
ATOM     24  C   UNL     1       2.321  24.754  12.875  1.00  0.00     0.047 C 
ATOM     25  C   UNL     1       1.596  24.316  14.148  1.00  0.00     0.182 C 
ATOM     26  C   UNL     1      -0.125  26.211  14.282  1.00  0.00     0.015 C 
ATOM     27  C   UNL     1       0.533  24.972  16.319  1.00  0.00     0.015 C 
BRANCH   7  28
ATOM     28  O   UNL     1       9.187  25.332  16.391  1.00  0.00    -0.393 OA
ATOM     29  H   UNL     1       8.867  24.816  17.178  1.00  0.00     0.210 HD
ENDBRANCH   7  28
BRANCH  25  30
ATOM     30  O   UNL     1       0.496  23.467  13.800  1.00  0.00    -0.462 OA
BRANCH  30  31
ATOM     31  C   UNL     1       0.481  22.086  14.032  1.00  0.00     0.302 C 
ATOM     32  O   UNL     1       0.821  21.620  15.154  1.00  0.00    -0.253 OA
ATOM     33  C   UNL     1       0.117  21.159  12.914  1.00  0.00     0.139 C 
ENDBRANCH  30  31
ENDBRANCH  25  30
ENDBRANCH   2   6
ENDBRANCH   1   2
BRANCH   1  34
ATOM     34  C   UNL     1      12.226  27.555  13.126  1.00  0.00     0.031 C 
BRANCH  34  35
ATOM     35  C   UNL     1      13.547  26.835  13.288  1.00  0.00    -0.075 C 
ATOM     36  C   UNL     1      13.618  25.518  13.024  1.00  0.00     0.008 C 
BRANCH  35  37
ATOM     37  C   UNL     1      14.788  27.631  13.664  1.00  0.00     0.008 C 
ATOM     38  C   UNL     1      14.704  29.074  13.156  1.00  0.00     0.012 C 
ATOM     39  C   UNL     1      15.037  27.593  15.178  1.00  0.00     0.012 C 
ENDBRANCH  35  37
ENDBRANCH  34  35
ENDBRANCH   1  34
TORSDOF 9
ENDMDL
