MODEL 1
REMARK VINA RESULT:    -4.322      0.000      0.000
REMARK INTER + INTRA:          -5.443
REMARK INTER:                  -5.206
REMARK INTRA:                  -0.236
REMARK UNBOUND:                -0.236
REMARK SMILES O=c1c(O)c(-c2ccc(O)c(O)c2)oc2cc(O)cc(O)c12
REMARK SMILES IDX 5 1 3 2 2 3 1 4 22 5 20 6 19 7 17 8 16 9 15 10 14 11 6 12
REMARK SMILES IDX 7 13 8 14 9 15 13 16 11 17 10 18 12 20 4 22 21 24 18 26
REMARK H PARENT 10 19 12 21 4 23 21 25 18 27
REMARK Flexibility Score: inf
ROOT
ATOM      1  C   UNL     1     -19.644  59.719  34.277  1.00  0.00     0.180 A 
ATOM      2  C   UNL     1     -19.460  60.319  35.535  1.00  0.00     0.208 A 
ATOM      3  C   UNL     1     -18.677  59.659  36.496  1.00  0.00     0.238 A 
ATOM      4  O   UNL     1     -18.473  60.226  37.601  1.00  0.00    -0.285 OA
ATOM      5  C   UNL     1     -18.102  58.401  36.193  1.00  0.00     0.111 A 
ATOM      6  C   UNL     1     -17.326  57.625  37.105  1.00  0.00     0.134 A 
ATOM      7  C   UNL     1     -16.696  56.458  36.657  1.00  0.00     0.093 A 
ATOM      8  C   UNL     1     -16.870  56.003  35.346  1.00  0.00     0.123 A 
ATOM      9  C   UNL     1     -17.676  56.722  34.467  1.00  0.00     0.094 A 
ATOM     10  C   UNL     1     -18.286  57.910  34.874  1.00  0.00     0.146 A 
ATOM     11  O   UNL     1     -19.037  58.570  34.001  1.00  0.00    -0.452 OA
ENDROOT
BRANCH   1  12
ATOM     12  C   UNL     1     -20.475  60.341  33.221  1.00  0.00     0.025 A 
ATOM     13  C   UNL     1     -20.042  61.484  32.527  1.00  0.00     0.016 A 
ATOM     14  C   UNL     1     -20.853  62.068  31.552  1.00  0.00     0.051 A 
ATOM     15  C   UNL     1     -22.114  61.529  31.265  1.00  0.00     0.157 A 
ATOM     16  C   UNL     1     -21.749  59.817  32.944  1.00  0.00     0.062 A 
ATOM     17  C   UNL     1     -22.564  60.400  31.967  1.00  0.00     0.158 A 
BRANCH  15  18
ATOM     18  O   UNL     1     -22.921  62.113  30.289  1.00  0.00    -0.504 OA
ATOM     19  H   UNL     1     -23.644  62.782  30.529  1.00  0.00     0.293 HD
ENDBRANCH  15  18
BRANCH  17  20
ATOM     20  O   UNL     1     -23.817  59.842  31.711  1.00  0.00    -0.504 OA
ATOM     21  H   UNL     1     -24.152  59.683  30.768  1.00  0.00     0.293 HD
ENDBRANCH  17  20
ENDBRANCH   1  12
BRANCH   2  22
ATOM     22  O   UNL     1     -20.020  61.570  35.805  1.00  0.00    -0.502 OA
ATOM     23  H   UNL     1     -19.455  62.393  35.977  1.00  0.00     0.293 HD
ENDBRANCH   2  22
BRANCH   6  24
ATOM     24  O   UNL     1     -17.164  57.940  38.458  1.00  0.00    -0.507 OA
ATOM     25  H   UNL     1     -17.345  57.305  39.221  1.00  0.00     0.293 HD
ENDBRANCH   6  24
BRANCH   8  26
ATOM     26  O   UNL     1     -16.254  54.831  34.913  1.00  0.00    -0.508 OA
ATOM     27  H   UNL     1     -15.251  54.703  34.982  1.00  0.00     0.293 HD
ENDBRANCH   8  26
TORSDOF 6
ENDMDL
MODEL 2
REMARK VINA RESULT:    -4.105      2.412      6.949
REMARK INTER + INTRA:          -5.182
REMARK INTER:                  -4.857
REMARK INTRA:                  -0.325
REMARK UNBOUND:                -0.236
REMARK SMILES O=c1c(O)c(-c2ccc(O)c(O)c2)oc2cc(O)cc(O)c12
REMARK SMILES IDX 5 1 3 2 2 3 1 4 22 5 20 6 19 7 17 8 16 9 15 10 14 11 6 12
REMARK SMILES IDX 7 13 8 14 9 15 13 16 11 17 10 18 12 20 4 22 21 24 18 26
REMARK H PARENT 10 19 12 21 4 23 21 25 18 27
REMARK Flexibility Score: inf
ROOT
ATOM      1  C   UNL     1     -18.068  56.120  36.211  1.00  0.00     0.180 A 
ATOM      2  C   UNL     1     -17.961  56.773  37.451  1.00  0.00     0.208 A 
ATOM      3  C   UNL     1     -18.233  58.149  37.523  1.00  0.00     0.238 A 
ATOM      4  O   UNL     1     -18.187  58.717  38.646  1.00  0.00    -0.285 OA
ATOM      5  C   UNL     1     -18.594  58.857  36.351  1.00  0.00     0.111 A 
ATOM      6  C   UNL     1     -18.852  60.259  36.300  1.00  0.00     0.134 A 
ATOM      7  C   UNL     1     -19.329  60.831  35.114  1.00  0.00     0.093 A 
ATOM      8  C   UNL     1     -19.494  60.062  33.958  1.00  0.00     0.123 A 
ATOM      9  C   UNL     1     -19.186  58.704  33.983  1.00  0.00     0.094 A 
ATOM     10  C   UNL     1     -18.744  58.098  35.161  1.00  0.00     0.146 A 
ATOM     11  O   UNL     1     -18.473  56.798  35.144  1.00  0.00    -0.452 OA
ENDROOT
BRANCH   1  12
ATOM     12  C   UNL     1     -17.773  54.678  36.052  1.00  0.00     0.025 A 
ATOM     13  C   UNL     1     -16.458  54.215  35.869  1.00  0.00     0.016 A 
ATOM     14  C   UNL     1     -16.206  52.852  35.697  1.00  0.00     0.051 A 
ATOM     15  C   UNL     1     -17.264  51.933  35.690  1.00  0.00     0.157 A 
ATOM     16  C   UNL     1     -18.831  53.754  36.023  1.00  0.00     0.062 A 
ATOM     17  C   UNL     1     -18.582  52.388  35.851  1.00  0.00     0.158 A 
BRANCH  15  18
ATOM     18  O   UNL     1     -17.009  50.572  35.520  1.00  0.00    -0.504 OA
ATOM     19  H   UNL     1     -17.732  49.932  35.212  1.00  0.00     0.293 HD
ENDBRANCH  15  18
BRANCH  17  20
ATOM     20  O   UNL     1     -19.658  51.500  35.842  1.00  0.00    -0.504 OA
ATOM     21  H   UNL     1     -20.604  51.803  35.643  1.00  0.00     0.293 HD
ENDBRANCH  17  20
ENDBRANCH   1  12
BRANCH   2  22
ATOM     22  O   UNL     1     -17.623  56.051  38.599  1.00  0.00    -0.502 OA
ATOM     23  H   UNL     1     -18.313  55.758  39.280  1.00  0.00     0.293 HD
ENDBRANCH   2  22
BRANCH   6  24
ATOM     24  O   UNL     1     -18.633  61.134  37.369  1.00  0.00    -0.507 OA
ATOM     25  H   UNL     1     -17.766  61.209  37.880  1.00  0.00     0.293 HD
ENDBRANCH   6  24
BRANCH   8  26
ATOM     26  O   UNL     1     -19.953  60.642  32.778  1.00  0.00    -0.508 OA
ATOM     27  H   UNL     1     -20.352  60.083  32.033  1.00  0.00     0.293 HD
ENDBRANCH   8  26
TORSDOF 6
ENDMDL
MODEL 3
REMARK VINA RESULT:    -4.076     17.630     18.990
REMARK INTER + INTRA:          -5.147
REMARK INTER:                  -5.381
REMARK INTRA:                   0.234
REMARK UNBOUND:                -0.236
REMARK SMILES O=c1c(O)c(-c2ccc(O)c(O)c2)oc2cc(O)cc(O)c12
REMARK SMILES IDX 5 1 3 2 2 3 1 4 22 5 20 6 19 7 17 8 16 9 15 10 14 11 6 12
REMARK SMILES IDX 7 13 8 14 9 15 13 16 11 17 10 18 12 20 4 22 21 24 18 26
REMARK H PARENT 10 19 12 21 4 23 21 25 18 27
REMARK Flexibility Score: inf
ROOT
ATOM      1  C   UNL     1     -31.017  44.504  36.242  1.00  0.00     0.180 A 
ATOM      2  C   UNL     1     -30.606  43.227  35.822  1.00  0.00     0.208 A 
ATOM      3  C   UNL     1     -29.434  43.106  35.057  1.00  0.00     0.238 A 
ATOM      4  O   UNL     1     -29.044  41.955  34.730  1.00  0.00    -0.285 OA
ATOM      5  C   UNL     1     -28.698  44.264  34.710  1.00  0.00     0.111 A 
ATOM      6  C   UNL     1     -27.519  44.262  33.905  1.00  0.00     0.134 A 
ATOM      7  C   UNL     1     -26.798  45.450  33.734  1.00  0.00     0.093 A 
ATOM      8  C   UNL     1     -27.250  46.653  34.283  1.00  0.00     0.123 A 
ATOM      9  C   UNL     1     -28.432  46.675  35.019  1.00  0.00     0.094 A 
ATOM     10  C   UNL     1     -29.153  45.500  35.239  1.00  0.00     0.146 A 
ATOM     11  O   UNL     1     -30.269  45.563  35.956  1.00  0.00    -0.452 OA
ENDROOT
BRANCH   1  12
ATOM     12  C   UNL     1     -32.253  44.715  37.029  1.00  0.00     0.025 A 
ATOM     13  C   UNL     1     -32.694  43.765  37.968  1.00  0.00     0.016 A 
ATOM     14  C   UNL     1     -33.876  43.974  38.682  1.00  0.00     0.051 A 
ATOM     15  C   UNL     1     -34.643  45.126  38.460  1.00  0.00     0.157 A 
ATOM     16  C   UNL     1     -33.036  45.857  36.796  1.00  0.00     0.062 A 
ATOM     17  C   UNL     1     -34.221  46.070  37.510  1.00  0.00     0.158 A 
BRANCH  15  18
ATOM     18  O   UNL     1     -35.822  45.332  39.176  1.00  0.00    -0.504 OA
ATOM     19  H   UNL     1     -35.919  45.025  40.137  1.00  0.00     0.293 HD
ENDBRANCH  15  18
BRANCH  17  20
ATOM     20  O   UNL     1     -34.965  47.223  37.260  1.00  0.00    -0.504 OA
ATOM     21  H   UNL     1     -34.597  48.150  37.440  1.00  0.00     0.293 HD
ENDBRANCH  17  20
ENDBRANCH   1  12
BRANCH   2  22
ATOM     22  O   UNL     1     -31.337  42.096  36.194  1.00  0.00    -0.502 OA
ATOM     23  H   UNL     1     -32.232  41.866  35.780  1.00  0.00     0.293 HD
ENDBRANCH   2  22
BRANCH   6  24
ATOM     24  O   UNL     1     -27.032  43.135  33.235  1.00  0.00    -0.507 OA
ATOM     25  H   UNL     1     -27.429  42.754  32.389  1.00  0.00     0.293 HD
ENDBRANCH   6  24
BRANCH   8  26
ATOM     26  O   UNL     1     -26.536  47.834  34.094  1.00  0.00    -0.508 OA
ATOM     27  H   UNL     1     -26.308  48.446  34.869  1.00  0.00     0.293 HD
ENDBRANCH   8  26
TORSDOF 6
ENDMDL
MODEL 4
REMARK VINA RESULT:    -4.072      2.993      6.939
REMARK INTER + INTRA:          -5.142
REMARK INTER:                  -4.820
REMARK INTRA:                  -0.322
REMARK UNBOUND:                -0.236
REMARK SMILES O=c1c(O)c(-c2ccc(O)c(O)c2)oc2cc(O)cc(O)c12
REMARK SMILES IDX 5 1 3 2 2 3 1 4 22 5 20 6 19 7 17 8 16 9 15 10 14 11 6 12
REMARK SMILES IDX 7 13 8 14 9 15 13 16 11 17 10 18 12 20 4 22 21 24 18 26
REMARK H PARENT 10 19 12 21 4 23 21 25 18 27
REMARK Flexibility Score: inf
ROOT
ATOM      1  C   UNL     1     -18.236  56.637  35.691  1.00  0.00     0.180 A 
ATOM      2  C   UNL     1     -18.586  57.259  34.479  1.00  0.00     0.208 A 
ATOM      3  C   UNL     1     -18.865  58.636  34.475  1.00  0.00     0.238 A 
ATOM      4  O   UNL     1     -19.125  59.196  33.378  1.00  0.00    -0.285 OA
ATOM      5  C   UNL     1     -18.806  59.369  35.684  1.00  0.00     0.111 A 
ATOM      6  C   UNL     1     -19.108  60.759  35.804  1.00  0.00     0.134 A 
ATOM      7  C   UNL     1     -18.890  61.411  37.024  1.00  0.00     0.093 A 
ATOM      8  C   UNL     1     -18.442  60.709  38.146  1.00  0.00     0.123 A 
ATOM      9  C   UNL     1     -18.202  59.340  38.054  1.00  0.00     0.094 A 
ATOM     10  C   UNL     1     -18.376  58.669  36.842  1.00  0.00     0.146 A 
ATOM     11  O   UNL     1     -18.125  57.366  36.795  1.00  0.00    -0.452 OA
ENDROOT
BRANCH   1  12
ATOM     12  C   UNL     1     -17.953  55.187  35.779  1.00  0.00     0.025 A 
ATOM     13  C   UNL     1     -16.647  54.686  35.630  1.00  0.00     0.016 A 
ATOM     14  C   UNL     1     -16.407  53.312  35.693  1.00  0.00     0.051 A 
ATOM     15  C   UNL     1     -17.466  52.417  35.892  1.00  0.00     0.157 A 
ATOM     16  C   UNL     1     -19.013  54.284  35.957  1.00  0.00     0.062 A 
ATOM     17  C   UNL     1     -18.776  52.906  36.021  1.00  0.00     0.158 A 
BRANCH  15  18
ATOM     18  O   UNL     1     -17.223  51.045  35.956  1.00  0.00    -0.504 OA
ATOM     19  H   UNL     1     -17.968  50.382  36.137  1.00  0.00     0.293 HD
ENDBRANCH  15  18
BRANCH  17  20
ATOM     20  O   UNL     1     -19.854  52.042  36.212  1.00  0.00    -0.504 OA
ATOM     21  H   UNL     1     -20.251  51.872  37.128  1.00  0.00     0.293 HD
ENDBRANCH  17  20
ENDBRANCH   1  12
BRANCH   2  22
ATOM     22  O   UNL     1     -18.618  56.520  33.293  1.00  0.00    -0.502 OA
ATOM     23  H   UNL     1     -17.776  56.203  32.828  1.00  0.00     0.293 HD
ENDBRANCH   2  22
BRANCH   6  24
ATOM     24  O   UNL     1     -19.646  61.533  34.771  1.00  0.00    -0.507 OA
ATOM     25  H   UNL     1     -19.401  61.441  33.797  1.00  0.00     0.293 HD
ENDBRANCH   6  24
BRANCH   8  26
ATOM     26  O   UNL     1     -18.243  61.362  39.361  1.00  0.00    -0.508 OA
ATOM     27  H   UNL     1     -18.857  62.107  39.669  1.00  0.00     0.293 HD
ENDBRANCH   8  26
TORSDOF 6
ENDMDL
MODEL 5
REMARK VINA RESULT:    -4.052     17.180     18.745
REMARK INTER + INTRA:          -5.118
REMARK INTER:                  -4.882
REMARK INTRA:                  -0.236
REMARK UNBOUND:                -0.236
REMARK SMILES O=c1c(O)c(-c2ccc(O)c(O)c2)oc2cc(O)cc(O)c12
REMARK SMILES IDX 5 1 3 2 2 3 1 4 22 5 20 6 19 7 17 8 16 9 15 10 14 11 6 12
REMARK SMILES IDX 7 13 8 14 9 15 13 16 11 17 10 18 12 20 4 22 21 24 18 26
REMARK H PARENT 10 19 12 21 4 23 21 25 18 27
REMARK Flexibility Score: inf
ROOT
ATOM      1  C   UNL     1     -30.461  45.058  36.132  1.00  0.00     0.180 A 
ATOM      2  C   UNL     1     -31.772  44.583  35.952  1.00  0.00     0.208 A 
ATOM      3  C   UNL     1     -32.780  45.013  36.830  1.00  0.00     0.238 A 
ATOM      4  O   UNL     1     -33.961  44.626  36.631  1.00  0.00    -0.285 OA
ATOM      5  C   UNL     1     -32.461  45.899  37.887  1.00  0.00     0.111 A 
ATOM      6  C   UNL     1     -33.394  46.367  38.861  1.00  0.00     0.134 A 
ATOM      7  C   UNL     1     -32.999  47.344  39.783  1.00  0.00     0.093 A 
ATOM      8  C   UNL     1     -31.686  47.821  39.809  1.00  0.00     0.123 A 
ATOM      9  C   UNL     1     -30.753  47.326  38.901  1.00  0.00     0.094 A 
ATOM     10  C   UNL     1     -31.126  46.378  37.946  1.00  0.00     0.146 A 
ATOM     11  O   UNL     1     -30.209  45.941  37.092  1.00  0.00    -0.452 OA
ENDROOT
BRANCH   1  12
ATOM     12  C   UNL     1     -29.342  44.632  35.262  1.00  0.00     0.025 A 
ATOM     13  C   UNL     1     -28.840  43.319  35.305  1.00  0.00     0.016 A 
ATOM     14  C   UNL     1     -27.768  42.946  34.493  1.00  0.00     0.051 A 
ATOM     15  C   UNL     1     -27.171  43.881  33.636  1.00  0.00     0.157 A 
ATOM     16  C   UNL     1     -28.727  45.570  34.417  1.00  0.00     0.062 A 
ATOM     17  C   UNL     1     -27.651  45.199  33.601  1.00  0.00     0.158 A 
BRANCH  15  18
ATOM     18  O   UNL     1     -26.101  43.504  32.824  1.00  0.00    -0.504 OA
ATOM     19  H   UNL     1     -25.773  44.097  32.071  1.00  0.00     0.293 HD
ENDBRANCH  15  18
BRANCH  17  20
ATOM     20  O   UNL     1     -27.075  46.155  32.765  1.00  0.00    -0.504 OA
ATOM     21  H   UNL     1     -27.260  46.181  31.769  1.00  0.00     0.293 HD
ENDBRANCH  17  20
ENDBRANCH   1  12
BRANCH   2  22
ATOM     22  O   UNL     1     -32.069  43.725  34.889  1.00  0.00    -0.502 OA
ATOM     23  H   UNL     1     -31.365  43.152  34.441  1.00  0.00     0.293 HD
ENDBRANCH   2  22
BRANCH   6  24
ATOM     24  O   UNL     1     -34.703  45.890  38.981  1.00  0.00    -0.507 OA
ATOM     25  H   UNL     1     -35.415  46.306  39.562  1.00  0.00     0.293 HD
ENDBRANCH   6  24
BRANCH   8  26
ATOM     26  O   UNL     1     -31.296  48.781  40.740  1.00  0.00    -0.508 OA
ATOM     27  H   UNL     1     -31.888  49.572  40.965  1.00  0.00     0.293 HD
ENDBRANCH   8  26
TORSDOF 6
ENDMDL
MODEL 6
REMARK VINA RESULT:    -4.029      9.390     10.712
REMARK INTER + INTRA:          -5.089
REMARK INTER:                  -5.099
REMARK INTRA:                   0.010
REMARK UNBOUND:                -0.236
REMARK SMILES O=c1c(O)c(-c2ccc(O)c(O)c2)oc2cc(O)cc(O)c12
REMARK SMILES IDX 5 1 3 2 2 3 1 4 22 5 20 6 19 7 17 8 16 9 15 10 14 11 6 12
REMARK SMILES IDX 7 13 8 14 9 15 13 16 11 17 10 18 12 20 4 22 21 24 18 26
REMARK H PARENT 10 19 12 21 4 23 21 25 18 27
REMARK Flexibility Score: inf
ROOT
ATOM      1  C   UNL     1     -21.864  49.833  30.426  1.00  0.00     0.180 A 
ATOM      2  C   UNL     1     -21.204  48.775  29.778  1.00  0.00     0.208 A 
ATOM      3  C   UNL     1     -20.116  48.157  30.417  1.00  0.00     0.238 A 
ATOM      4  O   UNL     1     -19.563  47.175  29.855  1.00  0.00    -0.285 OA
ATOM      5  C   UNL     1     -19.692  48.616  31.687  1.00  0.00     0.111 A 
ATOM      6  C   UNL     1     -18.578  48.091  32.407  1.00  0.00     0.134 A 
ATOM      7  C   UNL     1     -18.329  48.532  33.713  1.00  0.00     0.093 A 
ATOM      8  C   UNL     1     -19.116  49.527  34.300  1.00  0.00     0.123 A 
ATOM      9  C   UNL     1     -20.169  50.088  33.582  1.00  0.00     0.094 A 
ATOM     10  C   UNL     1     -20.464  49.643  32.292  1.00  0.00     0.146 A 
ATOM     11  O   UNL     1     -21.484  50.196  31.646  1.00  0.00    -0.452 OA
ENDROOT
BRANCH   1  12
ATOM     12  C   UNL     1     -23.002  50.549  29.807  1.00  0.00     0.025 A 
ATOM     13  C   UNL     1     -22.946  51.001  28.476  1.00  0.00     0.016 A 
ATOM     14  C   UNL     1     -24.022  51.696  27.920  1.00  0.00     0.051 A 
ATOM     15  C   UNL     1     -25.164  51.962  28.687  1.00  0.00     0.157 A 
ATOM     16  C   UNL     1     -24.140  50.838  30.577  1.00  0.00     0.062 A 
ATOM     17  C   UNL     1     -25.221  51.534  30.023  1.00  0.00     0.158 A 
BRANCH  15  18
ATOM     18  O   UNL     1     -26.238  52.654  28.129  1.00  0.00    -0.504 OA
ATOM     19  H   UNL     1     -27.049  52.169  27.764  1.00  0.00     0.293 HD
ENDBRANCH  15  18
BRANCH  17  20
ATOM     20  O   UNL     1     -26.340  51.789  30.816  1.00  0.00    -0.504 OA
ATOM     21  H   UNL     1     -27.123  52.336  30.480  1.00  0.00     0.293 HD
ENDBRANCH  17  20
ENDBRANCH   1  12
BRANCH   2  22
ATOM     22  O   UNL     1     -21.652  48.324  28.533  1.00  0.00    -0.502 OA
ATOM     23  H   UNL     1     -22.630  48.149  28.338  1.00  0.00     0.293 HD
ENDBRANCH   2  22
BRANCH   6  24
ATOM     24  O   UNL     1     -17.674  47.162  31.880  1.00  0.00    -0.507 OA
ATOM     25  H   UNL     1     -16.898  47.394  31.279  1.00  0.00     0.293 HD
ENDBRANCH   6  24
BRANCH   8  26
ATOM     26  O   UNL     1     -18.852  49.972  35.593  1.00  0.00    -0.508 OA
ATOM     27  H   UNL     1     -19.308  49.560  36.399  1.00  0.00     0.293 HD
ENDBRANCH   8  26
TORSDOF 6
ENDMDL
MODEL 7
REMARK VINA RESULT:    -4.027      8.888     12.017
REMARK INTER + INTRA:          -5.087
REMARK INTER:                  -4.871
REMARK INTRA:                  -0.216
REMARK UNBOUND:                -0.236
REMARK SMILES O=c1c(O)c(-c2ccc(O)c(O)c2)oc2cc(O)cc(O)c12
REMARK SMILES IDX 5 1 3 2 2 3 1 4 22 5 20 6 19 7 17 8 16 9 15 10 14 11 6 12
REMARK SMILES IDX 7 13 8 14 9 15 13 16 11 17 10 18 12 20 4 22 21 24 18 26
REMARK H PARENT 10 19 12 21 4 23 21 25 18 27
REMARK Flexibility Score: inf
ROOT
ATOM      1  C   UNL     1     -21.858  50.158  31.481  1.00  0.00     0.180 A 
ATOM      2  C   UNL     1     -21.920  50.079  30.079  1.00  0.00     0.208 A 
ATOM      3  C   UNL     1     -23.076  50.530  29.421  1.00  0.00     0.238 A 
ATOM      4  O   UNL     1     -23.104  50.506  28.163  1.00  0.00    -0.285 OA
ATOM      5  C   UNL     1     -24.161  51.039  30.174  1.00  0.00     0.111 A 
ATOM      6  C   UNL     1     -25.396  51.486  29.616  1.00  0.00     0.134 A 
ATOM      7  C   UNL     1     -26.349  52.092  30.442  1.00  0.00     0.093 A 
ATOM      8  C   UNL     1     -26.140  52.208  31.819  1.00  0.00     0.123 A 
ATOM      9  C   UNL     1     -24.963  51.721  32.382  1.00  0.00     0.094 A 
ATOM     10  C   UNL     1     -23.978  51.144  31.578  1.00  0.00     0.146 A 
ATOM     11  O   UNL     1     -22.866  50.702  32.154  1.00  0.00    -0.452 OA
ENDROOT
BRANCH   1  12
ATOM     12  C   UNL     1     -20.685  49.680  32.247  1.00  0.00     0.025 A 
ATOM     13  C   UNL     1     -20.354  48.315  32.304  1.00  0.00     0.016 A 
ATOM     14  C   UNL     1     -19.256  47.884  33.052  1.00  0.00     0.051 A 
ATOM     15  C   UNL     1     -18.480  48.808  33.765  1.00  0.00     0.157 A 
ATOM     16  C   UNL     1     -19.916  50.599  32.980  1.00  0.00     0.062 A 
ATOM     17  C   UNL     1     -18.815  50.171  33.731  1.00  0.00     0.158 A 
BRANCH  15  18
ATOM     18  O   UNL     1     -17.384  48.375  34.510  1.00  0.00    -0.504 OA
ATOM     19  H   UNL     1     -16.437  48.644  34.264  1.00  0.00     0.293 HD
ENDBRANCH  15  18
BRANCH  17  20
ATOM     20  O   UNL     1     -18.068  51.115  34.436  1.00  0.00    -0.504 OA
ATOM     21  H   UNL     1     -18.116  51.195  35.444  1.00  0.00     0.293 HD
ENDBRANCH  17  20
ENDBRANCH   1  12
BRANCH   2  22
ATOM     22  O   UNL     1     -20.829  49.592  29.354  1.00  0.00    -0.502 OA
ATOM     23  H   UNL     1     -20.454  50.075  28.547  1.00  0.00     0.293 HD
ENDBRANCH   2  22
BRANCH   6  24
ATOM     24  O   UNL     1     -25.745  51.334  28.270  1.00  0.00    -0.507 OA
ATOM     25  H   UNL     1     -26.687  51.207  27.931  1.00  0.00     0.293 HD
ENDBRANCH   6  24
BRANCH   8  26
ATOM     26  O   UNL     1     -27.101  52.798  32.638  1.00  0.00    -0.508 OA
ATOM     27  H   UNL     1     -26.846  53.457  33.365  1.00  0.00     0.293 HD
ENDBRANCH   8  26
TORSDOF 6
ENDMDL
MODEL 8
REMARK VINA RESULT:    -4.017      1.859      6.943
REMARK INTER + INTRA:          -5.075
REMARK INTER:                  -4.773
REMARK INTRA:                  -0.302
REMARK UNBOUND:                -0.236
REMARK SMILES O=c1c(O)c(-c2ccc(O)c(O)c2)oc2cc(O)cc(O)c12
REMARK SMILES IDX 5 1 3 2 2 3 1 4 22 5 20 6 19 7 17 8 16 9 15 10 14 11 6 12
REMARK SMILES IDX 7 13 8 14 9 15 13 16 11 17 10 18 12 20 4 22 21 24 18 26
REMARK H PARENT 10 19 12 21 4 23 21 25 18 27
REMARK Flexibility Score: inf
ROOT
ATOM      1  C   UNL     1     -20.381  59.075  33.617  1.00  0.00     0.180 A 
ATOM      2  C   UNL     1     -20.395  60.393  33.130  1.00  0.00     0.208 A 
ATOM      3  C   UNL     1     -21.551  60.872  32.492  1.00  0.00     0.238 A 
ATOM      4  O   UNL     1     -21.576  62.070  32.106  1.00  0.00    -0.285 OA
ATOM      5  C   UNL     1     -22.672  60.022  32.335  1.00  0.00     0.111 A 
ATOM      6  C   UNL     1     -23.880  60.388  31.669  1.00  0.00     0.134 A 
ATOM      7  C   UNL     1     -24.972  59.513  31.687  1.00  0.00     0.093 A 
ATOM      8  C   UNL     1     -24.878  58.256  32.291  1.00  0.00     0.123 A 
ATOM      9  C   UNL     1     -23.684  57.866  32.891  1.00  0.00     0.094 A 
ATOM     10  C   UNL     1     -22.589  58.732  32.921  1.00  0.00     0.146 A 
ATOM     11  O   UNL     1     -21.472  58.324  33.513  1.00  0.00    -0.452 OA
ENDROOT
BRANCH   1  12
ATOM     12  C   UNL     1     -19.193  58.491  34.278  1.00  0.00     0.025 A 
ATOM     13  C   UNL     1     -18.313  57.641  33.585  1.00  0.00     0.016 A 
ATOM     14  C   UNL     1     -17.210  57.083  34.237  1.00  0.00     0.051 A 
ATOM     15  C   UNL     1     -16.978  57.353  35.592  1.00  0.00     0.157 A 
ATOM     16  C   UNL     1     -18.966  58.742  35.642  1.00  0.00     0.062 A 
ATOM     17  C   UNL     1     -17.862  58.184  36.297  1.00  0.00     0.158 A 
BRANCH  15  18
ATOM     18  O   UNL     1     -15.875  56.796  36.239  1.00  0.00    -0.504 OA
ATOM     19  H   UNL     1     -15.982  56.071  36.939  1.00  0.00     0.293 HD
ENDBRANCH  15  18
BRANCH  17  20
ATOM     20  O   UNL     1     -17.663  58.467  37.649  1.00  0.00    -0.504 OA
ATOM     21  H   UNL     1     -17.241  59.334  37.960  1.00  0.00     0.293 HD
ENDBRANCH  17  20
ENDBRANCH   1  12
BRANCH   2  22
ATOM     22  O   UNL     1     -19.285  61.222  33.314  1.00  0.00    -0.502 OA
ATOM     23  H   UNL     1     -18.973  61.878  32.609  1.00  0.00     0.293 HD
ENDBRANCH   2  22
BRANCH   6  24
ATOM     24  O   UNL     1     -24.048  61.580  30.957  1.00  0.00    -0.507 OA
ATOM     25  H   UNL     1     -23.704  61.744  30.022  1.00  0.00     0.293 HD
ENDBRANCH   6  24
BRANCH   8  26
ATOM     26  O   UNL     1     -25.965  57.384  32.291  1.00  0.00    -0.508 OA
ATOM     27  H   UNL     1     -25.942  56.509  32.802  1.00  0.00     0.293 HD
ENDBRANCH   8  26
TORSDOF 6
ENDMDL
MODEL 9
REMARK VINA RESULT:    -3.865      3.692      6.328
REMARK INTER + INTRA:          -4.892
REMARK INTER:                  -4.579
REMARK INTRA:                  -0.313
REMARK UNBOUND:                -0.236
REMARK SMILES O=c1c(O)c(-c2ccc(O)c(O)c2)oc2cc(O)cc(O)c12
REMARK SMILES IDX 5 1 3 2 2 3 1 4 22 5 20 6 19 7 17 8 16 9 15 10 14 11 6 12
REMARK SMILES IDX 7 13 8 14 9 15 13 16 11 17 10 18 12 20 4 22 21 24 18 26
REMARK H PARENT 10 19 12 21 4 23 21 25 18 27
REMARK Flexibility Score: inf
ROOT
ATOM      1  C   UNL     1     -18.301  54.980  35.714  1.00  0.00     0.180 A 
ATOM      2  C   UNL     1     -17.053  54.332  35.718  1.00  0.00     0.208 A 
ATOM      3  C   UNL     1     -17.013  52.931  35.804  1.00  0.00     0.238 A 
ATOM      4  O   UNL     1     -15.895  52.354  35.753  1.00  0.00    -0.285 OA
ATOM      5  C   UNL     1     -18.219  52.197  35.901  1.00  0.00     0.111 A 
ATOM      6  C   UNL     1     -18.296  50.778  36.034  1.00  0.00     0.134 A 
ATOM      7  C   UNL     1     -19.544  50.146  35.990  1.00  0.00     0.093 A 
ATOM      8  C   UNL     1     -20.724  50.888  35.884  1.00  0.00     0.123 A 
ATOM      9  C   UNL     1     -20.662  52.277  35.814  1.00  0.00     0.094 A 
ATOM     10  C   UNL     1     -19.430  52.934  35.819  1.00  0.00     0.146 A 
ATOM     11  O   UNL     1     -19.416  54.259  35.739  1.00  0.00    -0.452 OA
ENDROOT
BRANCH   1  12
ATOM     12  C   UNL     1     -18.423  56.454  35.650  1.00  0.00     0.025 A 
ATOM     13  C   UNL     1     -18.260  57.253  36.796  1.00  0.00     0.016 A 
ATOM     14  C   UNL     1     -18.403  58.640  36.716  1.00  0.00     0.051 A 
ATOM     15  C   UNL     1     -18.727  59.249  35.496  1.00  0.00     0.157 A 
ATOM     16  C   UNL     1     -18.768  57.068  34.434  1.00  0.00     0.062 A 
ATOM     17  C   UNL     1     -18.913  58.458  34.351  1.00  0.00     0.158 A 
BRANCH  15  18
ATOM     18  O   UNL     1     -18.868  60.634  35.420  1.00  0.00    -0.504 OA
ATOM     19  H   UNL     1     -18.799  61.126  34.537  1.00  0.00     0.293 HD
ENDBRANCH  15  18
BRANCH  17  20
ATOM     20  O   UNL     1     -19.242  59.032  33.124  1.00  0.00    -0.504 OA
ATOM     21  H   UNL     1     -19.625  59.967  33.053  1.00  0.00     0.293 HD
ENDBRANCH  17  20
ENDBRANCH   1  12
BRANCH   2  22
ATOM     22  O   UNL     1     -15.875  55.075  35.599  1.00  0.00    -0.502 OA
ATOM     23  H   UNL     1     -15.790  56.020  35.954  1.00  0.00     0.293 HD
ENDBRANCH   2  22
BRANCH   6  24
ATOM     24  O   UNL     1     -17.185  49.952  36.238  1.00  0.00    -0.507 OA
ATOM     25  H   UNL     1     -16.784  49.741  37.140  1.00  0.00     0.293 HD
ENDBRANCH   6  24
BRANCH   8  26
ATOM     26  O   UNL     1     -21.963  50.252  35.857  1.00  0.00    -0.508 OA
ATOM     27  H   UNL     1     -22.755  50.654  35.369  1.00  0.00     0.293 HD
ENDBRANCH   8  26
TORSDOF 6
ENDMDL
