MODEL 1
REMARK VINA RESULT:    -4.144      0.000      0.000
REMARK INTER + INTRA:          -7.099
REMARK INTER:                  -6.324
REMARK INTRA:                  -0.775
REMARK UNBOUND:                -0.775
REMARK SMILES CC(=O)CCC=C(C)CCC=C(C)CCC=C(C)C
REMARK SMILES IDX 10 1 11 2 12 3 13 4 14 5 15 6 16 7 18 8 17 9 19 10 9 11 7 12
REMARK SMILES IDX 6 13 8 14 5 15 4 16 2 17 3 18 1 19
REMARK H PARENT
REMARK Flexibility Score: inf
ROOT
ATOM      1  C   UNL     1      79.167  15.222   4.682  1.00  0.00     0.032 C 
ENDROOT
BRANCH   1   2
ATOM      2  C   UNL     1      77.984  14.830   3.826  1.00  0.00    -0.028 C 
ATOM      3  C   UNL     1      78.046  14.310   2.578  1.00  0.00    -0.077 C 
ATOM      4  C   UNL     1      76.746  14.027   1.867  1.00  0.00     0.039 C 
BRANCH   3   5
ATOM      5  C   UNL     1      79.350  13.987   1.865  1.00  0.00     0.034 C 
BRANCH   5   6
ATOM      6  C   UNL     1      79.664  14.962   0.718  1.00  0.00     0.032 C 
BRANCH   6   7
ATOM      7  C   UNL     1      78.672  16.100   0.647  1.00  0.00    -0.028 C 
ATOM      8  C   UNL     1      80.080  17.647   2.024  1.00  0.00     0.039 C 
ATOM      9  C   UNL     1      78.858  17.318   1.202  1.00  0.00    -0.080 C 
ATOM     10  C   UNL     1      77.796  18.367   0.999  1.00  0.00     0.039 C 
ENDBRANCH   6   7
ENDBRANCH   5   6
ENDBRANCH   3   5
ENDBRANCH   1   2
BRANCH   1  11
ATOM     11  C   UNL     1      79.442  14.176   5.771  1.00  0.00     0.034 C 
BRANCH  11  12
ATOM     12  C   UNL     1      79.909  14.812   7.064  1.00  0.00    -0.077 C 
ATOM     13  C   UNL     1      80.500  14.042   8.006  1.00  0.00    -0.028 C 
ATOM     14  C   UNL     1      79.761  16.306   7.231  1.00  0.00     0.039 C 
BRANCH  13  15
ATOM     15  C   UNL     1      81.001  14.552   9.333  1.00  0.00     0.035 C 
BRANCH  15  16
ATOM     16  C   UNL     1      82.322  13.875   9.715  1.00  0.00     0.079 C 
BRANCH  16  17
ATOM     17  C   UNL     1      82.916  14.520  10.939  1.00  0.00     0.130 C 
ATOM     18  O   UNL     1      83.846  13.974  11.514  1.00  0.00    -0.300 OA
ATOM     19  C   UNL     1      82.399  15.827  11.464  1.00  0.00     0.087 C 
ENDBRANCH  16  17
ENDBRANCH  15  16
ENDBRANCH  13  15
ENDBRANCH  11  12
ENDBRANCH   1  11
TORSDOF 9
ENDMDL
MODEL 2
REMARK VINA RESULT:    -3.976      1.199      1.996
REMARK INTER + INTRA:          -6.843
REMARK INTER:                  -5.972
REMARK INTRA:                  -0.872
REMARK UNBOUND:                -0.775
REMARK SMILES CC(=O)CCC=C(C)CCC=C(C)CCC=C(C)C
REMARK SMILES IDX 10 1 11 2 12 3 13 4 14 5 15 6 16 7 18 8 17 9 19 10 9 11 7 12
REMARK SMILES IDX 6 13 8 14 5 15 4 16 2 17 3 18 1 19
REMARK H PARENT
REMARK Flexibility Score: inf
ROOT
ATOM      1  C   UNL     1      79.416  14.121   6.131  1.00  0.00     0.032 C 
ENDROOT
BRANCH   1   2
ATOM      2  C   UNL     1      80.091  14.027   4.781  1.00  0.00    -0.028 C 
ATOM      3  C   UNL     1      79.476  14.118   3.579  1.00  0.00    -0.077 C 
ATOM      4  C   UNL     1      80.322  13.950   2.341  1.00  0.00     0.039 C 
BRANCH   3   5
ATOM      5  C   UNL     1      77.989  14.391   3.414  1.00  0.00     0.034 C 
BRANCH   5   6
ATOM      6  C   UNL     1      77.699  15.746   2.746  1.00  0.00     0.032 C 
BRANCH   6   7
ATOM      7  C   UNL     1      78.841  16.722   2.913  1.00  0.00    -0.028 C 
ATOM      8  C   UNL     1      78.694  17.568   0.560  1.00  0.00     0.039 C 
ATOM      9  C   UNL     1      79.278  17.565   1.952  1.00  0.00    -0.080 C 
ATOM     10  C   UNL     1      80.397  18.517   2.289  1.00  0.00     0.039 C 
ENDBRANCH   6   7
ENDBRANCH   5   6
ENDBRANCH   3   5
ENDBRANCH   1   2
BRANCH   1  11
ATOM     11  C   UNL     1      79.733  15.453   6.824  1.00  0.00     0.034 C 
BRANCH  11  12
ATOM     12  C   UNL     1      80.142  15.257   8.270  1.00  0.00    -0.077 C 
ATOM     13  C   UNL     1      80.897  14.186   8.605  1.00  0.00    -0.028 C 
ATOM     14  C   UNL     1      79.750  16.307   9.282  1.00  0.00     0.039 C 
BRANCH  13  15
ATOM     15  C   UNL     1      81.363  13.876  10.005  1.00  0.00     0.035 C 
BRANCH  15  16
ATOM     16  C   UNL     1      82.734  14.505  10.276  1.00  0.00     0.079 C 
BRANCH  16  17
ATOM     17  C   UNL     1      83.110  14.358  11.727  1.00  0.00     0.130 C 
ATOM     18  O   UNL     1      84.241  14.648  12.087  1.00  0.00    -0.300 OA
ATOM     19  C   UNL     1      82.120  13.875  12.746  1.00  0.00     0.087 C 
ENDBRANCH  16  17
ENDBRANCH  15  16
ENDBRANCH  13  15
ENDBRANCH  11  12
ENDBRANCH   1  11
TORSDOF 9
ENDMDL
MODEL 3
REMARK VINA RESULT:    -3.244      1.220      2.187
REMARK INTER + INTRA:          -5.726
REMARK INTER:                  -5.844
REMARK INTRA:                   0.118
REMARK UNBOUND:                -0.775
REMARK SMILES CC(=O)CCC=C(C)CCC=C(C)CCC=C(C)C
REMARK SMILES IDX 10 1 11 2 12 3 13 4 14 5 15 6 16 7 18 8 17 9 19 10 9 11 7 12
REMARK SMILES IDX 6 13 8 14 5 15 4 16 2 17 3 18 1 19
REMARK H PARENT
REMARK Flexibility Score: inf
ROOT
ATOM      1  C   UNL     1      78.796  15.663   3.889  1.00  0.00     0.032 C 
ENDROOT
BRANCH   1   2
ATOM      2  C   UNL     1      79.348  14.876   2.722  1.00  0.00    -0.028 C 
ATOM      3  C   UNL     1      79.050  15.080   1.418  1.00  0.00    -0.077 C 
ATOM      4  C   UNL     1      79.672  14.154   0.401  1.00  0.00     0.039 C 
BRANCH   3   5
ATOM      5  C   UNL     1      78.138  16.193   0.927  1.00  0.00     0.034 C 
BRANCH   5   6
ATOM      6  C   UNL     1      78.268  17.484   1.754  1.00  0.00     0.032 C 
BRANCH   6   7
ATOM      7  C   UNL     1      79.434  18.334   1.306  1.00  0.00    -0.028 C 
ATOM      8  C   UNL     1      80.530  18.329   3.559  1.00  0.00     0.039 C 
ATOM      9  C   UNL     1      80.470  18.695   2.095  1.00  0.00    -0.080 C 
ATOM     10  C   UNL     1      81.586  19.504   1.487  1.00  0.00     0.039 C 
ENDBRANCH   6   7
ENDBRANCH   5   6
ENDBRANCH   3   5
ENDBRANCH   1   2
BRANCH   1  11
ATOM     11  C   UNL     1      78.483  14.750   5.083  1.00  0.00     0.034 C 
BRANCH  11  12
ATOM     12  C   UNL     1      79.717  14.451   5.908  1.00  0.00    -0.077 C 
ATOM     13  C   UNL     1      79.635  14.482   7.258  1.00  0.00    -0.028 C 
ATOM     14  C   UNL     1      80.988  14.059   5.194  1.00  0.00     0.039 C 
BRANCH  13  15
ATOM     15  C   UNL     1      80.789  14.210   8.189  1.00  0.00     0.035 C 
BRANCH  15  16
ATOM     16  C   UNL     1      80.951  15.347   9.204  1.00  0.00     0.079 C 
BRANCH  16  17
ATOM     17  C   UNL     1      81.949  14.972  10.268  1.00  0.00     0.130 C 
ATOM     18  O   UNL     1      82.486  13.875  10.229  1.00  0.00    -0.300 OA
ATOM     19  C   UNL     1      82.311  15.923  11.371  1.00  0.00     0.087 C 
ENDBRANCH  16  17
ENDBRANCH  15  16
ENDBRANCH  13  15
ENDBRANCH  11  12
ENDBRANCH   1  11
TORSDOF 9
ENDMDL
MODEL 4
REMARK VINA RESULT:    -3.076      3.061      8.644
REMARK INTER + INTRA:          -5.471
REMARK INTER:                  -4.892
REMARK INTRA:                  -0.578
REMARK UNBOUND:                -0.775
REMARK SMILES CC(=O)CCC=C(C)CCC=C(C)CCC=C(C)C
REMARK SMILES IDX 10 1 11 2 12 3 13 4 14 5 15 6 16 7 18 8 17 9 19 10 9 11 7 12
REMARK SMILES IDX 6 13 8 14 5 15 4 16 2 17 3 18 1 19
REMARK H PARENT
REMARK Flexibility Score: inf
ROOT
ATOM      1  C   UNL     1      79.498  17.083   6.163  1.00  0.00     0.032 C 
ENDROOT
BRANCH   1   2
ATOM      2  C   UNL     1      79.659  15.679   6.699  1.00  0.00    -0.028 C 
ATOM      3  C   UNL     1      80.171  15.346   7.908  1.00  0.00    -0.077 C 
ATOM      4  C   UNL     1      80.292  13.879   8.240  1.00  0.00     0.039 C 
BRANCH   3   5
ATOM      5  C   UNL     1      80.614  16.366   8.944  1.00  0.00     0.034 C 
BRANCH   5   6
ATOM      6  C   UNL     1      80.854  15.747  10.331  1.00  0.00     0.032 C 
BRANCH   6   7
ATOM      7  C   UNL     1      82.324  15.594  10.643  1.00  0.00    -0.028 C 
ATOM      8  C   UNL     1      81.937  14.002  12.538  1.00  0.00     0.039 C 
ATOM      9  C   UNL     1      82.826  14.793  11.608  1.00  0.00    -0.080 C 
ATOM     10  C   UNL     1      84.323  14.708  11.762  1.00  0.00     0.039 C 
ENDBRANCH   6   7
ENDBRANCH   5   6
ENDBRANCH   3   5
ENDBRANCH   1   2
BRANCH   1  11
ATOM     11  C   UNL     1      79.789  17.145   4.658  1.00  0.00     0.034 C 
BRANCH  11  12
ATOM     12  C   UNL     1      79.461  15.840   3.962  1.00  0.00    -0.077 C 
ATOM     13  C   UNL     1      78.194  15.610   3.548  1.00  0.00    -0.028 C 
ATOM     14  C   UNL     1      80.580  14.864   3.690  1.00  0.00     0.039 C 
BRANCH  13  15
ATOM     15  C   UNL     1      77.739  14.353   2.851  1.00  0.00     0.035 C 
BRANCH  15  16
ATOM     16  C   UNL     1      77.365  14.641   1.394  1.00  0.00     0.079 C 
BRANCH  16  17
ATOM     17  C   UNL     1      78.491  15.347   0.685  1.00  0.00     0.130 C 
ATOM     18  O   UNL     1      79.406  14.691   0.208  1.00  0.00    -0.300 OA
ATOM     19  C   UNL     1      78.510  16.840   0.540  1.00  0.00     0.087 C 
ENDBRANCH  16  17
ENDBRANCH  15  16
ENDBRANCH  13  15
ENDBRANCH  11  12
ENDBRANCH   1  11
TORSDOF 9
ENDMDL
MODEL 5
REMARK VINA RESULT:    -2.866      3.303      8.628
REMARK INTER + INTRA:          -5.149
REMARK INTER:                  -4.711
REMARK INTRA:                  -0.438
REMARK UNBOUND:                -0.775
REMARK SMILES CC(=O)CCC=C(C)CCC=C(C)CCC=C(C)C
REMARK SMILES IDX 10 1 11 2 12 3 13 4 14 5 15 6 16 7 18 8 17 9 19 10 9 11 7 12
REMARK SMILES IDX 6 13 8 14 5 15 4 16 2 17 3 18 1 19
REMARK H PARENT
REMARK Flexibility Score: inf
ROOT
ATOM      1  C   UNL     1      78.879  14.169   6.194  1.00  0.00     0.032 C 
ENDROOT
BRANCH   1   2
ATOM      2  C   UNL     1      79.305  15.309   7.091  1.00  0.00    -0.028 C 
ATOM      3  C   UNL     1      80.127  15.211   8.162  1.00  0.00    -0.077 C 
ATOM      4  C   UNL     1      80.396  16.463   8.960  1.00  0.00     0.039 C 
BRANCH   3   5
ATOM      5  C   UNL     1      80.799  13.916   8.591  1.00  0.00     0.034 C 
BRANCH   5   6
ATOM      6  C   UNL     1      82.151  14.143   9.287  1.00  0.00     0.032 C 
BRANCH   6   7
ATOM      7  C   UNL     1      82.080  13.877  10.773  1.00  0.00    -0.028 C 
ATOM      8  C   UNL     1      82.765  16.203  11.400  1.00  0.00     0.039 C 
ATOM      9  C   UNL     1      82.323  14.798  11.731  1.00  0.00    -0.080 C 
ATOM     10  C   UNL     1      82.161  14.391  13.173  1.00  0.00     0.039 C 
ENDBRANCH   6   7
ENDBRANCH   5   6
ENDBRANCH   3   5
ENDBRANCH   1   2
BRANCH   1  11
ATOM     11  C   UNL     1      79.936  13.875   5.121  1.00  0.00     0.034 C 
BRANCH  11  12
ATOM     12  C   UNL     1      79.805  14.799   3.928  1.00  0.00    -0.077 C 
ATOM     13  C   UNL     1      79.767  16.137   4.127  1.00  0.00    -0.028 C 
ATOM     14  C   UNL     1      79.792  14.197   2.543  1.00  0.00     0.039 C 
BRANCH  13  15
ATOM     15  C   UNL     1      79.634  17.159   3.027  1.00  0.00     0.035 C 
BRANCH  15  16
ATOM     16  C   UNL     1      78.213  17.164   2.455  1.00  0.00     0.079 C 
BRANCH  16  17
ATOM     17  C   UNL     1      78.242  17.341   0.959  1.00  0.00     0.130 C 
ATOM     18  O   UNL     1      77.846  18.388   0.470  1.00  0.00    -0.300 OA
ATOM     19  C   UNL     1      78.758  16.261   0.054  1.00  0.00     0.087 C 
ENDBRANCH  16  17
ENDBRANCH  15  16
ENDBRANCH  13  15
ENDBRANCH  11  12
ENDBRANCH   1  11
TORSDOF 9
ENDMDL
MODEL 6
REMARK VINA RESULT:    -2.337      3.248      8.217
REMARK INTER + INTRA:          -4.342
REMARK INTER:                  -4.941
REMARK INTRA:                   0.599
REMARK UNBOUND:                -0.775
REMARK SMILES CC(=O)CCC=C(C)CCC=C(C)CCC=C(C)C
REMARK SMILES IDX 10 1 11 2 12 3 13 4 14 5 15 6 16 7 18 8 17 9 19 10 9 11 7 12
REMARK SMILES IDX 6 13 8 14 5 15 4 16 2 17 3 18 1 19
REMARK H PARENT
REMARK Flexibility Score: inf
ROOT
ATOM      1  C   UNL     1      79.422  17.591   5.018  1.00  0.00     0.032 C 
ENDROOT
BRANCH   1   2
ATOM      2  C   UNL     1      79.270  16.092   5.146  1.00  0.00    -0.028 C 
ATOM      3  C   UNL     1      79.416  15.375   6.285  1.00  0.00    -0.077 C 
ATOM      4  C   UNL     1      79.269  13.876   6.196  1.00  0.00     0.039 C 
BRANCH   3   5
ATOM      5  C   UNL     1      79.704  15.999   7.641  1.00  0.00     0.034 C 
BRANCH   5   6
ATOM      6  C   UNL     1      80.562  15.099   8.546  1.00  0.00     0.032 C 
BRANCH   6   7
ATOM      7  C   UNL     1      81.207  15.871   9.673  1.00  0.00    -0.028 C 
ATOM      8  C   UNL     1      82.417  13.875  10.582  1.00  0.00     0.039 C 
ATOM      9  C   UNL     1      82.064  15.343  10.575  1.00  0.00    -0.080 C 
ATOM     10  C   UNL     1      82.666  16.256  11.611  1.00  0.00     0.039 C 
ENDBRANCH   6   7
ENDBRANCH   5   6
ENDBRANCH   3   5
ENDBRANCH   1   2
BRANCH   1  11
ATOM     11  C   UNL     1      80.074  17.976   3.683  1.00  0.00     0.034 C 
BRANCH  11  12
ATOM     12  C   UNL     1      79.804  16.950   2.603  1.00  0.00    -0.077 C 
ATOM     13  C   UNL     1      78.947  17.253   1.600  1.00  0.00    -0.028 C 
ATOM     14  C   UNL     1      80.557  15.642   2.642  1.00  0.00     0.039 C 
BRANCH  13  15
ATOM     15  C   UNL     1      78.591  16.319   0.472  1.00  0.00     0.035 C 
BRANCH  15  16
ATOM     16  C   UNL     1      78.813  14.859   0.880  1.00  0.00     0.079 C 
BRANCH  16  17
ATOM     17  C   UNL     1      77.505  14.198   1.227  1.00  0.00     0.130 C 
ATOM     18  O   UNL     1      76.738  13.877   0.332  1.00  0.00    -0.300 OA
ATOM     19  C   UNL     1      77.126  13.913   2.651  1.00  0.00     0.087 C 
ENDBRANCH  16  17
ENDBRANCH  15  16
ENDBRANCH  13  15
ENDBRANCH  11  12
ENDBRANCH   1  11
TORSDOF 9
ENDMDL
MODEL 7
REMARK VINA RESULT:    -2.058      1.304      2.824
REMARK INTER + INTRA:          -3.916
REMARK INTER:                  -4.059
REMARK INTRA:                   0.144
REMARK UNBOUND:                -0.775
REMARK SMILES CC(=O)CCC=C(C)CCC=C(C)CCC=C(C)C
REMARK SMILES IDX 10 1 11 2 12 3 13 4 14 5 15 6 16 7 18 8 17 9 19 10 9 11 7 12
REMARK SMILES IDX 6 13 8 14 5 15 4 16 2 17 3 18 1 19
REMARK H PARENT
REMARK Flexibility Score: inf
ROOT
ATOM      1  C   UNL     1      80.021  16.963   4.185  1.00  0.00     0.032 C 
ENDROOT
BRANCH   1   2
ATOM      2  C   UNL     1      79.414  17.373   2.863  1.00  0.00    -0.028 C 
ATOM      3  C   UNL     1      78.190  17.015   2.408  1.00  0.00    -0.077 C 
ATOM      4  C   UNL     1      77.783  17.492   1.036  1.00  0.00     0.039 C 
BRANCH   3   5
ATOM      5  C   UNL     1      77.207  16.176   3.209  1.00  0.00     0.034 C 
BRANCH   5   6
ATOM      6  C   UNL     1      77.088  14.734   2.689  1.00  0.00     0.032 C 
BRANCH   6   7
ATOM      7  C   UNL     1      77.884  14.514   1.424  1.00  0.00    -0.028 C 
ATOM      8  C   UNL     1      79.983  13.895   2.643  1.00  0.00     0.039 C 
ATOM      9  C   UNL     1      79.173  14.109   1.387  1.00  0.00    -0.080 C 
ATOM     10  C   UNL     1      79.815  13.885   0.043  1.00  0.00     0.039 C 
ENDBRANCH   6   7
ENDBRANCH   5   6
ENDBRANCH   3   5
ENDBRANCH   1   2
BRANCH   1  11
ATOM     11  C   UNL     1      78.940  16.707   5.244  1.00  0.00     0.034 C 
BRANCH  11  12
ATOM     12  C   UNL     1      79.374  15.671   6.260  1.00  0.00    -0.077 C 
ATOM     13  C   UNL     1      79.927  16.077   7.426  1.00  0.00    -0.028 C 
ATOM     14  C   UNL     1      79.110  14.213   5.966  1.00  0.00     0.039 C 
BRANCH  13  15
ATOM     15  C   UNL     1      80.404  15.148   8.513  1.00  0.00     0.035 C 
BRANCH  15  16
ATOM     16  C   UNL     1      80.653  15.915   9.816  1.00  0.00     0.079 C 
BRANCH  16  17
ATOM     17  C   UNL     1      81.884  15.396  10.512  1.00  0.00     0.130 C 
ATOM     18  O   UNL     1      82.454  16.102  11.330  1.00  0.00    -0.300 OA
ATOM     19  C   UNL     1      82.422  14.024  10.230  1.00  0.00     0.087 C 
ENDBRANCH  16  17
ENDBRANCH  15  16
ENDBRANCH  13  15
ENDBRANCH  11  12
ENDBRANCH   1  11
TORSDOF 9
ENDMDL
MODEL 8
REMARK VINA RESULT:    -1.560      4.255      7.496
REMARK INTER + INTRA:          -3.156
REMARK INTER:                  -1.403
REMARK INTRA:                  -1.753
REMARK UNBOUND:                -0.775
REMARK SMILES CC(=O)CCC=C(C)CCC=C(C)CCC=C(C)C
REMARK SMILES IDX 10 1 11 2 12 3 13 4 14 5 15 6 16 7 18 8 17 9 19 10 9 11 7 12
REMARK SMILES IDX 6 13 8 14 5 15 4 16 2 17 3 18 1 19
REMARK H PARENT
REMARK Flexibility Score: inf
ROOT
ATOM      1  C   UNL     1      78.416  17.756   0.727  1.00  0.00     0.032 C 
ENDROOT
BRANCH   1   2
ATOM      2  C   UNL     1      79.016  16.463   0.225  1.00  0.00    -0.028 C 
ATOM      3  C   UNL     1      78.636  15.217   0.595  1.00  0.00    -0.077 C 
ATOM      4  C   UNL     1      79.393  14.049   0.013  1.00  0.00     0.039 C 
BRANCH   3   5
ATOM      5  C   UNL     1      77.487  14.937   1.551  1.00  0.00     0.034 C 
BRANCH   5   6
ATOM      6  C   UNL     1      77.838  13.889   2.620  1.00  0.00     0.032 C 
BRANCH   6   7
ATOM      7  C   UNL     1      78.190  14.523   3.947  1.00  0.00    -0.028 C 
ATOM      8  C   UNL     1      80.661  14.368   3.565  1.00  0.00     0.039 C 
ATOM      9  C   UNL     1      79.449  14.771   4.370  1.00  0.00    -0.080 C 
ATOM     10  C   UNL     1      79.635  15.457   5.699  1.00  0.00     0.039 C 
ENDBRANCH   6   7
ENDBRANCH   5   6
ENDBRANCH   3   5
ENDBRANCH   1   2
BRANCH   1  11
ATOM     11  C   UNL     1      78.749  17.991   2.207  1.00  0.00     0.034 C 
BRANCH  11  12
ATOM     12  C   UNL     1      80.145  18.551   2.392  1.00  0.00    -0.077 C 
ATOM     13  C   UNL     1      80.709  19.268   1.393  1.00  0.00    -0.028 C 
ATOM     14  C   UNL     1      80.836  18.347   3.719  1.00  0.00     0.039 C 
BRANCH  13  15
ATOM     15  C   UNL     1      82.090  19.871   1.452  1.00  0.00     0.035 C 
BRANCH  15  16
ATOM     16  C   UNL     1      82.450  20.541   0.122  1.00  0.00     0.079 C 
BRANCH  16  17
ATOM     17  C   UNL     1      82.830  21.983   0.338  1.00  0.00     0.130 C 
ATOM     18  O   UNL     1      81.979  22.781   0.703  1.00  0.00    -0.300 OA
ATOM     19  C   UNL     1      84.237  22.461   0.127  1.00  0.00     0.087 C 
ENDBRANCH  16  17
ENDBRANCH  15  16
ENDBRANCH  13  15
ENDBRANCH  11  12
ENDBRANCH   1  11
TORSDOF 9
ENDMDL
