MODEL 1
REMARK VINA RESULT:    -1.540      0.000      0.000
REMARK INTER + INTRA:          -5.264
REMARK INTER:                  -2.620
REMARK INTRA:                  -2.645
REMARK UNBOUND:                -2.645
REMARK SMILES CC(=O)CCC[C@@H](C)CCC[C@@H](C)CCCC(C)C
REMARK SMILES IDX 10 1 11 2 12 3 13 4 14 5 15 6 16 7 17 8 18 9 19 10 9 11 7 12
REMARK SMILES IDX 8 13 6 14 5 15 4 16 2 17 3 18 1 19
REMARK H PARENT
REMARK Flexibility Score: inf
ROOT
ATOM      1  C   UNL     1     123.788 112.121 134.139  1.00  0.00     0.001 C 
ENDROOT
BRANCH   1   2
ATOM      2  C   UNL     1     124.003 112.736 135.540  1.00  0.00     0.003 C 
BRANCH   2   3
ATOM      3  C   UNL     1     125.330 113.528 135.698  1.00  0.00    -0.014 C 
ATOM      4  C   UNL     1     125.029 115.035 135.658  1.00  0.00     0.007 C 
BRANCH   3   5
ATOM      5  C   UNL     1     126.090 113.179 137.009  1.00  0.00     0.003 C 
BRANCH   5   6
ATOM      6  C   UNL     1     126.883 111.862 136.920  1.00  0.00     0.001 C 
BRANCH   6   7
ATOM      7  C   UNL     1     126.395 110.822 137.948  1.00  0.00     0.003 C 
BRANCH   7   8
ATOM      8  C   UNL     1     125.496 109.711 137.355  1.00  0.00    -0.017 C 
ATOM      9  C   UNL     1     126.015 108.302 137.675  1.00  0.00     0.007 C 
ATOM     10  C   UNL     1     124.026 109.861 137.773  1.00  0.00     0.007 C 
ENDBRANCH   7   8
ENDBRANCH   6   7
ENDBRANCH   5   6
ENDBRANCH   3   5
ENDBRANCH   2   3
ENDBRANCH   1   2
BRANCH   1  11
ATOM     11  C   UNL     1     124.412 110.716 134.007  1.00  0.00     0.003 C 
BRANCH  11  12
ATOM     12  C   UNL     1     125.818 110.697 133.358  1.00  0.00    -0.014 C 
ATOM     13  C   UNL     1     125.741 110.425 131.845  1.00  0.00     0.007 C 
BRANCH  12  14
ATOM     14  C   UNL     1     126.775 109.715 134.077  1.00  0.00     0.004 C 
BRANCH  14  15
ATOM     15  C   UNL     1     127.125 108.491 133.215  1.00  0.00     0.008 C 
BRANCH  15  16
ATOM     16  C   UNL     1     126.547 107.206 133.826  1.00  0.00     0.075 C 
BRANCH  16  17
ATOM     17  C   UNL     1     125.059 107.062 133.609  1.00  0.00     0.129 C 
ATOM     18  O   UNL     1     124.582 107.092 132.484  1.00  0.00    -0.300 OA
ATOM     19  C   UNL     1     124.146 106.881 134.783  1.00  0.00     0.087 C 
ENDBRANCH  16  17
ENDBRANCH  15  16
ENDBRANCH  14  15
ENDBRANCH  12  14
ENDBRANCH  11  12
ENDBRANCH   1  11
TORSDOF 12
ENDMDL
MODEL 2
REMARK VINA RESULT:    -1.511      2.287      3.778
REMARK INTER + INTRA:          -5.215
REMARK INTER:                  -2.317
REMARK INTRA:                  -2.899
REMARK UNBOUND:                -2.645
REMARK SMILES CC(=O)CCC[C@@H](C)CCC[C@@H](C)CCCC(C)C
REMARK SMILES IDX 10 1 11 2 12 3 13 4 14 5 15 6 16 7 17 8 18 9 19 10 9 11 7 12
REMARK SMILES IDX 8 13 6 14 5 15 4 16 2 17 3 18 1 19
REMARK H PARENT
REMARK Flexibility Score: inf
ROOT
ATOM      1  C   UNL     1     126.673 110.705 133.805  1.00  0.00     0.001 C 
ENDROOT
BRANCH   1   2
ATOM      2  C   UNL     1     126.617 111.095 135.300  1.00  0.00     0.003 C 
BRANCH   2   3
ATOM      3  C   UNL     1     125.212 110.956 135.948  1.00  0.00    -0.014 C 
ATOM      4  C   UNL     1     125.158 111.805 137.228  1.00  0.00     0.007 C 
BRANCH   3   5
ATOM      5  C   UNL     1     124.061 111.377 134.990  1.00  0.00     0.003 C 
BRANCH   5   6
ATOM      6  C   UNL     1     122.692 111.467 135.688  1.00  0.00     0.001 C 
BRANCH   6   7
ATOM      7  C   UNL     1     122.080 110.076 135.944  1.00  0.00     0.003 C 
BRANCH   7   8
ATOM      8  C   UNL     1     122.157 109.113 134.735  1.00  0.00    -0.017 C 
ATOM      9  C   UNL     1     121.938 107.647 135.136  1.00  0.00     0.007 C 
ATOM     10  C   UNL     1     121.202 109.518 133.602  1.00  0.00     0.007 C 
ENDBRANCH   7   8
ENDBRANCH   6   7
ENDBRANCH   5   6
ENDBRANCH   3   5
ENDBRANCH   2   3
ENDBRANCH   1   2
BRANCH   1  11
ATOM     11  C   UNL     1     127.123 109.244 133.592  1.00  0.00     0.003 C 
BRANCH  11  12
ATOM     12  C   UNL     1     126.039 108.322 132.978  1.00  0.00    -0.014 C 
ATOM     13  C   UNL     1     124.965 109.131 132.228  1.00  0.00     0.007 C 
BRANCH  12  14
ATOM     14  C   UNL     1     125.421 107.373 134.033  1.00  0.00     0.004 C 
BRANCH  14  15
ATOM     15  C   UNL     1     126.186 107.390 135.366  1.00  0.00     0.008 C 
BRANCH  15  16
ATOM     16  C   UNL     1     125.282 106.942 136.524  1.00  0.00     0.075 C 
BRANCH  16  17
ATOM     17  C   UNL     1     125.353 107.860 137.721  1.00  0.00     0.129 C 
ATOM     18  O   UNL     1     126.425 108.298 138.116  1.00  0.00    -0.300 OA
ATOM     19  C   UNL     1     124.098 108.248 138.443  1.00  0.00     0.087 C 
ENDBRANCH  16  17
ENDBRANCH  15  16
ENDBRANCH  14  15
ENDBRANCH  12  14
ENDBRANCH  11  12
ENDBRANCH   1  11
TORSDOF 12
ENDMDL
MODEL 3
REMARK VINA RESULT:    -1.491      2.484      4.815
REMARK INTER + INTRA:          -5.182
REMARK INTER:                  -2.367
REMARK INTRA:                  -2.816
REMARK UNBOUND:                -2.645
REMARK SMILES CC(=O)CCC[C@@H](C)CCC[C@@H](C)CCCC(C)C
REMARK SMILES IDX 10 1 11 2 12 3 13 4 14 5 15 6 16 7 17 8 18 9 19 10 9 11 7 12
REMARK SMILES IDX 8 13 6 14 5 15 4 16 2 17 3 18 1 19
REMARK H PARENT
REMARK Flexibility Score: inf
ROOT
ATOM      1  C   UNL     1     124.198 112.817 133.648  1.00  0.00     0.001 C 
ENDROOT
BRANCH   1   2
ATOM      2  C   UNL     1     124.795 111.461 133.209  1.00  0.00     0.003 C 
BRANCH   2   3
ATOM      3  C   UNL     1     126.305 111.511 132.847  1.00  0.00    -0.014 C 
ATOM      4  C   UNL     1     126.880 112.877 133.255  1.00  0.00     0.007 C 
BRANCH   3   5
ATOM      5  C   UNL     1     127.125 110.374 133.520  1.00  0.00     0.003 C 
BRANCH   5   6
ATOM      6  C   UNL     1     126.449 108.994 133.419  1.00  0.00     0.001 C 
BRANCH   6   7
ATOM      7  C   UNL     1     126.155 108.391 134.807  1.00  0.00     0.003 C 
BRANCH   7   8
ATOM      8  C   UNL     1     124.868 107.536 134.872  1.00  0.00    -0.017 C 
ATOM      9  C   UNL     1     124.262 107.490 136.281  1.00  0.00     0.007 C 
ATOM     10  C   UNL     1     123.819 107.978 133.839  1.00  0.00     0.007 C 
ENDBRANCH   7   8
ENDBRANCH   6   7
ENDBRANCH   5   6
ENDBRANCH   3   5
ENDBRANCH   2   3
ENDBRANCH   1   2
BRANCH   1  11
ATOM     11  C   UNL     1     123.390 112.711 134.959  1.00  0.00     0.003 C 
BRANCH  11  12
ATOM     12  C   UNL     1     123.588 111.381 135.728  1.00  0.00    -0.014 C 
ATOM     13  C   UNL     1     122.268 110.601 135.861  1.00  0.00     0.007 C 
BRANCH  12  14
ATOM     14  C   UNL     1     124.273 111.601 137.098  1.00  0.00     0.004 C 
BRANCH  14  15
ATOM     15  C   UNL     1     125.613 110.857 137.217  1.00  0.00     0.008 C 
BRANCH  15  16
ATOM     16  C   UNL     1     126.779 111.747 136.763  1.00  0.00     0.075 C 
BRANCH  16  17
ATOM     17  C   UNL     1     126.963 112.971 137.628  1.00  0.00     0.129 C 
ATOM     18  O   UNL     1     126.988 114.090 137.138  1.00  0.00    -0.300 OA
ATOM     19  C   UNL     1     127.118 112.822 139.112  1.00  0.00     0.087 C 
ENDBRANCH  16  17
ENDBRANCH  15  16
ENDBRANCH  14  15
ENDBRANCH  12  14
ENDBRANCH  11  12
ENDBRANCH   1  11
TORSDOF 12
ENDMDL
MODEL 4
REMARK VINA RESULT:    -1.442      1.931      4.906
REMARK INTER + INTRA:          -5.098
REMARK INTER:                  -2.355
REMARK INTRA:                  -2.743
REMARK UNBOUND:                -2.645
REMARK SMILES CC(=O)CCC[C@@H](C)CCC[C@@H](C)CCCC(C)C
REMARK SMILES IDX 10 1 11 2 12 3 13 4 14 5 15 6 16 7 17 8 18 9 19 10 9 11 7 12
REMARK SMILES IDX 8 13 6 14 5 15 4 16 2 17 3 18 1 19
REMARK H PARENT
REMARK Flexibility Score: inf
ROOT
ATOM      1  C   UNL     1     124.808 107.214 134.654  1.00  0.00     0.001 C 
ENDROOT
BRANCH   1   2
ATOM      2  C   UNL     1     126.290 107.577 134.902  1.00  0.00     0.003 C 
BRANCH   2   3
ATOM      3  C   UNL     1     127.065 108.016 133.630  1.00  0.00    -0.014 C 
ATOM      4  C   UNL     1     126.409 107.384 132.391  1.00  0.00     0.007 C 
BRANCH   3   5
ATOM      5  C   UNL     1     127.124 109.561 133.461  1.00  0.00     0.003 C 
BRANCH   5   6
ATOM      6  C   UNL     1     126.648 110.327 134.708  1.00  0.00     0.001 C 
BRANCH   6   7
ATOM      7  C   UNL     1     126.829 111.850 134.555  1.00  0.00     0.003 C 
BRANCH   7   8
ATOM      8  C   UNL     1     125.960 112.696 135.517  1.00  0.00    -0.017 C 
ATOM      9  C   UNL     1     125.001 113.634 134.773  1.00  0.00     0.007 C 
ATOM     10  C   UNL     1     125.201 111.830 136.534  1.00  0.00     0.007 C 
ENDBRANCH   7   8
ENDBRANCH   6   7
ENDBRANCH   5   6
ENDBRANCH   3   5
ENDBRANCH   2   3
ENDBRANCH   1   2
BRANCH   1  11
ATOM     11  C   UNL     1     123.857 107.886 135.668  1.00  0.00     0.003 C 
BRANCH  11  12
ATOM     12  C   UNL     1     123.177 109.178 135.150  1.00  0.00    -0.014 C 
ATOM     13  C   UNL     1     121.742 109.317 135.687  1.00  0.00     0.007 C 
BRANCH  12  14
ATOM     14  C   UNL     1     123.234 109.284 133.607  1.00  0.00     0.004 C 
BRANCH  14  15
ATOM     15  C   UNL     1     122.999 110.717 133.103  1.00  0.00     0.008 C 
BRANCH  15  16
ATOM     16  C   UNL     1     124.065 111.119 132.072  1.00  0.00     0.075 C 
BRANCH  16  17
ATOM     17  C   UNL     1     123.898 110.420 130.744  1.00  0.00     0.129 C 
ATOM     18  O   UNL     1     122.793 110.281 130.240  1.00  0.00    -0.300 OA
ATOM     19  C   UNL     1     125.099 109.885 130.024  1.00  0.00     0.087 C 
ENDBRANCH  16  17
ENDBRANCH  15  16
ENDBRANCH  14  15
ENDBRANCH  12  14
ENDBRANCH  11  12
ENDBRANCH   1  11
TORSDOF 12
ENDMDL
MODEL 5
REMARK VINA RESULT:    -1.433     14.425     16.742
REMARK INTER + INTRA:          -5.082
REMARK INTER:                  -2.636
REMARK INTRA:                  -2.446
REMARK UNBOUND:                -2.645
REMARK SMILES CC(=O)CCC[C@@H](C)CCC[C@@H](C)CCCC(C)C
REMARK SMILES IDX 10 1 11 2 12 3 13 4 14 5 15 6 16 7 17 8 18 9 19 10 9 11 7 12
REMARK SMILES IDX 8 13 6 14 5 15 4 16 2 17 3 18 1 19
REMARK H PARENT
REMARK Flexibility Score: inf
ROOT
ATOM      1  C   UNL     1     123.124 121.661 121.231  1.00  0.00     0.001 C 
ENDROOT
BRANCH   1   2
ATOM      2  C   UNL     1     123.872 122.995 121.007  1.00  0.00     0.003 C 
BRANCH   2   3
ATOM      3  C   UNL     1     125.247 122.849 120.298  1.00  0.00    -0.014 C 
ATOM      4  C   UNL     1     125.367 123.917 119.198  1.00  0.00     0.007 C 
BRANCH   3   5
ATOM      5  C   UNL     1     126.448 122.969 121.279  1.00  0.00     0.003 C 
BRANCH   5   6
ATOM      6  C   UNL     1     126.835 121.630 121.933  1.00  0.00     0.001 C 
BRANCH   6   7
ATOM      7  C   UNL     1     126.822 121.713 123.472  1.00  0.00     0.003 C 
BRANCH   7   8
ATOM      8  C   UNL     1     125.434 121.474 124.113  1.00  0.00    -0.017 C 
ATOM      9  C   UNL     1     125.473 120.417 125.224  1.00  0.00     0.007 C 
ATOM     10  C   UNL     1     124.790 122.775 124.617  1.00  0.00     0.007 C 
ENDBRANCH   7   8
ENDBRANCH   6   7
ENDBRANCH   5   6
ENDBRANCH   3   5
ENDBRANCH   2   3
ENDBRANCH   1   2
BRANCH   1  11
ATOM     11  C   UNL     1     123.219 120.718 120.013  1.00  0.00     0.003 C 
BRANCH  11  12
ATOM     12  C   UNL     1     124.148 119.496 120.219  1.00  0.00    -0.014 C 
ATOM     13  C   UNL     1     123.986 118.464 119.089  1.00  0.00     0.007 C 
BRANCH  12  14
ATOM     14  C   UNL     1     123.968 118.860 121.618  1.00  0.00     0.004 C 
BRANCH  14  15
ATOM     15  C   UNL     1     125.287 118.331 122.203  1.00  0.00     0.008 C 
BRANCH  15  16
ATOM     16  C   UNL     1     125.110 116.911 122.760  1.00  0.00     0.075 C 
BRANCH  16  17
ATOM     17  C   UNL     1     125.914 115.875 122.010  1.00  0.00     0.129 C 
ATOM     18  O   UNL     1     126.936 115.404 122.489  1.00  0.00    -0.300 OA
ATOM     19  C   UNL     1     125.462 115.411 120.659  1.00  0.00     0.087 C 
ENDBRANCH  16  17
ENDBRANCH  15  16
ENDBRANCH  14  15
ENDBRANCH  12  14
ENDBRANCH  11  12
ENDBRANCH   1  11
TORSDOF 12
ENDMDL
MODEL 6
REMARK VINA RESULT:    -1.368     14.067     17.008
REMARK INTER + INTRA:          -4.973
REMARK INTER:                  -2.162
REMARK INTRA:                  -2.811
REMARK UNBOUND:                -2.645
REMARK SMILES CC(=O)CCC[C@@H](C)CCC[C@@H](C)CCCC(C)C
REMARK SMILES IDX 10 1 11 2 12 3 13 4 14 5 15 6 16 7 17 8 18 9 19 10 9 11 7 12
REMARK SMILES IDX 8 13 6 14 5 15 4 16 2 17 3 18 1 19
REMARK H PARENT
REMARK Flexibility Score: inf
ROOT
ATOM      1  C   UNL     1     124.314 117.396 123.598  1.00  0.00     0.001 C 
ENDROOT
BRANCH   1   2
ATOM      2  C   UNL     1     125.173 117.433 122.314  1.00  0.00     0.003 C 
BRANCH   2   3
ATOM      3  C   UNL     1     124.495 116.799 121.069  1.00  0.00    -0.014 C 
ATOM      4  C   UNL     1     123.236 116.034 121.510  1.00  0.00     0.007 C 
BRANCH   3   5
ATOM      5  C   UNL     1     124.119 117.849 119.985  1.00  0.00     0.003 C 
BRANCH   5   6
ATOM      6  C   UNL     1     124.401 119.299 120.419  1.00  0.00     0.001 C 
BRANCH   6   7
ATOM      7  C   UNL     1     123.106 120.122 120.564  1.00  0.00     0.003 C 
BRANCH   7   8
ATOM      8  C   UNL     1     122.589 120.250 122.017  1.00  0.00    -0.017 C 
ATOM      9  C   UNL     1     122.280 121.702 122.406  1.00  0.00     0.007 C 
ATOM     10  C   UNL     1     121.382 119.341 122.291  1.00  0.00     0.007 C 
ENDBRANCH   7   8
ENDBRANCH   6   7
ENDBRANCH   5   6
ENDBRANCH   3   5
ENDBRANCH   2   3
ENDBRANCH   1   2
BRANCH   1  11
ATOM     11  C   UNL     1     124.744 118.461 124.628  1.00  0.00     0.003 C 
BRANCH  11  12
ATOM     12  C   UNL     1     125.974 119.303 124.206  1.00  0.00    -0.014 C 
ATOM     13  C   UNL     1     127.125 119.172 125.219  1.00  0.00     0.007 C 
BRANCH  12  14
ATOM     14  C   UNL     1     125.600 120.780 123.937  1.00  0.00     0.004 C 
BRANCH  14  15
ATOM     15  C   UNL     1     126.790 121.609 123.427  1.00  0.00     0.008 C 
BRANCH  15  16
ATOM     16  C   UNL     1     126.830 121.628 121.892  1.00  0.00     0.075 C 
BRANCH  16  17
ATOM     17  C   UNL     1     126.451 122.967 121.305  1.00  0.00     0.129 C 
ATOM     18  O   UNL     1     127.019 123.991 121.657  1.00  0.00    -0.300 OA
ATOM     19  C   UNL     1     125.366 123.054 120.275  1.00  0.00     0.087 C 
ENDBRANCH  16  17
ENDBRANCH  15  16
ENDBRANCH  14  15
ENDBRANCH  12  14
ENDBRANCH  11  12
ENDBRANCH   1  11
TORSDOF 12
ENDMDL
MODEL 7
REMARK VINA RESULT:    -1.343      3.167      5.210
REMARK INTER + INTRA:          -4.930
REMARK INTER:                  -2.154
REMARK INTRA:                  -2.776
REMARK UNBOUND:                -2.645
REMARK SMILES CC(=O)CCC[C@@H](C)CCC[C@@H](C)CCCC(C)C
REMARK SMILES IDX 10 1 11 2 12 3 13 4 14 5 15 6 16 7 17 8 18 9 19 10 9 11 7 12
REMARK SMILES IDX 8 13 6 14 5 15 4 16 2 17 3 18 1 19
REMARK H PARENT
REMARK Flexibility Score: inf
ROOT
ATOM      1  C   UNL     1     122.768 108.216 136.525  1.00  0.00     0.001 C 
ENDROOT
BRANCH   1   2
ATOM      2  C   UNL     1     123.947 107.714 137.389  1.00  0.00     0.003 C 
BRANCH   2   3
ATOM      3  C   UNL     1     124.812 108.842 138.014  1.00  0.00    -0.014 C 
ATOM      4  C   UNL     1     126.252 108.335 138.198  1.00  0.00     0.007 C 
BRANCH   3   5
ATOM      5  C   UNL     1     124.818 110.142 137.160  1.00  0.00     0.003 C 
BRANCH   5   6
ATOM      6  C   UNL     1     126.105 110.322 136.335  1.00  0.00     0.001 C 
BRANCH   6   7
ATOM      7  C   UNL     1     125.873 110.052 134.835  1.00  0.00     0.003 C 
BRANCH   7   8
ATOM      8  C   UNL     1     126.838 109.012 134.218  1.00  0.00    -0.017 C 
ATOM      9  C   UNL     1     126.387 107.567 134.472  1.00  0.00     0.007 C 
ATOM     10  C   UNL     1     127.079 109.254 132.720  1.00  0.00     0.007 C 
ENDBRANCH   7   8
ENDBRANCH   6   7
ENDBRANCH   5   6
ENDBRANCH   3   5
ENDBRANCH   2   3
ENDBRANCH   1   2
BRANCH   1  11
ATOM     11  C   UNL     1     122.799 107.644 135.092  1.00  0.00     0.003 C 
BRANCH  11  12
ATOM     12  C   UNL     1     122.324 108.632 133.997  1.00  0.00    -0.014 C 
ATOM     13  C   UNL     1     123.194 108.536 132.731  1.00  0.00     0.007 C 
BRANCH  12  14
ATOM     14  C   UNL     1     122.228 110.082 134.528  1.00  0.00     0.004 C 
BRANCH  14  15
ATOM     15  C   UNL     1     120.832 110.695 134.330  1.00  0.00     0.008 C 
BRANCH  15  16
ATOM     16  C   UNL     1     119.979 110.542 135.598  1.00  0.00     0.075 C 
BRANCH  16  17
ATOM     17  C   UNL     1     118.863 109.536 135.445  1.00  0.00     0.129 C 
ATOM     18  O   UNL     1     117.772 109.869 135.007  1.00  0.00    -0.300 OA
ATOM     19  C   UNL     1     119.086 108.106 135.834  1.00  0.00     0.087 C 
ENDBRANCH  16  17
ENDBRANCH  15  16
ENDBRANCH  14  15
ENDBRANCH  12  14
ENDBRANCH  11  12
ENDBRANCH   1  11
TORSDOF 12
ENDMDL
MODEL 8
REMARK VINA RESULT:    -1.311      2.223      4.966
REMARK INTER + INTRA:          -4.875
REMARK INTER:                  -2.556
REMARK INTRA:                  -2.319
REMARK UNBOUND:                -2.645
REMARK SMILES CC(=O)CCC[C@@H](C)CCC[C@@H](C)CCCC(C)C
REMARK SMILES IDX 10 1 11 2 12 3 13 4 14 5 15 6 16 7 17 8 18 9 19 10 9 11 7 12
REMARK SMILES IDX 8 13 6 14 5 15 4 16 2 17 3 18 1 19
REMARK H PARENT
REMARK Flexibility Score: inf
ROOT
ATOM      1  C   UNL     1     126.093 111.238 135.093  1.00  0.00     0.001 C 
ENDROOT
BRANCH   1   2
ATOM      2  C   UNL     1     127.116 110.426 134.268  1.00  0.00     0.003 C 
BRANCH   2   3
ATOM      3  C   UNL     1     126.520 109.186 133.545  1.00  0.00    -0.014 C 
ATOM      4  C   UNL     1     127.119 109.086 132.133  1.00  0.00     0.007 C 
BRANCH   3   5
ATOM      5  C   UNL     1     126.770 107.859 134.317  1.00  0.00     0.003 C 
BRANCH   5   6
ATOM      6  C   UNL     1     125.474 107.183 134.799  1.00  0.00     0.001 C 
BRANCH   6   7
ATOM      7  C   UNL     1     124.899 107.864 136.056  1.00  0.00     0.003 C 
BRANCH   7   8
ATOM      8  C   UNL     1     125.240 107.146 137.384  1.00  0.00    -0.017 C 
ATOM      9  C   UNL     1     126.449 107.768 138.095  1.00  0.00     0.007 C 
ATOM     10  C   UNL     1     124.033 107.062 138.330  1.00  0.00     0.007 C 
ENDBRANCH   7   8
ENDBRANCH   6   7
ENDBRANCH   5   6
ENDBRANCH   3   5
ENDBRANCH   2   3
ENDBRANCH   1   2
BRANCH   1  11
ATOM     11  C   UNL     1     126.361 111.160 136.611  1.00  0.00     0.003 C 
BRANCH  11  12
ATOM     12  C   UNL     1     125.322 111.906 137.485  1.00  0.00    -0.014 C 
ATOM     13  C   UNL     1     126.001 112.869 138.475  1.00  0.00     0.007 C 
BRANCH  12  14
ATOM     14  C   UNL     1     124.355 110.929 138.195  1.00  0.00     0.004 C 
BRANCH  14  15
ATOM     15  C   UNL     1     122.879 111.226 137.885  1.00  0.00     0.008 C 
BRANCH  15  16
ATOM     16  C   UNL     1     122.229 110.056 137.132  1.00  0.00     0.075 C 
BRANCH  16  17
ATOM     17  C   UNL     1     121.646 110.459 135.798  1.00  0.00     0.129 C 
ATOM     18  O   UNL     1     120.436 110.500 135.627  1.00  0.00    -0.300 OA
ATOM     19  C   UNL     1     122.555 110.815 134.661  1.00  0.00     0.087 C 
ENDBRANCH  16  17
ENDBRANCH  15  16
ENDBRANCH  14  15
ENDBRANCH  12  14
ENDBRANCH  11  12
ENDBRANCH   1  11
TORSDOF 12
ENDMDL
