MODEL 1
REMARK VINA RESULT:    -4.301      0.000      0.000
REMARK INTER + INTRA:          -5.971
REMARK INTER:                  -5.307
REMARK INTRA:                  -0.664
REMARK UNBOUND:                -0.664
REMARK SMILES CC(C)=CCC[C@@H](C)c1ccc(C)cc1
REMARK SMILES IDX 6 1 7 2 8 3 9 4 13 5 12 6 11 7 14 8 10 9 15 10 5 11 4 12
REMARK SMILES IDX 2 13 1 14 3 15
REMARK H PARENT
REMARK Flexibility Score: inf
ROOT
ATOM      1  C   UNL     1      97.150 110.970 106.851  1.00  0.00     0.012 C 
ENDROOT
BRANCH   1   2
ATOM      2  C   UNL     1      96.909 110.507 108.307  1.00  0.00     0.016 C 
ATOM      3  C   UNL     1      95.459 110.778 108.729  1.00  0.00     0.013 C 
BRANCH   2   4
ATOM      4  C   UNL     1      97.257 109.043 108.508  1.00  0.00    -0.045 A 
ATOM      5  C   UNL     1      98.182 104.871 109.137  1.00  0.00     0.044 C 
ATOM      6  C   UNL     1      97.870 106.317 108.889  1.00  0.00    -0.051 A 
ATOM      7  C   UNL     1      96.590 106.702 108.467  1.00  0.00     0.004 A 
ATOM      8  C   UNL     1      98.836 107.301 109.145  1.00  0.00     0.004 A 
ATOM      9  C   UNL     1      96.288 108.052 108.273  1.00  0.00     0.004 A 
ATOM     10  C   UNL     1      98.535 108.652 108.950  1.00  0.00     0.004 A 
ENDBRANCH   2   4
ENDBRANCH   1   2
BRANCH   1  11
ATOM     11  C   UNL     1      97.697 112.405 106.741  1.00  0.00     0.028 C 
BRANCH  11  12
ATOM     12  C   UNL     1      99.118 112.514 107.242  1.00  0.00    -0.028 C 
ATOM     13  C   UNL     1     100.203 112.657 106.449  1.00  0.00    -0.080 C 
ATOM     14  C   UNL     1     101.554 112.790 107.102  1.00  0.00     0.039 C 
ATOM     15  C   UNL     1     100.100 112.663 104.943  1.00  0.00     0.039 C 
ENDBRANCH  11  12
ENDBRANCH   1  11
TORSDOF 4
ENDMDL
MODEL 2
REMARK VINA RESULT:    -4.076      1.058      6.127
REMARK INTER + INTRA:          -5.693
REMARK INTER:                  -5.171
REMARK INTRA:                  -0.521
REMARK UNBOUND:                -0.664
REMARK SMILES CC(C)=CCC[C@@H](C)c1ccc(C)cc1
REMARK SMILES IDX 6 1 7 2 8 3 9 4 13 5 12 6 11 7 14 8 10 9 15 10 5 11 4 12
REMARK SMILES IDX 2 13 1 14 3 15
REMARK H PARENT
REMARK Flexibility Score: inf
ROOT
ATOM      1  C   UNL     1      97.215 109.889 108.623  1.00  0.00     0.012 C 
ENDROOT
BRANCH   1   2
ATOM      2  C   UNL     1      97.153 110.778 107.359  1.00  0.00     0.016 C 
ATOM      3  C   UNL     1      95.973 111.756 107.441  1.00  0.00     0.013 C 
BRANCH   2   4
ATOM      4  C   UNL     1      98.451 111.530 107.123  1.00  0.00    -0.045 A 
ATOM      5  C   UNL     1     102.141 113.645 106.367  1.00  0.00     0.044 C 
ATOM      6  C   UNL     1     100.852 112.932 106.651  1.00  0.00    -0.051 A 
ATOM      7  C   UNL     1      99.696 113.242 105.922  1.00  0.00     0.004 A 
ATOM      8  C   UNL     1     100.810 111.901 107.600  1.00  0.00     0.004 A 
ATOM      9  C   UNL     1      98.505 112.553 106.159  1.00  0.00     0.004 A 
ATOM     10  C   UNL     1      99.619 111.209 107.839  1.00  0.00     0.004 A 
ENDBRANCH   2   4
ENDBRANCH   1   2
BRANCH   1  11
ATOM     11  C   UNL     1      96.656 108.471 108.409  1.00  0.00     0.028 C 
BRANCH  11  12
ATOM     12  C   UNL     1      97.697 107.404 108.658  1.00  0.00    -0.028 C 
ATOM     13  C   UNL     1      97.421 106.135 109.033  1.00  0.00    -0.080 C 
ATOM     14  C   UNL     1      98.569 105.174 109.207  1.00  0.00     0.039 C 
ATOM     15  C   UNL     1      96.011 105.667 109.304  1.00  0.00     0.039 C 
ENDBRANCH  11  12
ENDBRANCH   1  11
TORSDOF 4
ENDMDL
MODEL 3
REMARK VINA RESULT:    -4.075      2.286      5.671
REMARK INTER + INTRA:          -5.691
REMARK INTER:                  -4.198
REMARK INTRA:                  -1.493
REMARK UNBOUND:                -0.664
REMARK SMILES CC(C)=CCC[C@@H](C)c1ccc(C)cc1
REMARK SMILES IDX 6 1 7 2 8 3 9 4 13 5 12 6 11 7 14 8 10 9 15 10 5 11 4 12
REMARK SMILES IDX 2 13 1 14 3 15
REMARK H PARENT
REMARK Flexibility Score: inf
ROOT
ATOM      1  C   UNL     1      97.103 110.934 106.872  1.00  0.00     0.012 C 
ENDROOT
BRANCH   1   2
ATOM      2  C   UNL     1      97.265 112.473 106.874  1.00  0.00     0.016 C 
ATOM      3  C   UNL     1      96.598 113.086 108.112  1.00  0.00     0.013 C 
BRANCH   2   4
ATOM      4  C   UNL     1      98.721 112.895 106.789  1.00  0.00    -0.045 A 
ATOM      5  C   UNL     1     102.839 114.179 106.547  1.00  0.00     0.044 C 
ATOM      6  C   UNL     1     101.418 113.708 106.649  1.00  0.00    -0.051 A 
ATOM      7  C   UNL     1     100.596 114.157 107.692  1.00  0.00     0.004 A 
ATOM      8  C   UNL     1     100.880 112.871 105.661  1.00  0.00     0.004 A 
ATOM      9  C   UNL     1      99.262 113.749 107.766  1.00  0.00     0.004 A 
ATOM     10  C   UNL     1      99.545 112.462 105.733  1.00  0.00     0.004 A 
ENDBRANCH   2   4
ENDBRANCH   1   2
BRANCH   1  11
ATOM     11  C   UNL     1      97.410 110.279 108.231  1.00  0.00     0.028 C 
BRANCH  11  12
ATOM     12  C   UNL     1      98.854 109.852 108.345  1.00  0.00    -0.028 C 
ATOM     13  C   UNL     1      99.709 110.282 109.299  1.00  0.00    -0.080 C 
ATOM     14  C   UNL     1     101.113 109.735 109.303  1.00  0.00     0.039 C 
ATOM     15  C   UNL     1      99.306 111.304 110.335  1.00  0.00     0.039 C 
ENDBRANCH  11  12
ENDBRANCH   1  11
TORSDOF 4
ENDMDL
MODEL 4
REMARK VINA RESULT:    -4.071      1.859      6.172
REMARK INTER + INTRA:          -5.687
REMARK INTER:                  -4.577
REMARK INTRA:                  -1.110
REMARK UNBOUND:                -0.664
REMARK SMILES CC(C)=CCC[C@@H](C)c1ccc(C)cc1
REMARK SMILES IDX 6 1 7 2 8 3 9 4 13 5 12 6 11 7 14 8 10 9 15 10 5 11 4 12
REMARK SMILES IDX 2 13 1 14 3 15
REMARK H PARENT
REMARK Flexibility Score: inf
ROOT
ATOM      1  C   UNL     1      98.522 113.159 106.475  1.00  0.00     0.012 C 
ENDROOT
BRANCH   1   2
ATOM      2  C   UNL     1      99.712 112.310 105.969  1.00  0.00     0.016 C 
ATOM      3  C   UNL     1      99.962 112.564 104.476  1.00  0.00     0.013 C 
BRANCH   2   4
ATOM      4  C   UNL     1     100.976 112.560 106.771  1.00  0.00    -0.045 A 
ATOM      5  C   UNL     1     104.622 113.257 108.982  1.00  0.00     0.044 C 
ATOM      6  C   UNL     1     103.341 113.036 108.231  1.00  0.00    -0.051 A 
ATOM      7  C   UNL     1     103.053 113.790 107.085  1.00  0.00     0.004 A 
ATOM      8  C   UNL     1     102.455 112.026 108.631  1.00  0.00     0.004 A 
ATOM      9  C   UNL     1     101.879 113.559 106.365  1.00  0.00     0.004 A 
ATOM     10  C   UNL     1     101.280 111.793 107.911  1.00  0.00     0.004 A 
ENDBRANCH   2   4
ENDBRANCH   1   2
BRANCH   1  11
ATOM     11  C   UNL     1      97.270 112.329 106.815  1.00  0.00     0.028 C 
BRANCH  11  12
ATOM     12  C   UNL     1      97.614 110.907 107.192  1.00  0.00    -0.028 C 
ATOM     13  C   UNL     1      97.835 110.479 108.454  1.00  0.00    -0.080 C 
ATOM     14  C   UNL     1      98.132 109.018 108.674  1.00  0.00     0.039 C 
ATOM     15  C   UNL     1      97.818 111.420 109.635  1.00  0.00     0.039 C 
ENDBRANCH  11  12
ENDBRANCH   1  11
TORSDOF 4
ENDMDL
MODEL 5
REMARK VINA RESULT:    -4.041     11.959     13.824
REMARK INTER + INTRA:          -5.650
REMARK INTER:                  -4.120
REMARK INTRA:                  -1.530
REMARK UNBOUND:                -0.664
REMARK SMILES CC(C)=CCC[C@@H](C)c1ccc(C)cc1
REMARK SMILES IDX 6 1 7 2 8 3 9 4 13 5 12 6 11 7 14 8 10 9 15 10 5 11 4 12
REMARK SMILES IDX 2 13 1 14 3 15
REMARK H PARENT
REMARK Flexibility Score: inf
ROOT
ATOM      1  C   UNL     1     110.192 107.511 101.043  1.00  0.00     0.012 C 
ENDROOT
BRANCH   1   2
ATOM      2  C   UNL     1     111.307 106.624 101.647  1.00  0.00     0.016 C 
ATOM      3  C   UNL     1     112.056 107.376 102.755  1.00  0.00     0.013 C 
BRANCH   2   4
ATOM      4  C   UNL     1     110.769 105.304 102.169  1.00  0.00    -0.045 A 
ATOM      5  C   UNL     1     109.318 101.528 103.685  1.00  0.00     0.044 C 
ATOM      6  C   UNL     1     109.794 102.853 103.165  1.00  0.00    -0.051 A 
ATOM      7  C   UNL     1     110.427 103.763 104.022  1.00  0.00     0.004 A 
ATOM      8  C   UNL     1     109.672 103.161 101.803  1.00  0.00     0.004 A 
ATOM      9  C   UNL     1     110.905 104.980 103.531  1.00  0.00     0.004 A 
ATOM     10  C   UNL     1     110.150 104.378 101.309  1.00  0.00     0.004 A 
ENDBRANCH   2   4
ENDBRANCH   1   2
BRANCH   1  11
ATOM     11  C   UNL     1     109.018 107.768 102.005  1.00  0.00     0.028 C 
BRANCH  11  12
ATOM     12  C   UNL     1     107.741 107.113 101.535  1.00  0.00    -0.028 C 
ATOM     13  C   UNL     1     106.967 106.306 102.293  1.00  0.00    -0.080 C 
ATOM     14  C   UNL     1     105.699 105.756 101.693  1.00  0.00     0.039 C 
ATOM     15  C   UNL     1     107.349 105.924 103.704  1.00  0.00     0.039 C 
ENDBRANCH  11  12
ENDBRANCH   1  11
TORSDOF 4
ENDMDL
MODEL 6
REMARK VINA RESULT:    -4.023      1.854      4.297
REMARK INTER + INTRA:          -5.628
REMARK INTER:                  -4.964
REMARK INTRA:                  -0.664
REMARK UNBOUND:                -0.664
REMARK SMILES CC(C)=CCC[C@@H](C)c1ccc(C)cc1
REMARK SMILES IDX 6 1 7 2 8 3 9 4 13 5 12 6 11 7 14 8 10 9 15 10 5 11 4 12
REMARK SMILES IDX 2 13 1 14 3 15
REMARK H PARENT
REMARK Flexibility Score: inf
ROOT
ATOM      1  C   UNL     1     100.437 113.881 107.126  1.00  0.00     0.012 C 
ENDROOT
BRANCH   1   2
ATOM      2  C   UNL     1      99.471 113.048 106.251  1.00  0.00     0.016 C 
ATOM      3  C   UNL     1     100.155 112.623 104.944  1.00  0.00     0.013 C 
BRANCH   2   4
ATOM      4  C   UNL     1      98.932 111.835 106.988  1.00  0.00    -0.045 A 
ATOM      5  C   UNL     1      97.459 108.336 109.049  1.00  0.00     0.044 C 
ATOM      6  C   UNL     1      97.962 109.569 108.357  1.00  0.00    -0.051 A 
ATOM      7  C   UNL     1      99.297 109.969 108.509  1.00  0.00     0.004 A 
ATOM      8  C   UNL     1      97.120 110.290 107.500  1.00  0.00     0.004 A 
ATOM      9  C   UNL     1      99.776 111.096 107.835  1.00  0.00     0.004 A 
ATOM     10  C   UNL     1      97.598 111.417 106.825  1.00  0.00     0.004 A 
ENDBRANCH   2   4
ENDBRANCH   1   2
BRANCH   1  11
ATOM     11  C   UNL     1     101.879 113.923 106.589  1.00  0.00     0.028 C 
BRANCH  11  12
ATOM     12  C   UNL     1     102.859 113.265 107.532  1.00  0.00    -0.028 C 
ATOM     13  C   UNL     1     104.136 113.667 107.716  1.00  0.00    -0.080 C 
ATOM     14  C   UNL     1     104.981 112.931 108.723  1.00  0.00     0.039 C 
ATOM     15  C   UNL     1     104.738 114.807 106.930  1.00  0.00     0.039 C 
ENDBRANCH  11  12
ENDBRANCH   1  11
TORSDOF 4
ENDMDL
MODEL 7
REMARK VINA RESULT:    -3.999     12.041     13.394
REMARK INTER + INTRA:          -5.597
REMARK INTER:                  -4.111
REMARK INTRA:                  -1.487
REMARK UNBOUND:                -0.664
REMARK SMILES CC(C)=CCC[C@@H](C)c1ccc(C)cc1
REMARK SMILES IDX 6 1 7 2 8 3 9 4 13 5 12 6 11 7 14 8 10 9 15 10 5 11 4 12
REMARK SMILES IDX 2 13 1 14 3 15
REMARK H PARENT
REMARK Flexibility Score: inf
ROOT
ATOM      1  C   UNL     1     107.249 106.496 103.297  1.00  0.00     0.012 C 
ENDROOT
BRANCH   1   2
ATOM      2  C   UNL     1     107.250 104.960 103.119  1.00  0.00     0.016 C 
ATOM      3  C   UNL     1     106.516 104.563 101.832  1.00  0.00     0.013 C 
BRANCH   2   4
ATOM      4  C   UNL     1     108.654 104.382 103.131  1.00  0.00    -0.045 A 
ATOM      5  C   UNL     1     112.618 102.665 103.193  1.00  0.00     0.044 C 
ATOM      6  C   UNL     1     111.249 103.278 103.147  1.00  0.00    -0.051 A 
ATOM      7  C   UNL     1     110.221 102.660 102.420  1.00  0.00     0.004 A 
ATOM      8  C   UNL     1     110.969 104.436 103.885  1.00  0.00     0.004 A 
ATOM      9  C   UNL     1     108.937 103.210 102.407  1.00  0.00     0.004 A 
ATOM     10  C   UNL     1     109.685 104.988 103.874  1.00  0.00     0.004 A 
ENDBRANCH   2   4
ENDBRANCH   1   2
BRANCH   1  11
ATOM     11  C   UNL     1     107.489 107.270 101.988  1.00  0.00     0.028 C 
BRANCH  11  12
ATOM     12  C   UNL     1     108.800 108.021 102.000  1.00  0.00    -0.028 C 
ATOM     13  C   UNL     1     109.894 107.666 101.291  1.00  0.00    -0.080 C 
ATOM     14  C   UNL     1     111.119 108.539 101.378  1.00  0.00     0.039 C 
ATOM     15  C   UNL     1     109.929 106.418 100.440  1.00  0.00     0.039 C 
ENDBRANCH  11  12
ENDBRANCH   1  11
TORSDOF 4
ENDMDL
MODEL 8
REMARK VINA RESULT:    -3.986     11.601     13.859
REMARK INTER + INTRA:          -5.582
REMARK INTER:                  -4.062
REMARK INTRA:                  -1.520
REMARK UNBOUND:                -0.664
REMARK SMILES CC(C)=CCC[C@@H](C)c1ccc(C)cc1
REMARK SMILES IDX 6 1 7 2 8 3 9 4 13 5 12 6 11 7 14 8 10 9 15 10 5 11 4 12
REMARK SMILES IDX 2 13 1 14 3 15
REMARK H PARENT
REMARK Flexibility Score: inf
ROOT
ATOM      1  C   UNL     1     109.884 102.889 103.840  1.00  0.00     0.012 C 
ENDROOT
BRANCH   1   2
ATOM      2  C   UNL     1     110.431 104.334 103.906  1.00  0.00     0.016 C 
ATOM      3  C   UNL     1     111.785 104.434 103.189  1.00  0.00     0.013 C 
BRANCH   2   4
ATOM      4  C   UNL     1     109.452 105.345 103.336  1.00  0.00    -0.045 A 
ATOM      5  C   UNL     1     106.612 108.154 101.692  1.00  0.00     0.044 C 
ATOM      6  C   UNL     1     107.606 107.200 102.284  1.00  0.00    -0.051 A 
ATOM      7  C   UNL     1     107.218 106.311 103.296  1.00  0.00     0.004 A 
ATOM      8  C   UNL     1     108.914 107.141 101.782  1.00  0.00     0.004 A 
ATOM      9  C   UNL     1     108.133 105.396 103.821  1.00  0.00     0.004 A 
ATOM     10  C   UNL     1     109.832 106.227 102.306  1.00  0.00     0.004 A 
ENDBRANCH   2   4
ENDBRANCH   1   2
BRANCH   1  11
ATOM     11  C   UNL     1     109.509 102.434 102.418  1.00  0.00     0.028 C 
BRANCH  11  12
ATOM     12  C   UNL     1     108.038 102.116 102.289  1.00  0.00    -0.028 C 
ATOM     13  C   UNL     1     107.200 102.702 101.405  1.00  0.00    -0.080 C 
ATOM     14  C   UNL     1     105.763 102.250 101.372  1.00  0.00     0.039 C 
ATOM     15  C   UNL     1     107.656 103.802 100.477  1.00  0.00     0.039 C 
ENDBRANCH  11  12
ENDBRANCH   1  11
TORSDOF 4
ENDMDL
MODEL 9
REMARK VINA RESULT:    -3.952     11.993     13.991
REMARK INTER + INTRA:          -5.540
REMARK INTER:                  -4.031
REMARK INTRA:                  -1.509
REMARK UNBOUND:                -0.664
REMARK SMILES CC(C)=CCC[C@@H](C)c1ccc(C)cc1
REMARK SMILES IDX 6 1 7 2 8 3 9 4 13 5 12 6 11 7 14 8 10 9 15 10 5 11 4 12
REMARK SMILES IDX 2 13 1 14 3 15
REMARK H PARENT
REMARK Flexibility Score: inf
ROOT
ATOM      1  C   UNL     1     107.510 102.546 101.775  1.00  0.00     0.012 C 
ENDROOT
BRANCH   1   2
ATOM      2  C   UNL     1     108.829 102.316 102.548  1.00  0.00     0.016 C 
ATOM      3  C   UNL     1     109.613 101.143 101.944  1.00  0.00     0.013 C 
BRANCH   2   4
ATOM      4  C   UNL     1     109.692 103.564 102.595  1.00  0.00    -0.045 A 
ATOM      5  C   UNL     1     112.090 107.152 102.785  1.00  0.00     0.044 C 
ATOM      6  C   UNL     1     111.283 105.889 102.714  1.00  0.00    -0.051 A 
ATOM      7  C   UNL     1     111.002 105.163 103.880  1.00  0.00     0.004 A 
ATOM      8  C   UNL     1     110.745 105.463 101.492  1.00  0.00     0.004 A 
ATOM      9  C   UNL     1     110.219 104.008 103.820  1.00  0.00     0.004 A 
ATOM     10  C   UNL     1     109.961 104.308 101.430  1.00  0.00     0.004 A 
ENDBRANCH   2   4
ENDBRANCH   1   2
BRANCH   1  11
ATOM     11  C   UNL     1     106.511 103.456 102.514  1.00  0.00     0.028 C 
BRANCH  11  12
ATOM     12  C   UNL     1     106.329 104.786 101.821  1.00  0.00    -0.028 C 
ATOM     13  C   UNL     1     106.687 105.980 102.344  1.00  0.00    -0.080 C 
ATOM     14  C   UNL     1     106.476 107.219 101.513  1.00  0.00     0.039 C 
ATOM     15  C   UNL     1     107.264 106.106 103.734  1.00  0.00     0.039 C 
ENDBRANCH  11  12
ENDBRANCH   1  11
TORSDOF 4
ENDMDL
