MODEL 1
REMARK VINA RESULT:    -5.130      0.000      0.000
REMARK INTER + INTRA:         -10.103
REMARK INTER:                  -9.329
REMARK INTRA:                  -0.774
REMARK UNBOUND:                -0.774
REMARK SMILES CCCCCCCCCCCCCCCC(=O)[O-]
REMARK SMILES IDX 9 1 10 2 11 3 12 4 13 5 14 6 15 7 16 8 17 9 18 10 8 11 7 12
REMARK SMILES IDX 6 13 5 14 4 15 3 16 2 17 1 18
REMARK H PARENT
REMARK Flexibility Score: inf
ROOT
ATOM      1  C   UNL     1      47.078  34.616  12.470  1.00  0.00     0.000 C 
ENDROOT
BRANCH   1   2
ATOM      2  C   UNL     1      48.407  34.595  13.246  1.00  0.00     0.000 C 
BRANCH   2   3
ATOM      3  C   UNL     1      48.439  33.483  14.316  1.00  0.00     0.000 C 
BRANCH   3   4
ATOM      4  C   UNL     1      47.690  33.850  15.608  1.00  0.00     0.000 C 
BRANCH   4   5
ATOM      5  C   UNL     1      48.605  33.870  16.843  1.00  0.00     0.000 C 
BRANCH   5   6
ATOM      6  C   UNL     1      49.086  32.468  17.246  1.00  0.00     0.006 C 
BRANCH   6   7
ATOM      7  C   UNL     1      47.940  31.568  17.728  1.00  0.00     0.053 C 
BRANCH   7   8
ATOM      8  C   UNL     1      47.850  30.339  16.880  1.00  0.00     0.041 C 
ATOM      9  O   UNL     1      47.077  30.309  15.886  1.00  0.00    -0.550 OA
ATOM     10  O   UNL     1      48.656  29.242  17.159  1.00  0.00    -0.550 OA
ENDBRANCH   7   8
ENDBRANCH   6   7
ENDBRANCH   5   6
ENDBRANCH   4   5
ENDBRANCH   3   4
ENDBRANCH   2   3
ENDBRANCH   1   2
BRANCH   1  11
ATOM     11  C   UNL     1      46.201  35.825  12.832  1.00  0.00     0.000 C 
BRANCH  11  12
ATOM     12  C   UNL     1      44.708  35.574  12.572  1.00  0.00    -0.000 C 
BRANCH  12  13
ATOM     13  C   UNL     1      43.967  36.892  12.319  1.00  0.00    -0.000 C 
BRANCH  13  14
ATOM     14  C   UNL     1      42.526  36.824  12.850  1.00  0.00    -0.000 C 
BRANCH  14  15
ATOM     15  C   UNL     1      41.496  36.578  11.737  1.00  0.00    -0.000 C 
BRANCH  15  16
ATOM     16  C   UNL     1      40.253  35.822  12.238  1.00  0.00    -0.000 C 
BRANCH  16  17
ATOM     17  C   UNL     1      39.895  34.624  11.346  1.00  0.00    -0.003 C 
ATOM     18  C   UNL     1      40.591  34.671   9.986  1.00  0.00     0.004 C 
ENDBRANCH  16  17
ENDBRANCH  15  16
ENDBRANCH  14  15
ENDBRANCH  13  14
ENDBRANCH  12  13
ENDBRANCH  11  12
ENDBRANCH   1  11
TORSDOF 14
ENDMDL
MODEL 2
REMARK VINA RESULT:    -5.080      5.189      8.778
REMARK INTER + INTRA:         -10.012
REMARK INTER:                  -8.986
REMARK INTRA:                  -1.026
REMARK UNBOUND:                -0.774
REMARK SMILES CCCCCCCCCCCCCCCC(=O)[O-]
REMARK SMILES IDX 9 1 10 2 11 3 12 4 13 5 14 6 15 7 16 8 17 9 18 10 8 11 7 12
REMARK SMILES IDX 6 13 5 14 4 15 3 16 2 17 1 18
REMARK H PARENT
REMARK Flexibility Score: inf
ROOT
ATOM      1  C   UNL     1      47.912  30.093  17.466  1.00  0.00     0.000 C 
ENDROOT
BRANCH   1   2
ATOM      2  C   UNL     1      47.772  31.596  17.767  1.00  0.00     0.000 C 
BRANCH   2   3
ATOM      3  C   UNL     1      49.090  32.362  17.529  1.00  0.00     0.000 C 
BRANCH   3   4
ATOM      4  C   UNL     1      48.929  33.596  16.625  1.00  0.00     0.000 C 
BRANCH   4   5
ATOM      5  C   UNL     1      47.981  33.349  15.440  1.00  0.00     0.000 C 
BRANCH   5   6
ATOM      6  C   UNL     1      48.468  34.014  14.144  1.00  0.00     0.006 C 
BRANCH   6   7
ATOM      7  C   UNL     1      48.829  32.993  13.056  1.00  0.00     0.053 C 
BRANCH   7   8
ATOM      8  C   UNL     1      48.620  33.582  11.697  1.00  0.00     0.041 C 
ATOM      9  O   UNL     1      47.487  34.020  11.364  1.00  0.00    -0.550 OA
ATOM     10  O   UNL     1      49.688  33.691  10.816  1.00  0.00    -0.550 OA
ENDBRANCH   7   8
ENDBRANCH   6   7
ENDBRANCH   5   6
ENDBRANCH   4   5
ENDBRANCH   3   4
ENDBRANCH   2   3
ENDBRANCH   1   2
BRANCH   1  11
ATOM     11  C   UNL     1      48.732  29.817  16.197  1.00  0.00     0.000 C 
BRANCH  11  12
ATOM     12  C   UNL     1      48.555  28.383  15.676  1.00  0.00    -0.000 C 
BRANCH  12  13
ATOM     13  C   UNL     1      49.863  27.591  15.796  1.00  0.00    -0.000 C 
BRANCH  13  14
ATOM     14  C   UNL     1      49.606  26.081  15.665  1.00  0.00    -0.000 C 
BRANCH  14  15
ATOM     15  C   UNL     1      48.282  25.767  14.952  1.00  0.00    -0.000 C 
BRANCH  15  16
ATOM     16  C   UNL     1      48.491  25.048  13.608  1.00  0.00    -0.000 C 
BRANCH  16  17
ATOM     17  C   UNL     1      48.854  26.018  12.473  1.00  0.00    -0.003 C 
ATOM     18  C   UNL     1      49.712  25.363  11.390  1.00  0.00     0.004 C 
ENDBRANCH  16  17
ENDBRANCH  15  16
ENDBRANCH  14  15
ENDBRANCH  13  14
ENDBRANCH  12  13
ENDBRANCH  11  12
ENDBRANCH   1  11
TORSDOF 14
ENDMDL
MODEL 3
REMARK VINA RESULT:    -5.072      1.214      2.389
REMARK INTER + INTRA:          -9.997
REMARK INTER:                  -8.967
REMARK INTRA:                  -1.031
REMARK UNBOUND:                -0.774
REMARK SMILES CCCCCCCCCCCCCCCC(=O)[O-]
REMARK SMILES IDX 9 1 10 2 11 3 12 4 13 5 14 6 15 7 16 8 17 9 18 10 8 11 7 12
REMARK SMILES IDX 6 13 5 14 4 15 3 16 2 17 1 18
REMARK H PARENT
REMARK Flexibility Score: inf
ROOT
ATOM      1  C   UNL     1      44.703  36.104  13.003  1.00  0.00     0.000 C 
ENDROOT
BRANCH   1   2
ATOM      2  C   UNL     1      45.632  34.997  12.472  1.00  0.00     0.000 C 
BRANCH   2   3
ATOM      3  C   UNL     1      47.118  35.414  12.514  1.00  0.00     0.000 C 
BRANCH   3   4
ATOM      4  C   UNL     1      48.086  34.226  12.644  1.00  0.00     0.000 C 
BRANCH   4   5
ATOM      5  C   UNL     1      48.798  34.182  14.006  1.00  0.00     0.000 C 
BRANCH   5   6
ATOM      6  C   UNL     1      47.864  33.753  15.148  1.00  0.00     0.006 C 
BRANCH   6   7
ATOM      7  C   UNL     1      48.612  33.539  16.471  1.00  0.00     0.053 C 
BRANCH   7   8
ATOM      8  C   UNL     1      48.540  32.103  16.885  1.00  0.00     0.041 C 
ATOM      9  O   UNL     1      49.054  31.209  16.163  1.00  0.00    -0.550 OA
ATOM     10  O   UNL     1      47.946  31.757  18.092  1.00  0.00    -0.550 OA
ENDBRANCH   7   8
ENDBRANCH   6   7
ENDBRANCH   5   6
ENDBRANCH   4   5
ENDBRANCH   3   4
ENDBRANCH   2   3
ENDBRANCH   1   2
BRANCH   1  11
ATOM     11  C   UNL     1      43.434  36.269  12.154  1.00  0.00     0.000 C 
BRANCH  11  12
ATOM     12  C   UNL     1      43.188  37.725  11.731  1.00  0.00    -0.000 C 
BRANCH  12  13
ATOM     13  C   UNL     1      41.699  38.080  11.828  1.00  0.00    -0.000 C 
BRANCH  13  14
ATOM     14  C   UNL     1      41.019  37.293  12.959  1.00  0.00    -0.000 C 
BRANCH  14  15
ATOM     15  C   UNL     1      39.645  36.738  12.549  1.00  0.00    -0.000 C 
BRANCH  15  16
ATOM     16  C   UNL     1      39.619  35.201  12.500  1.00  0.00    -0.000 C 
BRANCH  16  17
ATOM     17  C   UNL     1      39.426  34.661  11.075  1.00  0.00    -0.003 C 
ATOM     18  C   UNL     1      40.682  34.804  10.215  1.00  0.00     0.004 C 
ENDBRANCH  16  17
ENDBRANCH  15  16
ENDBRANCH  14  15
ENDBRANCH  13  14
ENDBRANCH  12  13
ENDBRANCH  11  12
ENDBRANCH   1  11
TORSDOF 14
ENDMDL
MODEL 4
REMARK VINA RESULT:    -5.016      6.956     11.968
REMARK INTER + INTRA:          -9.896
REMARK INTER:                  -7.975
REMARK INTRA:                  -1.921
REMARK UNBOUND:                -0.774
REMARK SMILES CCCCCCCCCCCCCCCC(=O)[O-]
REMARK SMILES IDX 9 1 10 2 11 3 12 4 13 5 14 6 15 7 16 8 17 9 18 10 8 11 7 12
REMARK SMILES IDX 6 13 5 14 4 15 3 16 2 17 1 18
REMARK H PARENT
REMARK Flexibility Score: inf
ROOT
ATOM      1  C   UNL     1      48.466  26.489  19.693  1.00  0.00     0.000 C 
ENDROOT
BRANCH   1   2
ATOM      2  C   UNL     1      48.629  25.250  18.794  1.00  0.00     0.000 C 
BRANCH   2   3
ATOM      3  C   UNL     1      48.853  25.629  17.315  1.00  0.00     0.000 C 
BRANCH   3   4
ATOM      4  C   UNL     1      49.060  27.136  17.092  1.00  0.00     0.000 C 
BRANCH   4   5
ATOM      5  C   UNL     1      48.565  27.609  15.715  1.00  0.00     0.000 C 
BRANCH   5   6
ATOM      6  C   UNL     1      48.264  29.115  15.680  1.00  0.00     0.006 C 
BRANCH   6   7
ATOM      7  C   UNL     1      47.768  29.649  17.030  1.00  0.00     0.053 C 
BRANCH   7   8
ATOM      8  C   UNL     1      48.442  30.944  17.359  1.00  0.00     0.041 C 
ATOM      9  O   UNL     1      49.601  31.183  16.927  1.00  0.00    -0.550 OA
ATOM     10  O   UNL     1      47.772  31.907  18.102  1.00  0.00    -0.550 OA
ENDBRANCH   7   8
ENDBRANCH   6   7
ENDBRANCH   5   6
ENDBRANCH   4   5
ENDBRANCH   3   4
ENDBRANCH   2   3
ENDBRANCH   1   2
BRANCH   1  11
ATOM     11  C   UNL     1      48.482  26.141  21.189  1.00  0.00     0.000 C 
BRANCH  11  12
ATOM     12  C   UNL     1      49.459  25.002  21.523  1.00  0.00    -0.000 C 
BRANCH  12  13
ATOM     13  C   UNL     1      50.404  25.407  22.661  1.00  0.00    -0.000 C 
BRANCH  13  14
ATOM     14  C   UNL     1      50.646  26.924  22.662  1.00  0.00    -0.000 C 
BRANCH  14  15
ATOM     15  C   UNL     1      52.107  27.290  22.361  1.00  0.00    -0.000 C 
BRANCH  15  16
ATOM     16  C   UNL     1      52.719  26.415  21.253  1.00  0.00    -0.000 C 
BRANCH  16  17
ATOM     17  C   UNL     1      52.298  26.866  19.846  1.00  0.00    -0.003 C 
ATOM     18  C   UNL     1      52.333  25.727  18.827  1.00  0.00     0.004 C 
ENDBRANCH  16  17
ENDBRANCH  15  16
ENDBRANCH  14  15
ENDBRANCH  13  14
ENDBRANCH  12  13
ENDBRANCH  11  12
ENDBRANCH   1  11
TORSDOF 14
ENDMDL
MODEL 5
REMARK VINA RESULT:    -5.010      5.280     10.388
REMARK INTER + INTRA:          -9.885
REMARK INTER:                  -8.762
REMARK INTRA:                  -1.123
REMARK UNBOUND:                -0.774
REMARK SMILES CCCCCCCCCCCCCCCC(=O)[O-]
REMARK SMILES IDX 9 1 10 2 11 3 12 4 13 5 14 6 15 7 16 8 17 9 18 10 8 11 7 12
REMARK SMILES IDX 6 13 5 14 4 15 3 16 2 17 1 18
REMARK H PARENT
REMARK Flexibility Score: inf
ROOT
ATOM      1  C   UNL     1      48.706  27.835  16.629  1.00  0.00     0.000 C 
ENDROOT
BRANCH   1   2
ATOM      2  C   UNL     1      49.499  28.878  15.819  1.00  0.00     0.000 C 
BRANCH   2   3
ATOM      3  C   UNL     1      48.837  30.272  15.860  1.00  0.00     0.000 C 
BRANCH   3   4
ATOM      4  C   UNL     1      47.778  30.417  16.965  1.00  0.00     0.000 C 
BRANCH   4   5
ATOM      5  C   UNL     1      48.026  31.633  17.873  1.00  0.00     0.000 C 
BRANCH   5   6
ATOM      6  C   UNL     1      49.224  32.479  17.415  1.00  0.00     0.006 C 
BRANCH   6   7
ATOM      7  C   UNL     1      48.818  33.899  16.998  1.00  0.00     0.053 C 
BRANCH   7   8
ATOM      8  C   UNL     1      48.019  33.863  15.734  1.00  0.00     0.041 C 
ATOM      9  O   UNL     1      48.571  33.562  14.643  1.00  0.00    -0.550 OA
ATOM     10  O   UNL     1      46.653  34.115  15.768  1.00  0.00    -0.550 OA
ENDBRANCH   7   8
ENDBRANCH   6   7
ENDBRANCH   5   6
ENDBRANCH   4   5
ENDBRANCH   3   4
ENDBRANCH   2   3
ENDBRANCH   1   2
BRANCH   1  11
ATOM     11  C   UNL     1      48.758  26.435  16.001  1.00  0.00     0.000 C 
BRANCH  11  12
ATOM     12  C   UNL     1      48.575  25.314  17.035  1.00  0.00    -0.000 C 
BRANCH  12  13
ATOM     13  C   UNL     1      48.699  25.859  18.463  1.00  0.00    -0.000 C 
BRANCH  13  14
ATOM     14  C   UNL     1      49.667  25.005  19.296  1.00  0.00    -0.000 C 
BRANCH  14  15
ATOM     15  C   UNL     1      49.294  24.973  20.787  1.00  0.00    -0.000 C 
BRANCH  15  16
ATOM     16  C   UNL     1      48.157  25.949  21.133  1.00  0.00    -0.000 C 
BRANCH  16  17
ATOM     17  C   UNL     1      48.496  26.847  22.332  1.00  0.00    -0.003 C 
ATOM     18  C   UNL     1      49.998  26.917  22.610  1.00  0.00     0.004 C 
ENDBRANCH  16  17
ENDBRANCH  15  16
ENDBRANCH  14  15
ENDBRANCH  13  14
ENDBRANCH  12  13
ENDBRANCH  11  12
ENDBRANCH   1  11
TORSDOF 14
ENDMDL
MODEL 6
REMARK VINA RESULT:    -5.010     12.002     13.387
REMARK INTER + INTRA:          -9.884
REMARK INTER:                  -7.300
REMARK INTRA:                  -2.584
REMARK UNBOUND:                -0.774
REMARK SMILES CCCCCCCCCCCCCCCC(=O)[O-]
REMARK SMILES IDX 9 1 10 2 11 3 12 4 13 5 14 6 15 7 16 8 17 9 18 10 8 11 7 12
REMARK SMILES IDX 6 13 5 14 4 15 3 16 2 17 1 18
REMARK H PARENT
REMARK Flexibility Score: inf
ROOT
ATOM      1  C   UNL     1      40.576  36.793  23.928  1.00  0.00     0.000 C 
ENDROOT
BRANCH   1   2
ATOM      2  C   UNL     1      39.099  36.717  23.498  1.00  0.00     0.000 C 
BRANCH   2   3
ATOM      3  C   UNL     1      38.258  37.862  24.099  1.00  0.00     0.000 C 
BRANCH   3   4
ATOM      4  C   UNL     1      39.105  39.007  24.681  1.00  0.00     0.000 C 
BRANCH   4   5
ATOM      5  C   UNL     1      38.269  40.025  25.472  1.00  0.00     0.000 C 
BRANCH   5   6
ATOM      6  C   UNL     1      38.889  41.431  25.469  1.00  0.00     0.006 C 
BRANCH   6   7
ATOM      7  C   UNL     1      40.186  41.501  24.651  1.00  0.00     0.053 C 
BRANCH   7   8
ATOM      8  C   UNL     1      41.298  42.058  25.482  1.00  0.00     0.041 C 
ATOM      9  O   UNL     1      41.865  43.131  25.145  1.00  0.00    -0.550 OA
ATOM     10  O   UNL     1      41.676  41.419  26.656  1.00  0.00    -0.550 OA
ENDBRANCH   7   8
ENDBRANCH   6   7
ENDBRANCH   5   6
ENDBRANCH   4   5
ENDBRANCH   3   4
ENDBRANCH   2   3
ENDBRANCH   1   2
BRANCH   1  11
ATOM     11  C   UNL     1      41.538  36.854  22.733  1.00  0.00     0.000 C 
BRANCH  11  12
ATOM     12  C   UNL     1      42.670  37.873  22.933  1.00  0.00    -0.000 C 
BRANCH  12  13
ATOM     13  C   UNL     1      42.253  39.261  22.432  1.00  0.00    -0.000 C 
BRANCH  13  14
ATOM     14  C   UNL     1      41.315  39.149  21.220  1.00  0.00    -0.000 C 
BRANCH  14  15
ATOM     15  C   UNL     1      40.142  40.140  21.286  1.00  0.00    -0.000 C 
BRANCH  15  16
ATOM     16  C   UNL     1      38.809  39.507  20.850  1.00  0.00    -0.000 C 
BRANCH  16  17
ATOM     17  C   UNL     1      37.593  40.204  21.480  1.00  0.00    -0.003 C 
ATOM     18  C   UNL     1      37.801  41.708  21.656  1.00  0.00     0.004 C 
ENDBRANCH  16  17
ENDBRANCH  15  16
ENDBRANCH  14  15
ENDBRANCH  13  14
ENDBRANCH  12  13
ENDBRANCH  11  12
ENDBRANCH   1  11
TORSDOF 14
ENDMDL
MODEL 7
REMARK VINA RESULT:    -4.986      1.876      3.130
REMARK INTER + INTRA:          -9.841
REMARK INTER:                  -8.811
REMARK INTRA:                  -1.030
REMARK UNBOUND:                -0.774
REMARK SMILES CCCCCCCCCCCCCCCC(=O)[O-]
REMARK SMILES IDX 9 1 10 2 11 3 12 4 13 5 14 6 15 7 16 8 17 9 18 10 8 11 7 12
REMARK SMILES IDX 6 13 5 14 4 15 3 16 2 17 1 18
REMARK H PARENT
REMARK Flexibility Score: inf
ROOT
ATOM      1  C   UNL     1      45.076  35.411  12.916  1.00  0.00     0.000 C 
ENDROOT
BRANCH   1   2
ATOM      2  C   UNL     1      46.569  35.579  12.581  1.00  0.00     0.000 C 
BRANCH   2   3
ATOM      3  C   UNL     1      47.156  34.327  11.895  1.00  0.00     0.000 C 
BRANCH   3   4
ATOM      4  C   UNL     1      48.602  34.016  12.316  1.00  0.00     0.000 C 
BRANCH   4   5
ATOM      5  C   UNL     1      48.891  34.389  13.780  1.00  0.00     0.000 C 
BRANCH   5   6
ATOM      6  C   UNL     1      48.483  33.282  14.764  1.00  0.00     0.006 C 
BRANCH   6   7
ATOM      7  C   UNL     1      48.090  33.833  16.141  1.00  0.00     0.053 C 
BRANCH   7   8
ATOM      8  C   UNL     1      48.595  32.935  17.226  1.00  0.00     0.041 C 
ATOM      9  O   UNL     1      47.854  32.033  17.698  1.00  0.00    -0.550 OA
ATOM     10  O   UNL     1      49.901  33.063  17.682  1.00  0.00    -0.550 OA
ENDBRANCH   7   8
ENDBRANCH   6   7
ENDBRANCH   5   6
ENDBRANCH   4   5
ENDBRANCH   3   4
ENDBRANCH   2   3
ENDBRANCH   1   2
BRANCH   1  11
ATOM     11  C   UNL     1      44.191  36.452  12.212  1.00  0.00     0.000 C 
BRANCH  11  12
ATOM     12  C   UNL     1      42.801  36.579  12.853  1.00  0.00    -0.000 C 
BRANCH  12  13
ATOM     13  C   UNL     1      41.706  36.121  11.882  1.00  0.00    -0.000 C 
BRANCH  13  14
ATOM     14  C   UNL     1      40.319  36.578  12.361  1.00  0.00    -0.000 C 
BRANCH  14  15
ATOM     15  C   UNL     1      40.291  38.061  12.760  1.00  0.00    -0.000 C 
BRANCH  15  16
ATOM     16  C   UNL     1      39.695  38.958  11.660  1.00  0.00    -0.000 C 
BRANCH  16  17
ATOM     17  C   UNL     1      40.758  39.459  10.670  1.00  0.00    -0.003 C 
ATOM     18  C   UNL     1      42.056  39.878  11.361  1.00  0.00     0.004 C 
ENDBRANCH  16  17
ENDBRANCH  15  16
ENDBRANCH  14  15
ENDBRANCH  13  14
ENDBRANCH  12  13
ENDBRANCH  11  12
ENDBRANCH   1  11
TORSDOF 14
ENDMDL
MODEL 8
REMARK VINA RESULT:    -4.983      6.683     11.598
REMARK INTER + INTRA:          -9.835
REMARK INTER:                  -8.574
REMARK INTRA:                  -1.261
REMARK UNBOUND:                -0.774
REMARK SMILES CCCCCCCCCCCCCCCC(=O)[O-]
REMARK SMILES IDX 9 1 10 2 11 3 12 4 13 5 14 6 15 7 16 8 17 9 18 10 8 11 7 12
REMARK SMILES IDX 6 13 5 14 4 15 3 16 2 17 1 18
REMARK H PARENT
REMARK Flexibility Score: inf
ROOT
ATOM      1  C   UNL     1      49.762  25.417  17.499  1.00  0.00     0.000 C 
ENDROOT
BRANCH   1   2
ATOM      2  C   UNL     1      48.420  25.608  16.769  1.00  0.00     0.000 C 
BRANCH   2   3
ATOM      3  C   UNL     1      48.612  26.094  15.317  1.00  0.00     0.000 C 
BRANCH   3   4
ATOM      4  C   UNL     1      48.488  27.619  15.157  1.00  0.00     0.000 C 
BRANCH   4   5
ATOM      5  C   UNL     1      49.776  28.366  15.540  1.00  0.00     0.000 C 
BRANCH   5   6
ATOM      6  C   UNL     1      49.570  29.335  16.714  1.00  0.00     0.006 C 
BRANCH   6   7
ATOM      7  C   UNL     1      48.088  29.608  17.001  1.00  0.00     0.053 C 
BRANCH   7   8
ATOM      8  C   UNL     1      47.866  31.065  17.260  1.00  0.00     0.041 C 
ATOM      9  O   UNL     1      47.730  31.485  18.439  1.00  0.00    -0.550 OA
ATOM     10  O   UNL     1      47.857  31.966  16.202  1.00  0.00    -0.550 OA
ENDBRANCH   7   8
ENDBRANCH   6   7
ENDBRANCH   5   6
ENDBRANCH   4   5
ENDBRANCH   3   4
ENDBRANCH   2   3
ENDBRANCH   1   2
BRANCH   1  11
ATOM     11  C   UNL     1      49.584  25.110  18.993  1.00  0.00     0.000 C 
BRANCH  11  12
ATOM     12  C   UNL     1      48.244  25.619  19.548  1.00  0.00    -0.000 C 
BRANCH  12  13
ATOM     13  C   UNL     1      48.218  25.537  21.079  1.00  0.00    -0.000 C 
BRANCH  13  14
ATOM     14  C   UNL     1      48.250  26.940  21.705  1.00  0.00    -0.000 C 
BRANCH  14  15
ATOM     15  C   UNL     1      49.434  27.133  22.665  1.00  0.00    -0.000 C 
BRANCH  15  16
ATOM     16  C   UNL     1      50.546  26.091  22.448  1.00  0.00    -0.000 C 
BRANCH  16  17
ATOM     17  C   UNL     1      51.944  26.726  22.392  1.00  0.00    -0.003 C 
ATOM     18  C   UNL     1      53.057  25.688  22.246  1.00  0.00     0.004 C 
ENDBRANCH  16  17
ENDBRANCH  15  16
ENDBRANCH  14  15
ENDBRANCH  13  14
ENDBRANCH  12  13
ENDBRANCH  11  12
ENDBRANCH   1  11
TORSDOF 14
ENDMDL
MODEL 9
REMARK VINA RESULT:    -4.937      9.869     12.725
REMARK INTER + INTRA:          -9.752
REMARK INTER:                  -8.338
REMARK INTRA:                  -1.414
REMARK UNBOUND:                -0.774
REMARK SMILES CCCCCCCCCCCCCCCC(=O)[O-]
REMARK SMILES IDX 9 1 10 2 11 3 12 4 13 5 14 6 15 7 16 8 17 9 18 10 8 11 7 12
REMARK SMILES IDX 6 13 5 14 4 15 3 16 2 17 1 18
REMARK H PARENT
REMARK Flexibility Score: inf
ROOT
ATOM      1  C   UNL     1      48.864  26.810  22.096  1.00  0.00     0.000 C 
ENDROOT
BRANCH   1   2
ATOM      2  C   UNL     1      48.330  26.000  20.900  1.00  0.00     0.000 C 
BRANCH   2   3
ATOM      3  C   UNL     1      49.319  24.903  20.453  1.00  0.00     0.000 C 
BRANCH   3   4
ATOM      4  C   UNL     1      49.608  24.916  18.942  1.00  0.00     0.000 C 
BRANCH   4   5
ATOM      5  C   UNL     1      48.505  25.614  18.129  1.00  0.00     0.000 C 
BRANCH   5   6
ATOM      6  C   UNL     1      49.011  26.147  16.781  1.00  0.00     0.006 C 
BRANCH   6   7
ATOM      7  C   UNL     1      48.171  25.648  15.597  1.00  0.00     0.053 C 
BRANCH   7   8
ATOM      8  C   UNL     1      49.051  25.333  14.429  1.00  0.00     0.041 C 
ATOM      9  O   UNL     1      50.291  25.189  14.590  1.00  0.00    -0.550 OA
ATOM     10  O   UNL     1      48.494  25.149  13.169  1.00  0.00    -0.550 OA
ENDBRANCH   7   8
ENDBRANCH   6   7
ENDBRANCH   5   6
ENDBRANCH   4   5
ENDBRANCH   3   4
ENDBRANCH   2   3
ENDBRANCH   1   2
BRANCH   1  11
ATOM     11  C   UNL     1      50.141  26.205  22.698  1.00  0.00     0.000 C 
BRANCH  11  12
ATOM     12  C   UNL     1      51.353  27.142  22.581  1.00  0.00    -0.000 C 
BRANCH  12  13
ATOM     13  C   UNL     1      52.656  26.341  22.472  1.00  0.00    -0.000 C 
BRANCH  13  14
ATOM     14  C   UNL     1      53.010  26.063  21.003  1.00  0.00    -0.000 C 
BRANCH  14  15
ATOM     15  C   UNL     1      52.491  27.154  20.054  1.00  0.00    -0.000 C 
BRANCH  15  16
ATOM     16  C   UNL     1      53.275  27.208  18.731  1.00  0.00    -0.000 C 
BRANCH  16  17
ATOM     17  C   UNL     1      53.775  28.623  18.402  1.00  0.00    -0.003 C 
ATOM     18  C   UNL     1      55.290  28.682  18.207  1.00  0.00     0.004 C 
ENDBRANCH  16  17
ENDBRANCH  15  16
ENDBRANCH  14  15
ENDBRANCH  13  14
ENDBRANCH  12  13
ENDBRANCH  11  12
ENDBRANCH   1  11
TORSDOF 14
ENDMDL
