MODEL 1
REMARK VINA RESULT:    -5.996      0.000      0.000
REMARK INTER + INTRA:          -7.647
REMARK INTER:                  -7.222
REMARK INTRA:                  -0.425
REMARK UNBOUND:                -0.425
REMARK SMILES O=c1c(O)c(-c2ccc(O)cc2O)oc2cc(O)cc(O)c12
REMARK SMILES IDX 5 1 3 2 2 3 1 4 22 5 20 6 19 7 17 8 16 9 15 10 14 11 6 12
REMARK SMILES IDX 8 13 7 14 9 15 11 16 12 17 10 18 13 20 4 22 21 24 18 26
REMARK H PARENT 10 19 13 21 4 23 21 25 18 27
REMARK Flexibility Score: inf
ROOT
ATOM      1  C   UNL     1     -13.096  17.397 -23.878  1.00  0.00     0.184 A 
ATOM      2  C   UNL     1     -12.064  17.392 -22.926  1.00  0.00     0.208 A 
ATOM      3  C   UNL     1     -11.624  16.165 -22.407  1.00  0.00     0.238 A 
ATOM      4  O   UNL     1     -10.663  16.163 -21.594  1.00  0.00    -0.285 OA
ATOM      5  C   UNL     1     -12.233  14.961 -22.835  1.00  0.00     0.111 A 
ATOM      6  C   UNL     1     -11.895  13.663 -22.346  1.00  0.00     0.134 A 
ATOM      7  C   UNL     1     -12.472  12.531 -22.935  1.00  0.00     0.093 A 
ATOM      8  C   UNL     1     -13.422  12.651 -23.948  1.00  0.00     0.123 A 
ATOM      9  C   UNL     1     -13.804  13.917 -24.393  1.00  0.00     0.094 A 
ATOM     10  C   UNL     1     -13.220  15.064 -23.851  1.00  0.00     0.146 A 
ATOM     11  O   UNL     1     -13.603  16.250 -24.311  1.00  0.00    -0.451 OA
ENDROOT
BRANCH   1  12
ATOM     12  C   UNL     1     -13.617  18.656 -24.453  1.00  0.00     0.063 A 
ATOM     13  C   UNL     1     -14.988  20.647 -24.193  1.00  0.00     0.047 A 
ATOM     14  C   UNL     1     -14.483  19.448 -23.683  1.00  0.00     0.020 A 
ATOM     15  C   UNL     1     -14.622  21.075 -25.475  1.00  0.00     0.119 A 
ATOM     16  C   UNL     1     -13.742  20.304 -26.240  1.00  0.00     0.093 A 
ATOM     17  C   UNL     1     -13.225  19.102 -25.732  1.00  0.00     0.130 A 
BRANCH  15  18
ATOM     18  O   UNL     1     -15.123  22.265 -25.996  1.00  0.00    -0.508 OA
ATOM     19  H   UNL     1     -15.062  22.479 -26.985  1.00  0.00     0.293 HD
ENDBRANCH  15  18
BRANCH  17  20
ATOM     20  O   UNL     1     -12.309  18.367 -26.486  1.00  0.00    -0.507 OA
ATOM     21  H   UNL     1     -11.425  18.060 -26.097  1.00  0.00     0.293 HD
ENDBRANCH  17  20
ENDBRANCH   1  12
BRANCH   2  22
ATOM     22  O   UNL     1     -11.469  18.595 -22.536  1.00  0.00    -0.502 OA
ATOM     23  H   UNL     1     -10.570  18.629 -22.069  1.00  0.00     0.293 HD
ENDBRANCH   2  22
BRANCH   6  24
ATOM     24  O   UNL     1     -11.026  13.435 -21.275  1.00  0.00    -0.507 OA
ATOM     25  H   UNL     1     -10.064  13.146 -21.366  1.00  0.00     0.293 HD
ENDBRANCH   6  24
BRANCH   8  26
ATOM     26  O   UNL     1     -13.987  11.503 -24.500  1.00  0.00    -0.508 OA
ATOM     27  H   UNL     1     -13.446  10.656 -24.628  1.00  0.00     0.293 HD
ENDBRANCH   8  26
TORSDOF 6
ENDMDL
MODEL 2
REMARK VINA RESULT:    -5.973     14.093     15.548
REMARK INTER + INTRA:          -7.620
REMARK INTER:                  -7.278
REMARK INTRA:                  -0.342
REMARK UNBOUND:                -0.425
REMARK SMILES O=c1c(O)c(-c2ccc(O)cc2O)oc2cc(O)cc(O)c12
REMARK SMILES IDX 5 1 3 2 2 3 1 4 22 5 20 6 19 7 17 8 16 9 15 10 14 11 6 12
REMARK SMILES IDX 8 13 7 14 9 15 11 16 12 17 10 18 13 20 4 22 21 24 18 26
REMARK H PARENT 10 19 13 21 4 23 21 25 18 27
REMARK Flexibility Score: inf
ROOT
ATOM      1  C   UNL     1      -9.218  12.004 -37.532  1.00  0.00     0.184 A 
ATOM      2  C   UNL     1      -8.709  11.936 -38.839  1.00  0.00     0.208 A 
ATOM      3  C   UNL     1      -8.809  10.729 -39.546  1.00  0.00     0.238 A 
ATOM      4  O   UNL     1      -8.400  10.689 -40.736  1.00  0.00    -0.285 OA
ATOM      5  C   UNL     1      -9.401   9.599 -38.930  1.00  0.00     0.111 A 
ATOM      6  C   UNL     1      -9.519   8.313 -39.538  1.00  0.00     0.134 A 
ATOM      7  C   UNL     1     -10.239   7.304 -38.886  1.00  0.00     0.093 A 
ATOM      8  C   UNL     1     -10.789   7.514 -37.622  1.00  0.00     0.123 A 
ATOM      9  C   UNL     1     -10.630   8.749 -36.992  1.00  0.00     0.094 A 
ATOM     10  C   UNL     1      -9.948   9.787 -37.632  1.00  0.00     0.146 A 
ATOM     11  O   UNL     1      -9.828  10.950 -37.004  1.00  0.00    -0.451 OA
ENDROOT
BRANCH   1  12
ATOM     12  C   UNL     1      -9.131  13.241 -36.728  1.00  0.00     0.063 A 
ATOM     13  C   UNL     1      -8.063  14.477 -34.926  1.00  0.00     0.047 A 
ATOM     14  C   UNL     1      -8.177  13.319 -35.701  1.00  0.00     0.020 A 
ATOM     15  C   UNL     1      -8.894  15.575 -35.177  1.00  0.00     0.119 A 
ATOM     16  C   UNL     1      -9.832  15.514 -36.212  1.00  0.00     0.093 A 
ATOM     17  C   UNL     1      -9.947  14.359 -36.999  1.00  0.00     0.130 A 
BRANCH  15  18
ATOM     18  O   UNL     1      -8.793  16.731 -34.408  1.00  0.00    -0.508 OA
ATOM     19  H   UNL     1      -7.914  17.015 -33.989  1.00  0.00     0.293 HD
ENDBRANCH  15  18
BRANCH  17  20
ATOM     20  O   UNL     1     -10.853  14.330 -38.061  1.00  0.00    -0.507 OA
ATOM     21  H   UNL     1     -11.771  14.753 -37.987  1.00  0.00     0.293 HD
ENDBRANCH  17  20
ENDBRANCH   1  12
BRANCH   2  22
ATOM     22  O   UNL     1      -8.146  13.072 -39.429  1.00  0.00    -0.502 OA
ATOM     23  H   UNL     1      -7.935  13.909 -38.900  1.00  0.00     0.293 HD
ENDBRANCH   2  22
BRANCH   6  24
ATOM     24  O   UNL     1      -8.928   7.969 -40.757  1.00  0.00    -0.507 OA
ATOM     25  H   UNL     1      -9.056   8.475 -41.620  1.00  0.00     0.293 HD
ENDBRANCH   6  24
BRANCH   8  26
ATOM     26  O   UNL     1     -11.486   6.482 -36.996  1.00  0.00    -0.508 OA
ATOM     27  H   UNL     1     -12.499   6.450 -36.998  1.00  0.00     0.293 HD
ENDBRANCH   8  26
TORSDOF 6
ENDMDL
MODEL 3
REMARK VINA RESULT:    -5.931      2.323      2.900
REMARK INTER + INTRA:          -7.570
REMARK INTER:                  -7.158
REMARK INTRA:                  -0.412
REMARK UNBOUND:                -0.425
REMARK SMILES O=c1c(O)c(-c2ccc(O)cc2O)oc2cc(O)cc(O)c12
REMARK SMILES IDX 5 1 3 2 2 3 1 4 22 5 20 6 19 7 17 8 16 9 15 10 14 11 6 12
REMARK SMILES IDX 8 13 7 14 9 15 11 16 12 17 10 18 13 20 4 22 21 24 18 26
REMARK H PARENT 10 19 13 21 4 23 21 25 18 27
REMARK Flexibility Score: inf
ROOT
ATOM      1  C   UNL     1     -12.383  17.426 -23.612  1.00  0.00     0.184 A 
ATOM      2  C   UNL     1     -13.649  17.386 -23.008  1.00  0.00     0.208 A 
ATOM      3  C   UNL     1     -14.010  16.255 -22.260  1.00  0.00     0.238 A 
ATOM      4  O   UNL     1     -15.125  16.246 -21.676  1.00  0.00    -0.285 OA
ATOM      5  C   UNL     1     -13.106  15.171 -22.141  1.00  0.00     0.111 A 
ATOM      6  C   UNL     1     -13.382  13.958 -21.442  1.00  0.00     0.134 A 
ATOM      7  C   UNL     1     -12.366  13.008 -21.279  1.00  0.00     0.093 A 
ATOM      8  C   UNL     1     -11.106  13.197 -21.845  1.00  0.00     0.123 A 
ATOM      9  C   UNL     1     -10.843  14.353 -22.581  1.00  0.00     0.094 A 
ATOM     10  C   UNL     1     -11.824  15.335 -22.731  1.00  0.00     0.146 A 
ATOM     11  O   UNL     1     -11.530  16.426 -23.429  1.00  0.00    -0.451 OA
ENDROOT
BRANCH   1  12
ATOM     12  C   UNL     1     -11.946  18.581 -24.426  1.00  0.00     0.063 A 
ATOM     13  C   UNL     1     -10.730  20.681 -24.567  1.00  0.00     0.047 A 
ATOM     14  C   UNL     1     -11.164  19.579 -23.825  1.00  0.00     0.020 A 
ATOM     15  C   UNL     1     -11.061  20.790 -25.923  1.00  0.00     0.119 A 
ATOM     16  C   UNL     1     -11.820  19.788 -26.535  1.00  0.00     0.093 A 
ATOM     17  C   UNL     1     -12.254  18.676 -25.799  1.00  0.00     0.130 A 
BRANCH  15  18
ATOM     18  O   UNL     1     -10.637  21.885 -26.671  1.00  0.00    -0.508 OA
ATOM     19  H   UNL     1     -11.128  22.177 -27.509  1.00  0.00     0.293 HD
ENDBRANCH  15  18
BRANCH  17  20
ATOM     20  O   UNL     1     -12.970  17.659 -26.434  1.00  0.00    -0.507 OA
ATOM     21  H   UNL     1     -13.763  17.861 -27.031  1.00  0.00     0.293 HD
ENDBRANCH  17  20
ENDBRANCH   1  12
BRANCH   2  22
ATOM     22  O   UNL     1     -14.515  18.477 -23.126  1.00  0.00    -0.502 OA
ATOM     23  H   UNL     1     -15.388  18.534 -22.616  1.00  0.00     0.293 HD
ENDBRANCH   2  22
BRANCH   6  24
ATOM     24  O   UNL     1     -14.635  13.628 -20.916  1.00  0.00    -0.507 OA
ATOM     25  H   UNL     1     -15.511  14.008 -21.239  1.00  0.00     0.293 HD
ENDBRANCH   6  24
BRANCH   8  26
ATOM     26  O   UNL     1     -10.124  12.223 -21.676  1.00  0.00    -0.508 OA
ATOM     27  H   UNL     1      -9.158  12.396 -21.929  1.00  0.00     0.293 HD
ENDBRANCH   8  26
TORSDOF 6
ENDMDL
MODEL 4
REMARK VINA RESULT:    -5.877     15.592     17.015
REMARK INTER + INTRA:          -7.504
REMARK INTER:                  -7.116
REMARK INTRA:                  -0.388
REMARK UNBOUND:                -0.425
REMARK SMILES O=c1c(O)c(-c2ccc(O)cc2O)oc2cc(O)cc(O)c12
REMARK SMILES IDX 5 1 3 2 2 3 1 4 22 5 20 6 19 7 17 8 16 9 15 10 14 11 6 12
REMARK SMILES IDX 8 13 7 14 9 15 11 16 12 17 10 18 13 20 4 22 21 24 18 26
REMARK H PARENT 10 19 13 21 4 23 21 25 18 27
REMARK Flexibility Score: inf
ROOT
ATOM      1  C   UNL     1      -8.733  10.642 -39.163  1.00  0.00     0.184 A 
ATOM      2  C   UNL     1      -7.573   9.921 -39.489  1.00  0.00     0.208 A 
ATOM      3  C   UNL     1      -7.508   8.557 -39.169  1.00  0.00     0.238 A 
ATOM      4  O   UNL     1      -6.488   7.903 -39.511  1.00  0.00    -0.285 OA
ATOM      5  C   UNL     1      -8.597   7.935 -38.511  1.00  0.00     0.111 A 
ATOM      6  C   UNL     1      -8.624   6.568 -38.102  1.00  0.00     0.134 A 
ATOM      7  C   UNL     1      -9.805   6.028 -37.576  1.00  0.00     0.093 A 
ATOM      8  C   UNL     1     -10.936   6.818 -37.385  1.00  0.00     0.123 A 
ATOM      9  C   UNL     1     -10.903   8.171 -37.726  1.00  0.00     0.094 A 
ATOM     10  C   UNL     1      -9.752   8.732 -38.286  1.00  0.00     0.146 A 
ATOM     11  O   UNL     1      -9.765  10.020 -38.608  1.00  0.00    -0.451 OA
ENDROOT
BRANCH   1  12
ATOM     12  C   UNL     1      -8.860  12.085 -39.459  1.00  0.00     0.063 A 
ATOM     13  C   UNL     1      -9.077  13.856 -41.111  1.00  0.00     0.047 A 
ATOM     14  C   UNL     1      -8.949  12.500 -40.796  1.00  0.00     0.020 A 
ATOM     15  C   UNL     1      -9.129  14.812 -40.089  1.00  0.00     0.119 A 
ATOM     16  C   UNL     1      -9.064  14.406 -38.754  1.00  0.00     0.093 A 
ATOM     17  C   UNL     1      -8.943  13.046 -38.430  1.00  0.00     0.130 A 
BRANCH  15  18
ATOM     18  O   UNL     1      -9.251  16.166 -40.391  1.00  0.00    -0.508 OA
ATOM     19  H   UNL     1      -8.478  16.695 -40.778  1.00  0.00     0.293 HD
ENDBRANCH  15  18
BRANCH  17  20
ATOM     20  O   UNL     1      -8.928  12.650 -37.091  1.00  0.00    -0.507 OA
ATOM     21  H   UNL     1      -9.622  12.981 -36.432  1.00  0.00     0.293 HD
ENDBRANCH  17  20
ENDBRANCH   1  12
BRANCH   2  22
ATOM     22  O   UNL     1      -6.520  10.556 -40.154  1.00  0.00    -0.502 OA
ATOM     23  H   UNL     1      -6.425  10.534 -41.162  1.00  0.00     0.293 HD
ENDBRANCH   2  22
BRANCH   6  24
ATOM     24  O   UNL     1      -7.520   5.713 -38.164  1.00  0.00    -0.507 OA
ATOM     25  H   UNL     1      -6.753   5.811 -38.812  1.00  0.00     0.293 HD
ENDBRANCH   6  24
BRANCH   8  26
ATOM     26  O   UNL     1     -12.088   6.250 -36.845  1.00  0.00    -0.508 OA
ATOM     27  H   UNL     1     -12.449   5.364 -37.179  1.00  0.00     0.293 HD
ENDBRANCH   8  26
TORSDOF 6
ENDMDL
MODEL 5
REMARK VINA RESULT:    -5.838      1.483      2.107
REMARK INTER + INTRA:          -7.457
REMARK INTER:                  -7.164
REMARK INTRA:                  -0.293
REMARK UNBOUND:                -0.425
REMARK SMILES O=c1c(O)c(-c2ccc(O)cc2O)oc2cc(O)cc(O)c12
REMARK SMILES IDX 5 1 3 2 2 3 1 4 22 5 20 6 19 7 17 8 16 9 15 10 14 11 6 12
REMARK SMILES IDX 8 13 7 14 9 15 11 16 12 17 10 18 13 20 4 22 21 24 18 26
REMARK H PARENT 10 19 13 21 4 23 21 25 18 27
REMARK Flexibility Score: inf
ROOT
ATOM      1  C   UNL     1     -13.517  16.880 -24.786  1.00  0.00     0.184 A 
ATOM      2  C   UNL     1     -12.618  16.555 -23.757  1.00  0.00     0.208 A 
ATOM      3  C   UNL     1     -12.271  15.211 -23.557  1.00  0.00     0.238 A 
ATOM      4  O   UNL     1     -11.424  14.930 -22.669  1.00  0.00    -0.285 OA
ATOM      5  C   UNL     1     -12.840  14.207 -24.378  1.00  0.00     0.111 A 
ATOM      6  C   UNL     1     -12.591  12.808 -24.239  1.00  0.00     0.134 A 
ATOM      7  C   UNL     1     -13.107  11.918 -25.189  1.00  0.00     0.093 A 
ATOM      8  C   UNL     1     -13.914  12.366 -26.234  1.00  0.00     0.123 A 
ATOM      9  C   UNL     1     -14.212  13.724 -26.346  1.00  0.00     0.094 A 
ATOM     10  C   UNL     1     -13.684  14.642 -25.435  1.00  0.00     0.146 A 
ATOM     11  O   UNL     1     -13.983  15.927 -25.583  1.00  0.00    -0.451 OA
ENDROOT
BRANCH   1  12
ATOM     12  C   UNL     1     -13.936  18.275 -25.039  1.00  0.00     0.063 A 
ATOM     13  C   UNL     1     -13.982  20.191 -26.535  1.00  0.00     0.047 A 
ATOM     14  C   UNL     1     -13.595  18.877 -26.260  1.00  0.00     0.020 A 
ATOM     15  C   UNL     1     -14.725  20.916 -25.596  1.00  0.00     0.119 A 
ATOM     16  C   UNL     1     -15.088  20.317 -24.386  1.00  0.00     0.093 A 
ATOM     17  C   UNL     1     -14.710  18.995 -24.106  1.00  0.00     0.130 A 
BRANCH  15  18
ATOM     18  O   UNL     1     -15.111  22.228 -25.856  1.00  0.00    -0.508 OA
ATOM     19  H   UNL     1     -14.722  23.009 -25.339  1.00  0.00     0.293 HD
ENDBRANCH  15  18
BRANCH  17  20
ATOM     20  O   UNL     1     -15.121  18.393 -22.916  1.00  0.00    -0.507 OA
ATOM     21  H   UNL     1     -15.215  17.387 -22.834  1.00  0.00     0.293 HD
ENDBRANCH  17  20
ENDBRANCH   1  12
BRANCH   2  22
ATOM     22  O   UNL     1     -12.058  17.568 -22.973  1.00  0.00    -0.502 OA
ATOM     23  H   UNL     1     -11.061  17.633 -22.804  1.00  0.00     0.293 HD
ENDBRANCH   2  22
BRANCH   6  24
ATOM     24  O   UNL     1     -11.874  12.245 -23.180  1.00  0.00    -0.507 OA
ATOM     25  H   UNL     1     -10.875  12.316 -23.060  1.00  0.00     0.293 HD
ENDBRANCH   6  24
BRANCH   8  26
ATOM     26  O   UNL     1     -14.422  11.449 -27.152  1.00  0.00    -0.508 OA
ATOM     27  H   UNL     1     -15.235  11.661 -27.717  1.00  0.00     0.293 HD
ENDBRANCH   8  26
TORSDOF 6
ENDMDL
MODEL 6
REMARK VINA RESULT:    -5.758      3.224      7.003
REMARK INTER + INTRA:          -7.361
REMARK INTER:                  -6.946
REMARK INTRA:                  -0.414
REMARK UNBOUND:                -0.425
REMARK SMILES O=c1c(O)c(-c2ccc(O)cc2O)oc2cc(O)cc(O)c12
REMARK SMILES IDX 5 1 3 2 2 3 1 4 22 5 20 6 19 7 17 8 16 9 15 10 14 11 6 12
REMARK SMILES IDX 8 13 7 14 9 15 11 16 12 17 10 18 13 20 4 22 21 24 18 26
REMARK H PARENT 10 19 13 21 4 23 21 25 18 27
REMARK Flexibility Score: inf
ROOT
ATOM      1  C   UNL     1     -13.979  13.499 -26.263  1.00  0.00     0.184 A 
ATOM      2  C   UNL     1     -13.989  13.234 -24.884  1.00  0.00     0.208 A 
ATOM      3  C   UNL     1     -14.026  14.311 -23.985  1.00  0.00     0.238 A 
ATOM      4  O   UNL     1     -14.089  14.067 -22.752  1.00  0.00    -0.285 OA
ATOM      5  C   UNL     1     -14.034  15.638 -24.477  1.00  0.00     0.111 A 
ATOM      6  C   UNL     1     -14.030  16.807 -23.657  1.00  0.00     0.134 A 
ATOM      7  C   UNL     1     -14.171  18.068 -24.251  1.00  0.00     0.093 A 
ATOM      8  C   UNL     1     -14.250  18.207 -25.635  1.00  0.00     0.123 A 
ATOM      9  C   UNL     1     -14.196  17.076 -26.450  1.00  0.00     0.094 A 
ATOM     10  C   UNL     1     -14.092  15.802 -25.887  1.00  0.00     0.146 A 
ATOM     11  O   UNL     1     -14.055  14.751 -26.697  1.00  0.00    -0.451 OA
ENDROOT
BRANCH   1  12
ATOM     12  C   UNL     1     -13.924  12.411 -27.263  1.00  0.00     0.063 A 
ATOM     13  C   UNL     1     -15.106  10.926 -28.783  1.00  0.00     0.047 A 
ATOM     14  C   UNL     1     -15.122  11.948 -27.830  1.00  0.00     0.020 A 
ATOM     15  C   UNL     1     -13.890  10.363 -29.189  1.00  0.00     0.119 A 
ATOM     16  C   UNL     1     -12.691  10.834 -28.647  1.00  0.00     0.093 A 
ATOM     17  C   UNL     1     -12.698  11.865 -27.695  1.00  0.00     0.130 A 
BRANCH  15  18
ATOM     18  O   UNL     1     -13.862   9.341 -30.135  1.00  0.00    -0.508 OA
ATOM     19  H   UNL     1     -13.708   9.532 -31.118  1.00  0.00     0.293 HD
ENDBRANCH  15  18
BRANCH  17  20
ATOM     20  O   UNL     1     -11.491  12.359 -27.198  1.00  0.00    -0.507 OA
ATOM     21  H   UNL     1     -11.455  12.925 -26.358  1.00  0.00     0.293 HD
ENDBRANCH  17  20
ENDBRANCH   1  12
BRANCH   2  22
ATOM     22  O   UNL     1     -13.998  11.913 -24.427  1.00  0.00    -0.502 OA
ATOM     23  H   UNL     1     -14.449  11.165 -24.940  1.00  0.00     0.293 HD
ENDBRANCH   2  22
BRANCH   6  24
ATOM     24  O   UNL     1     -13.864  16.785 -22.269  1.00  0.00    -0.507 OA
ATOM     25  H   UNL     1     -13.109  17.234 -21.774  1.00  0.00     0.293 HD
ENDBRANCH   6  24
BRANCH   8  26
ATOM     26  O   UNL     1     -14.374  19.479 -26.192  1.00  0.00    -0.508 OA
ATOM     27  H   UNL     1     -14.137  19.659 -27.160  1.00  0.00     0.293 HD
ENDBRANCH   8  26
TORSDOF 6
ENDMDL
MODEL 7
REMARK VINA RESULT:    -5.729      2.289      6.632
REMARK INTER + INTRA:          -7.326
REMARK INTER:                  -6.907
REMARK INTRA:                  -0.419
REMARK UNBOUND:                -0.425
REMARK SMILES O=c1c(O)c(-c2ccc(O)cc2O)oc2cc(O)cc(O)c12
REMARK SMILES IDX 5 1 3 2 2 3 1 4 22 5 20 6 19 7 17 8 16 9 15 10 14 11 6 12
REMARK SMILES IDX 8 13 7 14 9 15 11 16 12 17 10 18 13 20 4 22 21 24 18 26
REMARK H PARENT 10 19 13 21 4 23 21 25 18 27
REMARK Flexibility Score: inf
ROOT
ATOM      1  C   UNL     1     -13.412  15.650 -24.636  1.00  0.00     0.184 A 
ATOM      2  C   UNL     1     -14.244  16.302 -23.712  1.00  0.00     0.208 A 
ATOM      3  C   UNL     1     -14.200  17.702 -23.628  1.00  0.00     0.238 A 
ATOM      4  O   UNL     1     -14.986  18.285 -22.837  1.00  0.00    -0.285 OA
ATOM      5  C   UNL     1     -13.311  18.429 -24.456  1.00  0.00     0.111 A 
ATOM      6  C   UNL     1     -13.152  19.848 -24.427  1.00  0.00     0.134 A 
ATOM      7  C   UNL     1     -12.339  20.472 -25.381  1.00  0.00     0.093 A 
ATOM      8  C   UNL     1     -11.628  19.726 -26.320  1.00  0.00     0.123 A 
ATOM      9  C   UNL     1     -11.729  18.334 -26.321  1.00  0.00     0.094 A 
ATOM     10  C   UNL     1     -12.560  17.685 -25.405  1.00  0.00     0.146 A 
ATOM     11  O   UNL     1     -12.637  16.360 -25.446  1.00  0.00    -0.451 OA
ENDROOT
BRANCH   1  12
ATOM     12  C   UNL     1     -13.399  14.177 -24.764  1.00  0.00     0.063 A 
ATOM     13  C   UNL     1     -12.800  12.015 -23.827  1.00  0.00     0.047 A 
ATOM     14  C   UNL     1     -12.823  13.409 -23.740  1.00  0.00     0.020 A 
ATOM     15  C   UNL     1     -13.365  11.370 -24.933  1.00  0.00     0.119 A 
ATOM     16  C   UNL     1     -13.961  12.125 -25.947  1.00  0.00     0.093 A 
ATOM     17  C   UNL     1     -13.995  13.525 -25.865  1.00  0.00     0.130 A 
BRANCH  15  18
ATOM     18  O   UNL     1     -13.344   9.981 -25.032  1.00  0.00    -0.508 OA
ATOM     19  H   UNL     1     -12.566   9.436 -24.678  1.00  0.00     0.293 HD
ENDBRANCH  15  18
BRANCH  17  20
ATOM     20  O   UNL     1     -14.636  14.264 -26.860  1.00  0.00    -0.507 OA
ATOM     21  H   UNL     1     -14.323  14.242 -27.823  1.00  0.00     0.293 HD
ENDBRANCH  17  20
ENDBRANCH   1  12
BRANCH   2  22
ATOM     22  O   UNL     1     -15.125  15.560 -22.921  1.00  0.00    -0.502 OA
ATOM     23  H   UNL     1     -15.637  15.971 -22.149  1.00  0.00     0.293 HD
ENDBRANCH   2  22
BRANCH   6  24
ATOM     24  O   UNL     1     -13.745  20.679 -23.472  1.00  0.00    -0.507 OA
ATOM     25  H   UNL     1     -13.297  21.477 -23.048  1.00  0.00     0.293 HD
ENDBRANCH   6  24
BRANCH   8  26
ATOM     26  O   UNL     1     -10.817  20.380 -27.244  1.00  0.00    -0.508 OA
ATOM     27  H   UNL     1     -10.145  19.875 -27.811  1.00  0.00     0.293 HD
ENDBRANCH   8  26
TORSDOF 6
ENDMDL
MODEL 8
REMARK VINA RESULT:    -5.651     17.383     19.078
REMARK INTER + INTRA:          -7.232
REMARK INTER:                  -6.842
REMARK INTRA:                  -0.390
REMARK UNBOUND:                -0.425
REMARK SMILES O=c1c(O)c(-c2ccc(O)cc2O)oc2cc(O)cc(O)c12
REMARK SMILES IDX 5 1 3 2 2 3 1 4 22 5 20 6 19 7 17 8 16 9 15 10 14 11 6 12
REMARK SMILES IDX 8 13 7 14 9 15 11 16 12 17 10 18 13 20 4 22 21 24 18 26
REMARK H PARENT 10 19 13 21 4 23 21 25 18 27
REMARK Flexibility Score: inf
ROOT
ATOM      1  C   UNL     1      -6.689   8.205 -38.840  1.00  0.00     0.184 A 
ATOM      2  C   UNL     1      -5.963   8.832 -39.865  1.00  0.00     0.208 A 
ATOM      3  C   UNL     1      -4.675   8.365 -40.170  1.00  0.00     0.238 A 
ATOM      4  O   UNL     1      -4.050   8.896 -41.125  1.00  0.00    -0.285 OA
ATOM      5  C   UNL     1      -4.124   7.289 -39.433  1.00  0.00     0.111 A 
ATOM      6  C   UNL     1      -2.812   6.760 -39.629  1.00  0.00     0.134 A 
ATOM      7  C   UNL     1      -2.421   5.610 -38.932  1.00  0.00     0.093 A 
ATOM      8  C   UNL     1      -3.266   5.009 -38.001  1.00  0.00     0.123 A 
ATOM      9  C   UNL     1      -4.528   5.552 -37.758  1.00  0.00     0.094 A 
ATOM     10  C   UNL     1      -4.962   6.677 -38.463  1.00  0.00     0.146 A 
ATOM     11  O   UNL     1      -6.175   7.156 -38.211  1.00  0.00    -0.451 OA
ENDROOT
BRANCH   1  12
ATOM     12  C   UNL     1      -8.044   8.658 -38.459  1.00  0.00     0.063 A 
ATOM     13  C   UNL     1      -9.469  10.393 -37.527  1.00  0.00     0.047 A 
ATOM     14  C   UNL     1      -8.201   9.932 -37.892  1.00  0.00     0.020 A 
ATOM     15  C   UNL     1     -10.596   9.590 -37.737  1.00  0.00     0.119 A 
ATOM     16  C   UNL     1     -10.452   8.329 -38.322  1.00  0.00     0.093 A 
ATOM     17  C   UNL     1      -9.184   7.861 -38.698  1.00  0.00     0.130 A 
BRANCH  15  18
ATOM     18  O   UNL     1     -11.864  10.038 -37.373  1.00  0.00    -0.508 OA
ATOM     19  H   UNL     1     -12.367   9.629 -36.593  1.00  0.00     0.293 HD
ENDBRANCH  15  18
BRANCH  17  20
ATOM     20  O   UNL     1      -9.059   6.621 -39.326  1.00  0.00    -0.507 OA
ATOM     21  H   UNL     1      -9.865   6.128 -39.692  1.00  0.00     0.293 HD
ENDBRANCH  17  20
ENDBRANCH   1  12
BRANCH   2  22
ATOM     22  O   UNL     1      -6.538   9.881 -40.588  1.00  0.00    -0.502 OA
ATOM     23  H   UNL     1      -6.199  10.833 -40.526  1.00  0.00     0.293 HD
ENDBRANCH   2  22
BRANCH   6  24
ATOM     24  O   UNL     1      -1.855   7.338 -40.467  1.00  0.00    -0.507 OA
ATOM     25  H   UNL     1      -1.036   6.865 -40.816  1.00  0.00     0.293 HD
ENDBRANCH   6  24
BRANCH   8  26
ATOM     26  O   UNL     1      -2.837   3.875 -37.314  1.00  0.00    -0.508 OA
ATOM     27  H   UNL     1      -2.651   3.897 -36.319  1.00  0.00     0.293 HD
ENDBRANCH   8  26
TORSDOF 6
ENDMDL
MODEL 9
REMARK VINA RESULT:    -5.571     16.276     17.630
REMARK INTER + INTRA:          -7.136
REMARK INTER:                  -6.798
REMARK INTRA:                  -0.338
REMARK UNBOUND:                -0.425
REMARK SMILES O=c1c(O)c(-c2ccc(O)cc2O)oc2cc(O)cc(O)c12
REMARK SMILES IDX 5 1 3 2 2 3 1 4 22 5 20 6 19 7 17 8 16 9 15 10 14 11 6 12
REMARK SMILES IDX 8 13 7 14 9 15 11 16 12 17 10 18 13 20 4 22 21 24 18 26
REMARK H PARENT 10 19 13 21 4 23 21 25 18 27
REMARK Flexibility Score: inf
ROOT
ATOM      1  C   UNL     1      -7.989  10.773 -39.206  1.00  0.00     0.184 A 
ATOM      2  C   UNL     1      -8.834   9.874 -38.536  1.00  0.00     0.208 A 
ATOM      3  C   UNL     1      -8.382   8.568 -38.295  1.00  0.00     0.238 A 
ATOM      4  O   UNL     1      -9.122   7.782 -37.647  1.00  0.00    -0.285 OA
ATOM      5  C   UNL     1      -7.099   8.172 -38.744  1.00  0.00     0.111 A 
ATOM      6  C   UNL     1      -6.555   6.862 -38.591  1.00  0.00     0.134 A 
ATOM      7  C   UNL     1      -5.225   6.619 -38.958  1.00  0.00     0.093 A 
ATOM      8  C   UNL     1      -4.441   7.619 -39.530  1.00  0.00     0.123 A 
ATOM      9  C   UNL     1      -4.981   8.889 -39.739  1.00  0.00     0.094 A 
ATOM     10  C   UNL     1      -6.293   9.173 -39.351  1.00  0.00     0.146 A 
ATOM     11  O   UNL     1      -6.766  10.396 -39.557  1.00  0.00    -0.451 OA
ENDROOT
BRANCH   1  12
ATOM     12  C   UNL     1      -8.409  12.159 -39.505  1.00  0.00     0.063 A 
ATOM     13  C   UNL     1      -9.223  13.780 -41.124  1.00  0.00     0.047 A 
ATOM     14  C   UNL     1      -8.813  12.481 -40.810  1.00  0.00     0.020 A 
ATOM     15  C   UNL     1      -9.246  14.769 -40.134  1.00  0.00     0.119 A 
ATOM     16  C   UNL     1      -8.868  14.451 -38.826  1.00  0.00     0.093 A 
ATOM     17  C   UNL     1      -8.462  13.148 -38.501  1.00  0.00     0.130 A 
BRANCH  15  18
ATOM     18  O   UNL     1      -9.648  16.067 -40.436  1.00  0.00    -0.508 OA
ATOM     19  H   UNL     1      -9.155  16.874 -40.071  1.00  0.00     0.293 HD
ENDBRANCH  15  18
BRANCH  17  20
ATOM     20  O   UNL     1      -8.134  12.832 -37.181  1.00  0.00    -0.507 OA
ATOM     21  H   UNL     1      -8.532  12.026 -36.713  1.00  0.00     0.293 HD
ENDBRANCH  17  20
ENDBRANCH   1  12
BRANCH   2  22
ATOM     22  O   UNL     1     -10.088  10.297 -38.088  1.00  0.00    -0.502 OA
ATOM     23  H   UNL     1     -10.917  10.245 -38.668  1.00  0.00     0.293 HD
ENDBRANCH   2  22
BRANCH   6  24
ATOM     24  O   UNL     1      -7.281   5.766 -38.115  1.00  0.00    -0.507 OA
ATOM     25  H   UNL     1      -8.209   5.818 -37.724  1.00  0.00     0.293 HD
ENDBRANCH   6  24
BRANCH   8  26
ATOM     26  O   UNL     1      -3.127   7.338 -39.897  1.00  0.00    -0.508 OA
ATOM     27  H   UNL     1      -2.747   7.643 -40.785  1.00  0.00     0.293 HD
ENDBRANCH   8  26
TORSDOF 6
ENDMDL
