MODEL 1
REMARK VINA RESULT:    -3.411      0.000      0.000
REMARK INTER + INTRA:          -3.802
REMARK INTER:                  -3.710
REMARK INTRA:                  -0.092
REMARK UNBOUND:                -0.092
REMARK SMILES C=C(C)[C@@H]1CC[C@@H](C)[C@@H](O)C1
REMARK SMILES IDX 8 1 7 2 6 3 5 4 4 5 11 6 9 7 10 8 2 10 1 11 3 12
REMARK H PARENT 10 9
REMARK Flexibility Score: inf
ROOT
ATOM      1  C   UNL     1     -19.125 -12.642  12.357  1.00  0.00     0.010 C 
ATOM      2  C   UNL     1     -18.924 -13.670  11.236  1.00  0.00     0.015 C 
ATOM      3  C   UNL     1     -18.271 -14.956  11.785  1.00  0.00     0.006 C 
ATOM      4  C   UNL     1     -18.062 -15.988  10.671  1.00  0.00     0.008 C 
ATOM      5  C   UNL     1     -17.201 -15.407   9.533  1.00  0.00     0.017 C 
ATOM      6  C   UNL     1     -17.837 -14.121   8.960  1.00  0.00     0.040 C 
ATOM      7  C   UNL     1     -18.124 -13.068  10.050  1.00  0.00     0.117 C 
ENDROOT
BRANCH   7   8
ATOM      8  O   UNL     1     -16.940 -12.425  10.463  1.00  0.00    -0.393 OA
ATOM      9  H   UNL     1     -16.289 -12.458   9.717  1.00  0.00     0.210 HD
ENDBRANCH   7   8
BRANCH   5  10
ATOM     10  C   UNL     1     -16.963 -16.440   8.438  1.00  0.00    -0.077 C 
ATOM     11  C   UNL     1     -17.981 -17.124   7.887  1.00  0.00     0.008 C 
ATOM     12  C   UNL     1     -15.565 -16.715   7.948  1.00  0.00     0.039 C 
ENDBRANCH   5  10
TORSDOF 2
ENDMDL
MODEL 2
REMARK VINA RESULT:    -3.278      1.393      4.297
REMARK INTER + INTRA:          -3.658
REMARK INTER:                  -3.566
REMARK INTRA:                  -0.092
REMARK UNBOUND:                -0.092
REMARK SMILES C=C(C)[C@@H]1CC[C@@H](C)[C@@H](O)C1
REMARK SMILES IDX 8 1 7 2 6 3 5 4 4 5 11 6 9 7 10 8 2 10 1 11 3 12
REMARK H PARENT 10 9
REMARK Flexibility Score: inf
ROOT
ATOM      1  C   UNL     1     -15.431 -16.932   7.953  1.00  0.00     0.010 C 
ATOM      2  C   UNL     1     -16.098 -16.348   9.206  1.00  0.00     0.015 C 
ATOM      3  C   UNL     1     -17.606 -16.674   9.222  1.00  0.00     0.006 C 
ATOM      4  C   UNL     1     -18.283 -16.092  10.469  1.00  0.00     0.008 C 
ATOM      5  C   UNL     1     -18.075 -14.568  10.551  1.00  0.00     0.017 C 
ATOM      6  C   UNL     1     -16.571 -14.214  10.541  1.00  0.00     0.040 C 
ATOM      7  C   UNL     1     -15.827 -14.826   9.337  1.00  0.00     0.117 C 
ENDROOT
BRANCH   7   8
ATOM      8  O   UNL     1     -16.108 -14.119   8.150  1.00  0.00    -0.393 OA
ATOM      9  H   UNL     1     -17.085 -13.966   8.101  1.00  0.00     0.210 HD
ENDBRANCH   7   8
BRANCH   5  10
ATOM     10  C   UNL     1     -18.773 -13.979  11.770  1.00  0.00    -0.077 C 
ATOM     11  C   UNL     1     -19.125 -12.683  11.817  1.00  0.00     0.008 C 
ATOM     12  C   UNL     1     -19.085 -14.852  12.959  1.00  0.00     0.039 C 
ENDBRANCH   5  10
TORSDOF 2
ENDMDL
MODEL 3
REMARK VINA RESULT:    -3.155      1.909      4.492
REMARK INTER + INTRA:          -3.524
REMARK INTER:                  -3.430
REMARK INTRA:                  -0.094
REMARK UNBOUND:                -0.092
REMARK SMILES C=C(C)[C@@H]1CC[C@@H](C)[C@@H](O)C1
REMARK SMILES IDX 8 1 7 2 6 3 5 4 4 5 11 6 9 7 10 8 2 10 1 11 3 12
REMARK H PARENT 10 9
REMARK Flexibility Score: inf
ROOT
ATOM      1  C   UNL     1     -15.094 -17.114   7.884  1.00  0.00     0.010 C 
ATOM      2  C   UNL     1     -15.847 -15.903   8.452  1.00  0.00     0.015 C 
ATOM      3  C   UNL     1     -15.713 -15.849   9.988  1.00  0.00     0.006 C 
ATOM      4  C   UNL     1     -16.466 -14.645  10.565  1.00  0.00     0.008 C 
ATOM      5  C   UNL     1     -17.955 -14.681  10.169  1.00  0.00     0.017 C 
ATOM      6  C   UNL     1     -18.117 -14.729   8.634  1.00  0.00     0.040 C 
ATOM      7  C   UNL     1     -17.330 -15.891   7.993  1.00  0.00     0.117 C 
ENDROOT
BRANCH   7   8
ATOM      8  O   UNL     1     -17.976 -17.125   8.206  1.00  0.00    -0.393 OA
ATOM      9  H   UNL     1     -17.681 -17.486   9.079  1.00  0.00     0.210 HD
ENDBRANCH   7   8
BRANCH   5  10
ATOM     10  C   UNL     1     -18.715 -13.503  10.768  1.00  0.00    -0.077 C 
ATOM     11  C   UNL     1     -19.124 -12.474  10.006  1.00  0.00     0.008 C 
ATOM     12  C   UNL     1     -19.025 -13.474  12.242  1.00  0.00     0.039 C 
ENDBRANCH   5  10
TORSDOF 2
ENDMDL
MODEL 4
REMARK VINA RESULT:    -2.300      1.595      2.305
REMARK INTER + INTRA:          -2.594
REMARK INTER:                  -2.502
REMARK INTRA:                  -0.092
REMARK UNBOUND:                -0.092
REMARK SMILES C=C(C)[C@@H]1CC[C@@H](C)[C@@H](O)C1
REMARK SMILES IDX 8 1 7 2 6 3 5 4 4 5 11 6 9 7 10 8 2 10 1 11 3 12
REMARK H PARENT 10 9
REMARK Flexibility Score: inf
ROOT
ATOM      1  C   UNL     1     -19.072 -15.744  13.752  1.00  0.00     0.010 C 
ATOM      2  C   UNL     1     -18.629 -15.718  12.283  1.00  0.00     0.015 C 
ATOM      3  C   UNL     1     -17.100 -15.896  12.172  1.00  0.00     0.006 C 
ATOM      4  C   UNL     1     -16.647 -15.868  10.708  1.00  0.00     0.008 C 
ATOM      5  C   UNL     1     -17.073 -14.556  10.021  1.00  0.00     0.017 C 
ATOM      6  C   UNL     1     -18.602 -14.356  10.113  1.00  0.00     0.040 C 
ATOM      7  C   UNL     1     -19.122 -14.434  11.564  1.00  0.00     0.117 C 
ENDROOT
BRANCH   7   8
ATOM      8  O   UNL     1     -18.819 -13.259  12.279  1.00  0.00    -0.393 OA
ATOM      9  H   UNL     1     -17.835 -13.165  12.326  1.00  0.00     0.210 HD
ENDBRANCH   7   8
BRANCH   5  10
ATOM     10  C   UNL     1     -16.597 -14.509   8.574  1.00  0.00    -0.077 C 
ATOM     11  C   UNL     1     -16.541 -13.351   7.894  1.00  0.00     0.008 C 
ATOM     12  C   UNL     1     -16.174 -15.775   7.875  1.00  0.00     0.039 C 
ENDBRANCH   5  10
TORSDOF 2
ENDMDL
MODEL 5
REMARK VINA RESULT:    -1.886      1.417      2.050
REMARK INTER + INTRA:          -2.143
REMARK INTER:                  -2.055
REMARK INTRA:                  -0.089
REMARK UNBOUND:                -0.092
REMARK SMILES C=C(C)[C@@H]1CC[C@@H](C)[C@@H](O)C1
REMARK SMILES IDX 8 1 7 2 6 3 5 4 4 5 11 6 9 7 10 8 2 10 1 11 3 12
REMARK H PARENT 10 9
REMARK Flexibility Score: inf
ROOT
ATOM      1  C   UNL     1     -19.028 -12.404  12.599  1.00  0.00     0.010 C 
ATOM      2  C   UNL     1     -18.130 -13.162  11.612  1.00  0.00     0.015 C 
ATOM      3  C   UNL     1     -18.693 -13.067  10.179  1.00  0.00     0.006 C 
ATOM      4  C   UNL     1     -17.805 -13.826   9.186  1.00  0.00     0.008 C 
ATOM      5  C   UNL     1     -17.656 -15.304   9.594  1.00  0.00     0.017 C 
ATOM      6  C   UNL     1     -17.089 -15.428  11.025  1.00  0.00     0.040 C 
ATOM      7  C   UNL     1     -17.912 -14.633  12.059  1.00  0.00     0.117 C 
ENDROOT
BRANCH   7   8
ATOM      8  O   UNL     1     -19.119 -15.293  12.367  1.00  0.00    -0.393 OA
ATOM      9  H   UNL     1     -18.919 -16.249  12.532  1.00  0.00     0.210 HD
ENDBRANCH   7   8
BRANCH   5  10
ATOM     10  C   UNL     1     -16.801 -16.071   8.592  1.00  0.00    -0.077 C 
ATOM     11  C   UNL     1     -17.303 -17.098   7.885  1.00  0.00     0.008 C 
ATOM     12  C   UNL     1     -15.361 -15.684   8.375  1.00  0.00     0.039 C 
ENDBRANCH   5  10
TORSDOF 2
ENDMDL
