MODEL 1
REMARK VINA RESULT:    -4.518      0.000      0.000
REMARK INTER + INTRA:          -6.344
REMARK INTER:                  -6.103
REMARK INTRA:                  -0.242
REMARK UNBOUND:                -0.242
REMARK SMILES CCCCCCCC(=O)[O-]
REMARK SMILES IDX 5 1 6 2 7 3 8 4 9 5 10 6 4 7 3 8 2 9 1 10
REMARK H PARENT
REMARK Flexibility Score: inf
ROOT
ATOM      1  C   UNL     1      14.103   2.751  56.382  1.00  0.00     0.000 C 
ENDROOT
BRANCH   1   2
ATOM      2  C   UNL     1      12.772   3.494  56.147  1.00  0.00     0.006 C 
BRANCH   2   3
ATOM      3  C   UNL     1      12.605   4.064  54.730  1.00  0.00     0.053 C 
BRANCH   3   4
ATOM      4  C   UNL     1      11.171   4.350  54.407  1.00  0.00     0.041 C 
ATOM      5  O   UNL     1      10.804   5.525  54.142  1.00  0.00    -0.550 OA
ATOM      6  O   UNL     1      10.234   3.324  54.431  1.00  0.00    -0.550 OA
ENDBRANCH   3   4
ENDBRANCH   2   3
ENDBRANCH   1   2
BRANCH   1   7
ATOM      7  C   UNL     1      15.305   3.300  55.587  1.00  0.00     0.000 C 
BRANCH   7   8
ATOM      8  C   UNL     1      16.538   2.377  55.541  1.00  0.00    -0.000 C 
BRANCH   8   9
ATOM      9  C   UNL     1      16.257   0.905  55.891  1.00  0.00    -0.003 C 
ATOM     10  C   UNL     1      17.057   0.417  57.097  1.00  0.00     0.004 C 
ENDBRANCH   8   9
ENDBRANCH   7   8
ENDBRANCH   1   7
TORSDOF 6
ENDMDL
MODEL 2
REMARK VINA RESULT:    -4.459      3.930      5.064
REMARK INTER + INTRA:          -6.264
REMARK INTER:                  -5.721
REMARK INTRA:                  -0.543
REMARK UNBOUND:                -0.242
REMARK SMILES CCCCCCCC(=O)[O-]
REMARK SMILES IDX 5 1 6 2 7 3 8 4 9 5 10 6 4 7 3 8 2 9 1 10
REMARK H PARENT
REMARK Flexibility Score: inf
ROOT
ATOM      1  C   UNL     1       9.460   5.237  55.742  1.00  0.00     0.000 C 
ENDROOT
BRANCH   1   2
ATOM      2  C   UNL     1       9.336   6.752  55.480  1.00  0.00     0.006 C 
BRANCH   2   3
ATOM      3  C   UNL     1       9.850   7.202  54.103  1.00  0.00     0.053 C 
BRANCH   3   4
ATOM      4  C   UNL     1      11.255   7.715  54.170  1.00  0.00     0.041 C 
ATOM      5  O   UNL     1      12.070   7.448  53.247  1.00  0.00    -0.550 OA
ATOM      6  O   UNL     1      11.674   8.458  55.265  1.00  0.00    -0.550 OA
ENDBRANCH   3   4
ENDBRANCH   2   3
ENDBRANCH   1   2
BRANCH   1   7
ATOM      7  C   UNL     1      10.781   4.796  56.403  1.00  0.00     0.000 C 
BRANCH   7   8
ATOM      8  C   UNL     1      11.554   3.694  55.651  1.00  0.00    -0.000 C 
BRANCH   8   9
ATOM      9  C   UNL     1      11.054   3.413  54.224  1.00  0.00    -0.003 C 
ATOM     10  C   UNL     1      11.941   4.037  53.148  1.00  0.00     0.004 C 
ENDBRANCH   8   9
ENDBRANCH   7   8
ENDBRANCH   1   7
TORSDOF 6
ENDMDL
MODEL 3
REMARK VINA RESULT:    -4.444      3.647      4.978
REMARK INTER + INTRA:          -6.245
REMARK INTER:                  -5.612
REMARK INTRA:                  -0.633
REMARK UNBOUND:                -0.242
REMARK SMILES CCCCCCCC(=O)[O-]
REMARK SMILES IDX 5 1 6 2 7 3 8 4 9 5 10 6 4 7 3 8 2 9 1 10
REMARK H PARENT
REMARK Flexibility Score: inf
ROOT
ATOM      1  C   UNL     1      10.014   4.220  55.254  1.00  0.00     0.000 C 
ENDROOT
BRANCH   1   2
ATOM      2  C   UNL     1       9.502   5.532  55.882  1.00  0.00     0.006 C 
BRANCH   2   3
ATOM      3  C   UNL     1       9.386   6.705  54.896  1.00  0.00     0.053 C 
BRANCH   3   4
ATOM      4  C   UNL     1      10.419   7.758  55.153  1.00  0.00     0.041 C 
ATOM      5  O   UNL     1      11.571   7.432  55.545  1.00  0.00    -0.550 OA
ATOM      6  O   UNL     1      10.101   9.101  54.993  1.00  0.00    -0.550 OA
ENDBRANCH   3   4
ENDBRANCH   2   3
ENDBRANCH   1   2
BRANCH   1   7
ATOM      7  C   UNL     1      11.442   3.814  55.667  1.00  0.00     0.000 C 
BRANCH   7   8
ATOM      8  C   UNL     1      12.542   4.147  54.639  1.00  0.00    -0.000 C 
BRANCH   8   9
ATOM      9  C   UNL     1      12.050   4.277  53.187  1.00  0.00    -0.003 C 
ATOM     10  C   UNL     1      12.213   5.690  52.628  1.00  0.00     0.004 C 
ENDBRANCH   8   9
ENDBRANCH   7   8
ENDBRANCH   1   7
TORSDOF 6
ENDMDL
MODEL 4
REMARK VINA RESULT:    -4.382      3.856      5.860
REMARK INTER + INTRA:          -6.161
REMARK INTER:                  -5.630
REMARK INTRA:                  -0.530
REMARK UNBOUND:                -0.242
REMARK SMILES CCCCCCCC(=O)[O-]
REMARK SMILES IDX 5 1 6 2 7 3 8 4 9 5 10 6 4 7 3 8 2 9 1 10
REMARK H PARENT
REMARK Flexibility Score: inf
ROOT
ATOM      1  C   UNL     1       9.887   5.036  55.939  1.00  0.00     0.000 C 
ENDROOT
BRANCH   1   2
ATOM      2  C   UNL     1       9.711   4.009  54.802  1.00  0.00     0.006 C 
BRANCH   2   3
ATOM      3  C   UNL     1      10.982   3.214  54.462  1.00  0.00     0.053 C 
BRANCH   3   4
ATOM      4  C   UNL     1      12.089   4.104  53.987  1.00  0.00     0.041 C 
ATOM      5  O   UNL     1      12.061   4.583  52.823  1.00  0.00    -0.550 OA
ATOM      6  O   UNL     1      13.167   4.378  54.819  1.00  0.00    -0.550 OA
ENDBRANCH   3   4
ENDBRANCH   2   3
ENDBRANCH   1   2
BRANCH   1   7
ATOM      7  C   UNL     1       9.423   6.467  55.602  1.00  0.00     0.000 C 
BRANCH   7   8
ATOM      8  C   UNL     1       9.678   6.913  54.148  1.00  0.00    -0.000 C 
BRANCH   8   9
ATOM      9  C   UNL     1      10.977   7.709  53.935  1.00  0.00    -0.003 C 
ATOM     10  C   UNL     1      11.481   8.380  55.212  1.00  0.00     0.004 C 
ENDBRANCH   8   9
ENDBRANCH   7   8
ENDBRANCH   1   7
TORSDOF 6
ENDMDL
MODEL 5
REMARK VINA RESULT:    -4.375      3.489      5.734
REMARK INTER + INTRA:          -6.152
REMARK INTER:                  -5.510
REMARK INTRA:                  -0.642
REMARK UNBOUND:                -0.242
REMARK SMILES CCCCCCCC(=O)[O-]
REMARK SMILES IDX 5 1 6 2 7 3 8 4 9 5 10 6 4 7 3 8 2 9 1 10
REMARK H PARENT
REMARK Flexibility Score: inf
ROOT
ATOM      1  C   UNL     1       9.537   5.320  55.863  1.00  0.00     0.000 C 
ENDROOT
BRANCH   1   2
ATOM      2  C   UNL     1       9.543   3.917  55.221  1.00  0.00     0.006 C 
BRANCH   2   3
ATOM      3  C   UNL     1      10.802   3.600  54.400  1.00  0.00     0.053 C 
BRANCH   3   4
ATOM      4  C   UNL     1      12.048   3.692  55.226  1.00  0.00     0.041 C 
ATOM      5  O   UNL     1      13.009   4.409  54.843  1.00  0.00    -0.550 OA
ATOM      6  O   UNL     1      12.159   2.961  56.402  1.00  0.00    -0.550 OA
ENDBRANCH   3   4
ENDBRANCH   2   3
ENDBRANCH   1   2
BRANCH   1   7
ATOM      7  C   UNL     1       9.532   6.493  54.862  1.00  0.00     0.000 C 
BRANCH   7   8
ATOM      8  C   UNL     1      10.636   7.547  55.082  1.00  0.00    -0.000 C 
BRANCH   8   9
ATOM      9  C   UNL     1      11.676   7.638  53.953  1.00  0.00    -0.003 C 
ATOM     10  C   UNL     1      11.278   6.843  52.711  1.00  0.00     0.004 C 
ENDBRANCH   8   9
ENDBRANCH   7   8
ENDBRANCH   1   7
TORSDOF 6
ENDMDL
MODEL 6
REMARK VINA RESULT:    -4.374      3.859      6.004
REMARK INTER + INTRA:          -6.150
REMARK INTER:                  -5.562
REMARK INTRA:                  -0.588
REMARK UNBOUND:                -0.242
REMARK SMILES CCCCCCCC(=O)[O-]
REMARK SMILES IDX 5 1 6 2 7 3 8 4 9 5 10 6 4 7 3 8 2 9 1 10
REMARK H PARENT
REMARK Flexibility Score: inf
ROOT
ATOM      1  C   UNL     1      12.135   5.628  52.779  1.00  0.00     0.000 C 
ENDROOT
BRANCH   1   2
ATOM      2  C   UNL     1      12.382   4.494  53.796  1.00  0.00     0.006 C 
BRANCH   2   3
ATOM      3  C   UNL     1      11.133   3.669  54.142  1.00  0.00     0.053 C 
BRANCH   3   4
ATOM      4  C   UNL     1      10.505   4.115  55.426  1.00  0.00     0.041 C 
ATOM      5  O   UNL     1       9.263   3.999  55.597  1.00  0.00    -0.550 OA
ATOM      6  O   UNL     1      11.286   4.691  56.421  1.00  0.00    -0.550 OA
ENDBRANCH   3   4
ENDBRANCH   2   3
ENDBRANCH   1   2
BRANCH   1   7
ATOM      7  C   UNL     1      11.739   6.983  53.399  1.00  0.00     0.000 C 
BRANCH   7   8
ATOM      8  C   UNL     1      10.382   7.546  52.932  1.00  0.00    -0.000 C 
BRANCH   8   9
ATOM      9  C   UNL     1       9.189   7.188  53.835  1.00  0.00    -0.003 C 
ATOM     10  C   UNL     1       9.376   7.648  55.280  1.00  0.00     0.004 C 
ENDBRANCH   8   9
ENDBRANCH   7   8
ENDBRANCH   1   7
TORSDOF 6
ENDMDL
MODEL 7
REMARK VINA RESULT:    -4.312      3.200      5.740
REMARK INTER + INTRA:          -6.066
REMARK INTER:                  -5.508
REMARK INTRA:                  -0.558
REMARK UNBOUND:                -0.242
REMARK SMILES CCCCCCCC(=O)[O-]
REMARK SMILES IDX 5 1 6 2 7 3 8 4 9 5 10 6 4 7 3 8 2 9 1 10
REMARK H PARENT
REMARK Flexibility Score: inf
ROOT
ATOM      1  C   UNL     1      12.039   4.160  52.976  1.00  0.00     0.000 C 
ENDROOT
BRANCH   1   2
ATOM      2  C   UNL     1      11.227   3.623  54.173  1.00  0.00     0.006 C 
BRANCH   2   3
ATOM      3  C   UNL     1      11.676   4.165  55.539  1.00  0.00     0.053 C 
BRANCH   3   4
ATOM      4  C   UNL     1      12.763   3.331  56.143  1.00  0.00     0.041 C 
ATOM      5  O   UNL     1      12.481   2.438  56.985  1.00  0.00    -0.550 OA
ATOM      6  O   UNL     1      14.090   3.562  55.802  1.00  0.00    -0.550 OA
ENDBRANCH   3   4
ENDBRANCH   2   3
ENDBRANCH   1   2
BRANCH   1   7
ATOM      7  C   UNL     1      12.434   5.647  53.072  1.00  0.00     0.000 C 
BRANCH   7   8
ATOM      8  C   UNL     1      11.322   6.646  52.696  1.00  0.00    -0.000 C 
BRANCH   8   9
ATOM      9  C   UNL     1      10.735   7.435  53.879  1.00  0.00    -0.003 C 
ATOM     10  C   UNL     1       9.365   6.920  54.317  1.00  0.00     0.004 C 
ENDBRANCH   8   9
ENDBRANCH   7   8
ENDBRANCH   1   7
TORSDOF 6
ENDMDL
MODEL 8
REMARK VINA RESULT:    -4.230      4.034      5.036
REMARK INTER + INTRA:          -5.955
REMARK INTER:                  -5.351
REMARK INTRA:                  -0.604
REMARK UNBOUND:                -0.242
REMARK SMILES CCCCCCCC(=O)[O-]
REMARK SMILES IDX 5 1 6 2 7 3 8 4 9 5 10 6 4 7 3 8 2 9 1 10
REMARK H PARENT
REMARK Flexibility Score: inf
ROOT
ATOM      1  C   UNL     1      12.144   5.112  52.745  1.00  0.00     0.000 C 
ENDROOT
BRANCH   1   2
ATOM      2  C   UNL     1      12.175   6.614  53.093  1.00  0.00     0.006 C 
BRANCH   2   3
ATOM      3  C   UNL     1      10.789   7.252  53.276  1.00  0.00     0.053 C 
BRANCH   3   4
ATOM      4  C   UNL     1      10.579   7.744  54.674  1.00  0.00     0.041 C 
ATOM      5  O   UNL     1      11.562   8.111  55.370  1.00  0.00    -0.550 OA
ATOM      6  O   UNL     1       9.302   7.766  55.220  1.00  0.00    -0.550 OA
ENDBRANCH   3   4
ENDBRANCH   2   3
ENDBRANCH   1   2
BRANCH   1   7
ATOM      7  C   UNL     1      12.242   4.161  53.955  1.00  0.00     0.000 C 
BRANCH   7   8
ATOM      8  C   UNL     1      10.956   3.376  54.278  1.00  0.00    -0.000 C 
BRANCH   8   9
ATOM      9  C   UNL     1      10.005   4.072  55.267  1.00  0.00    -0.003 C 
ATOM     10  C   UNL     1      10.721   4.598  56.510  1.00  0.00     0.004 C 
ENDBRANCH   8   9
ENDBRANCH   7   8
ENDBRANCH   1   7
TORSDOF 6
ENDMDL
MODEL 9
REMARK VINA RESULT:    -4.165      4.497      5.617
REMARK INTER + INTRA:          -5.868
REMARK INTER:                  -5.458
REMARK INTRA:                  -0.409
REMARK UNBOUND:                -0.242
REMARK SMILES CCCCCCCC(=O)[O-]
REMARK SMILES IDX 5 1 6 2 7 3 8 4 9 5 10 6 4 7 3 8 2 9 1 10
REMARK H PARENT
REMARK Flexibility Score: inf
ROOT
ATOM      1  C   UNL     1       9.531   6.369  55.598  1.00  0.00     0.000 C 
ENDROOT
BRANCH   1   2
ATOM      2  C   UNL     1       9.147   7.040  54.263  1.00  0.00     0.006 C 
BRANCH   2   3
ATOM      3  C   UNL     1      10.345   7.428  53.381  1.00  0.00     0.053 C 
BRANCH   3   4
ATOM      4  C   UNL     1       9.918   8.169  52.152  1.00  0.00     0.041 C 
ATOM      5  O   UNL     1       9.632   9.394  52.219  1.00  0.00    -0.550 OA
ATOM      6  O   UNL     1       9.804   7.501  50.940  1.00  0.00    -0.550 OA
ENDBRANCH   3   4
ENDBRANCH   2   3
ENDBRANCH   1   2
BRANCH   1   7
ATOM      7  C   UNL     1       9.485   4.828  55.589  1.00  0.00     0.000 C 
BRANCH   7   8
ATOM      8  C   UNL     1      10.854   4.132  55.449  1.00  0.00    -0.000 C 
BRANCH   8   9
ATOM      9  C   UNL     1      11.064   3.383  54.122  1.00  0.00    -0.003 C 
ATOM     10  C   UNL     1      12.015   4.109  53.172  1.00  0.00     0.004 C 
ENDBRANCH   8   9
ENDBRANCH   7   8
ENDBRANCH   1   7
TORSDOF 6
ENDMDL
