MODEL 1
REMARK VINA RESULT:    -2.819      0.000      0.000
REMARK INTER + INTRA:          -3.601
REMARK INTER:                  -3.396
REMARK INTRA:                  -0.205
REMARK UNBOUND:                -0.205
REMARK SMILES OCC(O)CO
REMARK SMILES IDX 3 1 5 2 6 3 2 5 1 6 4 8
REMARK H PARENT 6 4 1 7 4 9
REMARK Flexibility Score: inf
ROOT
ATOM      1  C   UNL     1       5.868   7.567  -2.856  1.00  0.00     0.165 C 
ENDROOT
BRANCH   1   2
ATOM      2  C   UNL     1       7.375   7.266  -2.755  1.00  0.00     0.190 C 
BRANCH   2   3
ATOM      3  O   UNL     1       7.677   6.019  -3.324  1.00  0.00    -0.394 OA
ATOM      4  H   UNL     1       7.062   5.361  -2.908  1.00  0.00     0.210 HD
ENDBRANCH   2   3
ENDBRANCH   1   2
BRANCH   1   5
ATOM      5  C   UNL     1       5.531   8.426  -4.085  1.00  0.00     0.190 C 
BRANCH   5   6
ATOM      6  O   UNL     1       6.452   8.206  -5.121  1.00  0.00    -0.394 OA
ATOM      7  H   UNL     1       7.327   8.016  -4.693  1.00  0.00     0.210 HD
ENDBRANCH   5   6
ENDBRANCH   1   5
BRANCH   1   8
ATOM      8  O   UNL     1       5.146   6.365  -2.923  1.00  0.00    -0.388 OA
ATOM      9  H   UNL     1       5.639   5.768  -3.544  1.00  0.00     0.211 HD
ENDBRANCH   1   8
TORSDOF 5
ENDMDL
MODEL 2
REMARK VINA RESULT:    -2.808      0.810      2.431
REMARK INTER + INTRA:          -3.588
REMARK INTER:                  -3.384
REMARK INTRA:                  -0.204
REMARK UNBOUND:                -0.205
REMARK SMILES OCC(O)CO
REMARK SMILES IDX 3 1 5 2 6 3 2 5 1 6 4 8
REMARK H PARENT 6 4 1 7 4 9
REMARK Flexibility Score: inf
ROOT
ATOM      1  C   UNL     1       7.431   7.371  -3.124  1.00  0.00     0.165 C 
ENDROOT
BRANCH   1   2
ATOM      2  C   UNL     1       7.645   8.149  -4.436  1.00  0.00     0.190 C 
BRANCH   2   3
ATOM      3  O   UNL     1       6.445   8.260  -5.155  1.00  0.00    -0.394 OA
ATOM      4  H   UNL     1       5.714   8.035  -4.523  1.00  0.00     0.210 HD
ENDBRANCH   2   3
ENDBRANCH   1   2
BRANCH   1   5
ATOM      5  C   UNL     1       5.999   7.522  -2.588  1.00  0.00     0.190 C 
BRANCH   5   6
ATOM      6  O   UNL     1       5.195   6.443  -2.989  1.00  0.00    -0.394 OA
ATOM      7  H   UNL     1       4.614   6.773  -3.722  1.00  0.00     0.210 HD
ENDBRANCH   5   6
ENDBRANCH   1   5
BRANCH   1   8
ATOM      8  O   UNL     1       7.704   6.010  -3.329  1.00  0.00    -0.388 OA
ATOM      9  H   UNL     1       7.786   5.595  -2.430  1.00  0.00     0.211 HD
ENDBRANCH   1   8
TORSDOF 5
ENDMDL
MODEL 3
REMARK VINA RESULT:    -2.729      1.441      2.767
REMARK INTER + INTRA:          -3.492
REMARK INTER:                  -3.309
REMARK INTRA:                  -0.184
REMARK UNBOUND:                -0.205
REMARK SMILES OCC(O)CO
REMARK SMILES IDX 3 1 5 2 6 3 2 5 1 6 4 8
REMARK H PARENT 6 4 1 7 4 9
REMARK Flexibility Score: inf
ROOT
ATOM      1  C   UNL     1       7.403   7.335  -3.191  1.00  0.00     0.165 C 
ENDROOT
BRANCH   1   2
ATOM      2  C   UNL     1       5.892   7.554  -3.392  1.00  0.00     0.190 C 
BRANCH   2   3
ATOM      3  O   UNL     1       5.156   6.468  -2.896  1.00  0.00    -0.394 OA
ATOM      4  H   UNL     1       5.778   5.695  -2.863  1.00  0.00     0.210 HD
ENDBRANCH   2   3
ENDBRANCH   1   2
BRANCH   1   5
ATOM      5  C   UNL     1       7.891   7.869  -1.836  1.00  0.00     0.190 C 
BRANCH   5   6
ATOM      6  O   UNL     1       6.837   8.457  -1.118  1.00  0.00    -0.394 OA
ATOM      7  H   UNL     1       6.132   7.764  -1.022  1.00  0.00     0.210 HD
ENDBRANCH   5   6
ENDBRANCH   1   5
BRANCH   1   8
ATOM      8  O   UNL     1       7.700   5.966  -3.279  1.00  0.00    -0.388 OA
ATOM      9  H   UNL     1       8.686   5.891  -3.365  1.00  0.00     0.211 HD
ENDBRANCH   1   8
TORSDOF 5
ENDMDL
MODEL 4
REMARK VINA RESULT:    -2.708     12.574     13.469
REMARK INTER + INTRA:          -3.467
REMARK INTER:                  -3.246
REMARK INTRA:                  -0.221
REMARK UNBOUND:                -0.205
REMARK SMILES OCC(O)CO
REMARK SMILES IDX 3 1 5 2 6 3 2 5 1 6 4 8
REMARK H PARENT 6 4 1 7 4 9
REMARK Flexibility Score: inf
ROOT
ATOM      1  C   UNL     1      -5.744   2.348  -2.283  1.00  0.00     0.165 C 
ENDROOT
BRANCH   1   2
ATOM      2  C   UNL     1      -4.806   1.158  -2.557  1.00  0.00     0.190 C 
BRANCH   2   3
ATOM      3  O   UNL     1      -4.207   1.271  -3.821  1.00  0.00    -0.394 OA
ATOM      4  H   UNL     1      -3.693   0.435  -3.967  1.00  0.00     0.210 HD
ENDBRANCH   2   3
ENDBRANCH   1   2
BRANCH   1   5
ATOM      5  C   UNL     1      -7.114   2.171  -2.954  1.00  0.00     0.190 C 
BRANCH   5   6
ATOM      6  O   UNL     1      -7.077   1.146  -3.912  1.00  0.00    -0.394 OA
ATOM      7  H   UNL     1      -6.564   0.396  -3.513  1.00  0.00     0.210 HD
ENDBRANCH   5   6
ENDBRANCH   1   5
BRANCH   1   8
ATOM      8  O   UNL     1      -5.925   2.501  -0.899  1.00  0.00    -0.388 OA
ATOM      9  H   UNL     1      -5.020   2.564  -0.496  1.00  0.00     0.211 HD
ENDBRANCH   1   8
TORSDOF 5
ENDMDL
MODEL 5
REMARK VINA RESULT:    -2.687      0.748      2.688
REMARK INTER + INTRA:          -3.443
REMARK INTER:                  -3.221
REMARK INTRA:                  -0.222
REMARK UNBOUND:                -0.205
REMARK SMILES OCC(O)CO
REMARK SMILES IDX 3 1 5 2 6 3 2 5 1 6 4 8
REMARK H PARENT 6 4 1 7 4 9
REMARK Flexibility Score: inf
ROOT
ATOM      1  C   UNL     1       6.985   8.050  -3.384  1.00  0.00     0.165 C 
ENDROOT
BRANCH   1   2
ATOM      2  C   UNL     1       5.503   7.725  -3.128  1.00  0.00     0.190 C 
BRANCH   2   3
ATOM      3  O   UNL     1       5.308   6.343  -2.984  1.00  0.00    -0.394 OA
ATOM      4  H   UNL     1       5.015   6.004  -3.870  1.00  0.00     0.210 HD
ENDBRANCH   2   3
ENDBRANCH   1   2
BRANCH   1   5
ATOM      5  C   UNL     1       7.923   7.214  -2.499  1.00  0.00     0.190 C 
BRANCH   5   6
ATOM      6  O   UNL     1       8.164   5.954  -3.071  1.00  0.00    -0.394 OA
ATOM      7  H   UNL     1       8.161   6.079  -4.055  1.00  0.00     0.210 HD
ENDBRANCH   5   6
ENDBRANCH   1   5
BRANCH   1   8
ATOM      8  O   UNL     1       7.297   7.817  -4.733  1.00  0.00    -0.388 OA
ATOM      9  H   UNL     1       7.221   8.689  -5.201  1.00  0.00     0.211 HD
ENDBRANCH   1   8
TORSDOF 5
ENDMDL
MODEL 6
REMARK VINA RESULT:    -2.666      1.426      2.086
REMARK INTER + INTRA:          -3.416
REMARK INTER:                  -3.195
REMARK INTRA:                  -0.221
REMARK UNBOUND:                -0.205
REMARK SMILES OCC(O)CO
REMARK SMILES IDX 3 1 5 2 6 3 2 5 1 6 4 8
REMARK H PARENT 6 4 1 7 4 9
REMARK Flexibility Score: inf
ROOT
ATOM      1  C   UNL     1       6.829   8.152  -2.464  1.00  0.00     0.165 C 
ENDROOT
BRANCH   1   2
ATOM      2  C   UNL     1       7.953   7.100  -2.494  1.00  0.00     0.190 C 
BRANCH   2   3
ATOM      3  O   UNL     1       7.594   6.003  -3.292  1.00  0.00    -0.394 OA
ATOM      4  H   UNL     1       8.437   5.536  -3.527  1.00  0.00     0.210 HD
ENDBRANCH   2   3
ENDBRANCH   1   2
BRANCH   1   5
ATOM      5  C   UNL     1       5.529   7.628  -3.094  1.00  0.00     0.190 C 
BRANCH   5   6
ATOM      6  O   UNL     1       4.962   6.612  -2.307  1.00  0.00    -0.394 OA
ATOM      7  H   UNL     1       5.596   6.435  -1.565  1.00  0.00     0.210 HD
ENDBRANCH   5   6
ENDBRANCH   1   5
BRANCH   1   8
ATOM      8  O   UNL     1       6.574   8.538  -1.139  1.00  0.00    -0.388 OA
ATOM      9  H   UNL     1       7.230   8.058  -0.568  1.00  0.00     0.211 HD
ENDBRANCH   1   8
TORSDOF 5
ENDMDL
MODEL 7
REMARK VINA RESULT:    -2.654     12.801     13.393
REMARK INTER + INTRA:          -3.403
REMARK INTER:                  -3.203
REMARK INTRA:                  -0.200
REMARK UNBOUND:                -0.205
REMARK SMILES OCC(O)CO
REMARK SMILES IDX 3 1 5 2 6 3 2 5 1 6 4 8
REMARK H PARENT 6 4 1 7 4 9
REMARK Flexibility Score: inf
ROOT
ATOM      1  C   UNL     1      -6.188   1.856  -2.324  1.00  0.00     0.165 C 
ENDROOT
BRANCH   1   2
ATOM      2  C   UNL     1      -4.933   1.380  -3.078  1.00  0.00     0.190 C 
BRANCH   2   3
ATOM      3  O   UNL     1      -4.245   0.402  -2.344  1.00  0.00    -0.394 OA
ATOM      4  H   UNL     1      -4.731  -0.452  -2.484  1.00  0.00     0.210 HD
ENDBRANCH   2   3
ENDBRANCH   1   2
BRANCH   1   5
ATOM      5  C   UNL     1      -5.844   2.825  -1.183  1.00  0.00     0.190 C 
BRANCH   5   6
ATOM      6  O   UNL     1      -5.414   2.128  -0.042  1.00  0.00    -0.394 OA
ATOM      7  H   UNL     1      -5.780   2.610   0.745  1.00  0.00     0.210 HD
ENDBRANCH   5   6
ENDBRANCH   1   5
BRANCH   1   8
ATOM      8  O   UNL     1      -7.068   2.488  -3.215  1.00  0.00    -0.388 OA
ATOM      9  H   UNL     1      -7.763   2.936  -2.665  1.00  0.00     0.211 HD
ENDBRANCH   1   8
TORSDOF 5
ENDMDL
MODEL 8
REMARK VINA RESULT:    -2.623     12.814     13.239
REMARK INTER + INTRA:          -3.365
REMARK INTER:                  -3.362
REMARK INTRA:                  -0.002
REMARK UNBOUND:                -0.205
REMARK SMILES OCC(O)CO
REMARK SMILES IDX 3 1 5 2 6 3 2 5 1 6 4 8
REMARK H PARENT 6 4 1 7 4 9
REMARK Flexibility Score: inf
ROOT
ATOM      1  C   UNL     1      -5.702   2.440  -2.187  1.00  0.00     0.165 C 
ENDROOT
BRANCH   1   2
ATOM      2  C   UNL     1      -5.918   2.654  -0.678  1.00  0.00     0.190 C 
BRANCH   2   3
ATOM      3  O   UNL     1      -5.200   3.769  -0.220  1.00  0.00    -0.394 OA
ATOM      4  H   UNL     1      -5.000   4.324  -1.019  1.00  0.00     0.210 HD
ENDBRANCH   2   3
ENDBRANCH   1   2
BRANCH   1   5
ATOM      5  C   UNL     1      -4.844   1.200  -2.479  1.00  0.00     0.190 C 
BRANCH   5   6
ATOM      6  O   UNL     1      -4.862   0.886  -3.847  1.00  0.00    -0.394 OA
ATOM      7  H   UNL     1      -5.474   0.112  -3.958  1.00  0.00     0.210 HD
ENDBRANCH   5   6
ENDBRANCH   1   5
BRANCH   1   8
ATOM      8  O   UNL     1      -6.942   2.303  -2.830  1.00  0.00    -0.388 OA
ATOM      9  H   UNL     1      -7.073   1.333  -2.999  1.00  0.00     0.211 HD
ENDBRANCH   1   8
TORSDOF 5
ENDMDL
MODEL 9
REMARK VINA RESULT:    -2.525      1.605      2.884
REMARK INTER + INTRA:          -3.247
REMARK INTER:                  -3.023
REMARK INTRA:                  -0.224
REMARK UNBOUND:                -0.205
REMARK SMILES OCC(O)CO
REMARK SMILES IDX 3 1 5 2 6 3 2 5 1 6 4 8
REMARK H PARENT 6 4 1 7 4 9
REMARK Flexibility Score: inf
ROOT
ATOM      1  C   UNL     1       4.274   8.292  -3.967  1.00  0.00     0.165 C 
ENDROOT
BRANCH   1   2
ATOM      2  C   UNL     1       5.116   8.918  -5.094  1.00  0.00     0.190 C 
BRANCH   2   3
ATOM      3  O   UNL     1       6.345   8.256  -5.231  1.00  0.00    -0.394 OA
ATOM      4  H   UNL     1       6.765   8.607  -6.060  1.00  0.00     0.210 HD
ENDBRANCH   2   3
ENDBRANCH   1   2
BRANCH   1   5
ATOM      5  C   UNL     1       5.149   7.719  -2.842  1.00  0.00     0.190 C 
BRANCH   5   6
ATOM      6  O   UNL     1       5.541   6.401  -3.131  1.00  0.00    -0.394 OA
ATOM      7  H   UNL     1       4.736   5.930  -3.470  1.00  0.00     0.210 HD
ENDBRANCH   5   6
ENDBRANCH   1   5
BRANCH   1   8
ATOM      8  O   UNL     1       3.407   9.256  -3.429  1.00  0.00    -0.388 OA
ATOM      9  H   UNL     1       3.852   9.624  -2.621  1.00  0.00     0.211 HD
ENDBRANCH   1   8
TORSDOF 5
ENDMDL
