MODEL 1
REMARK VINA RESULT:    -5.022      0.000      0.000
REMARK INTER + INTRA:          -5.410
REMARK INTER:                  -5.316
REMARK INTRA:                  -0.094
REMARK UNBOUND:                -0.094
REMARK SMILES C=C(C)[C@@H]1CC=C(C)C(=O)C1
REMARK SMILES IDX 8 1 7 2 6 3 5 4 4 5 11 6 9 7 10 8 2 9 1 10 3 11
REMARK H PARENT
REMARK Flexibility Score: inf
ROOT
ATOM      1  C   UNL     1      17.997  27.537 -14.805  1.00  0.00     0.048 C 
ATOM      2  C   UNL     1      18.736  27.779 -13.517  1.00  0.00    -0.012 C 
ATOM      3  C   UNL     1      19.735  28.676 -13.469  1.00  0.00    -0.019 C 
ATOM      4  C   UNL     1      20.450  29.010 -12.186  1.00  0.00     0.036 C 
ATOM      5  C   UNL     1      20.478  27.798 -11.234  1.00  0.00     0.025 C 
ATOM      6  C   UNL     1      19.050  27.277 -10.989  1.00  0.00     0.089 C 
ATOM      7  C   UNL     1      18.339  27.037 -12.294  1.00  0.00     0.158 C 
ATOM      8  O   UNL     1      17.372  26.231 -12.327  1.00  0.00    -0.295 OA
ENDROOT
BRANCH   5   9
ATOM      9  C   UNL     1      21.188  28.125  -9.927  1.00  0.00    -0.077 C 
ATOM     10  C   UNL     1      22.367  28.773  -9.915  1.00  0.00     0.008 C 
ATOM     11  C   UNL     1      20.574  27.722  -8.612  1.00  0.00     0.039 C 
ENDBRANCH   5   9
TORSDOF 1
ENDMDL
MODEL 2
REMARK VINA RESULT:    -4.898     12.951     15.081
REMARK INTER + INTRA:          -5.279
REMARK INTER:                  -5.191
REMARK INTRA:                  -0.088
REMARK UNBOUND:                -0.094
REMARK SMILES C=C(C)[C@@H]1CC=C(C)C(=O)C1
REMARK SMILES IDX 8 1 7 2 6 3 5 4 4 5 11 6 9 7 10 8 2 9 1 10 3 11
REMARK H PARENT
REMARK Flexibility Score: inf
ROOT
ATOM      1  C   UNL     1      21.354  24.014 -22.610  1.00  0.00     0.048 C 
ATOM      2  C   UNL     1      22.393  23.588 -23.611  1.00  0.00    -0.012 C 
ATOM      3  C   UNL     1      23.670  23.415 -23.227  1.00  0.00    -0.019 C 
ATOM      4  C   UNL     1      24.728  22.912 -24.174  1.00  0.00     0.036 C 
ATOM      5  C   UNL     1      24.428  23.343 -25.623  1.00  0.00     0.025 C 
ATOM      6  C   UNL     1      23.014  22.891 -26.033  1.00  0.00     0.089 C 
ATOM      7  C   UNL     1      21.997  23.338 -25.019  1.00  0.00     0.158 C 
ATOM      8  O   UNL     1      20.792  23.454 -25.368  1.00  0.00    -0.295 OA
ENDROOT
BRANCH   5   9
ATOM      9  C   UNL     1      25.484  22.832 -26.593  1.00  0.00    -0.077 C 
ATOM     10  C   UNL     1      26.311  23.676 -27.235  1.00  0.00     0.008 C 
ATOM     11  C   UNL     1      25.621  21.354 -26.852  1.00  0.00     0.039 C 
ENDBRANCH   5   9
TORSDOF 1
ENDMDL
MODEL 3
REMARK VINA RESULT:    -4.862     12.866     14.922
REMARK INTER + INTRA:          -5.240
REMARK INTER:                  -5.143
REMARK INTRA:                  -0.097
REMARK UNBOUND:                -0.094
REMARK SMILES C=C(C)[C@@H]1CC=C(C)C(=O)C1
REMARK SMILES IDX 8 1 7 2 6 3 5 4 4 5 11 6 9 7 10 8 2 9 1 10 3 11
REMARK H PARENT
REMARK Flexibility Score: inf
ROOT
ATOM      1  C   UNL     1      35.461  31.280 -14.483  1.00  0.00     0.048 C 
ATOM      2  C   UNL     1      34.804  30.891 -13.187  1.00  0.00    -0.012 C 
ATOM      3  C   UNL     1      33.831  29.964 -13.173  1.00  0.00    -0.019 C 
ATOM      4  C   UNL     1      33.201  29.484 -11.893  1.00  0.00     0.036 C 
ATOM      5  C   UNL     1      33.196  30.595 -10.824  1.00  0.00     0.025 C 
ATOM      6  C   UNL     1      34.623  31.134 -10.608  1.00  0.00     0.089 C 
ATOM      7  C   UNL     1      35.251  31.521 -11.919  1.00  0.00     0.158 C 
ATOM      8  O   UNL     1      36.195  32.356 -11.925  1.00  0.00    -0.295 OA
ENDROOT
BRANCH   5   9
ATOM      9  C   UNL     1      32.571  30.120  -9.520  1.00  0.00    -0.077 C 
ATOM     10  C   UNL     1      33.091  30.466  -8.329  1.00  0.00     0.008 C 
ATOM     11  C   UNL     1      31.347  29.243  -9.544  1.00  0.00     0.039 C 
ENDBRANCH   5   9
TORSDOF 1
ENDMDL
MODEL 4
REMARK VINA RESULT:    -4.798     12.970     15.267
REMARK INTER + INTRA:          -5.172
REMARK INTER:                  -5.077
REMARK INTRA:                  -0.096
REMARK UNBOUND:                -0.094
REMARK SMILES C=C(C)[C@@H]1CC=C(C)C(=O)C1
REMARK SMILES IDX 8 1 7 2 6 3 5 4 4 5 11 6 9 7 10 8 2 9 1 10 3 11
REMARK H PARENT
REMARK Flexibility Score: inf
ROOT
ATOM      1  C   UNL     1      36.889  32.639 -12.711  1.00  0.00     0.048 C 
ATOM      2  C   UNL     1      35.684  31.773 -12.464  1.00  0.00    -0.012 C 
ATOM      3  C   UNL     1      35.300  31.491 -11.207  1.00  0.00    -0.019 C 
ATOM      4  C   UNL     1      34.055  30.697 -10.911  1.00  0.00     0.036 C 
ATOM      5  C   UNL     1      33.761  29.683 -12.034  1.00  0.00     0.025 C 
ATOM      6  C   UNL     1      33.686  30.401 -13.395  1.00  0.00     0.089 C 
ATOM      7  C   UNL     1      34.907  31.252 -13.616  1.00  0.00     0.158 C 
ATOM      8  O   UNL     1      35.238  31.555 -14.793  1.00  0.00    -0.295 OA
ENDROOT
BRANCH   5   9
ATOM      9  C   UNL     1      32.498  28.881 -11.752  1.00  0.00    -0.077 C 
ATOM     10  C   UNL     1      31.674  29.207 -10.739  1.00  0.00     0.008 C 
ATOM     11  C   UNL     1      32.149  27.694 -12.611  1.00  0.00     0.039 C 
ENDBRANCH   5   9
TORSDOF 1
ENDMDL
MODEL 5
REMARK VINA RESULT:    -4.757      2.535      4.356
REMARK INTER + INTRA:          -5.129
REMARK INTER:                  -5.031
REMARK INTRA:                  -0.098
REMARK UNBOUND:                -0.094
REMARK SMILES C=C(C)[C@@H]1CC=C(C)C(=O)C1
REMARK SMILES IDX 8 1 7 2 6 3 5 4 4 5 11 6 9 7 10 8 2 9 1 10 3 11
REMARK H PARENT
REMARK Flexibility Score: inf
ROOT
ATOM      1  C   UNL     1      17.005  26.818 -12.826  1.00  0.00     0.048 C 
ATOM      2  C   UNL     1      18.158  27.377 -13.615  1.00  0.00    -0.012 C 
ATOM      3  C   UNL     1      18.070  27.490 -14.951  1.00  0.00    -0.019 C 
ATOM      4  C   UNL     1      19.165  28.117 -15.774  1.00  0.00     0.036 C 
ATOM      5  C   UNL     1      20.545  27.896 -15.126  1.00  0.00     0.025 C 
ATOM      6  C   UNL     1      20.541  28.406 -13.672  1.00  0.00     0.089 C 
ATOM      7  C   UNL     1      19.383  27.825 -12.907  1.00  0.00     0.158 C 
ATOM      8  O   UNL     1      19.447  27.762 -11.651  1.00  0.00    -0.295 OA
ENDROOT
BRANCH   5   9
ATOM      9  C   UNL     1      21.660  28.535 -15.942  1.00  0.00    -0.077 C 
ATOM     10  C   UNL     1      22.831  28.880 -15.377  1.00  0.00     0.008 C 
ATOM     11  C   UNL     1      21.466  28.796 -17.413  1.00  0.00     0.039 C 
ENDBRANCH   5   9
TORSDOF 1
ENDMDL
MODEL 6
REMARK VINA RESULT:    -4.741     13.272     15.296
REMARK INTER + INTRA:          -5.113
REMARK INTER:                  -5.017
REMARK INTRA:                  -0.096
REMARK UNBOUND:                -0.094
REMARK SMILES C=C(C)[C@@H]1CC=C(C)C(=O)C1
REMARK SMILES IDX 8 1 7 2 6 3 5 4 4 5 11 6 9 7 10 8 2 9 1 10 3 11
REMARK H PARENT
REMARK Flexibility Score: inf
ROOT
ATOM      1  C   UNL     1      32.347  29.986  -9.177  1.00  0.00     0.048 C 
ATOM      2  C   UNL     1      33.285  30.276 -10.317  1.00  0.00    -0.012 C 
ATOM      3  C   UNL     1      34.254  31.196 -10.178  1.00  0.00    -0.019 C 
ATOM      4  C   UNL     1      35.266  31.463 -11.261  1.00  0.00     0.036 C 
ATOM      5  C   UNL     1      34.667  31.205 -12.658  1.00  0.00     0.025 C 
ATOM      6  C   UNL     1      34.089  29.779 -12.736  1.00  0.00     0.089 C 
ATOM      7  C   UNL     1      33.149  29.522 -11.589  1.00  0.00     0.158 C 
ATOM      8  O   UNL     1      32.271  28.626 -11.704  1.00  0.00    -0.295 OA
ENDROOT
BRANCH   5   9
ATOM      9  C   UNL     1      35.683  31.460 -13.762  1.00  0.00    -0.077 C 
ATOM     10  C   UNL     1      36.882  32.009 -13.496  1.00  0.00     0.008 C 
ATOM     11  C   UNL     1      35.357  31.099 -15.188  1.00  0.00     0.039 C 
ENDBRANCH   5   9
TORSDOF 1
ENDMDL
MODEL 7
REMARK VINA RESULT:    -4.704     17.733     18.779
REMARK INTER + INTRA:          -5.073
REMARK INTER:                  -4.978
REMARK INTRA:                  -0.095
REMARK UNBOUND:                -0.094
REMARK SMILES C=C(C)[C@@H]1CC=C(C)C(=O)C1
REMARK SMILES IDX 8 1 7 2 6 3 5 4 4 5 11 6 9 7 10 8 2 9 1 10 3 11
REMARK H PARENT
REMARK Flexibility Score: inf
ROOT
ATOM      1  C   UNL     1      28.488  39.744 -24.170  1.00  0.00     0.048 C 
ATOM      2  C   UNL     1      29.642  38.928 -23.655  1.00  0.00    -0.012 C 
ATOM      3  C   UNL     1      30.809  38.912 -24.322  1.00  0.00    -0.019 C 
ATOM      4  C   UNL     1      32.016  38.175 -23.803  1.00  0.00     0.036 C 
ATOM      5  C   UNL     1      31.603  36.941 -22.978  1.00  0.00     0.025 C 
ATOM      6  C   UNL     1      30.639  37.352 -21.849  1.00  0.00     0.089 C 
ATOM      7  C   UNL     1      29.492  38.159 -22.395  1.00  0.00     0.158 C 
ATOM      8  O   UNL     1      28.414  38.211 -21.745  1.00  0.00    -0.295 OA
ENDROOT
BRANCH   5   9
ATOM      9  C   UNL     1      32.814  36.193 -22.438  1.00  0.00    -0.077 C 
ATOM     10  C   UNL     1      33.930  36.045 -23.174  1.00  0.00     0.008 C 
ATOM     11  C   UNL     1      32.781  35.599 -21.054  1.00  0.00     0.039 C 
ENDBRANCH   5   9
TORSDOF 1
ENDMDL
MODEL 8
REMARK VINA RESULT:    -4.676      4.141      5.691
REMARK INTER + INTRA:          -5.044
REMARK INTER:                  -4.948
REMARK INTRA:                  -0.096
REMARK UNBOUND:                -0.094
REMARK SMILES C=C(C)[C@@H]1CC=C(C)C(=O)C1
REMARK SMILES IDX 8 1 7 2 6 3 5 4 4 5 11 6 9 7 10 8 2 9 1 10 3 11
REMARK H PARENT
REMARK Flexibility Score: inf
ROOT
ATOM      1  C   UNL     1      23.947  28.453 -18.134  1.00  0.00     0.048 C 
ATOM      2  C   UNL     1      22.768  28.450 -17.199  1.00  0.00    -0.012 C 
ATOM      3  C   UNL     1      22.960  28.407 -15.870  1.00  0.00    -0.019 C 
ATOM      4  C   UNL     1      21.815  28.484 -14.894  1.00  0.00     0.036 C 
ATOM      5  C   UNL     1      20.533  27.871 -15.491  1.00  0.00     0.025 C 
ATOM      6  C   UNL     1      20.199  28.539 -16.838  1.00  0.00     0.089 C 
ATOM      7  C   UNL     1      21.393  28.519 -17.753  1.00  0.00     0.158 C 
ATOM      8  O   UNL     1      21.214  28.607 -18.997  1.00  0.00    -0.295 OA
ENDROOT
BRANCH   5   9
ATOM      9  C   UNL     1      19.364  27.952 -14.519  1.00  0.00    -0.077 C 
ATOM     10  C   UNL     1      19.561  28.163 -13.205  1.00  0.00     0.008 C 
ATOM     11  C   UNL     1      17.952  27.792 -15.019  1.00  0.00     0.039 C 
ENDBRANCH   5   9
TORSDOF 1
ENDMDL
MODEL 9
REMARK VINA RESULT:    -4.628     12.323     14.464
REMARK INTER + INTRA:          -4.993
REMARK INTER:                  -4.896
REMARK INTRA:                  -0.096
REMARK UNBOUND:                -0.094
REMARK SMILES C=C(C)[C@@H]1CC=C(C)C(=O)C1
REMARK SMILES IDX 8 1 7 2 6 3 5 4 4 5 11 6 9 7 10 8 2 9 1 10 3 11
REMARK H PARENT
REMARK Flexibility Score: inf
ROOT
ATOM      1  C   UNL     1      25.543  21.884 -26.452  1.00  0.00     0.048 C 
ATOM      2  C   UNL     1      24.507  22.622 -25.648  1.00  0.00    -0.012 C 
ATOM      3  C   UNL     1      24.689  22.819 -24.331  1.00  0.00    -0.019 C 
ATOM      4  C   UNL     1      23.720  23.621 -23.502  1.00  0.00     0.036 C 
ATOM      5  C   UNL     1      22.287  23.509 -24.057  1.00  0.00     0.025 C 
ATOM      6  C   UNL     1      22.256  23.912 -25.543  1.00  0.00     0.089 C 
ATOM      7  C   UNL     1      23.296  23.153 -26.322  1.00  0.00     0.158 C 
ATOM      8  O   UNL     1      23.148  23.010 -27.565  1.00  0.00    -0.295 OA
ENDROOT
BRANCH   5   9
ATOM      9  C   UNL     1      21.299  24.324 -23.233  1.00  0.00    -0.077 C 
ATOM     10  C   UNL     1      21.681  24.962 -22.112  1.00  0.00     0.008 C 
ATOM     11  C   UNL     1      19.860  24.430 -23.666  1.00  0.00     0.039 C 
ENDBRANCH   5   9
TORSDOF 1
ENDMDL
