MODEL 1
REMARK VINA RESULT:    -2.546      0.000      0.000
REMARK INTER + INTRA:          -2.546
REMARK INTER:                  -2.546
REMARK INTRA:                   0.000
REMARK UNBOUND:                 0.000
REMARK SMILES CC(=O)[O-]
REMARK SMILES IDX 1 1 2 2 3 3 4 4
REMARK H PARENT
REMARK Flexibility Score: inf
ROOT
ATOM      1  C   UNL     1       2.049 -36.181  15.905  1.00  0.00     0.063 C 
ATOM      2  C   UNL     1       3.039 -37.233  16.274  1.00  0.00     0.038 C 
ATOM      3  O   UNL     1       3.596 -37.918  15.377  1.00  0.00    -0.550 OA
ATOM      4  O   UNL     1       3.389 -37.423  17.605  1.00  0.00    -0.550 OA
ENDROOT
TORSDOF 0
ENDMDL
MODEL 2
REMARK VINA RESULT:    -2.437      1.413      2.022
REMARK INTER + INTRA:          -2.437
REMARK INTER:                  -2.437
REMARK INTRA:                   0.000
REMARK UNBOUND:                 0.000
REMARK SMILES CC(=O)[O-]
REMARK SMILES IDX 1 1 2 2 3 3 4 4
REMARK H PARENT
REMARK Flexibility Score: inf
ROOT
ATOM      1  C   UNL     1       3.135 -37.145  17.765  1.00  0.00     0.063 C 
ATOM      2  C   UNL     1       2.865 -37.035  16.303  1.00  0.00     0.038 C 
ATOM      3  O   UNL     1       2.053 -36.174  15.874  1.00  0.00    -0.550 OA
ATOM      4  O   UNL     1       3.549 -37.846  15.406  1.00  0.00    -0.550 OA
ENDROOT
TORSDOF 0
ENDMDL
MODEL 3
REMARK VINA RESULT:    -2.378      1.963      2.327
REMARK INTER + INTRA:          -2.378
REMARK INTER:                  -2.378
REMARK INTRA:                   0.000
REMARK UNBOUND:                 0.000
REMARK SMILES CC(=O)[O-]
REMARK SMILES IDX 1 1 2 2 3 3 4 4
REMARK H PARENT
REMARK Flexibility Score: inf
ROOT
ATOM      1  C   UNL     1       2.651 -36.860  16.834  1.00  0.00     0.063 C 
ATOM      2  C   UNL     1       2.837 -37.425  18.200  1.00  0.00     0.038 C 
ATOM      3  O   UNL     1       3.984 -37.458  18.719  1.00  0.00    -0.550 OA
ATOM      4  O   UNL     1       1.739 -37.869  18.926  1.00  0.00    -0.550 OA
ENDROOT
TORSDOF 0
ENDMDL
MODEL 4
REMARK VINA RESULT:    -2.345      2.156      2.408
REMARK INTER + INTRA:          -2.345
REMARK INTER:                  -2.345
REMARK INTRA:                   0.000
REMARK UNBOUND:                 0.000
REMARK SMILES CC(=O)[O-]
REMARK SMILES IDX 1 1 2 2 3 3 4 4
REMARK H PARENT
REMARK Flexibility Score: inf
ROOT
ATOM      1  C   UNL     1       3.001 -36.989  16.808  1.00  0.00     0.063 C 
ATOM      2  C   UNL     1       3.003 -37.400  18.241  1.00  0.00     0.038 C 
ATOM      3  O   UNL     1       1.933 -37.767  18.793  1.00  0.00    -0.550 OA
ATOM      4  O   UNL     1       4.194 -37.429  18.955  1.00  0.00    -0.550 OA
ENDROOT
TORSDOF 0
ENDMDL
MODEL 5
REMARK VINA RESULT:    -2.293      2.146      2.951
REMARK INTER + INTRA:          -2.293
REMARK INTER:                  -2.293
REMARK INTRA:                   0.000
REMARK UNBOUND:                 0.000
REMARK SMILES CC(=O)[O-]
REMARK SMILES IDX 1 1 2 2 3 3 4 4
REMARK H PARENT
REMARK Flexibility Score: inf
ROOT
ATOM      1  C   UNL     1       4.017 -36.931  19.256  1.00  0.00     0.063 C 
ATOM      2  C   UNL     1       2.963 -37.401  18.313  1.00  0.00     0.038 C 
ATOM      3  O   UNL     1       1.826 -37.725  18.747  1.00  0.00    -0.550 OA
ATOM      4  O   UNL     1       3.214 -37.431  16.946  1.00  0.00    -0.550 OA
ENDROOT
TORSDOF 0
ENDMDL
MODEL 6
REMARK VINA RESULT:    -2.215      2.760      3.400
REMARK INTER + INTRA:          -2.215
REMARK INTER:                  -2.215
REMARK INTRA:                   0.000
REMARK UNBOUND:                 0.000
REMARK SMILES CC(=O)[O-]
REMARK SMILES IDX 1 1 2 2 3 3 4 4
REMARK H PARENT
REMARK Flexibility Score: inf
ROOT
ATOM      1  C   UNL     1       4.875 -37.297  19.835  1.00  0.00     0.063 C 
ATOM      2  C   UNL     1       3.578 -37.174  19.110  1.00  0.00     0.038 C 
ATOM      3  O   UNL     1       3.560 -36.802  17.908  1.00  0.00    -0.550 OA
ATOM      4  O   UNL     1       2.391 -37.522  19.743  1.00  0.00    -0.550 OA
ENDROOT
TORSDOF 0
ENDMDL
MODEL 7
REMARK VINA RESULT:    -2.184      3.549      3.915
REMARK INTER + INTRA:          -2.184
REMARK INTER:                  -2.184
REMARK INTRA:                   0.000
REMARK UNBOUND:                 0.000
REMARK SMILES CC(=O)[O-]
REMARK SMILES IDX 1 1 2 2 3 3 4 4
REMARK H PARENT
REMARK Flexibility Score: inf
ROOT
ATOM      1  C   UNL     1       3.499 -37.125  18.613  1.00  0.00     0.063 C 
ATOM      2  C   UNL     1       4.421 -36.858  19.754  1.00  0.00     0.038 C 
ATOM      3  O   UNL     1       5.353 -37.663  20.013  1.00  0.00    -0.550 OA
ATOM      4  O   UNL     1       4.286 -35.694  20.500  1.00  0.00    -0.550 OA
ENDROOT
TORSDOF 0
ENDMDL
MODEL 8
REMARK VINA RESULT:    -2.147      4.596      5.066
REMARK INTER + INTRA:          -2.147
REMARK INTER:                  -2.147
REMARK INTRA:                   0.000
REMARK UNBOUND:                 0.000
REMARK SMILES CC(=O)[O-]
REMARK SMILES IDX 1 1 2 2 3 3 4 4
REMARK H PARENT
REMARK Flexibility Score: inf
ROOT
ATOM      1  C   UNL     1       5.836 -35.656  21.556  1.00  0.00     0.063 C 
ATOM      2  C   UNL     1       5.247 -36.256  20.325  1.00  0.00     0.038 C 
ATOM      3  O   UNL     1       4.666 -35.523  19.482  1.00  0.00    -0.550 OA
ATOM      4  O   UNL     1       5.383 -37.616  20.080  1.00  0.00    -0.550 OA
ENDROOT
TORSDOF 0
ENDMDL
MODEL 9
REMARK VINA RESULT:    -2.099      7.626      8.370
REMARK INTER + INTRA:          -2.099
REMARK INTER:                  -2.099
REMARK INTRA:                   0.000
REMARK UNBOUND:                 0.000
REMARK SMILES CC(=O)[O-]
REMARK SMILES IDX 1 1 2 2 3 3 4 4
REMARK H PARENT
REMARK Flexibility Score: inf
ROOT
ATOM      1  C   UNL     1       5.978 -36.335  24.708  1.00  0.00     0.063 C 
ATOM      2  C   UNL     1       5.921 -35.360  23.582  1.00  0.00     0.038 C 
ATOM      3  O   UNL     1       5.758 -34.134  23.816  1.00  0.00    -0.550 OA
ATOM      4  O   UNL     1       6.102 -35.795  22.275  1.00  0.00    -0.550 OA
ENDROOT
TORSDOF 0
ENDMDL
