MODEL 1
REMARK VINA RESULT:    -4.320      0.000      0.000
REMARK INTER + INTRA:          -5.720
REMARK INTER:                  -6.088
REMARK INTRA:                   0.368
REMARK UNBOUND:                 0.368
REMARK SMILES CC1=CCC(=C(C)C)C(=O)CC(C)=CCC1
REMARK SMILES IDX 12 1 14 2 13 3 15 4 16 5 2 6 1 7 3 8 11 10 9 11 10 12 5 13
REMARK SMILES IDX 6 14 7 15 8 16 4 17
REMARK H PARENT
REMARK Flexibility Score: 60.00
ROOT
ATOM      1  C   UNL     1       8.300 -15.204  23.616  1.00  0.00    -0.070 C 
ATOM      2  C   UNL     1       9.403 -14.728  24.241  1.00  0.00    -0.027 C 
ATOM      3  C   UNL     1       7.201 -14.218  23.301  1.00  0.00     0.039 C 
ENDROOT
BRANCH   2   4
ATOM      4  C   UNL     1      10.569 -15.548  24.742  1.00  0.00     0.032 C 
BRANCH   4   5
ATOM      5  C   UNL     1      10.242 -16.311  26.040  1.00  0.00     0.034 C 
BRANCH   5   6
ATOM      6  C   UNL     1      10.743 -17.742  26.002  1.00  0.00    -0.077 C 
ATOM      7  C   UNL     1      12.229 -17.978  25.894  1.00  0.00     0.039 C 
ATOM      8  C   UNL     1       9.934 -18.823  26.086  1.00  0.00    -0.023 CG0
ATOM      9  G   UNL     1       8.432 -18.792  26.233  1.00  0.00     0.000 G0
ENDBRANCH   5   6
ENDBRANCH   4   5
ENDBRANCH   2   4
BRANCH   1  10
ATOM     10  C   UNL     1       8.085 -16.671  23.281  1.00  0.00     0.111 C 
BRANCH  10  11
ATOM     11  C   UNL     1       7.339 -17.387  24.379  1.00  0.00     0.163 C 
ATOM     12  O   UNL     1       6.313 -16.834  24.859  1.00  0.00    -0.294 OA
BRANCH  11  13
ATOM     13  C   UNL     1       7.753 -18.741  24.864  1.00  0.00    -0.002 C 
ATOM     14  C   UNL     1       7.489 -19.874  24.146  1.00  0.00    -0.069 C 
ATOM     15  C   UNL     1       6.698 -19.829  22.857  1.00  0.00     0.039 C 
ATOM     16  C   UNL     1       7.945 -21.235  24.624  1.00  0.00     0.039 C 
BRANCH  13  17
ATOM     17  C   UNL     1       8.417 -18.812  26.227  1.00  0.00     0.066 CG0
ATOM     18  G   UNL     1       9.918 -18.830  26.065  1.00  0.00     0.000 G0
ENDBRANCH  13  17
ENDBRANCH  11  13
ENDBRANCH  10  11
ENDBRANCH   1  10
TORSDOF 0
ENDMDL
MODEL 2
REMARK VINA RESULT:    -4.078      1.878      5.004
REMARK INTER + INTRA:          -5.379
REMARK INTER:                  -5.849
REMARK INTRA:                   0.470
REMARK UNBOUND:                 0.368
REMARK SMILES CC1=CCC(=C(C)C)C(=O)CC(C)=CCC1
REMARK SMILES IDX 12 1 14 2 13 3 15 4 16 5 2 6 1 7 3 8 11 10 9 11 10 12 5 13
REMARK SMILES IDX 6 14 7 15 8 16 4 17
REMARK H PARENT
REMARK Flexibility Score: 60.00
ROOT
ATOM      1  C   UNL     1       7.616 -20.268  26.140  1.00  0.00    -0.070 C 
ATOM      2  C   UNL     1       7.376 -20.967  25.005  1.00  0.00    -0.027 C 
ATOM      3  C   UNL     1       6.830 -20.651  27.371  1.00  0.00     0.039 C 
ENDROOT
BRANCH   2   4
ATOM      4  C   UNL     1       7.966 -20.688  23.642  1.00  0.00     0.032 C 
BRANCH   4   5
ATOM      5  C   UNL     1       7.069 -19.774  22.786  1.00  0.00     0.034 C 
BRANCH   5   6
ATOM      6  C   UNL     1       7.876 -18.762  21.994  1.00  0.00    -0.077 C 
ATOM      7  C   UNL     1       8.533 -19.214  20.714  1.00  0.00     0.039 C 
ATOM      8  C   UNL     1       8.021 -17.468  22.358  1.00  0.00    -0.023 CG0
ATOM      9  G   UNL     1       7.414 -16.822  23.581  1.00  0.00     0.000 G0
ENDBRANCH   5   6
ENDBRANCH   4   5
ENDBRANCH   2   4
BRANCH   1  10
ATOM     10  C   UNL     1       8.572 -19.090  26.220  1.00  0.00     0.111 C 
BRANCH  10  11
ATOM     11  C   UNL     1       7.881 -17.791  25.885  1.00  0.00     0.163 C 
ATOM     12  O   UNL     1       6.918 -17.426  26.611  1.00  0.00    -0.294 OA
BRANCH  11  13
ATOM     13  C   UNL     1       8.342 -16.917  24.761  1.00  0.00    -0.002 C 
ATOM     14  C   UNL     1       9.507 -16.204  24.836  1.00  0.00    -0.069 C 
ATOM     15  C   UNL     1      10.356 -16.203  26.087  1.00  0.00     0.039 C 
ATOM     16  C   UNL     1       9.985 -15.353  23.680  1.00  0.00     0.039 C 
BRANCH  13  17
ATOM     17  C   UNL     1       7.423 -16.795  23.560  1.00  0.00     0.066 CG0
ATOM     18  G   UNL     1       8.041 -17.491  22.370  1.00  0.00     0.000 G0
ENDBRANCH  13  17
ENDBRANCH  11  13
ENDBRANCH  10  11
ENDBRANCH   1  10
TORSDOF 0
ENDMDL
MODEL 3
REMARK VINA RESULT:    -4.011      3.377      4.631
REMARK INTER + INTRA:          -5.284
REMARK INTER:                  -5.631
REMARK INTRA:                   0.347
REMARK UNBOUND:                 0.368
REMARK SMILES CC1=CCC(=C(C)C)C(=O)CC(C)=CCC1
REMARK SMILES IDX 12 1 14 2 13 3 15 4 16 5 2 6 1 7 3 8 11 10 9 11 10 12 5 13
REMARK SMILES IDX 6 14 7 15 8 16 4 17
REMARK H PARENT
REMARK Flexibility Score: 60.00
ROOT
ATOM      1  C   UNL     1       6.375 -14.423  19.995  1.00  0.00    -0.070 C 
ATOM      2  C   UNL     1       6.032 -13.775  21.134  1.00  0.00    -0.027 C 
ATOM      3  C   UNL     1       6.377 -13.625  18.714  1.00  0.00     0.039 C 
ENDROOT
BRANCH   2   4
ATOM      4  C   UNL     1       5.863 -14.398  22.500  1.00  0.00     0.032 C 
BRANCH   4   5
ATOM      5  C   UNL     1       7.204 -14.588  23.234  1.00  0.00     0.034 C 
BRANCH   5   6
ATOM      6  C   UNL     1       7.381 -16.006  23.742  1.00  0.00    -0.077 C 
ATOM      7  C   UNL     1       6.448 -16.502  24.818  1.00  0.00     0.039 C 
ATOM      8  C   UNL     1       8.314 -16.863  23.268  1.00  0.00    -0.023 CG0
ATOM      9  G   UNL     1       9.311 -16.565  22.174  1.00  0.00     0.000 G0
ENDBRANCH   5   6
ENDBRANCH   4   5
ENDBRANCH   2   4
BRANCH   1  10
ATOM     10  C   UNL     1       6.689 -15.909  19.931  1.00  0.00     0.111 C 
BRANCH  10  11
ATOM     11  C   UNL     1       8.176 -16.161  19.899  1.00  0.00     0.163 C 
ATOM     12  O   UNL     1       8.873 -15.505  19.078  1.00  0.00    -0.294 OA
BRANCH  11  13
ATOM     13  C   UNL     1       8.837 -17.118  20.841  1.00  0.00    -0.002 C 
ATOM     14  C   UNL     1       8.945 -18.450  20.554  1.00  0.00    -0.069 C 
ATOM     15  C   UNL     1       8.337 -19.043  19.302  1.00  0.00     0.039 C 
ATOM     16  C   UNL     1       9.647 -19.405  21.494  1.00  0.00     0.039 C 
BRANCH  13  17
ATOM     17  C   UNL     1       9.318 -16.559  22.167  1.00  0.00     0.066 CG0
ATOM     18  G   UNL     1       8.329 -16.901  23.256  1.00  0.00     0.000 G0
ENDBRANCH  13  17
ENDBRANCH  11  13
ENDBRANCH  10  11
ENDBRANCH   1  10
TORSDOF 0
ENDMDL
MODEL 4
REMARK VINA RESULT:    -4.008      1.822      2.181
REMARK INTER + INTRA:          -5.281
REMARK INTER:                  -5.630
REMARK INTRA:                   0.349
REMARK UNBOUND:                 0.368
REMARK SMILES CC1=CCC(=C(C)C)C(=O)CC(C)=CCC1
REMARK SMILES IDX 12 1 14 2 13 3 15 4 16 5 2 6 1 7 3 8 11 10 9 11 10 12 5 13
REMARK SMILES IDX 6 14 7 15 8 16 4 17
REMARK H PARENT
REMARK Flexibility Score: 60.00
ROOT
ATOM      1  C   UNL     1       7.056 -14.882  23.195  1.00  0.00    -0.070 C 
ATOM      2  C   UNL     1       7.902 -14.226  24.024  1.00  0.00    -0.027 C 
ATOM      3  C   UNL     1       6.288 -14.057  22.191  1.00  0.00     0.039 C 
ENDROOT
BRANCH   2   4
ATOM      4  C   UNL     1       8.685 -14.833  25.165  1.00  0.00     0.032 C 
BRANCH   4   5
ATOM      5  C   UNL     1      10.012 -15.464  24.702  1.00  0.00     0.034 C 
BRANCH   5   6
ATOM      6  C   UNL     1      10.206 -16.860  25.263  1.00  0.00    -0.077 C 
ATOM      7  C   UNL     1      10.406 -17.012  26.750  1.00  0.00     0.039 C 
ATOM      8  C   UNL     1      10.185 -17.981  24.508  1.00  0.00    -0.023 CG0
ATOM      9  G   UNL     1       9.964 -18.037  23.015  1.00  0.00     0.000 G0
ENDBRANCH   5   6
ENDBRANCH   4   5
ENDBRANCH   2   4
BRANCH   1  10
ATOM     10  C   UNL     1       6.792 -16.377  23.267  1.00  0.00     0.111 C 
BRANCH  10  11
ATOM     11  C   UNL     1       7.646 -17.139  22.284  1.00  0.00     0.163 C 
ATOM     12  O   UNL     1       7.682 -16.737  21.091  1.00  0.00    -0.294 OA
BRANCH  11  13
ATOM     13  C   UNL     1       8.480 -18.311  22.702  1.00  0.00    -0.002 C 
ATOM     14  C   UNL     1       7.935 -19.552  22.882  1.00  0.00    -0.069 C 
ATOM     15  C   UNL     1       6.449 -19.794  22.739  1.00  0.00     0.039 C 
ATOM     16  C   UNL     1       8.790 -20.739  23.267  1.00  0.00     0.039 C 
BRANCH  13  17
ATOM     17  C   UNL     1       9.946 -18.047  22.992  1.00  0.00     0.066 CG0
ATOM     18  G   UNL     1      10.169 -17.983  24.484  1.00  0.00     0.000 G0
ENDBRANCH  13  17
ENDBRANCH  11  13
ENDBRANCH  10  11
ENDBRANCH   1  10
TORSDOF 0
ENDMDL
MODEL 5
REMARK VINA RESULT:    -3.859      1.794      4.035
REMARK INTER + INTRA:          -5.070
REMARK INTER:                  -5.620
REMARK INTRA:                   0.550
REMARK UNBOUND:                 0.368
REMARK SMILES CC1=CCC(=C(C)C)C(=O)CC(C)=CCC1
REMARK SMILES IDX 12 1 14 2 13 3 15 4 16 5 2 6 1 7 3 8 11 10 9 11 10 12 5 13
REMARK SMILES IDX 6 14 7 15 8 16 4 17
REMARK H PARENT
REMARK Flexibility Score: 60.00
ROOT
ATOM      1  C   UNL     1       7.777 -20.733  22.839  1.00  0.00    -0.070 C 
ATOM      2  C   UNL     1       8.633 -21.459  23.598  1.00  0.00    -0.027 C 
ATOM      3  C   UNL     1       7.694 -21.069  21.370  1.00  0.00     0.039 C 
ENDROOT
BRANCH   2   4
ATOM      4  C   UNL     1       8.952 -21.228  25.056  1.00  0.00     0.032 C 
BRANCH   4   5
ATOM      5  C   UNL     1      10.299 -20.510  25.260  1.00  0.00     0.034 C 
BRANCH   5   6
ATOM      6  C   UNL     1      10.199 -19.385  26.273  1.00  0.00    -0.077 C 
ATOM      7  C   UNL     1      10.448 -19.705  27.725  1.00  0.00     0.039 C 
ATOM      8  C   UNL     1       9.924 -18.103  25.945  1.00  0.00    -0.023 CG0
ATOM      9  G   UNL     1       9.681 -17.581  24.548  1.00  0.00     0.000 G0
ENDBRANCH   5   6
ENDBRANCH   4   5
ENDBRANCH   2   4
BRANCH   1  10
ATOM     10  C   UNL     1       6.957 -19.569  23.371  1.00  0.00     0.111 C 
BRANCH  10  11
ATOM     11  C   UNL     1       7.646 -18.249  23.131  1.00  0.00     0.163 C 
ATOM     12  O   UNL     1       7.705 -17.816  21.949  1.00  0.00    -0.294 OA
BRANCH  11  13
ATOM     13  C   UNL     1       8.206 -17.433  24.254  1.00  0.00    -0.002 C 
ATOM     14  C   UNL     1       7.431 -16.554  24.959  1.00  0.00    -0.069 C 
ATOM     15  C   UNL     1       5.985 -16.304  24.595  1.00  0.00     0.039 C 
ATOM     16  C   UNL     1       7.995 -15.760  26.117  1.00  0.00     0.039 C 
BRANCH  13  17
ATOM     17  C   UNL     1       9.692 -17.567  24.531  1.00  0.00     0.066 CG0
ATOM     18  G   UNL     1       9.906 -18.098  25.929  1.00  0.00     0.000 G0
ENDBRANCH  13  17
ENDBRANCH  11  13
ENDBRANCH  10  11
ENDBRANCH   1  10
TORSDOF 0
ENDMDL
MODEL 6
REMARK VINA RESULT:    -3.855      3.059      5.113
REMARK INTER + INTRA:          -5.064
REMARK INTER:                  -5.472
REMARK INTRA:                   0.407
REMARK UNBOUND:                 0.368
REMARK SMILES CC1=CCC(=C(C)C)C(=O)CC(C)=CCC1
REMARK SMILES IDX 12 1 14 2 13 3 15 4 16 5 2 6 1 7 3 8 11 10 9 11 10 12 5 13
REMARK SMILES IDX 6 14 7 15 8 16 4 17
REMARK H PARENT
REMARK Flexibility Score: 60.00
ROOT
ATOM      1  C   UNL     1       7.236 -17.853  24.818  1.00  0.00    -0.070 C 
ATOM      2  C   UNL     1       6.810 -16.602  25.117  1.00  0.00    -0.027 C 
ATOM      3  C   UNL     1       8.004 -18.598  25.882  1.00  0.00     0.039 C 
ENDROOT
BRANCH   2   4
ATOM      4  C   UNL     1       6.122 -15.644  24.174  1.00  0.00     0.032 C 
BRANCH   4   5
ATOM      5  C   UNL     1       7.118 -14.826  23.330  1.00  0.00     0.034 C 
BRANCH   5   6
ATOM      6  C   UNL     1       6.763 -14.841  21.855  1.00  0.00    -0.077 C 
ATOM      7  C   UNL     1       5.574 -14.032  21.397  1.00  0.00     0.039 C 
ATOM      8  C   UNL     1       7.466 -15.518  20.920  1.00  0.00    -0.023 CG0
ATOM      9  G   UNL     1       8.700 -16.351  21.175  1.00  0.00     0.000 G0
ENDBRANCH   5   6
ENDBRANCH   4   5
ENDBRANCH   2   4
BRANCH   1  10
ATOM     10  C   UNL     1       7.042 -18.509  23.461  1.00  0.00     0.111 C 
BRANCH  10  11
ATOM     11  C   UNL     1       8.301 -18.452  22.632  1.00  0.00     0.163 C 
ATOM     12  O   UNL     1       9.343 -18.986  23.097  1.00  0.00    -0.294 OA
BRANCH  11  13
ATOM     13  C   UNL     1       8.323 -17.832  21.269  1.00  0.00    -0.002 C 
ATOM     14  C   UNL     1       8.088 -18.568  20.142  1.00  0.00    -0.069 C 
ATOM     15  C   UNL     1       7.864 -20.063  20.202  1.00  0.00     0.039 C 
ATOM     16  C   UNL     1       8.074 -17.927  18.771  1.00  0.00     0.039 C 
BRANCH  13  17
ATOM     17  C   UNL     1       8.693 -16.363  21.186  1.00  0.00     0.066 CG0
ATOM     18  G   UNL     1       7.457 -15.539  20.917  1.00  0.00     0.000 G0
ENDBRANCH  13  17
ENDBRANCH  11  13
ENDBRANCH  10  11
ENDBRANCH   1  10
TORSDOF 0
ENDMDL
MODEL 7
REMARK VINA RESULT:    -3.794      2.596      3.640
REMARK INTER + INTRA:          -4.979
REMARK INTER:                  -5.331
REMARK INTRA:                   0.352
REMARK UNBOUND:                 0.368
REMARK SMILES CC1=CCC(=C(C)C)C(=O)CC(C)=CCC1
REMARK SMILES IDX 12 1 14 2 13 3 15 4 16 5 2 6 1 7 3 8 11 10 9 11 10 12 5 13
REMARK SMILES IDX 6 14 7 15 8 16 4 17
REMARK H PARENT
REMARK Flexibility Score: 60.00
ROOT
ATOM      1  C   UNL     1       8.070 -16.398  20.909  1.00  0.00    -0.070 C 
ATOM      2  C   UNL     1       7.568 -15.643  21.916  1.00  0.00    -0.027 C 
ATOM      3  C   UNL     1       7.774 -15.958  19.496  1.00  0.00     0.039 C 
ENDROOT
BRANCH   2   4
ATOM      4  C   UNL     1       7.651 -15.952  23.392  1.00  0.00     0.032 C 
BRANCH   4   5
ATOM      5  C   UNL     1       6.647 -17.036  23.827  1.00  0.00     0.034 C 
BRANCH   5   6
ATOM      6  C   UNL     1       7.301 -18.120  24.661  1.00  0.00    -0.077 C 
ATOM      7  C   UNL     1       7.854 -17.746  26.014  1.00  0.00     0.039 C 
ATOM      8  C   UNL     1       7.396 -19.412  24.273  1.00  0.00    -0.023 CG0
ATOM      9  G   UNL     1       6.874 -19.985  22.977  1.00  0.00     0.000 G0
ENDBRANCH   5   6
ENDBRANCH   4   5
ENDBRANCH   2   4
BRANCH   1  10
ATOM     10  C   UNL     1       8.847 -17.686  21.126  1.00  0.00     0.111 C 
BRANCH  10  11
ATOM     11  C   UNL     1       7.977 -18.901  20.920  1.00  0.00     0.163 C 
ATOM     12  O   UNL     1       7.300 -18.974  19.860  1.00  0.00    -0.294 OA
BRANCH  11  13
ATOM     13  C   UNL     1       7.943 -20.026  21.907  1.00  0.00    -0.002 C 
ATOM     14  C   UNL     1       8.806 -21.083  21.822  1.00  0.00    -0.069 C 
ATOM     15  C   UNL     1       9.793 -21.210  20.684  1.00  0.00     0.039 C 
ATOM     16  C   UNL     1       8.790 -22.197  22.846  1.00  0.00     0.039 C 
BRANCH  13  17
ATOM     17  C   UNL     1       6.857 -19.981  22.967  1.00  0.00     0.066 CG0
ATOM     18  G   UNL     1       7.418 -19.414  24.250  1.00  0.00     0.000 G0
ENDBRANCH  13  17
ENDBRANCH  11  13
ENDBRANCH  10  11
ENDBRANCH   1  10
TORSDOF 0
ENDMDL
MODEL 8
REMARK VINA RESULT:    -3.736      2.674      4.025
REMARK INTER + INTRA:          -4.897
REMARK INTER:                  -5.326
REMARK INTRA:                   0.429
REMARK UNBOUND:                 0.368
REMARK SMILES CC1=CCC(=C(C)C)C(=O)CC(C)=CCC1
REMARK SMILES IDX 12 1 14 2 13 3 15 4 16 5 2 6 1 7 3 8 11 10 9 11 10 12 5 13
REMARK SMILES IDX 6 14 7 15 8 16 4 17
REMARK H PARENT
REMARK Flexibility Score: 60.00
ROOT
ATOM      1  C   UNL     1       7.002 -16.235  23.557  1.00  0.00    -0.070 C 
ATOM      2  C   UNL     1       7.185 -15.551  22.402  1.00  0.00    -0.027 C 
ATOM      3  C   UNL     1       6.982 -15.439  24.840  1.00  0.00     0.039 C 
ENDROOT
BRANCH   2   4
ATOM      4  C   UNL     1       7.342 -16.150  21.025  1.00  0.00     0.032 C 
BRANCH   4   5
ATOM      5  C   UNL     1       8.698 -16.857  20.838  1.00  0.00     0.034 C 
BRANCH   5   6
ATOM      6  C   UNL     1       8.537 -18.276  20.326  1.00  0.00    -0.077 C 
ATOM      7  C   UNL     1       7.862 -18.484  18.993  1.00  0.00     0.039 C 
ATOM      8  C   UNL     1       8.988 -19.367  20.985  1.00  0.00    -0.023 CG0
ATOM      9  G   UNL     1       9.715 -19.361  22.309  1.00  0.00     0.000 G0
ENDBRANCH   5   6
ENDBRANCH   4   5
ENDBRANCH   2   4
BRANCH   1  10
ATOM     10  C   UNL     1       6.884 -17.748  23.633  1.00  0.00     0.111 C 
BRANCH  10  11
ATOM     11  C   UNL     1       8.170 -18.381  24.106  1.00  0.00     0.163 C 
ATOM     12  O   UNL     1       8.741 -17.884  25.113  1.00  0.00    -0.294 OA
BRANCH  11  13
ATOM     13  C   UNL     1       8.742 -19.597  23.447  1.00  0.00    -0.002 C 
ATOM     14  C   UNL     1       8.444 -20.858  23.884  1.00  0.00    -0.069 C 
ATOM     15  C   UNL     1       7.579 -21.091  25.102  1.00  0.00     0.039 C 
ATOM     16  C   UNL     1       8.996 -22.084  23.188  1.00  0.00     0.039 C 
BRANCH  13  17
ATOM     17  C   UNL     1       9.728 -19.370  22.316  1.00  0.00     0.066 CG0
ATOM     18  G   UNL     1       8.999 -19.369  20.994  1.00  0.00     0.000 G0
ENDBRANCH  13  17
ENDBRANCH  11  13
ENDBRANCH  10  11
ENDBRANCH   1  10
TORSDOF 0
ENDMDL
MODEL 9
REMARK VINA RESULT:    -3.616      1.354      3.961
REMARK INTER + INTRA:          -4.728
REMARK INTER:                  -5.535
REMARK INTRA:                   0.807
REMARK UNBOUND:                 0.368
REMARK SMILES CC1=CCC(=C(C)C)C(=O)CC(C)=CCC1
REMARK SMILES IDX 12 1 14 2 13 3 15 4 16 5 2 6 1 7 3 8 11 10 9 11 10 12 5 13
REMARK SMILES IDX 6 14 7 15 8 16 4 17
REMARK H PARENT
REMARK Flexibility Score: 60.00
ROOT
ATOM      1  C   UNL     1       7.978 -17.593  22.132  1.00  0.00    -0.070 C 
ATOM      2  C   UNL     1       7.907 -18.933  21.953  1.00  0.00    -0.027 C 
ATOM      3  C   UNL     1       8.928 -16.823  21.247  1.00  0.00     0.039 C 
ENDROOT
BRANCH   2   4
ATOM      4  C   UNL     1       7.109 -19.905  22.790  1.00  0.00     0.032 C 
BRANCH   4   5
ATOM      5  C   UNL     1       8.003 -20.813  23.656  1.00  0.00     0.034 C 
BRANCH   5   6
ATOM      6  C   UNL     1       8.041 -20.363  25.105  1.00  0.00    -0.077 C 
ATOM      7  C   UNL     1       7.143 -21.062  26.094  1.00  0.00     0.039 C 
ATOM      8  C   UNL     1       8.854 -19.387  25.566  1.00  0.00    -0.023 CG0
ATOM      9  G   UNL     1       9.844 -18.599  24.742  1.00  0.00     0.000 G0
ENDBRANCH   5   6
ENDBRANCH   4   5
ENDBRANCH   2   4
BRANCH   1  10
ATOM     10  C   UNL     1       7.212 -16.842  23.209  1.00  0.00     0.111 C 
BRANCH  10  11
ATOM     11  C   UNL     1       7.918 -16.907  24.540  1.00  0.00     0.163 C 
ATOM     12  O   UNL     1       7.224 -16.799  25.586  1.00  0.00    -0.294 OA
BRANCH  11  13
ATOM     13  C   UNL     1       9.392 -17.146  24.642  1.00  0.00    -0.002 C 
ATOM     14  C   UNL     1      10.292 -16.119  24.582  1.00  0.00    -0.069 C 
ATOM     15  C   UNL     1       9.853 -14.693  24.334  1.00  0.00     0.039 C 
ATOM     16  C   UNL     1      11.779 -16.364  24.725  1.00  0.00     0.039 C 
BRANCH  13  17
ATOM     17  C   UNL     1       9.852 -18.589  24.742  1.00  0.00     0.066 CG0
ATOM     18  G   UNL     1       8.863 -19.386  25.559  1.00  0.00     0.000 G0
ENDBRANCH  13  17
ENDBRANCH  11  13
ENDBRANCH  10  11
ENDBRANCH   1  10
TORSDOF 0
ENDMDL
