MODEL 1
REMARK VINA RESULT:    -3.597      0.000      0.000
REMARK INTER + INTRA:          -4.747
REMARK INTER:                  -5.069
REMARK INTRA:                   0.322
REMARK UNBOUND:                 0.322
REMARK SMILES C[C@H](CO)CCC(=O)[C@@H](C)[C@H]1C(=O)C[C@@H]2[C@H]3CC=C4C[C@@H](O)CC[C@]4(C)[C@H]3CC[C@@]21C
REMARK SMILES IDX 6 1 5 2 2 3 1 4 3 5 4 6 7 8 8 9 9 10 10 11 11 12 12 13 30 14
REMARK SMILES IDX 13 15 14 16 15 17 29 18 31 19 16 20 28 21 27 22 17 23 25 24
REMARK SMILES IDX 18 25 19 26 24 27 26 28 20 29 23 30 21 31 22 32
REMARK H PARENT 4 7 22 33
REMARK Flexibility Score: inf
ROOT
ATOM      1  C   UNL     1       2.327  38.912  13.127  1.00  0.00     0.076 C 
ENDROOT
BRANCH   1   2
ATOM      2  C   UNL     1       2.219  37.691  12.197  1.00  0.00     0.013 C 
BRANCH   2   3
ATOM      3  C   UNL     1       0.764  37.264  11.868  1.00  0.00     0.012 C 
ATOM      4  C   UNL     1      -0.247  37.850  12.868  1.00  0.00     0.010 C 
BRANCH   3   5
ATOM      5  C   UNL     1       0.589  35.737  11.759  1.00  0.00     0.159 C 
BRANCH   5   6
ATOM      6  O   UNL     1       0.381  35.358  10.423  1.00  0.00    -0.396 OA
ATOM      7  H   UNL     1       1.035  34.638  10.219  1.00  0.00     0.210 HD
ENDBRANCH   5   6
ENDBRANCH   3   5
ENDBRANCH   2   3
ENDBRANCH   1   2
BRANCH   1   8
ATOM      8  C   UNL     1       3.579  39.708  12.847  1.00  0.00     0.136 C 
ATOM      9  O   UNL     1       4.631  39.109  12.693  1.00  0.00    -0.299 OA
BRANCH   8  10
ATOM     10  C   UNL     1       3.510  41.217  12.691  1.00  0.00     0.064 C 
ATOM     11  C   UNL     1       4.909  41.832  12.491  1.00  0.00     0.017 C 
BRANCH  10  12
ATOM     12  C   UNL     1       2.370  41.730  11.734  1.00  0.00     0.072 C 
ATOM     13  C   UNL     1       1.237  42.225  12.575  1.00  0.00     0.137 C 
ATOM     14  C   UNL     1       2.583  42.939  10.736  1.00  0.00    -0.019 C 
ATOM     15  O   UNL     1       0.565  41.496  13.293  1.00  0.00    -0.299 OA
ATOM     16  C   UNL     1       0.973  43.678  12.445  1.00  0.00     0.080 C 
ATOM     17  C   UNL     1       2.104  44.190  11.533  1.00  0.00     0.007 C 
ATOM     18  C   UNL     1       1.632  42.714   9.519  1.00  0.00     0.008 C 
ATOM     19  C   UNL     1       4.034  43.106  10.214  1.00  0.00     0.012 C 
ATOM     20  C   UNL     1       1.647  45.445  10.714  1.00  0.00     0.001 C 
ATOM     21  C   UNL     1       1.494  43.946   8.625  1.00  0.00     0.005 C 
ATOM     22  C   UNL     1       0.888  45.153   9.379  1.00  0.00     0.003 C 
ATOM     23  C   UNL     1       2.748  46.495  10.489  1.00  0.00     0.031 C 
ATOM     24  C   UNL     1       0.699  46.457   8.458  1.00  0.00    -0.008 C 
ATOM     25  C   UNL     1       2.068  47.777  10.092  1.00  0.00    -0.027 C 
ATOM     26  C   UNL     1       1.025  47.748   9.230  1.00  0.00    -0.065 C 
ATOM     27  C   UNL     1      -0.780  46.519   7.984  1.00  0.00     0.014 C 
ATOM     28  C   UNL     1       1.634  46.441   7.212  1.00  0.00     0.016 C 
ATOM     29  C   UNL     1       0.047  48.905   9.249  1.00  0.00     0.063 C 
ATOM     30  C   UNL     1      -1.123  47.797   7.197  1.00  0.00     0.033 C 
ATOM     31  C   UNL     1      -0.698  49.107   7.911  1.00  0.00     0.118 C 
BRANCH  31  32
ATOM     32  O   UNL     1       0.049  49.931   7.047  1.00  0.00    -0.393 OA
ATOM     33  H   UNL     1      -0.568  50.324   6.383  1.00  0.00     0.210 HD
ENDBRANCH  31  32
ENDBRANCH  10  12
ENDBRANCH   8  10
ENDBRANCH   1   8
TORSDOF 8
ENDMDL
MODEL 2
REMARK VINA RESULT:    -3.147      2.301      8.561
REMARK INTER + INTRA:          -4.113
REMARK INTER:                  -5.075
REMARK INTRA:                   0.961
REMARK UNBOUND:                 0.322
REMARK SMILES C[C@H](CO)CCC(=O)[C@@H](C)[C@H]1C(=O)C[C@@H]2[C@H]3CC=C4C[C@@H](O)CC[C@]4(C)[C@H]3CC[C@@]21C
REMARK SMILES IDX 6 1 5 2 2 3 1 4 3 5 4 6 7 8 8 9 9 10 10 11 11 12 12 13 30 14
REMARK SMILES IDX 13 15 14 16 15 17 29 18 31 19 16 20 28 21 27 22 17 23 25 24
REMARK SMILES IDX 18 25 19 26 24 27 26 28 20 29 23 30 21 31 22 32
REMARK H PARENT 4 7 22 33
REMARK Flexibility Score: inf
ROOT
ATOM      1  C   UNL     1       2.565  47.543   7.638  1.00  0.00     0.076 C 
ENDROOT
BRANCH   1   2
ATOM      2  C   UNL     1       3.898  48.243   7.950  1.00  0.00     0.013 C 
BRANCH   2   3
ATOM      3  C   UNL     1       4.910  47.371   8.738  1.00  0.00     0.012 C 
ATOM      4  C   UNL     1       4.480  47.174  10.202  1.00  0.00     0.010 C 
BRANCH   3   5
ATOM      5  C   UNL     1       6.354  47.904   8.670  1.00  0.00     0.159 C 
BRANCH   5   6
ATOM      6  O   UNL     1       6.369  49.242   8.247  1.00  0.00    -0.396 OA
ATOM      7  H   UNL     1       7.025  49.306   7.503  1.00  0.00     0.210 HD
ENDBRANCH   5   6
ENDBRANCH   3   5
ENDBRANCH   2   3
ENDBRANCH   1   2
BRANCH   1   8
ATOM      8  C   UNL     1       1.391  48.337   8.160  1.00  0.00     0.136 C 
ATOM      9  O   UNL     1       1.601  49.427   8.665  1.00  0.00    -0.299 OA
BRANCH   8  10
ATOM     10  C   UNL     1      -0.025  47.813   7.993  1.00  0.00     0.064 C 
ATOM     11  C   UNL     1      -0.470  47.841   6.518  1.00  0.00     0.017 C 
BRANCH  10  12
ATOM     12  C   UNL     1      -0.343  46.500   8.801  1.00  0.00     0.072 C 
ATOM     13  C   UNL     1      -0.315  45.345   7.852  1.00  0.00     0.137 C 
ATOM     14  C   UNL     1       0.586  45.979   9.971  1.00  0.00    -0.019 C 
ATOM     15  O   UNL     1      -1.121  45.204   6.941  1.00  0.00    -0.299 OA
ATOM     16  C   UNL     1       0.760  44.360   8.124  1.00  0.00     0.080 C 
ATOM     17  C   UNL     1       1.569  44.989   9.274  1.00  0.00     0.007 C 
ATOM     18  C   UNL     1      -0.315  45.186  10.968  1.00  0.00     0.008 C 
ATOM     19  C   UNL     1       1.339  47.089  10.750  1.00  0.00     0.012 C 
ATOM     20  C   UNL     1       2.243  43.887  10.161  1.00  0.00     0.001 C 
ATOM     21  C   UNL     1       0.482  44.363  11.979  1.00  0.00     0.005 C 
ATOM     22  C   UNL     1       1.356  43.284  11.298  1.00  0.00     0.003 C 
ATOM     23  C   UNL     1       3.631  44.267  10.705  1.00  0.00     0.031 C 
ATOM     24  C   UNL     1       2.183  42.377  12.335  1.00  0.00    -0.008 C 
ATOM     25  C   UNL     1       4.302  42.995  11.145  1.00  0.00    -0.027 C 
ATOM     26  C   UNL     1       3.591  42.052  11.806  1.00  0.00    -0.065 C 
ATOM     27  C   UNL     1       1.412  41.045  12.555  1.00  0.00     0.014 C 
ATOM     28  C   UNL     1       2.382  43.084  13.710  1.00  0.00     0.016 C 
ATOM     29  C   UNL     1       4.093  40.622  11.772  1.00  0.00     0.063 C 
ATOM     30  C   UNL     1       2.168  40.032  13.433  1.00  0.00     0.033 C 
ATOM     31  C   UNL     1       3.630  39.776  12.979  1.00  0.00     0.118 C 
BRANCH  31  32
ATOM     32  O   UNL     1       4.524  39.920  14.057  1.00  0.00    -0.393 OA
ATOM     33  H   UNL     1       5.160  40.645  13.838  1.00  0.00     0.210 HD
ENDBRANCH  31  32
ENDBRANCH  10  12
ENDBRANCH   8  10
ENDBRANCH   1   8
TORSDOF 8
ENDMDL
MODEL 3
REMARK VINA RESULT:    -3.068      2.244      3.189
REMARK INTER + INTRA:          -4.002
REMARK INTER:                  -3.816
REMARK INTRA:                  -0.187
REMARK UNBOUND:                 0.322
REMARK SMILES C[C@H](CO)CCC(=O)[C@@H](C)[C@H]1C(=O)C[C@@H]2[C@H]3CC=C4C[C@@H](O)CC[C@]4(C)[C@H]3CC[C@@]21C
REMARK SMILES IDX 6 1 5 2 2 3 1 4 3 5 4 6 7 8 8 9 9 10 10 11 11 12 12 13 30 14
REMARK SMILES IDX 13 15 14 16 15 17 29 18 31 19 16 20 28 21 27 22 17 23 25 24
REMARK SMILES IDX 18 25 19 26 24 27 26 28 20 29 23 30 21 31 22 32
REMARK H PARENT 4 7 22 33
REMARK Flexibility Score: inf
ROOT
ATOM      1  C   UNL     1       2.303  40.595  12.127  1.00  0.00     0.076 C 
ENDROOT
BRANCH   1   2
ATOM      2  C   UNL     1       1.769  40.363  13.551  1.00  0.00     0.013 C 
BRANCH   2   3
ATOM      3  C   UNL     1       0.380  40.996  13.825  1.00  0.00     0.012 C 
ATOM      4  C   UNL     1       0.253  42.396  13.203  1.00  0.00     0.010 C 
BRANCH   3   5
ATOM      5  C   UNL     1       0.015  41.037  15.321  1.00  0.00     0.159 C 
BRANCH   5   6
ATOM      6  O   UNL     1      -0.829  42.125  15.595  1.00  0.00    -0.396 OA
ATOM      7  H   UNL     1      -1.744  41.865  15.302  1.00  0.00     0.210 HD
ENDBRANCH   5   6
ENDBRANCH   3   5
ENDBRANCH   2   3
ENDBRANCH   1   2
BRANCH   1   8
ATOM      8  C   UNL     1       3.656  41.266  12.149  1.00  0.00     0.136 C 
ATOM      9  O   UNL     1       4.552  40.753  12.799  1.00  0.00    -0.299 OA
BRANCH   8  10
ATOM     10  C   UNL     1       3.908  42.513  11.319  1.00  0.00     0.064 C 
ATOM     11  C   UNL     1       4.479  42.165   9.931  1.00  0.00     0.017 C 
BRANCH  10  12
ATOM     12  C   UNL     1       2.749  43.577  11.359  1.00  0.00     0.072 C 
ATOM     13  C   UNL     1       3.190  44.722  12.214  1.00  0.00     0.137 C 
ATOM     14  C   UNL     1       2.237  44.322  10.060  1.00  0.00    -0.019 C 
ATOM     15  O   UNL     1       3.394  44.622  13.417  1.00  0.00    -0.299 OA
ATOM     16  C   UNL     1       3.332  46.005  11.484  1.00  0.00     0.080 C 
ATOM     17  C   UNL     1       3.076  45.635  10.011  1.00  0.00     0.007 C 
ATOM     18  C   UNL     1       0.736  44.682  10.287  1.00  0.00     0.008 C 
ATOM     19  C   UNL     1       2.364  43.505   8.748  1.00  0.00     0.012 C 
ATOM     20  C   UNL     1       2.481  46.850   9.218  1.00  0.00     0.001 C 
ATOM     21  C   UNL     1       0.191  45.672   9.259  1.00  0.00     0.005 C 
ATOM     22  C   UNL     1       0.931  47.030   9.301  1.00  0.00     0.003 C 
ATOM     23  C   UNL     1       2.959  46.954   7.760  1.00  0.00     0.031 C 
ATOM     24  C   UNL     1       0.360  48.107   8.253  1.00  0.00    -0.008 C 
ATOM     25  C   UNL     1       2.663  48.352   7.292  1.00  0.00    -0.027 C 
ATOM     26  C   UNL     1       1.491  48.941   7.626  1.00  0.00    -0.065 C 
ATOM     27  C   UNL     1      -0.609  49.063   9.003  1.00  0.00     0.014 C 
ATOM     28  C   UNL     1      -0.400  47.435   7.071  1.00  0.00     0.016 C 
ATOM     29  C   UNL     1       1.422  50.455   7.619  1.00  0.00     0.063 C 
ATOM     30  C   UNL     1      -1.125  50.224   8.134  1.00  0.00     0.033 C 
ATOM     31  C   UNL     1      -0.003  51.008   7.402  1.00  0.00     0.118 C 
BRANCH  31  32
ATOM     32  O   UNL     1      -0.286  51.125   6.028  1.00  0.00    -0.393 OA
ATOM     33  H   UNL     1      -0.832  51.937   5.892  1.00  0.00     0.210 HD
ENDBRANCH  31  32
ENDBRANCH  10  12
ENDBRANCH   8  10
ENDBRANCH   1   8
TORSDOF 8
ENDMDL
MODEL 4
REMARK VINA RESULT:    -2.891      1.542      2.613
REMARK INTER + INTRA:          -3.752
REMARK INTER:                  -3.584
REMARK INTRA:                  -0.169
REMARK UNBOUND:                 0.322
REMARK SMILES C[C@H](CO)CCC(=O)[C@@H](C)[C@H]1C(=O)C[C@@H]2[C@H]3CC=C4C[C@@H](O)CC[C@]4(C)[C@H]3CC[C@@]21C
REMARK SMILES IDX 6 1 5 2 2 3 1 4 3 5 4 6 7 8 8 9 9 10 10 11 11 12 12 13 30 14
REMARK SMILES IDX 13 15 14 16 15 17 29 18 31 19 16 20 28 21 27 22 17 23 25 24
REMARK SMILES IDX 18 25 19 26 24 27 26 28 20 29 23 30 21 31 22 32
REMARK H PARENT 4 7 22 33
REMARK Flexibility Score: inf
ROOT
ATOM      1  C   UNL     1       4.439  39.587  12.447  1.00  0.00     0.076 C 
ENDROOT
BRANCH   1   2
ATOM      2  C   UNL     1       3.355  38.749  13.147  1.00  0.00     0.013 C 
BRANCH   2   3
ATOM      3  C   UNL     1       2.282  38.163  12.193  1.00  0.00     0.012 C 
ATOM      4  C   UNL     1       0.901  38.078  12.863  1.00  0.00     0.010 C 
BRANCH   3   5
ATOM      5  C   UNL     1       2.678  36.796  11.601  1.00  0.00     0.159 C 
BRANCH   5   6
ATOM      6  O   UNL     1       1.537  36.017  11.351  1.00  0.00    -0.396 OA
ATOM      7  H   UNL     1       1.115  36.373  10.524  1.00  0.00     0.210 HD
ENDBRANCH   5   6
ENDBRANCH   3   5
ENDBRANCH   2   3
ENDBRANCH   1   2
BRANCH   1   8
ATOM      8  C   UNL     1       4.110  41.060  12.490  1.00  0.00     0.136 C 
ATOM      9  O   UNL     1       4.867  41.810  13.084  1.00  0.00    -0.299 OA
BRANCH   8  10
ATOM     10  C   UNL     1       2.899  41.598  11.749  1.00  0.00     0.064 C 
ATOM     11  C   UNL     1       1.690  41.774  12.688  1.00  0.00     0.017 C 
BRANCH  10  12
ATOM     12  C   UNL     1       3.204  42.786  10.761  1.00  0.00     0.072 C 
ATOM     13  C   UNL     1       2.694  42.413   9.405  1.00  0.00     0.137 C 
ATOM     14  C   UNL     1       2.584  44.228  10.954  1.00  0.00    -0.019 C 
ATOM     15  O   UNL     1       3.159  41.494   8.743  1.00  0.00    -0.299 OA
ATOM     16  C   UNL     1       1.592  43.273   8.913  1.00  0.00     0.080 C 
ATOM     17  C   UNL     1       1.281  44.208  10.098  1.00  0.00     0.007 C 
ATOM     18  C   UNL     1       3.584  45.255  10.337  1.00  0.00     0.008 C 
ATOM     19  C   UNL     1       2.302  44.625  12.426  1.00  0.00     0.012 C 
ATOM     20  C   UNL     1       0.715  45.582   9.600  1.00  0.00     0.001 C 
ATOM     21  C   UNL     1       2.988  46.651  10.167  1.00  0.00     0.005 C 
ATOM     22  C   UNL     1       1.776  46.659   9.206  1.00  0.00     0.003 C 
ATOM     23  C   UNL     1      -0.362  46.195  10.512  1.00  0.00     0.031 C 
ATOM     24  C   UNL     1       1.144  48.119   8.979  1.00  0.00    -0.008 C 
ATOM     25  C   UNL     1      -1.087  47.238   9.708  1.00  0.00    -0.027 C 
ATOM     26  C   UNL     1      -0.391  48.065   8.893  1.00  0.00    -0.065 C 
ATOM     27  C   UNL     1       1.698  48.698   7.646  1.00  0.00     0.014 C 
ATOM     28  C   UNL     1       1.487  49.098  10.141  1.00  0.00     0.016 C 
ATOM     29  C   UNL     1      -1.125  48.716   7.738  1.00  0.00     0.063 C 
ATOM     30  C   UNL     1       1.068  50.044   7.248  1.00  0.00     0.033 C 
ATOM     31  C   UNL     1      -0.484  50.040   7.266  1.00  0.00     0.118 C 
BRANCH  31  32
ATOM     32  O   UNL     1      -0.981  51.125   8.015  1.00  0.00    -0.393 OA
ATOM     33  H   UNL     1      -1.837  51.413   7.613  1.00  0.00     0.210 HD
ENDBRANCH  31  32
ENDBRANCH  10  12
ENDBRANCH   8  10
ENDBRANCH   1   8
TORSDOF 8
ENDMDL
MODEL 5
REMARK VINA RESULT:    -2.523      1.512      2.248
REMARK INTER + INTRA:          -3.234
REMARK INTER:                  -3.354
REMARK INTRA:                   0.120
REMARK UNBOUND:                 0.322
REMARK SMILES C[C@H](CO)CCC(=O)[C@@H](C)[C@H]1C(=O)C[C@@H]2[C@H]3CC=C4C[C@@H](O)CC[C@]4(C)[C@H]3CC[C@@]21C
REMARK SMILES IDX 6 1 5 2 2 3 1 4 3 5 4 6 7 8 8 9 9 10 10 11 11 12 12 13 30 14
REMARK SMILES IDX 13 15 14 16 15 17 29 18 31 19 16 20 28 21 27 22 17 23 25 24
REMARK SMILES IDX 18 25 19 26 24 27 26 28 20 29 23 30 21 31 22 32
REMARK H PARENT 4 7 22 33
REMARK Flexibility Score: inf
ROOT
ATOM      1  C   UNL     1       2.404  40.742  12.704  1.00  0.00     0.076 C 
ENDROOT
BRANCH   1   2
ATOM      2  C   UNL     1       2.453  39.297  13.231  1.00  0.00     0.013 C 
BRANCH   2   3
ATOM      3  C   UNL     1       1.870  38.240  12.257  1.00  0.00     0.012 C 
ATOM      4  C   UNL     1       0.581  37.604  12.804  1.00  0.00     0.010 C 
BRANCH   3   5
ATOM      5  C   UNL     1       2.885  37.149  11.867  1.00  0.00     0.159 C 
BRANCH   5   6
ATOM      6  O   UNL     1       2.234  36.060  11.267  1.00  0.00    -0.396 OA
ATOM      7  H   UNL     1       2.933  35.387  11.046  1.00  0.00     0.210 HD
ENDBRANCH   5   6
ENDBRANCH   3   5
ENDBRANCH   2   3
ENDBRANCH   1   2
BRANCH   1   8
ATOM      8  C   UNL     1       3.779  41.233  12.317  1.00  0.00     0.136 C 
ATOM      9  O   UNL     1       4.754  40.648  12.759  1.00  0.00    -0.299 OA
BRANCH   8  10
ATOM     10  C   UNL     1       3.936  42.387  11.343  1.00  0.00     0.064 C 
ATOM     11  C   UNL     1       4.407  41.901   9.959  1.00  0.00     0.017 C 
BRANCH  10  12
ATOM     12  C   UNL     1       2.757  43.430  11.361  1.00  0.00     0.072 C 
ATOM     13  C   UNL     1       3.146  44.566  12.253  1.00  0.00     0.137 C 
ATOM     14  C   UNL     1       2.280  44.192  10.059  1.00  0.00    -0.019 C 
ATOM     15  O   UNL     1       3.308  44.445  13.460  1.00  0.00    -0.299 OA
ATOM     16  C   UNL     1       3.292  45.865  11.554  1.00  0.00     0.080 C 
ATOM     17  C   UNL     1       3.095  45.520  10.066  1.00  0.00     0.007 C 
ATOM     18  C   UNL     1       0.765  44.522  10.237  1.00  0.00     0.008 C 
ATOM     19  C   UNL     1       2.469  43.404   8.736  1.00  0.00     0.012 C 
ATOM     20  C   UNL     1       2.509  46.740   9.275  1.00  0.00     0.001 C 
ATOM     21  C   UNL     1       0.240  45.523   9.209  1.00  0.00     0.005 C 
ATOM     22  C   UNL     1       0.954  46.892   9.305  1.00  0.00     0.003 C 
ATOM     23  C   UNL     1       3.037  46.881   7.837  1.00  0.00     0.031 C 
ATOM     24  C   UNL     1       0.402  47.979   8.258  1.00  0.00    -0.008 C 
ATOM     25  C   UNL     1       2.733  48.283   7.386  1.00  0.00    -0.027 C 
ATOM     26  C   UNL     1       1.540  48.845   7.688  1.00  0.00    -0.065 C 
ATOM     27  C   UNL     1      -0.611  48.904   8.990  1.00  0.00     0.014 C 
ATOM     28  C   UNL     1      -0.303  47.318   7.035  1.00  0.00     0.016 C 
ATOM     29  C   UNL     1       1.444  50.357   7.708  1.00  0.00     0.063 C 
ATOM     30  C   UNL     1      -1.116  50.073   8.125  1.00  0.00     0.033 C 
ATOM     31  C   UNL     1       0.018  50.891   7.450  1.00  0.00     0.118 C 
BRANCH  31  32
ATOM     32  O   UNL     1      -0.217  51.030   6.069  1.00  0.00    -0.393 OA
ATOM     33  H   UNL     1      -0.225  51.994   5.851  1.00  0.00     0.210 HD
ENDBRANCH  31  32
ENDBRANCH  10  12
ENDBRANCH   8  10
ENDBRANCH   1   8
TORSDOF 8
ENDMDL
MODEL 6
REMARK VINA RESULT:    -1.390      2.022      3.300
REMARK INTER + INTRA:          -1.637
REMARK INTER:                  -1.047
REMARK INTRA:                  -0.589
REMARK UNBOUND:                 0.322
REMARK SMILES C[C@H](CO)CCC(=O)[C@@H](C)[C@H]1C(=O)C[C@@H]2[C@H]3CC=C4C[C@@H](O)CC[C@]4(C)[C@H]3CC[C@@]21C
REMARK SMILES IDX 6 1 5 2 2 3 1 4 3 5 4 6 7 8 8 9 9 10 10 11 11 12 12 13 30 14
REMARK SMILES IDX 13 15 14 16 15 17 29 18 31 19 16 20 28 21 27 22 17 23 25 24
REMARK SMILES IDX 18 25 19 26 24 27 26 28 20 29 23 30 21 31 22 32
REMARK H PARENT 4 7 22 33
REMARK Flexibility Score: inf
ROOT
ATOM      1  C   UNL     1       1.329  41.037  13.085  1.00  0.00     0.076 C 
ENDROOT
BRANCH   1   2
ATOM      2  C   UNL     1       0.494  40.055  13.924  1.00  0.00     0.013 C 
BRANCH   2   3
ATOM      3  C   UNL     1      -0.644  40.719  14.742  1.00  0.00     0.012 C 
ATOM      4  C   UNL     1      -1.124  42.030  14.100  1.00  0.00     0.010 C 
BRANCH   3   5
ATOM      5  C   UNL     1      -0.276  40.948  16.221  1.00  0.00     0.159 C 
BRANCH   5   6
ATOM      6  O   UNL     1       0.235  42.241  16.408  1.00  0.00    -0.396 OA
ATOM      7  H   UNL     1       0.661  42.514  15.552  1.00  0.00     0.210 HD
ENDBRANCH   5   6
ENDBRANCH   3   5
ENDBRANCH   2   3
ENDBRANCH   1   2
BRANCH   1   8
ATOM      8  C   UNL     1       2.668  40.445  12.715  1.00  0.00     0.136 C 
ATOM      9  O   UNL     1       2.713  39.277  12.363  1.00  0.00    -0.299 OA
BRANCH   8  10
ATOM     10  C   UNL     1       3.916  41.309  12.715  1.00  0.00     0.064 C 
ATOM     11  C   UNL     1       5.184  40.475  12.980  1.00  0.00     0.017 C 
BRANCH  10  12
ATOM     12  C   UNL     1       3.993  42.358  11.544  1.00  0.00     0.072 C 
ATOM     13  C   UNL     1       3.320  41.773  10.343  1.00  0.00     0.137 C 
ATOM     14  C   UNL     1       3.309  43.782  11.635  1.00  0.00    -0.019 C 
ATOM     15  O   UNL     1       3.747  40.793   9.746  1.00  0.00    -0.299 OA
ATOM     16  C   UNL     1       2.102  42.500   9.914  1.00  0.00     0.080 C 
ATOM     17  C   UNL     1       1.902  43.577  10.997  1.00  0.00     0.007 C 
ATOM     18  C   UNL     1       4.137  44.758  10.742  1.00  0.00     0.008 C 
ATOM     19  C   UNL     1       3.215  44.370  13.067  1.00  0.00     0.012 C 
ATOM     20  C   UNL     1       1.176  44.838  10.413  1.00  0.00     0.001 C 
ATOM     21  C   UNL     1       3.428  46.085  10.480  1.00  0.00     0.005 C 
ATOM     22  C   UNL     1       2.092  45.898   9.722  1.00  0.00     0.003 C 
ATOM     23  C   UNL     1       0.202  45.521  11.389  1.00  0.00     0.031 C 
ATOM     24  C   UNL     1       1.336  47.279   9.402  1.00  0.00    -0.008 C 
ATOM     25  C   UNL     1      -0.701  46.404  10.572  1.00  0.00    -0.027 C 
ATOM     26  C   UNL     1      -0.189  47.139   9.559  1.00  0.00    -0.065 C 
ATOM     27  C   UNL     1       1.651  47.689   7.936  1.00  0.00     0.014 C 
ATOM     28  C   UNL     1       1.773  48.429  10.358  1.00  0.00     0.016 C 
ATOM     29  C   UNL     1      -1.124  47.584   8.452  1.00  0.00     0.063 C 
ATOM     30  C   UNL     1       0.878  48.933   7.462  1.00  0.00     0.033 C 
ATOM     31  C   UNL     1      -0.651  48.857   7.717  1.00  0.00     0.118 C 
BRANCH  31  32
ATOM     32  O   UNL     1      -1.108  50.012   8.381  1.00  0.00    -0.393 OA
ATOM     33  H   UNL     1      -2.078  49.912   8.545  1.00  0.00     0.210 HD
ENDBRANCH  31  32
ENDBRANCH  10  12
ENDBRANCH   8  10
ENDBRANCH   1   8
TORSDOF 8
ENDMDL
MODEL 7
REMARK VINA RESULT:    -1.083      2.437      8.261
REMARK INTER + INTRA:          -1.205
REMARK INTER:                  -1.297
REMARK INTRA:                   0.092
REMARK UNBOUND:                 0.322
REMARK SMILES C[C@H](CO)CCC(=O)[C@@H](C)[C@H]1C(=O)C[C@@H]2[C@H]3CC=C4C[C@@H](O)CC[C@]4(C)[C@H]3CC[C@@]21C
REMARK SMILES IDX 6 1 5 2 2 3 1 4 3 5 4 6 7 8 8 9 9 10 10 11 11 12 12 13 30 14
REMARK SMILES IDX 13 15 14 16 15 17 29 18 31 19 16 20 28 21 27 22 17 23 25 24
REMARK SMILES IDX 18 25 19 26 24 27 26 28 20 29 23 30 21 31 22 32
REMARK H PARENT 4 7 22 33
REMARK Flexibility Score: inf
ROOT
ATOM      1  C   UNL     1      -1.123  47.818   7.411  1.00  0.00     0.076 C 
ENDROOT
BRANCH   1   2
ATOM      2  C   UNL     1      -0.310  46.851   6.534  1.00  0.00     0.013 C 
BRANCH   2   3
ATOM      3  C   UNL     1      -1.071  45.561   6.129  1.00  0.00     0.012 C 
ATOM      4  C   UNL     1      -0.505  44.316   6.832  1.00  0.00     0.010 C 
BRANCH   3   5
ATOM      5  C   UNL     1      -1.125  45.340   4.605  1.00  0.00     0.159 C 
BRANCH   5   6
ATOM      6  O   UNL     1      -0.962  43.980   4.297  1.00  0.00    -0.396 OA
ATOM      7  H   UNL     1      -1.036  43.894   3.309  1.00  0.00     0.210 HD
ENDBRANCH   5   6
ENDBRANCH   3   5
ENDBRANCH   2   3
ENDBRANCH   1   2
BRANCH   1   8
ATOM      8  C   UNL     1      -0.387  49.120   7.622  1.00  0.00     0.136 C 
ATOM      9  O   UNL     1      -1.030  50.156   7.652  1.00  0.00    -0.299 OA
BRANCH   8  10
ATOM     10  C   UNL     1       1.113  49.125   7.860  1.00  0.00     0.064 C 
ATOM     11  C   UNL     1       1.735  50.495   7.532  1.00  0.00     0.017 C 
BRANCH  10  12
ATOM     12  C   UNL     1       1.569  48.446   9.205  1.00  0.00     0.072 C 
ATOM     13  C   UNL     1       0.352  47.945   9.916  1.00  0.00     0.137 C 
ATOM     14  C   UNL     1       2.508  47.174   9.237  1.00  0.00    -0.019 C 
ATOM     15  O   UNL     1      -0.516  48.684  10.364  1.00  0.00    -0.299 OA
ATOM     16  C   UNL     1       0.298  46.471  10.062  1.00  0.00     0.080 C 
ATOM     17  C   UNL     1       1.524  45.966   9.277  1.00  0.00     0.007 C 
ATOM     18  C   UNL     1       3.315  47.219  10.571  1.00  0.00     0.008 C 
ATOM     19  C   UNL     1       3.504  47.069   8.052  1.00  0.00     0.012 C 
ATOM     20  C   UNL     1       2.054  44.613   9.865  1.00  0.00     0.001 C 
ATOM     21  C   UNL     1       4.030  45.907  10.890  1.00  0.00     0.005 C 
ATOM     22  C   UNL     1       3.044  44.729  11.068  1.00  0.00     0.003 C 
ATOM     23  C   UNL     1       2.597  43.631   8.813  1.00  0.00     0.031 C 
ATOM     24  C   UNL     1       3.761  43.339  11.437  1.00  0.00    -0.008 C 
ATOM     25  C   UNL     1       2.653  42.273   9.457  1.00  0.00    -0.027 C 
ATOM     26  C   UNL     1       3.086  42.149  10.733  1.00  0.00    -0.065 C 
ATOM     27  C   UNL     1       3.672  43.127  12.974  1.00  0.00     0.014 C 
ATOM     28  C   UNL     1       5.258  43.314  11.005  1.00  0.00     0.016 C 
ATOM     29  C   UNL     1       2.654  40.929  11.521  1.00  0.00     0.063 C 
ATOM     30  C   UNL     1       4.211  41.763  13.441  1.00  0.00     0.033 C 
ATOM     31  C   UNL     1       3.624  40.555  12.664  1.00  0.00     0.118 C 
BRANCH  31  32
ATOM     32  O   UNL     1       4.650  39.716  12.188  1.00  0.00    -0.393 OA
ATOM     33  H   UNL     1       4.783  39.904  11.227  1.00  0.00     0.210 HD
ENDBRANCH  31  32
ENDBRANCH  10  12
ENDBRANCH   8  10
ENDBRANCH   1   8
TORSDOF 8
ENDMDL
