MODEL 1
REMARK VINA RESULT:    -4.542      0.000      0.000
REMARK INTER + INTRA:          -6.290
REMARK INTER:                  -5.870
REMARK INTRA:                  -0.420
REMARK UNBOUND:                -0.420
REMARK SMILES C=CC(=O)CCCCC
REMARK SMILES IDX 6 1 7 2 8 3 9 4 5 5 3 6 4 7 2 8 1 9
REMARK H PARENT
REMARK Flexibility Score: inf
ROOT
ATOM      1  C   UNL     1      34.148  18.461  15.938  1.00  0.00     0.008 C 
ENDROOT
BRANCH   1   2
ATOM      2  C   UNL     1      33.625  18.363  17.379  1.00  0.00     0.000 C 
BRANCH   2   3
ATOM      3  C   UNL     1      32.100  18.208  17.400  1.00  0.00    -0.003 C 
ATOM      4  C   UNL     1      31.620  17.333  16.245  1.00  0.00     0.004 C 
ENDBRANCH   2   3
ENDBRANCH   1   2
BRANCH   1   5
ATOM      5  C   UNL     1      34.977  19.731  15.705  1.00  0.00     0.080 C 
BRANCH   5   6
ATOM      6  C   UNL     1      34.173  20.977  15.951  1.00  0.00     0.155 C 
ATOM      7  O   UNL     1      33.048  21.103  15.397  1.00  0.00    -0.295 OA
BRANCH   6   8
ATOM      8  C   UNL     1      34.686  22.025  16.857  1.00  0.00     0.039 C 
ATOM      9  C   UNL     1      34.760  21.854  18.175  1.00  0.00     0.012 C 
ENDBRANCH   6   8
ENDBRANCH   5   6
ENDBRANCH   1   5
TORSDOF 5
ENDMDL
MODEL 2
REMARK VINA RESULT:    -4.487      1.386      3.333
REMARK INTER + INTRA:          -6.219
REMARK INTER:                  -5.722
REMARK INTRA:                  -0.497
REMARK UNBOUND:                -0.420
REMARK SMILES C=CC(=O)CCCCC
REMARK SMILES IDX 6 1 7 2 8 3 9 4 5 5 3 6 4 7 2 8 1 9
REMARK H PARENT
REMARK Flexibility Score: inf
ROOT
ATOM      1  C   UNL     1      34.376  21.702  16.603  1.00  0.00     0.008 C 
ENDROOT
BRANCH   1   2
ATOM      2  C   UNL     1      34.446  21.840  18.132  1.00  0.00     0.000 C 
BRANCH   2   3
ATOM      3  C   UNL     1      33.568  20.788  18.819  1.00  0.00    -0.003 C 
ATOM      4  C   UNL     1      32.119  20.889  18.350  1.00  0.00     0.004 C 
ENDBRANCH   2   3
ENDBRANCH   1   2
BRANCH   1   5
ATOM      5  C   UNL     1      35.095  20.444  16.099  1.00  0.00     0.080 C 
BRANCH   5   6
ATOM      6  C   UNL     1      34.174  19.547  15.320  1.00  0.00     0.155 C 
ATOM      7  O   UNL     1      33.573  20.008  14.312  1.00  0.00    -0.295 OA
BRANCH   6   8
ATOM      8  C   UNL     1      34.003  18.134  15.715  1.00  0.00     0.039 C 
ATOM      9  C   UNL     1      32.869  17.671  16.235  1.00  0.00     0.012 C 
ENDBRANCH   6   8
ENDBRANCH   5   6
ENDBRANCH   1   5
TORSDOF 5
ENDMDL
MODEL 3
REMARK VINA RESULT:    -4.474      1.745      2.634
REMARK INTER + INTRA:          -6.201
REMARK INTER:                  -5.549
REMARK INTRA:                  -0.653
REMARK UNBOUND:                -0.420
REMARK SMILES C=CC(=O)CCCCC
REMARK SMILES IDX 6 1 7 2 8 3 9 4 5 5 3 6 4 7 2 8 1 9
REMARK H PARENT
REMARK Flexibility Score: inf
ROOT
ATOM      1  C   UNL     1      32.215  19.173  17.943  1.00  0.00     0.008 C 
ENDROOT
BRANCH   1   2
ATOM      2  C   UNL     1      33.432  18.365  17.464  1.00  0.00     0.000 C 
BRANCH   2   3
ATOM      3  C   UNL     1      33.056  17.450  16.293  1.00  0.00    -0.003 C 
ATOM      4  C   UNL     1      31.542  17.306  16.170  1.00  0.00     0.004 C 
ENDBRANCH   2   3
ENDBRANCH   1   2
BRANCH   1   5
ATOM      5  C   UNL     1      32.484  20.683  17.945  1.00  0.00     0.080 C 
BRANCH   5   6
ATOM      6  C   UNL     1      32.797  21.199  16.568  1.00  0.00     0.155 C 
ATOM      7  O   UNL     1      33.929  21.707  16.344  1.00  0.00    -0.295 OA
BRANCH   6   8
ATOM      8  C   UNL     1      31.800  21.079  15.485  1.00  0.00     0.039 C 
ATOM      9  C   UNL     1      32.098  20.568  14.294  1.00  0.00     0.012 C 
ENDBRANCH   6   8
ENDBRANCH   5   6
ENDBRANCH   1   5
TORSDOF 5
ENDMDL
MODEL 4
REMARK VINA RESULT:    -4.441      1.611      3.794
REMARK INTER + INTRA:          -6.159
REMARK INTER:                  -5.683
REMARK INTRA:                  -0.476
REMARK UNBOUND:                -0.420
REMARK SMILES C=CC(=O)CCCCC
REMARK SMILES IDX 6 1 7 2 8 3 9 4 5 5 3 6 4 7 2 8 1 9
REMARK H PARENT
REMARK Flexibility Score: inf
ROOT
ATOM      1  C   UNL     1      34.009  19.870  15.358  1.00  0.00     0.008 C 
ENDROOT
BRANCH   1   2
ATOM      2  C   UNL     1      35.077  20.677  16.112  1.00  0.00     0.000 C 
BRANCH   2   3
ATOM      3  C   UNL     1      34.450  21.871  16.839  1.00  0.00    -0.003 C 
ATOM      4  C   UNL     1      34.830  21.879  18.317  1.00  0.00     0.004 C 
ENDBRANCH   2   3
ENDBRANCH   1   2
BRANCH   1   5
ATOM      5  C   UNL     1      34.041  18.379  15.722  1.00  0.00     0.080 C 
BRANCH   5   6
ATOM      6  C   UNL     1      32.928  18.008  16.661  1.00  0.00     0.155 C 
ATOM      7  O   UNL     1      32.009  17.247  16.255  1.00  0.00    -0.295 OA
BRANCH   6   8
ATOM      8  C   UNL     1      32.933  18.505  18.052  1.00  0.00     0.039 C 
ATOM      9  C   UNL     1      31.858  19.049  18.618  1.00  0.00     0.012 C 
ENDBRANCH   6   8
ENDBRANCH   5   6
ENDBRANCH   1   5
TORSDOF 5
ENDMDL
MODEL 5
REMARK VINA RESULT:    -4.381      1.604      3.927
REMARK INTER + INTRA:          -6.082
REMARK INTER:                  -5.579
REMARK INTRA:                  -0.502
REMARK UNBOUND:                -0.420
REMARK SMILES C=CC(=O)CCCCC
REMARK SMILES IDX 6 1 7 2 8 3 9 4 5 5 3 6 4 7 2 8 1 9
REMARK H PARENT
REMARK Flexibility Score: inf
ROOT
ATOM      1  C   UNL     1      33.096  21.190  16.042  1.00  0.00     0.008 C 
ENDROOT
BRANCH   1   2
ATOM      2  C   UNL     1      32.415  21.146  17.418  1.00  0.00     0.000 C 
BRANCH   2   3
ATOM      3  C   UNL     1      33.450  21.222  18.545  1.00  0.00    -0.003 C 
ATOM      4  C   UNL     1      34.717  21.936  18.082  1.00  0.00     0.004 C 
ENDBRANCH   2   3
ENDBRANCH   1   2
BRANCH   1   5
ATOM      5  C   UNL     1      32.889  19.893  15.249  1.00  0.00     0.080 C 
BRANCH   5   6
ATOM      6  C   UNL     1      33.691  18.755  15.816  1.00  0.00     0.155 C 
ATOM      7  O   UNL     1      34.934  18.897  15.974  1.00  0.00    -0.295 OA
BRANCH   6   8
ATOM      8  C   UNL     1      33.022  17.500  16.213  1.00  0.00     0.039 C 
ATOM      9  C   UNL     1      31.702  17.408  16.352  1.00  0.00     0.012 C 
ENDBRANCH   6   8
ENDBRANCH   5   6
ENDBRANCH   1   5
TORSDOF 5
ENDMDL
MODEL 6
REMARK VINA RESULT:    -4.370      1.864      2.512
REMARK INTER + INTRA:          -6.067
REMARK INTER:                  -5.526
REMARK INTRA:                  -0.541
REMARK UNBOUND:                -0.420
REMARK SMILES C=CC(=O)CCCCC
REMARK SMILES IDX 6 1 7 2 8 3 9 4 5 5 3 6 4 7 2 8 1 9
REMARK H PARENT
REMARK Flexibility Score: inf
ROOT
ATOM      1  C   UNL     1      34.771  20.219  15.945  1.00  0.00     0.008 C 
ENDROOT
BRANCH   1   2
ATOM      2  C   UNL     1      33.731  19.366  15.202  1.00  0.00     0.000 C 
BRANCH   2   3
ATOM      3  C   UNL     1      33.656  17.954  15.793  1.00  0.00    -0.003 C 
ATOM      4  C   UNL     1      32.245  17.633  16.277  1.00  0.00     0.004 C 
ENDBRANCH   2   3
ENDBRANCH   1   2
BRANCH   1   5
ATOM      5  C   UNL     1      34.172  21.522  16.491  1.00  0.00     0.080 C 
BRANCH   5   6
ATOM      6  C   UNL     1      34.083  21.512  17.991  1.00  0.00     0.155 C 
ATOM      7  O   UNL     1      34.839  22.269  18.658  1.00  0.00    -0.295 OA
BRANCH   6   8
ATOM      8  C   UNL     1      33.097  20.648  18.672  1.00  0.00     0.039 C 
ATOM      9  C   UNL     1      31.791  20.729  18.430  1.00  0.00     0.012 C 
ENDBRANCH   6   8
ENDBRANCH   5   6
ENDBRANCH   1   5
TORSDOF 5
ENDMDL
MODEL 7
REMARK VINA RESULT:    -4.354      1.177      1.706
REMARK INTER + INTRA:          -6.046
REMARK INTER:                  -5.566
REMARK INTRA:                  -0.480
REMARK UNBOUND:                -0.420
REMARK SMILES C=CC(=O)CCCCC
REMARK SMILES IDX 6 1 7 2 8 3 9 4 5 5 3 6 4 7 2 8 1 9
REMARK H PARENT
REMARK Flexibility Score: inf
ROOT
ATOM      1  C   UNL     1      33.759  18.536  17.256  1.00  0.00     0.008 C 
ENDROOT
BRANCH   1   2
ATOM      2  C   UNL     1      32.246  18.540  17.525  1.00  0.00     0.000 C 
BRANCH   2   3
ATOM      3  C   UNL     1      31.945  19.005  18.954  1.00  0.00    -0.003 C 
ATOM      4  C   UNL     1      31.594  20.489  18.989  1.00  0.00     0.004 C 
ENDBRANCH   2   3
ENDBRANCH   1   2
BRANCH   1   5
ATOM      5  C   UNL     1      34.111  19.173  15.905  1.00  0.00     0.080 C 
BRANCH   5   6
ATOM      6  C   UNL     1      33.892  20.660  15.912  1.00  0.00     0.155 C 
ATOM      7  O   UNL     1      32.843  21.129  15.392  1.00  0.00    -0.295 OA
BRANCH   6   8
ATOM      8  C   UNL     1      34.879  21.554  16.551  1.00  0.00     0.039 C 
ATOM      9  C   UNL     1      34.826  21.868  17.843  1.00  0.00     0.012 C 
ENDBRANCH   6   8
ENDBRANCH   5   6
ENDBRANCH   1   5
TORSDOF 5
ENDMDL
MODEL 8
REMARK VINA RESULT:    -4.339      2.384      3.669
REMARK INTER + INTRA:          -6.027
REMARK INTER:                  -5.468
REMARK INTRA:                  -0.559
REMARK UNBOUND:                -0.420
REMARK SMILES C=CC(=O)CCCCC
REMARK SMILES IDX 6 1 7 2 8 3 9 4 5 5 3 6 4 7 2 8 1 9
REMARK H PARENT
REMARK Flexibility Score: inf
ROOT
ATOM      1  C   UNL     1      34.280  21.811  16.988  1.00  0.00     0.008 C 
ENDROOT
BRANCH   1   2
ATOM      2  C   UNL     1      35.127  20.749  16.269  1.00  0.00     0.000 C 
BRANCH   2   3
ATOM      3  C   UNL     1      34.236  19.729  15.553  1.00  0.00    -0.003 C 
ATOM      4  C   UNL     1      32.992  20.395  14.972  1.00  0.00     0.004 C 
ENDBRANCH   2   3
ENDBRANCH   1   2
BRANCH   1   5
ATOM      5  C   UNL     1      34.590  21.884  18.489  1.00  0.00     0.080 C 
BRANCH   5   6
ATOM      6  C   UNL     1      33.508  21.247  19.316  1.00  0.00     0.155 C 
ATOM      7  O   UNL     1      33.662  21.153  20.564  1.00  0.00    -0.295 OA
BRANCH   6   8
ATOM      8  C   UNL     1      32.267  20.768  18.674  1.00  0.00     0.039 C 
ATOM      9  C   UNL     1      31.857  19.505  18.769  1.00  0.00     0.012 C 
ENDBRANCH   6   8
ENDBRANCH   5   6
ENDBRANCH   1   5
TORSDOF 5
ENDMDL
MODEL 9
REMARK VINA RESULT:    -4.324      2.093      2.751
REMARK INTER + INTRA:          -6.008
REMARK INTER:                  -5.574
REMARK INTRA:                  -0.434
REMARK UNBOUND:                -0.420
REMARK SMILES C=CC(=O)CCCCC
REMARK SMILES IDX 6 1 7 2 8 3 9 4 5 5 3 6 4 7 2 8 1 9
REMARK H PARENT
REMARK Flexibility Score: inf
ROOT
ATOM      1  C   UNL     1      32.188  19.238  18.637  1.00  0.00     0.008 C 
ENDROOT
BRANCH   1   2
ATOM      2  C   UNL     1      33.175  18.467  17.747  1.00  0.00     0.000 C 
BRANCH   2   3
ATOM      3  C   UNL     1      32.680  18.412  16.298  1.00  0.00    -0.003 C 
ATOM      4  C   UNL     1      31.614  17.334  16.120  1.00  0.00     0.004 C 
ENDBRANCH   2   3
ENDBRANCH   1   2
BRANCH   1   5
ATOM      5  C   UNL     1      32.285  20.756  18.434  1.00  0.00     0.080 C 
BRANCH   5   6
ATOM      6  C   UNL     1      33.517  21.329  19.077  1.00  0.00     0.155 C 
ATOM      7  O   UNL     1      33.605  21.342  20.335  1.00  0.00    -0.295 OA
BRANCH   6   8
ATOM      8  C   UNL     1      34.622  21.841  18.242  1.00  0.00     0.039 C 
ATOM      9  C   UNL     1      34.560  21.864  16.913  1.00  0.00     0.012 C 
ENDBRANCH   6   8
ENDBRANCH   5   6
ENDBRANCH   1   5
TORSDOF 5
ENDMDL
