MODEL 1
REMARK VINA RESULT:    -5.757      0.000      0.000
REMARK INTER + INTRA:          -8.734
REMARK INTER:                  -7.777
REMARK INTRA:                  -0.957
REMARK UNBOUND:                -0.957
REMARK SMILES CC(=O)CCC=C(C)CCC=C(C)C
REMARK SMILES IDX 7 1 6 2 8 3 9 4 10 5 11 6 13 7 12 8 14 9 5 10 4 11 2 12 3 13
REMARK SMILES IDX 1 14
REMARK H PARENT
REMARK Flexibility Score: inf
ROOT
ATOM      1  C   UNL     1      19.666 204.462  15.836  1.00  0.00    -0.077 C 
ATOM      2  C   UNL     1      19.242 205.369  14.925  1.00  0.00    -0.028 C 
ATOM      3  C   UNL     1      18.653 203.874  16.784  1.00  0.00     0.039 C 
ENDROOT
BRANCH   1   4
ATOM      4  C   UNL     1      21.094 203.957  15.897  1.00  0.00     0.034 C 
BRANCH   4   5
ATOM      5  C   UNL     1      21.286 202.771  14.945  1.00  0.00     0.032 C 
BRANCH   5   6
ATOM      6  C   UNL     1      20.818 201.489  15.586  1.00  0.00    -0.028 C 
ATOM      7  C   UNL     1      19.464 199.456  15.850  1.00  0.00     0.039 C 
ATOM      8  C   UNL     1      19.857 200.687  15.076  1.00  0.00    -0.080 C 
ATOM      9  C   UNL     1      19.186 200.982  13.755  1.00  0.00     0.039 C 
ENDBRANCH   5   6
ENDBRANCH   4   5
ENDBRANCH   1   4
BRANCH   2  10
ATOM     10  C   UNL     1      20.127 206.056  13.914  1.00  0.00     0.035 C 
BRANCH  10  11
ATOM     11  C   UNL     1      20.786 207.318  14.489  1.00  0.00     0.079 C 
BRANCH  11  12
ATOM     12  C   UNL     1      22.271 207.135  14.679  1.00  0.00     0.130 C 
ATOM     13  O   UNL     1      22.792 207.485  15.727  1.00  0.00    -0.300 OA
ATOM     14  C   UNL     1      23.124 206.518  13.611  1.00  0.00     0.087 C 
ENDBRANCH  11  12
ENDBRANCH  10  11
ENDBRANCH   2  10
TORSDOF 6
ENDMDL
MODEL 2
REMARK VINA RESULT:    -5.584      2.511      5.596
REMARK INTER + INTRA:          -8.500
REMARK INTER:                  -7.541
REMARK INTRA:                  -0.959
REMARK UNBOUND:                -0.957
REMARK SMILES CC(=O)CCC=C(C)CCC=C(C)C
REMARK SMILES IDX 7 1 6 2 8 3 9 4 10 5 11 6 13 7 12 8 14 9 5 10 4 11 2 12 3 13
REMARK SMILES IDX 1 14
REMARK H PARENT
REMARK Flexibility Score: inf
ROOT
ATOM      1  C   UNL     1      19.945 205.794  16.321  1.00  0.00    -0.077 C 
ATOM      2  C   UNL     1      18.918 204.915  16.393  1.00  0.00    -0.028 C 
ATOM      3  C   UNL     1      19.656 207.251  16.567  1.00  0.00     0.039 C 
ENDROOT
BRANCH   1   4
ATOM      4  C   UNL     1      21.380 205.370  16.080  1.00  0.00     0.034 C 
BRANCH   4   5
ATOM      5  C   UNL     1      21.687 205.335  14.579  1.00  0.00     0.032 C 
BRANCH   5   6
ATOM      6  C   UNL     1      22.446 206.569  14.159  1.00  0.00    -0.028 C 
ATOM      7  C   UNL     1      22.825 208.714  13.022  1.00  0.00     0.039 C 
ATOM      8  C   UNL     1      21.932 207.560  13.397  1.00  0.00    -0.080 C 
ATOM      9  C   UNL     1      20.495 207.548  12.932  1.00  0.00     0.039 C 
ENDBRANCH   5   6
ENDBRANCH   4   5
ENDBRANCH   1   4
BRANCH   2  10
ATOM     10  C   UNL     1      19.037 203.427  16.166  1.00  0.00     0.035 C 
BRANCH  10  11
ATOM     11  C   UNL     1      18.835 203.052  14.691  1.00  0.00     0.079 C 
BRANCH  11  12
ATOM     12  C   UNL     1      19.355 201.668  14.392  1.00  0.00     0.130 C 
ATOM     13  O   UNL     1      19.261 201.221  13.259  1.00  0.00    -0.300 OA
ATOM     14  C   UNL     1      20.000 200.830  15.455  1.00  0.00     0.087 C 
ENDBRANCH  11  12
ENDBRANCH  10  11
ENDBRANCH   2  10
TORSDOF 6
ENDMDL
MODEL 3
REMARK VINA RESULT:    -5.562      2.709      5.843
REMARK INTER + INTRA:          -8.470
REMARK INTER:                  -7.832
REMARK INTRA:                  -0.638
REMARK UNBOUND:                -0.957
REMARK SMILES CC(=O)CCC=C(C)CCC=C(C)C
REMARK SMILES IDX 7 1 6 2 8 3 9 4 10 5 11 6 13 7 12 8 14 9 5 10 4 11 2 12 3 13
REMARK SMILES IDX 1 14
REMARK H PARENT
REMARK Flexibility Score: inf
ROOT
ATOM      1  C   UNL     1      19.856 205.763  16.017  1.00  0.00    -0.077 C 
ATOM      2  C   UNL     1      19.003 204.724  16.177  1.00  0.00    -0.028 C 
ATOM      3  C   UNL     1      19.769 206.914  16.984  1.00  0.00     0.039 C 
ENDROOT
BRANCH   1   4
ATOM      4  C   UNL     1      20.941 205.786  14.959  1.00  0.00     0.034 C 
BRANCH   4   5
ATOM      5  C   UNL     1      20.751 206.981  14.019  1.00  0.00     0.032 C 
BRANCH   5   6
ATOM      6  C   UNL     1      19.649 206.711  13.025  1.00  0.00    -0.028 C 
ATOM      7  C   UNL     1      18.152 207.162  11.130  1.00  0.00     0.039 C 
ATOM      8  C   UNL     1      19.304 207.548  12.022  1.00  0.00    -0.080 C 
ATOM      9  C   UNL     1      20.047 208.838  11.764  1.00  0.00     0.039 C 
ENDBRANCH   5   6
ENDBRANCH   4   5
ENDBRANCH   1   4
BRANCH   2  10
ATOM     10  C   UNL     1      18.955 203.502  15.292  1.00  0.00     0.035 C 
BRANCH  10  11
ATOM     11  C   UNL     1      19.756 202.332  15.880  1.00  0.00     0.079 C 
BRANCH  11  12
ATOM     12  C   UNL     1      19.586 201.075  15.065  1.00  0.00     0.130 C 
ATOM     13  O   UNL     1      19.228 201.154  13.900  1.00  0.00    -0.300 OA
ATOM     14  C   UNL     1      19.862 199.722  15.652  1.00  0.00     0.087 C 
ENDBRANCH  11  12
ENDBRANCH  10  11
ENDBRANCH   2  10
TORSDOF 6
ENDMDL
MODEL 4
REMARK VINA RESULT:    -5.524      1.014      1.462
REMARK INTER + INTRA:          -8.418
REMARK INTER:                  -7.545
REMARK INTRA:                  -0.874
REMARK UNBOUND:                -0.957
REMARK SMILES CC(=O)CCC=C(C)CCC=C(C)C
REMARK SMILES IDX 7 1 6 2 8 3 9 4 10 5 11 6 13 7 12 8 14 9 5 10 4 11 2 12 3 13
REMARK SMILES IDX 1 14
REMARK H PARENT
REMARK Flexibility Score: inf
ROOT
ATOM      1  C   UNL     1      19.471 204.964  14.992  1.00  0.00    -0.077 C 
ATOM      2  C   UNL     1      19.928 206.234  15.086  1.00  0.00    -0.028 C 
ATOM      3  C   UNL     1      18.776 204.547  13.722  1.00  0.00     0.039 C 
ENDROOT
BRANCH   1   4
ATOM      4  C   UNL     1      19.692 203.923  16.072  1.00  0.00     0.034 C 
BRANCH   4   5
ATOM      5  C   UNL     1      20.737 202.896  15.624  1.00  0.00     0.032 C 
BRANCH   5   6
ATOM      6  C   UNL     1      20.373 201.516  16.110  1.00  0.00    -0.028 C 
ATOM      7  C   UNL     1      19.377 199.272  16.008  1.00  0.00     0.039 C 
ATOM      8  C   UNL     1      19.708 200.597  15.373  1.00  0.00    -0.080 C 
ATOM      9  C   UNL     1      19.309 200.859  13.940  1.00  0.00     0.039 C 
ENDBRANCH   5   6
ENDBRANCH   4   5
ENDBRANCH   1   4
BRANCH   2  10
ATOM     10  C   UNL     1      20.635 206.811  16.289  1.00  0.00     0.035 C 
BRANCH  10  11
ATOM     11  C   UNL     1      22.161 206.787  16.127  1.00  0.00     0.079 C 
BRANCH  11  12
ATOM     12  C   UNL     1      22.606 207.568  14.916  1.00  0.00     0.130 C 
ATOM     13  O   UNL     1      22.466 208.781  14.896  1.00  0.00    -0.300 OA
ATOM     14  C   UNL     1      23.232 206.887  13.735  1.00  0.00     0.087 C 
ENDBRANCH  11  12
ENDBRANCH  10  11
ENDBRANCH   2  10
TORSDOF 6
ENDMDL
MODEL 5
REMARK VINA RESULT:    -5.482      0.922      1.418
REMARK INTER + INTRA:          -8.361
REMARK INTER:                  -7.621
REMARK INTRA:                  -0.740
REMARK UNBOUND:                -0.957
REMARK SMILES CC(=O)CCC=C(C)CCC=C(C)C
REMARK SMILES IDX 7 1 6 2 8 3 9 4 10 5 11 6 13 7 12 8 14 9 5 10 4 11 2 12 3 13
REMARK SMILES IDX 1 14
REMARK H PARENT
REMARK Flexibility Score: inf
ROOT
ATOM      1  C   UNL     1      19.031 204.566  15.349  1.00  0.00    -0.077 C 
ATOM      2  C   UNL     1      19.673 205.747  15.198  1.00  0.00    -0.028 C 
ATOM      3  C   UNL     1      18.579 204.169  16.730  1.00  0.00     0.039 C 
ENDROOT
BRANCH   1   4
ATOM      4  C   UNL     1      18.678 203.662  14.184  1.00  0.00     0.034 C 
BRANCH   4   5
ATOM      5  C   UNL     1      19.797 202.645  13.933  1.00  0.00     0.032 C 
BRANCH   5   6
ATOM      6  C   UNL     1      19.405 201.281  14.444  1.00  0.00    -0.028 C 
ATOM      7  C   UNL     1      19.409 199.347  15.958  1.00  0.00     0.039 C 
ATOM      8  C   UNL     1      19.856 200.739  15.597  1.00  0.00    -0.080 C 
ATOM      9  C   UNL     1      20.774 201.494  16.530  1.00  0.00     0.039 C 
ENDBRANCH   5   6
ENDBRANCH   4   5
ENDBRANCH   1   4
BRANCH   2  10
ATOM     10  C   UNL     1      20.196 206.285  13.888  1.00  0.00     0.035 C 
BRANCH  10  11
ATOM     11  C   UNL     1      21.027 207.561  14.079  1.00  0.00     0.079 C 
BRANCH  11  12
ATOM     12  C   UNL     1      22.448 207.248  14.475  1.00  0.00     0.130 C 
ATOM     13  O   UNL     1      22.768 207.286  15.654  1.00  0.00    -0.300 OA
ATOM     14  C   UNL     1      23.479 206.876  13.452  1.00  0.00     0.087 C 
ENDBRANCH  11  12
ENDBRANCH  10  11
ENDBRANCH   2  10
TORSDOF 6
ENDMDL
MODEL 6
REMARK VINA RESULT:    -5.403      2.085      5.836
REMARK INTER + INTRA:          -8.255
REMARK INTER:                  -7.446
REMARK INTRA:                  -0.809
REMARK UNBOUND:                -0.957
REMARK SMILES CC(=O)CCC=C(C)CCC=C(C)C
REMARK SMILES IDX 7 1 6 2 8 3 9 4 10 5 11 6 13 7 12 8 14 9 5 10 4 11 2 12 3 13
REMARK SMILES IDX 1 14
REMARK H PARENT
REMARK Flexibility Score: inf
ROOT
ATOM      1  C   UNL     1      19.624 205.838  14.250  1.00  0.00    -0.077 C 
ATOM      2  C   UNL     1      19.130 204.599  14.026  1.00  0.00    -0.028 C 
ATOM      3  C   UNL     1      19.701 206.798  13.092  1.00  0.00     0.039 C 
ENDROOT
BRANCH   1   4
ATOM      4  C   UNL     1      20.030 206.330  15.625  1.00  0.00     0.034 C 
BRANCH   4   5
ATOM      5  C   UNL     1      21.522 206.078  15.868  1.00  0.00     0.032 C 
BRANCH   5   6
ATOM      6  C   UNL     1      22.319 207.341  15.661  1.00  0.00    -0.028 C 
ATOM      7  C   UNL     1      23.914 208.856  14.565  1.00  0.00     0.039 C 
ATOM      8  C   UNL     1      23.150 207.558  14.617  1.00  0.00    -0.080 C 
ATOM      9  C   UNL     1      23.315 206.550  13.504  1.00  0.00     0.039 C 
ENDBRANCH   5   6
ENDBRANCH   4   5
ENDBRANCH   1   4
BRANCH   2  10
ATOM     10  C   UNL     1      18.994 203.520  15.073  1.00  0.00     0.035 C 
BRANCH  10  11
ATOM     11  C   UNL     1      19.532 202.169  14.582  1.00  0.00     0.079 C 
BRANCH  11  12
ATOM     12  C   UNL     1      19.983 201.299  15.728  1.00  0.00     0.130 C 
ATOM     13  O   UNL     1      20.500 201.813  16.709  1.00  0.00    -0.300 OA
ATOM     14  C   UNL     1      19.799 199.811  15.697  1.00  0.00     0.087 C 
ENDBRANCH  11  12
ENDBRANCH  10  11
ENDBRANCH   2  10
TORSDOF 6
ENDMDL
MODEL 7
REMARK VINA RESULT:    -5.369      2.802      5.892
REMARK INTER + INTRA:          -8.209
REMARK INTER:                  -7.363
REMARK INTRA:                  -0.846
REMARK UNBOUND:                -0.957
REMARK SMILES CC(=O)CCC=C(C)CCC=C(C)C
REMARK SMILES IDX 7 1 6 2 8 3 9 4 10 5 11 6 13 7 12 8 14 9 5 10 4 11 2 12 3 13
REMARK SMILES IDX 1 14
REMARK H PARENT
REMARK Flexibility Score: inf
ROOT
ATOM      1  C   UNL     1      21.970 206.481  14.245  1.00  0.00    -0.077 C 
ATOM      2  C   UNL     1      21.522 205.271  14.654  1.00  0.00    -0.028 C 
ATOM      3  C   UNL     1      23.283 206.547  13.510  1.00  0.00     0.039 C 
ENDROOT
BRANCH   1   4
ATOM      4  C   UNL     1      21.177 207.761  14.426  1.00  0.00     0.034 C 
BRANCH   4   5
ATOM      5  C   UNL     1      20.648 208.261  13.077  1.00  0.00     0.032 C 
BRANCH   5   6
ATOM      6  C   UNL     1      19.531 207.377  12.580  1.00  0.00    -0.028 C 
ATOM      7  C   UNL     1      17.788 206.587  11.038  1.00  0.00     0.039 C 
ATOM      8  C   UNL     1      18.919 207.521  11.383  1.00  0.00    -0.080 C 
ATOM      9  C   UNL     1      19.347 208.573  10.387  1.00  0.00     0.039 C 
ENDBRANCH   5   6
ENDBRANCH   4   5
ENDBRANCH   1   4
BRANCH   2  10
ATOM     10  C   UNL     1      20.236 205.036  15.407  1.00  0.00     0.035 C 
BRANCH  10  11
ATOM     11  C   UNL     1      19.205 204.273  14.564  1.00  0.00     0.079 C 
BRANCH  11  12
ATOM     12  C   UNL     1      19.304 202.783  14.774  1.00  0.00     0.130 C 
ATOM     13  O   UNL     1      19.030 202.025  13.857  1.00  0.00    -0.300 OA
ATOM     14  C   UNL     1      19.746 202.209  16.087  1.00  0.00     0.087 C 
ENDBRANCH  11  12
ENDBRANCH  10  11
ENDBRANCH   2  10
TORSDOF 6
ENDMDL
MODEL 8
REMARK VINA RESULT:    -5.305      2.744      6.287
REMARK INTER + INTRA:          -8.122
REMARK INTER:                  -7.411
REMARK INTRA:                  -0.711
REMARK UNBOUND:                -0.957
REMARK SMILES CC(=O)CCC=C(C)CCC=C(C)C
REMARK SMILES IDX 7 1 6 2 8 3 9 4 10 5 11 6 13 7 12 8 14 9 5 10 4 11 2 12 3 13
REMARK SMILES IDX 1 14
REMARK H PARENT
REMARK Flexibility Score: inf
ROOT
ATOM      1  C   UNL     1      19.356 203.562  15.874  1.00  0.00    -0.077 C 
ATOM      2  C   UNL     1      19.720 202.358  16.373  1.00  0.00    -0.028 C 
ATOM      3  C   UNL     1      18.584 204.500  16.764  1.00  0.00     0.039 C 
ENDROOT
BRANCH   1   4
ATOM      4  C   UNL     1      19.755 204.039  14.492  1.00  0.00     0.034 C 
BRANCH   4   5
ATOM      5  C   UNL     1      19.749 205.570  14.428  1.00  0.00     0.032 C 
BRANCH   5   6
ATOM      6  C   UNL     1      21.032 206.086  13.826  1.00  0.00    -0.028 C 
ATOM      7  C   UNL     1      23.259 207.124  13.796  1.00  0.00     0.039 C 
ATOM      8  C   UNL     1      22.054 206.611  14.539  1.00  0.00    -0.080 C 
ATOM      9  C   UNL     1      22.023 206.680  16.048  1.00  0.00     0.039 C 
ENDBRANCH   5   6
ENDBRANCH   4   5
ENDBRANCH   1   4
BRANCH   2  10
ATOM     10  C   UNL     1      20.486 201.303  15.611  1.00  0.00     0.035 C 
BRANCH  10  11
ATOM     11  C   UNL     1      19.570 200.184  15.097  1.00  0.00     0.079 C 
BRANCH  11  12
ATOM     12  C   UNL     1      19.699 198.931  15.926  1.00  0.00     0.130 C 
ATOM     13  O   UNL     1      20.681 198.217  15.790  1.00  0.00    -0.300 OA
ATOM     14  C   UNL     1      18.652 198.548  16.929  1.00  0.00     0.087 C 
ENDBRANCH  11  12
ENDBRANCH  10  11
ENDBRANCH   2  10
TORSDOF 6
ENDMDL
MODEL 9
REMARK VINA RESULT:    -5.194      1.799      2.612
REMARK INTER + INTRA:          -7.973
REMARK INTER:                  -7.235
REMARK INTRA:                  -0.738
REMARK UNBOUND:                -0.957
REMARK SMILES CC(=O)CCC=C(C)CCC=C(C)C
REMARK SMILES IDX 7 1 6 2 8 3 9 4 10 5 11 6 13 7 12 8 14 9 5 10 4 11 2 12 3 13
REMARK SMILES IDX 1 14
REMARK H PARENT
REMARK Flexibility Score: inf
ROOT
ATOM      1  C   UNL     1      21.636 204.378  14.847  1.00  0.00    -0.077 C 
ATOM      2  C   UNL     1      21.803 205.502  14.112  1.00  0.00    -0.028 C 
ATOM      3  C   UNL     1      22.448 203.162  14.487  1.00  0.00     0.039 C 
ENDROOT
BRANCH   1   4
ATOM      4  C   UNL     1      20.727 204.309  16.058  1.00  0.00     0.034 C 
BRANCH   4   5
ATOM      5  C   UNL     1      19.467 203.497  15.741  1.00  0.00     0.032 C 
BRANCH   5   6
ATOM      6  C   UNL     1      19.675 202.038  16.061  1.00  0.00    -0.028 C 
ATOM      7  C   UNL     1      19.764 199.620  15.636  1.00  0.00     0.039 C 
ATOM      8  C   UNL     1      19.568 201.036  15.161  1.00  0.00    -0.080 C 
ATOM      9  C   UNL     1      19.278 201.299  13.702  1.00  0.00     0.039 C 
ENDBRANCH   5   6
ENDBRANCH   4   5
ENDBRANCH   1   4
BRANCH   2  10
ATOM     10  C   UNL     1      21.062 206.798  14.336  1.00  0.00     0.035 C 
BRANCH  10  11
ATOM     11  C   UNL     1      19.779 206.881  13.497  1.00  0.00     0.079 C 
BRANCH  11  12
ATOM     12  C   UNL     1      19.927 207.845  12.346  1.00  0.00     0.130 C 
ATOM     13  O   UNL     1      20.787 208.711  12.391  1.00  0.00    -0.300 OA
ATOM     14  C   UNL     1      19.046 207.755  11.136  1.00  0.00     0.087 C 
ENDBRANCH  11  12
ENDBRANCH  10  11
ENDBRANCH   2  10
TORSDOF 6
ENDMDL
