MODEL 1
REMARK VINA RESULT:    -5.300      0.000      0.000
REMARK INTER + INTRA:          -8.660
REMARK INTER:                  -8.089
REMARK INTRA:                  -0.571
REMARK UNBOUND:                -0.571
REMARK SMILES CCCCCCCCCCC(=O)[O-]
REMARK SMILES IDX 7 1 8 2 9 3 10 4 11 5 12 6 13 7 6 8 5 9 4 10 3 11 2 12 1 13
REMARK H PARENT
REMARK Flexibility Score: inf
ROOT
ATOM      1  C   UNL     1     -11.490  -0.222 -10.514  1.00  0.00     0.000 C 
ENDROOT
BRANCH   1   2
ATOM      2  C   UNL     1     -10.655  -0.615  -9.286  1.00  0.00     0.000 C 
BRANCH   2   3
ATOM      3  C   UNL     1     -10.503  -2.136  -9.136  1.00  0.00     0.006 C 
BRANCH   3   4
ATOM      4  C   UNL     1      -9.617  -2.526  -7.945  1.00  0.00     0.053 C 
BRANCH   4   5
ATOM      5  C   UNL     1      -9.340  -3.997  -7.961  1.00  0.00     0.041 C 
ATOM      6  O   UNL     1      -8.407  -4.458  -8.669  1.00  0.00    -0.550 OA
ATOM      7  O   UNL     1     -10.082  -4.852  -7.156  1.00  0.00    -0.550 OA
ENDBRANCH   4   5
ENDBRANCH   3   4
ENDBRANCH   2   3
ENDBRANCH   1   2
BRANCH   1   8
ATOM      8  C   UNL     1     -12.802  -1.017 -10.562  1.00  0.00     0.000 C 
BRANCH   8   9
ATOM      9  C   UNL     1     -14.014  -0.076 -10.622  1.00  0.00    -0.000 C 
BRANCH   9  10
ATOM     10  C   UNL     1     -14.113   0.851  -9.397  1.00  0.00    -0.000 C 
BRANCH  10  11
ATOM     11  C   UNL     1     -14.038   2.359  -9.709  1.00  0.00    -0.000 C 
BRANCH  11  12
ATOM     12  C   UNL     1     -12.758   3.060  -9.222  1.00  0.00    -0.003 C 
ATOM     13  C   UNL     1     -13.041   4.221  -8.270  1.00  0.00     0.004 C 
ENDBRANCH  11  12
ENDBRANCH  10  11
ENDBRANCH   9  10
ENDBRANCH   8   9
ENDBRANCH   1   8
TORSDOF 9
ENDMDL
MODEL 2
REMARK VINA RESULT:    -5.110      0.918      1.704
REMARK INTER + INTRA:          -8.370
REMARK INTER:                  -7.874
REMARK INTRA:                  -0.495
REMARK UNBOUND:                -0.571
REMARK SMILES CCCCCCCCCCC(=O)[O-]
REMARK SMILES IDX 7 1 8 2 9 3 10 4 11 5 12 6 13 7 6 8 5 9 4 10 3 11 2 12 1 13
REMARK H PARENT
REMARK Flexibility Score: inf
ROOT
ATOM      1  C   UNL     1     -10.577  -0.714  -9.225  1.00  0.00     0.000 C 
ENDROOT
BRANCH   1   2
ATOM      2  C   UNL     1     -10.238  -2.212  -9.231  1.00  0.00     0.000 C 
BRANCH   2   3
ATOM      3  C   UNL     1      -9.687  -2.699  -7.882  1.00  0.00     0.006 C 
BRANCH   3   4
ATOM      4  C   UNL     1      -8.779  -3.928  -8.024  1.00  0.00     0.053 C 
BRANCH   4   5
ATOM      5  C   UNL     1      -9.591  -5.185  -7.979  1.00  0.00     0.041 C 
ATOM      6  O   UNL     1     -10.240  -5.556  -8.991  1.00  0.00    -0.550 OA
ATOM      7  O   UNL     1      -9.592  -5.971  -6.834  1.00  0.00    -0.550 OA
ENDBRANCH   4   5
ENDBRANCH   3   4
ENDBRANCH   2   3
ENDBRANCH   1   2
BRANCH   1   8
ATOM      8  C   UNL     1     -11.379  -0.328 -10.474  1.00  0.00     0.000 C 
BRANCH   8   9
ATOM      9  C   UNL     1     -12.659  -1.168 -10.588  1.00  0.00    -0.000 C 
BRANCH   9  10
ATOM     10  C   UNL     1     -13.929  -0.308 -10.716  1.00  0.00    -0.000 C 
BRANCH  10  11
ATOM     11  C   UNL     1     -14.289   0.517  -9.464  1.00  0.00    -0.000 C 
BRANCH  11  12
ATOM     12  C   UNL     1     -14.275   2.042  -9.666  1.00  0.00    -0.003 C 
ATOM     13  C   UNL     1     -12.917   2.671  -9.355  1.00  0.00     0.004 C 
ENDBRANCH  11  12
ENDBRANCH  10  11
ENDBRANCH   9  10
ENDBRANCH   8   9
ENDBRANCH   1   8
TORSDOF 9
ENDMDL
MODEL 3
REMARK VINA RESULT:    -4.983      3.801      6.496
REMARK INTER + INTRA:          -8.176
REMARK INTER:                  -7.742
REMARK INTRA:                  -0.435
REMARK UNBOUND:                -0.571
REMARK SMILES CCCCCCCCCCC(=O)[O-]
REMARK SMILES IDX 7 1 8 2 9 3 10 4 11 5 12 6 13 7 6 8 5 9 4 10 3 11 2 12 1 13
REMARK H PARENT
REMARK Flexibility Score: inf
ROOT
ATOM      1  C   UNL     1     -12.665   0.135 -10.027  1.00  0.00     0.000 C 
ENDROOT
BRANCH   1   2
ATOM      2  C   UNL     1     -14.017   0.779  -9.688  1.00  0.00     0.000 C 
BRANCH   2   3
ATOM      3  C   UNL     1     -13.909   2.293  -9.449  1.00  0.00     0.006 C 
BRANCH   3   4
ATOM      4  C   UNL     1     -12.465   2.804  -9.551  1.00  0.00     0.053 C 
BRANCH   4   5
ATOM      5  C   UNL     1     -12.189   3.804  -8.472  1.00  0.00     0.041 C 
ATOM      6  O   UNL     1     -11.021   3.949  -8.026  1.00  0.00    -0.550 OA
ATOM      7  O   UNL     1     -13.214   4.611  -7.993  1.00  0.00    -0.550 OA
ENDBRANCH   4   5
ENDBRANCH   3   4
ENDBRANCH   2   3
ENDBRANCH   1   2
BRANCH   1   8
ATOM      8  C   UNL     1     -12.860  -1.200 -10.757  1.00  0.00     0.000 C 
BRANCH   8   9
ATOM      9  C   UNL     1     -12.046  -2.317 -10.087  1.00  0.00    -0.000 C 
BRANCH   9  10
ATOM     10  C   UNL     1     -10.654  -1.849  -9.626  1.00  0.00    -0.000 C 
BRANCH  10  11
ATOM     11  C   UNL     1      -9.598  -2.965  -9.500  1.00  0.00    -0.000 C 
BRANCH  11  12
ATOM     12  C   UNL     1     -10.070  -4.225  -8.754  1.00  0.00    -0.003 C 
ATOM     13  C   UNL     1     -10.041  -4.062  -7.234  1.00  0.00     0.004 C 
ENDBRANCH  11  12
ENDBRANCH  10  11
ENDBRANCH   9  10
ENDBRANCH   8   9
ENDBRANCH   1   8
TORSDOF 9
ENDMDL
MODEL 4
REMARK VINA RESULT:    -4.890      1.883      3.495
REMARK INTER + INTRA:          -8.034
REMARK INTER:                  -7.553
REMARK INTRA:                  -0.481
REMARK UNBOUND:                -0.571
REMARK SMILES CCCCCCCCCCC(=O)[O-]
REMARK SMILES IDX 7 1 8 2 9 3 10 4 11 5 12 6 13 7 6 8 5 9 4 10 3 11 2 12 1 13
REMARK H PARENT
REMARK Flexibility Score: inf
ROOT
ATOM      1  C   UNL     1      -9.284  -3.134  -9.691  1.00  0.00     0.000 C 
ENDROOT
BRANCH   1   2
ATOM      2  C   UNL     1      -8.806  -3.705  -8.348  1.00  0.00     0.000 C 
BRANCH   2   3
ATOM      3  C   UNL     1      -9.682  -4.866  -7.853  1.00  0.00     0.006 C 
BRANCH   3   4
ATOM      4  C   UNL     1     -10.255  -4.618  -6.451  1.00  0.00     0.053 C 
BRANCH   4   5
ATOM      5  C   UNL     1     -10.647  -5.913  -5.812  1.00  0.00     0.041 C 
ATOM      6  O   UNL     1     -11.689  -5.982  -5.108  1.00  0.00    -0.550 OA
ATOM      7  O   UNL     1      -9.888  -7.055  -6.033  1.00  0.00    -0.550 OA
ENDBRANCH   4   5
ENDBRANCH   3   4
ENDBRANCH   2   3
ENDBRANCH   1   2
BRANCH   1   8
ATOM      8  C   UNL     1     -10.669  -2.491  -9.552  1.00  0.00     0.000 C 
BRANCH   8   9
ATOM      9  C   UNL     1     -10.557  -0.964  -9.427  1.00  0.00    -0.000 C 
BRANCH   9  10
ATOM     10  C   UNL     1     -11.535  -0.215 -10.349  1.00  0.00    -0.000 C 
BRANCH  10  11
ATOM     11  C   UNL     1     -12.798  -1.006 -10.745  1.00  0.00    -0.000 C 
BRANCH  11  12
ATOM     12  C   UNL     1     -14.130  -0.314 -10.405  1.00  0.00    -0.003 C 
ATOM     13  C   UNL     1     -13.941   1.041  -9.724  1.00  0.00     0.004 C 
ENDBRANCH  11  12
ENDBRANCH  10  11
ENDBRANCH   9  10
ENDBRANCH   8   9
ENDBRANCH   1   8
TORSDOF 9
ENDMDL
MODEL 5
REMARK VINA RESULT:    -4.627      3.809      6.740
REMARK INTER + INTRA:          -7.633
REMARK INTER:                  -7.164
REMARK INTRA:                  -0.469
REMARK UNBOUND:                -0.571
REMARK SMILES CCCCCCCCCCC(=O)[O-]
REMARK SMILES IDX 7 1 8 2 9 3 10 4 11 5 12 6 13 7 6 8 5 9 4 10 3 11 2 12 1 13
REMARK H PARENT
REMARK Flexibility Score: inf
ROOT
ATOM      1  C   UNL     1     -10.658  -0.845  -9.957  1.00  0.00     0.000 C 
ENDROOT
BRANCH   1   2
ATOM      2  C   UNL     1     -12.088  -1.076 -10.467  1.00  0.00     0.000 C 
BRANCH   2   3
ATOM      3  C   UNL     1     -13.061   0.026 -10.020  1.00  0.00     0.006 C 
BRANCH   3   4
ATOM      4  C   UNL     1     -12.341   1.313  -9.594  1.00  0.00     0.053 C 
BRANCH   4   5
ATOM      5  C   UNL     1     -13.332   2.403  -9.331  1.00  0.00     0.041 C 
ATOM      6  O   UNL     1     -12.955   3.494  -8.830  1.00  0.00    -0.550 OA
ATOM      7  O   UNL     1     -14.664   2.230  -9.684  1.00  0.00    -0.550 OA
ENDBRANCH   4   5
ENDBRANCH   3   4
ENDBRANCH   2   3
ENDBRANCH   1   2
BRANCH   1   8
ATOM      8  C   UNL     1     -10.228  -1.966  -9.003  1.00  0.00     0.000 C 
BRANCH   8   9
ATOM      9  C   UNL     1     -10.605  -3.343  -9.566  1.00  0.00    -0.000 C 
BRANCH   9  10
ATOM     10  C   UNL     1     -10.812  -4.403  -8.469  1.00  0.00    -0.000 C 
BRANCH  10  11
ATOM     11  C   UNL     1     -10.083  -4.120  -7.140  1.00  0.00    -0.000 C 
BRANCH  11  12
ATOM     12  C   UNL     1     -10.145  -5.261  -6.110  1.00  0.00    -0.003 C 
ATOM     13  C   UNL     1     -11.574  -5.621  -5.706  1.00  0.00     0.004 C 
ENDBRANCH  11  12
ENDBRANCH  10  11
ENDBRANCH   9  10
ENDBRANCH   8   9
ENDBRANCH   1   8
TORSDOF 9
ENDMDL
MODEL 6
REMARK VINA RESULT:    -4.500     17.102     18.455
REMARK INTER + INTRA:          -7.439
REMARK INTER:                  -6.634
REMARK INTRA:                  -0.806
REMARK UNBOUND:                -0.571
REMARK SMILES CCCCCCCCCCC(=O)[O-]
REMARK SMILES IDX 7 1 8 2 9 3 10 4 11 5 12 6 13 7 6 8 5 9 4 10 3 11 2 12 1 13
REMARK H PARENT
REMARK Flexibility Score: inf
ROOT
ATOM      1  C   UNL     1      -9.087   5.907   6.535  1.00  0.00     0.000 C 
ENDROOT
BRANCH   1   2
ATOM      2  C   UNL     1      -9.156   6.962   5.420  1.00  0.00     0.000 C 
BRANCH   2   3
ATOM      3  C   UNL     1      -8.905   8.387   5.938  1.00  0.00     0.006 C 
BRANCH   3   4
ATOM      4  C   UNL     1      -8.119   9.247   4.939  1.00  0.00     0.053 C 
BRANCH   4   5
ATOM      5  C   UNL     1      -7.301  10.270   5.663  1.00  0.00     0.041 C 
ATOM      6  O   UNL     1      -6.297   9.918   6.336  1.00  0.00    -0.550 OA
ATOM      7  O   UNL     1      -7.619  11.618   5.554  1.00  0.00    -0.550 OA
ENDBRANCH   4   5
ENDBRANCH   3   4
ENDBRANCH   2   3
ENDBRANCH   1   2
BRANCH   1   8
ATOM      8  C   UNL     1      -9.702   6.442   7.835  1.00  0.00     0.000 C 
BRANCH   8   9
ATOM      9  C   UNL     1     -10.070   5.292   8.783  1.00  0.00    -0.000 C 
BRANCH   9  10
ATOM     10  C   UNL     1     -10.635   4.065   8.045  1.00  0.00    -0.000 C 
BRANCH  10  11
ATOM     11  C   UNL     1     -12.124   4.163   7.657  1.00  0.00    -0.000 C 
BRANCH  11  12
ATOM     12  C   UNL     1     -12.390   4.424   6.164  1.00  0.00    -0.003 C 
ATOM     13  C   UNL     1     -12.899   5.839   5.889  1.00  0.00     0.004 C 
ENDBRANCH  11  12
ENDBRANCH  10  11
ENDBRANCH   9  10
ENDBRANCH   8   9
ENDBRANCH   1   8
TORSDOF 9
ENDMDL
MODEL 7
REMARK VINA RESULT:    -4.488     15.847     17.736
REMARK INTER + INTRA:          -7.420
REMARK INTER:                  -6.424
REMARK INTRA:                  -0.996
REMARK UNBOUND:                -0.571
REMARK SMILES CCCCCCCCCCC(=O)[O-]
REMARK SMILES IDX 7 1 8 2 9 3 10 4 11 5 12 6 13 7 6 8 5 9 4 10 3 11 2 12 1 13
REMARK H PARENT
REMARK Flexibility Score: inf
ROOT
ATOM      1  C   UNL     1      -9.670   6.291   7.905  1.00  0.00     0.000 C 
ENDROOT
BRANCH   1   2
ATOM      2  C   UNL     1      -9.129   5.776   6.563  1.00  0.00     0.000 C 
BRANCH   2   3
ATOM      3  C   UNL     1      -9.222   6.826   5.445  1.00  0.00     0.006 C 
BRANCH   3   4
ATOM      4  C   UNL     1      -9.525   8.233   5.980  1.00  0.00     0.053 C 
BRANCH   4   5
ATOM      5  C   UNL     1      -8.345   9.131   5.782  1.00  0.00     0.041 C 
ATOM      6  O   UNL     1      -8.130   9.656   4.658  1.00  0.00    -0.550 OA
ATOM      7  O   UNL     1      -7.509   9.427   6.851  1.00  0.00    -0.550 OA
ENDBRANCH   4   5
ENDBRANCH   3   4
ENDBRANCH   2   3
ENDBRANCH   1   2
BRANCH   1   8
ATOM      8  C   UNL     1     -10.633   5.276   8.534  1.00  0.00     0.000 C 
BRANCH   8   9
ATOM      9  C   UNL     1     -11.040   4.200   7.517  1.00  0.00    -0.000 C 
BRANCH   9  10
ATOM     10  C   UNL     1     -12.507   4.325   7.069  1.00  0.00    -0.000 C 
BRANCH  10  11
ATOM     11  C   UNL     1     -12.815   5.536   6.166  1.00  0.00    -0.000 C 
BRANCH  11  12
ATOM     12  C   UNL     1     -12.459   5.347   4.681  1.00  0.00    -0.003 C 
ATOM     13  C   UNL     1     -13.623   5.667   3.744  1.00  0.00     0.004 C 
ENDBRANCH  11  12
ENDBRANCH  10  11
ENDBRANCH   9  10
ENDBRANCH   8   9
ENDBRANCH   1   8
TORSDOF 9
ENDMDL
MODEL 8
REMARK VINA RESULT:    -4.465      4.097      7.065
REMARK INTER + INTRA:          -7.386
REMARK INTER:                  -6.334
REMARK INTRA:                  -1.052
REMARK UNBOUND:                -0.571
REMARK SMILES CCCCCCCCCCC(=O)[O-]
REMARK SMILES IDX 7 1 8 2 9 3 10 4 11 5 12 6 13 7 6 8 5 9 4 10 3 11 2 12 1 13
REMARK H PARENT
REMARK Flexibility Score: inf
ROOT
ATOM      1  C   UNL     1      -9.899  -6.110  -7.169  1.00  0.00     0.000 C 
ENDROOT
BRANCH   1   2
ATOM      2  C   UNL     1     -10.406  -6.022  -8.616  1.00  0.00     0.000 C 
BRANCH   2   3
ATOM      3  C   UNL     1     -11.061  -4.669  -8.932  1.00  0.00     0.006 C 
BRANCH   3   4
ATOM      4  C   UNL     1     -10.113  -3.711  -9.667  1.00  0.00     0.053 C 
BRANCH   4   5
ATOM      5  C   UNL     1     -10.155  -2.353  -9.041  1.00  0.00     0.041 C 
ATOM      6  O   UNL     1      -9.664  -2.168  -7.897  1.00  0.00    -0.550 OA
ATOM      7  O   UNL     1     -10.694  -1.281  -9.741  1.00  0.00    -0.550 OA
ENDBRANCH   4   5
ENDBRANCH   3   4
ENDBRANCH   2   3
ENDBRANCH   1   2
BRANCH   1   8
ATOM      8  C   UNL     1     -10.575  -5.053  -6.286  1.00  0.00     0.000 C 
BRANCH   8   9
ATOM      9  C   UNL     1     -11.334  -5.711  -5.125  1.00  0.00    -0.000 C 
BRANCH   9  10
ATOM     10  C   UNL     1     -11.591  -7.212  -5.351  1.00  0.00    -0.000 C 
BRANCH  10  11
ATOM     11  C   UNL     1     -13.067  -7.598  -5.568  1.00  0.00    -0.000 C 
BRANCH  11  12
ATOM     12  C   UNL     1     -13.992  -6.434  -5.966  1.00  0.00    -0.003 C 
ATOM     13  C   UNL     1     -14.109  -6.258  -7.479  1.00  0.00     0.004 C 
ENDBRANCH  11  12
ENDBRANCH  10  11
ENDBRANCH   9  10
ENDBRANCH   8   9
ENDBRANCH   1   8
TORSDOF 9
ENDMDL
MODEL 9
REMARK VINA RESULT:    -4.457     15.450     17.461
REMARK INTER + INTRA:          -7.374
REMARK INTER:                  -6.628
REMARK INTRA:                  -0.746
REMARK UNBOUND:                -0.571
REMARK SMILES CCCCCCCCCCC(=O)[O-]
REMARK SMILES IDX 7 1 8 2 9 3 10 4 11 5 12 6 13 7 6 8 5 9 4 10 3 11 2 12 1 13
REMARK H PARENT
REMARK Flexibility Score: inf
ROOT
ATOM      1  C   UNL     1     -10.666   4.255   7.324  1.00  0.00     0.000 C 
ENDROOT
BRANCH   1   2
ATOM      2  C   UNL     1     -12.200   4.195   7.338  1.00  0.00     0.000 C 
BRANCH   2   3
ATOM      3  C   UNL     1     -12.845   5.357   6.566  1.00  0.00     0.006 C 
BRANCH   3   4
ATOM      4  C   UNL     1     -12.319   5.475   5.129  1.00  0.00     0.053 C 
BRANCH   4   5
ATOM      5  C   UNL     1     -13.404   5.949   4.214  1.00  0.00     0.041 C 
ATOM      6  O   UNL     1     -13.600   5.373   3.112  1.00  0.00    -0.550 OA
ATOM      7  O   UNL     1     -14.230   6.997   4.601  1.00  0.00    -0.550 OA
ENDBRANCH   4   5
ENDBRANCH   3   4
ENDBRANCH   2   3
ENDBRANCH   1   2
BRANCH   1   8
ATOM      8  C   UNL     1     -10.139   5.088   8.500  1.00  0.00     0.000 C 
BRANCH   8   9
ATOM      9  C   UNL     1      -9.581   6.434   8.015  1.00  0.00    -0.000 C 
BRANCH   9  10
ATOM     10  C   UNL     1      -9.061   6.379   6.567  1.00  0.00    -0.000 C 
BRANCH  10  11
ATOM     11  C   UNL     1      -9.130   7.712   5.795  1.00  0.00    -0.000 C 
BRANCH  11  12
ATOM     12  C   UNL     1      -8.086   8.761   6.217  1.00  0.00    -0.003 C 
ATOM     13  C   UNL     1      -7.630   9.645   5.057  1.00  0.00     0.004 C 
ENDBRANCH  11  12
ENDBRANCH  10  11
ENDBRANCH   9  10
ENDBRANCH   8   9
ENDBRANCH   1   8
TORSDOF 9
ENDMDL
