MODEL 1
REMARK VINA RESULT:    -3.790      0.000      0.000
REMARK INTER + INTRA:          -4.029
REMARK INTER:                  -4.011
REMARK INTRA:                  -0.017
REMARK UNBOUND:                -0.017
REMARK SMILES O=C([O-])c1cccnc1
REMARK SMILES IDX 4 1 5 2 9 3 6 4 8 5 7 6 2 7 1 8 3 9
REMARK H PARENT
REMARK Flexibility Score: inf
ROOT
ATOM      1  C   UNL     1      18.137  18.593  66.860  1.00  0.00     0.016 A 
ATOM      2  C   UNL     1      17.854  17.217  66.853  1.00  0.00     0.013 A 
ATOM      3  C   UNL     1      17.367  19.437  66.042  1.00  0.00     0.120 A 
ATOM      4  C   UNL     1      16.830  16.715  66.046  1.00  0.00     0.021 A 
ATOM      5  N   UNL     1      16.376  18.922  65.264  1.00  0.00    -0.264 NA
ATOM      6  C   UNL     1      16.095  17.593  65.251  1.00  0.00     0.111 A 
ENDROOT
BRANCH   1   7
ATOM      7  C   UNL     1      19.216  19.144  67.707  1.00  0.00     0.073 C 
ATOM      8  O   UNL     1      20.199  19.737  67.187  1.00  0.00    -0.545 OA
ATOM      9  O   UNL     1      19.161  19.014  69.090  1.00  0.00    -0.545 OA
ENDBRANCH   1   7
TORSDOF 1
ENDMDL
MODEL 2
REMARK VINA RESULT:    -3.593     13.165     14.724
REMARK INTER + INTRA:          -3.820
REMARK INTER:                  -3.797
REMARK INTRA:                  -0.023
REMARK UNBOUND:                -0.017
REMARK SMILES O=C([O-])c1cccnc1
REMARK SMILES IDX 4 1 5 2 9 3 6 4 8 5 7 6 2 7 1 8 3 9
REMARK H PARENT
REMARK Flexibility Score: inf
ROOT
ATOM      1  C   UNL     1      31.119  21.094  70.685  1.00  0.00     0.016 A 
ATOM      2  C   UNL     1      32.035  21.794  71.489  1.00  0.00     0.013 A 
ATOM      3  C   UNL     1      31.446  19.788  70.283  1.00  0.00     0.120 A 
ATOM      4  C   UNL     1      33.236  21.193  71.870  1.00  0.00     0.021 A 
ATOM      5  N   UNL     1      32.624  19.226  70.668  1.00  0.00    -0.264 NA
ATOM      6  C   UNL     1      33.516  19.895  71.445  1.00  0.00     0.111 A 
ENDROOT
BRANCH   1   7
ATOM      7  C   UNL     1      29.842  21.713  70.271  1.00  0.00     0.073 C 
ATOM      8  O   UNL     1      28.935  21.016  69.743  1.00  0.00    -0.545 OA
ATOM      9  O   UNL     1      29.625  23.073  70.458  1.00  0.00    -0.545 OA
ENDBRANCH   1   7
TORSDOF 1
ENDMDL
MODEL 3
REMARK VINA RESULT:    -3.476     12.521     12.872
REMARK INTER + INTRA:          -3.697
REMARK INTER:                  -3.678
REMARK INTRA:                  -0.019
REMARK UNBOUND:                -0.017
REMARK SMILES O=C([O-])c1cccnc1
REMARK SMILES IDX 4 1 5 2 9 3 6 4 8 5 7 6 2 7 1 8 3 9
REMARK H PARENT
REMARK Flexibility Score: inf
ROOT
ATOM      1  C   UNL     1      28.458  12.656  63.534  1.00  0.00     0.016 A 
ATOM      2  C   UNL     1      29.087  13.126  64.700  1.00  0.00     0.013 A 
ATOM      3  C   UNL     1      27.735  11.454  63.605  1.00  0.00     0.120 A 
ATOM      4  C   UNL     1      28.989  12.402  65.890  1.00  0.00     0.021 A 
ATOM      5  N   UNL     1      27.655  10.768  64.778  1.00  0.00    -0.264 NA
ATOM      6  C   UNL     1      28.260  11.214  65.909  1.00  0.00     0.111 A 
ENDROOT
BRANCH   1   7
ATOM      7  C   UNL     1      28.549  13.407  62.265  1.00  0.00     0.073 C 
ATOM      8  O   UNL     1      27.514  13.657  61.592  1.00  0.00    -0.545 OA
ATOM      9  O   UNL     1      29.781  13.848  61.795  1.00  0.00    -0.545 OA
ENDBRANCH   1   7
TORSDOF 1
ENDMDL
MODEL 4
REMARK VINA RESULT:    -3.473     12.187     12.583
REMARK INTER + INTRA:          -3.693
REMARK INTER:                  -3.677
REMARK INTRA:                  -0.016
REMARK UNBOUND:                -0.017
REMARK SMILES O=C([O-])c1cccnc1
REMARK SMILES IDX 4 1 5 2 9 3 6 4 8 5 7 6 2 7 1 8 3 9
REMARK H PARENT
REMARK Flexibility Score: inf
ROOT
ATOM      1  C   UNL     1      28.377  12.524  63.433  1.00  0.00     0.016 A 
ATOM      2  C   UNL     1      28.330  13.402  62.337  1.00  0.00     0.013 A 
ATOM      3  C   UNL     1      27.600  11.354  63.385  1.00  0.00     0.120 A 
ATOM      4  C   UNL     1      27.525  13.106  61.234  1.00  0.00     0.021 A 
ATOM      5  N   UNL     1      26.825  11.089  62.298  1.00  0.00    -0.264 NA
ATOM      6  C   UNL     1      26.773  11.932  61.234  1.00  0.00     0.111 A 
ENDROOT
BRANCH   1   7
ATOM      7  C   UNL     1      29.222  12.820  64.609  1.00  0.00     0.073 C 
ATOM      8  O   UNL     1      28.778  13.523  65.556  1.00  0.00    -0.545 OA
ATOM      9  O   UNL     1      30.519  12.326  64.686  1.00  0.00    -0.545 OA
ENDBRANCH   1   7
TORSDOF 1
ENDMDL
MODEL 5
REMARK VINA RESULT:    -3.446     12.528     12.939
REMARK INTER + INTRA:          -3.664
REMARK INTER:                  -3.647
REMARK INTRA:                  -0.017
REMARK UNBOUND:                -0.017
REMARK SMILES O=C([O-])c1cccnc1
REMARK SMILES IDX 4 1 5 2 9 3 6 4 8 5 7 6 2 7 1 8 3 9
REMARK H PARENT
REMARK Flexibility Score: inf
ROOT
ATOM      1  C   UNL     1      28.880  12.814  63.155  1.00  0.00     0.016 A 
ATOM      2  C   UNL     1      27.690  12.105  62.919  1.00  0.00     0.013 A 
ATOM      3  C   UNL     1      29.494  13.466  62.073  1.00  0.00     0.120 A 
ATOM      4  C   UNL     1      27.144  12.059  61.634  1.00  0.00     0.021 A 
ATOM      5  N   UNL     1      28.942  13.404  60.831  1.00  0.00    -0.264 NA
ATOM      6  C   UNL     1      27.792  12.722  60.592  1.00  0.00     0.111 A 
ENDROOT
BRANCH   1   7
ATOM      7  C   UNL     1      29.473  12.875  64.507  1.00  0.00     0.073 C 
ATOM      8  O   UNL     1      28.884  13.487  65.438  1.00  0.00    -0.545 OA
ATOM      9  O   UNL     1      30.691  12.259  64.771  1.00  0.00    -0.545 OA
ENDBRANCH   1   7
TORSDOF 1
ENDMDL
MODEL 6
REMARK VINA RESULT:    -3.426     12.425     12.746
REMARK INTER + INTRA:          -3.643
REMARK INTER:                  -3.626
REMARK INTRA:                  -0.017
REMARK UNBOUND:                -0.017
REMARK SMILES O=C([O-])c1cccnc1
REMARK SMILES IDX 4 1 5 2 9 3 6 4 8 5 7 6 2 7 1 8 3 9
REMARK H PARENT
REMARK Flexibility Score: inf
ROOT
ATOM      1  C   UNL     1      28.110  12.563  62.332  1.00  0.00     0.016 A 
ATOM      2  C   UNL     1      28.294  12.199  63.677  1.00  0.00     0.013 A 
ATOM      3  C   UNL     1      27.214  11.811  61.554  1.00  0.00     0.120 A 
ATOM      4  C   UNL     1      27.597  11.113  64.211  1.00  0.00     0.021 A 
ATOM      5  N   UNL     1      26.548  10.757  62.099  1.00  0.00    -0.264 NA
ATOM      6  C   UNL     1      26.719  10.397  63.398  1.00  0.00     0.111 A 
ENDROOT
BRANCH   1   7
ATOM      7  C   UNL     1      28.838  13.709  61.748  1.00  0.00     0.073 C 
ATOM      8  O   UNL     1      28.211  14.713  61.315  1.00  0.00    -0.545 OA
ATOM      9  O   UNL     1      30.225  13.695  61.667  1.00  0.00    -0.545 OA
ENDBRANCH   1   7
TORSDOF 1
ENDMDL
MODEL 7
REMARK VINA RESULT:    -3.404     12.595     12.926
REMARK INTER + INTRA:          -3.621
REMARK INTER:                  -3.604
REMARK INTRA:                  -0.017
REMARK UNBOUND:                -0.017
REMARK SMILES O=C([O-])c1cccnc1
REMARK SMILES IDX 4 1 5 2 9 3 6 4 8 5 7 6 2 7 1 8 3 9
REMARK H PARENT
REMARK Flexibility Score: inf
ROOT
ATOM      1  C   UNL     1      28.611  12.720  63.391  1.00  0.00     0.016 A 
ATOM      2  C   UNL     1      27.805  11.571  63.321  1.00  0.00     0.013 A 
ATOM      3  C   UNL     1      29.167  13.071  64.632  1.00  0.00     0.120 A 
ATOM      4  C   UNL     1      27.570  10.808  64.468  1.00  0.00     0.021 A 
ATOM      5  N   UNL     1      28.922  12.311  65.734  1.00  0.00    -0.264 NA
ATOM      6  C   UNL     1      28.144  11.199  65.677  1.00  0.00     0.111 A 
ENDROOT
BRANCH   1   7
ATOM      7  C   UNL     1      28.873  13.540  62.189  1.00  0.00     0.073 C 
ATOM      8  O   UNL     1      27.950  14.220  61.665  1.00  0.00    -0.545 OA
ATOM      9  O   UNL     1      30.140  13.571  61.620  1.00  0.00    -0.545 OA
ENDBRANCH   1   7
TORSDOF 1
ENDMDL
MODEL 8
REMARK VINA RESULT:    -3.404     13.845     14.369
REMARK INTER + INTRA:          -3.620
REMARK INTER:                  -3.597
REMARK INTRA:                  -0.023
REMARK UNBOUND:                -0.017
REMARK SMILES O=C([O-])c1cccnc1
REMARK SMILES IDX 4 1 5 2 9 3 6 4 8 5 7 6 2 7 1 8 3 9
REMARK H PARENT
REMARK Flexibility Score: inf
ROOT
ATOM      1  C   UNL     1      29.200  12.757  60.258  1.00  0.00     0.016 A 
ATOM      2  C   UNL     1      27.860  12.539  60.623  1.00  0.00     0.013 A 
ATOM      3  C   UNL     1      30.130  13.044  61.271  1.00  0.00     0.120 A 
ATOM      4  C   UNL     1      27.478  12.612  61.965  1.00  0.00     0.021 A 
ATOM      5  N   UNL     1      29.731  13.109  62.571  1.00  0.00    -0.264 NA
ATOM      6  C   UNL     1      28.438  12.901  62.934  1.00  0.00     0.111 A 
ENDROOT
BRANCH   1   7
ATOM      7  C   UNL     1      29.624  12.684  58.844  1.00  0.00     0.073 C 
ATOM      8  O   UNL     1      30.848  12.658  58.543  1.00  0.00    -0.545 OA
ATOM      9  O   UNL     1      28.679  12.645  57.826  1.00  0.00    -0.545 OA
ENDBRANCH   1   7
TORSDOF 1
ENDMDL
MODEL 9
REMARK VINA RESULT:    -3.349     13.718     14.271
REMARK INTER + INTRA:          -3.563
REMARK INTER:                  -3.539
REMARK INTRA:                  -0.023
REMARK UNBOUND:                -0.017
REMARK SMILES O=C([O-])c1cccnc1
REMARK SMILES IDX 4 1 5 2 9 3 6 4 8 5 7 6 2 7 1 8 3 9
REMARK H PARENT
REMARK Flexibility Score: inf
ROOT
ATOM      1  C   UNL     1      29.050  12.717  60.198  1.00  0.00     0.016 A 
ATOM      2  C   UNL     1      29.887  13.128  61.249  1.00  0.00     0.013 A 
ATOM      3  C   UNL     1      27.737  12.323  60.505  1.00  0.00     0.120 A 
ATOM      4  C   UNL     1      29.411  13.138  62.562  1.00  0.00     0.021 A 
ATOM      5  N   UNL     1      27.298  12.342  61.793  1.00  0.00    -0.264 NA
ATOM      6  C   UNL     1      28.099  12.738  62.816  1.00  0.00     0.111 A 
ENDROOT
BRANCH   1   7
ATOM      7  C   UNL     1      29.535  12.698  58.802  1.00  0.00     0.073 C 
ATOM      8  O   UNL     1      30.770  12.729  58.553  1.00  0.00    -0.545 OA
ATOM      9  O   UNL     1      28.635  12.648  57.745  1.00  0.00    -0.545 OA
ENDBRANCH   1   7
TORSDOF 1
ENDMDL
