MODEL 1
REMARK VINA RESULT:    -3.522      0.000      0.000
REMARK INTER + INTRA:          -4.348
REMARK INTER:                  -4.139
REMARK INTRA:                  -0.209
REMARK UNBOUND:                -0.209
REMARK SMILES [NH3+][C@@H](CO)C(=O)[O-]
REMARK SMILES IDX 3 1 2 2 1 3 5 7 6 8 7 9 4 10
REMARK H PARENT 1 4 1 5 1 6 4 11
REMARK Flexibility Score: inf
ROOT
ATOM      1  C   UNL     1      -8.417 -17.946 -15.478  1.00  0.00     0.227 C 
ENDROOT
BRANCH   1   2
ATOM      2  C   UNL     1      -7.424 -17.761 -14.317  1.00  0.00     0.253 C 
BRANCH   2   3
ATOM      3  N   UNL     1      -6.777 -16.446 -14.395  1.00  0.00    -0.348 N 
ATOM      4  H   UNL     1      -5.757 -16.541 -14.183  1.00  0.00     0.345 HD
ATOM      5  H   UNL     1      -6.877 -16.058 -15.361  1.00  0.00     0.345 HD
ATOM      6  H   UNL     1      -7.206 -15.781 -13.710  1.00  0.00     0.345 HD
ENDBRANCH   2   3
BRANCH   2   7
ATOM      7  C   UNL     1      -6.388 -18.853 -14.329  1.00  0.00     0.102 C 
ATOM      8  O   UNL     1      -6.216 -19.551 -15.363  1.00  0.00    -0.544 OA
ATOM      9  O   UNL     1      -5.606 -19.091 -13.205  1.00  0.00    -0.544 OA
ENDBRANCH   2   7
ENDBRANCH   1   2
BRANCH   1  10
ATOM     10  O   UNL     1      -7.935 -17.341 -16.648  1.00  0.00    -0.390 OA
ATOM     11  H   UNL     1      -7.099 -17.819 -16.890  1.00  0.00     0.210 HD
ENDBRANCH   1  10
TORSDOF 4
ENDMDL
MODEL 2
REMARK VINA RESULT:    -3.418      1.668      3.044
REMARK INTER + INTRA:          -4.227
REMARK INTER:                  -3.979
REMARK INTRA:                  -0.247
REMARK UNBOUND:                -0.209
REMARK SMILES [NH3+][C@@H](CO)C(=O)[O-]
REMARK SMILES IDX 3 1 2 2 1 3 5 7 6 8 7 9 4 10
REMARK H PARENT 1 4 1 5 1 6 4 11
REMARK Flexibility Score: inf
ROOT
ATOM      1  C   UNL     1      -5.665 -19.755 -12.908  1.00  0.00     0.227 C 
ENDROOT
BRANCH   1   2
ATOM      2  C   UNL     1      -6.344 -18.569 -13.614  1.00  0.00     0.253 C 
BRANCH   2   3
ATOM      3  N   UNL     1      -7.507 -18.107 -12.847  1.00  0.00    -0.348 N 
ATOM      4  H   UNL     1      -7.257 -18.040 -11.833  1.00  0.00     0.345 HD
ATOM      5  H   UNL     1      -7.795 -17.157 -13.177  1.00  0.00     0.345 HD
ATOM      6  H   UNL     1      -8.310 -18.769 -12.957  1.00  0.00     0.345 HD
ENDBRANCH   2   3
BRANCH   2   7
ATOM      7  C   UNL     1      -6.760 -18.952 -15.009  1.00  0.00     0.102 C 
ATOM      8  O   UNL     1      -7.808 -18.468 -15.513  1.00  0.00    -0.544 OA
ATOM      9  O   UNL     1      -5.986 -19.833 -15.756  1.00  0.00    -0.544 OA
ENDBRANCH   2   7
ENDBRANCH   1   2
BRANCH   1  10
ATOM     10  O   UNL     1      -6.400 -20.935 -13.097  1.00  0.00    -0.390 OA
ATOM     11  H   UNL     1      -6.663 -20.956 -14.054  1.00  0.00     0.210 HD
ENDBRANCH   1  10
TORSDOF 4
ENDMDL
MODEL 3
REMARK VINA RESULT:    -3.387      1.065      2.944
REMARK INTER + INTRA:          -4.189
REMARK INTER:                  -3.892
REMARK INTRA:                  -0.298
REMARK UNBOUND:                -0.209
REMARK SMILES [NH3+][C@@H](CO)C(=O)[O-]
REMARK SMILES IDX 3 1 2 2 1 3 5 7 6 8 7 9 4 10
REMARK H PARENT 1 4 1 5 1 6 4 11
REMARK Flexibility Score: inf
ROOT
ATOM      1  C   UNL     1      -6.395 -18.696 -14.222  1.00  0.00     0.227 C 
ENDROOT
BRANCH   1   2
ATOM      2  C   UNL     1      -6.848 -17.500 -15.077  1.00  0.00     0.253 C 
BRANCH   2   3
ATOM      3  N   UNL     1      -6.872 -16.271 -14.275  1.00  0.00    -0.348 N 
ATOM      4  H   UNL     1      -5.951 -16.144 -13.794  1.00  0.00     0.345 HD
ATOM      5  H   UNL     1      -7.033 -15.445 -14.896  1.00  0.00     0.345 HD
ATOM      6  H   UNL     1      -7.630 -16.314 -13.554  1.00  0.00     0.345 HD
ENDBRANCH   2   3
BRANCH   2   7
ATOM      7  C   UNL     1      -8.206 -17.760 -15.672  1.00  0.00     0.102 C 
ATOM      8  O   UNL     1      -9.227 -17.776 -14.936  1.00  0.00    -0.544 OA
ATOM      9  O   UNL     1      -8.344 -17.972 -17.039  1.00  0.00    -0.544 OA
ENDBRANCH   2   7
ENDBRANCH   1   2
BRANCH   1  10
ATOM     10  O   UNL     1      -7.015 -19.879 -14.651  1.00  0.00    -0.390 OA
ATOM     11  H   UNL     1      -7.091 -19.817 -15.639  1.00  0.00     0.210 HD
ENDBRANCH   1  10
TORSDOF 4
ENDMDL
MODEL 4
REMARK VINA RESULT:    -3.346      1.713      2.425
REMARK INTER + INTRA:          -4.141
REMARK INTER:                  -3.920
REMARK INTRA:                  -0.221
REMARK UNBOUND:                -0.209
REMARK SMILES [NH3+][C@@H](CO)C(=O)[O-]
REMARK SMILES IDX 3 1 2 2 1 3 5 7 6 8 7 9 4 10
REMARK H PARENT 1 4 1 5 1 6 4 11
REMARK Flexibility Score: inf
ROOT
ATOM      1  C   UNL     1      -7.708 -17.011 -13.648  1.00  0.00     0.227 C 
ENDROOT
BRANCH   1   2
ATOM      2  C   UNL     1      -7.194 -18.368 -14.158  1.00  0.00     0.253 C 
BRANCH   2   3
ATOM      3  N   UNL     1      -5.870 -18.663 -13.598  1.00  0.00    -0.348 N 
ATOM      4  H   UNL     1      -5.223 -17.861 -13.777  1.00  0.00     0.345 HD
ATOM      5  H   UNL     1      -5.945 -18.799 -12.563  1.00  0.00     0.345 HD
ATOM      6  H   UNL     1      -5.469 -19.527 -14.031  1.00  0.00     0.345 HD
ENDBRANCH   2   3
BRANCH   2   7
ATOM      7  C   UNL     1      -7.137 -18.379 -15.663  1.00  0.00     0.102 C 
ATOM      8  O   UNL     1      -6.303 -19.110 -16.259  1.00  0.00    -0.544 OA
ATOM      9  O   UNL     1      -8.012 -17.594 -16.404  1.00  0.00    -0.544 OA
ENDBRANCH   2   7
ENDBRANCH   1   2
BRANCH   1  10
ATOM     10  O   UNL     1      -7.130 -15.955 -14.368  1.00  0.00    -0.390 OA
ATOM     11  H   UNL     1      -6.946 -16.301 -15.280  1.00  0.00     0.210 HD
ENDBRANCH   1  10
TORSDOF 4
ENDMDL
MODEL 5
REMARK VINA RESULT:    -3.322      1.837      2.255
REMARK INTER + INTRA:          -4.114
REMARK INTER:                  -3.909
REMARK INTRA:                  -0.205
REMARK UNBOUND:                -0.209
REMARK SMILES [NH3+][C@@H](CO)C(=O)[O-]
REMARK SMILES IDX 3 1 2 2 1 3 5 7 6 8 7 9 4 10
REMARK H PARENT 1 4 1 5 1 6 4 11
REMARK Flexibility Score: inf
ROOT
ATOM      1  C   UNL     1      -7.699 -16.755 -14.309  1.00  0.00     0.227 C 
ENDROOT
BRANCH   1   2
ATOM      2  C   UNL     1      -7.449 -17.776 -15.433  1.00  0.00     0.253 C 
BRANCH   2   3
ATOM      3  N   UNL     1      -8.720 -18.285 -15.961  1.00  0.00    -0.348 N 
ATOM      4  H   UNL     1      -8.534 -18.994 -16.707  1.00  0.00     0.345 HD
ATOM      5  H   UNL     1      -9.263 -18.748 -15.196  1.00  0.00     0.345 HD
ATOM      6  H   UNL     1      -9.291 -17.507 -16.366  1.00  0.00     0.345 HD
ENDBRANCH   2   3
BRANCH   2   7
ATOM      7  C   UNL     1      -6.599 -18.914 -14.934  1.00  0.00     0.102 C 
ATOM      8  O   UNL     1      -6.381 -19.048 -13.701  1.00  0.00    -0.544 OA
ATOM      9  O   UNL     1      -6.060 -19.831 -15.827  1.00  0.00    -0.544 OA
ENDBRANCH   2   7
ENDBRANCH   1   2
BRANCH   1  10
ATOM     10  O   UNL     1      -6.555 -15.977 -14.079  1.00  0.00    -0.390 OA
ATOM     11  H   UNL     1      -6.819 -15.266 -13.439  1.00  0.00     0.210 HD
ENDBRANCH   1  10
TORSDOF 4
ENDMDL
MODEL 6
REMARK VINA RESULT:    -3.215      1.949      3.116
REMARK INTER + INTRA:          -3.988
REMARK INTER:                  -3.765
REMARK INTRA:                  -0.223
REMARK UNBOUND:                -0.209
REMARK SMILES [NH3+][C@@H](CO)C(=O)[O-]
REMARK SMILES IDX 3 1 2 2 1 3 5 7 6 8 7 9 4 10
REMARK H PARENT 1 4 1 5 1 6 4 11
REMARK Flexibility Score: inf
ROOT
ATOM      1  C   UNL     1      -5.960 -19.073 -13.642  1.00  0.00     0.227 C 
ENDROOT
BRANCH   1   2
ATOM      2  C   UNL     1      -6.798 -19.149 -14.930  1.00  0.00     0.253 C 
BRANCH   2   3
ATOM      3  N   UNL     1      -6.011 -19.726 -16.026  1.00  0.00    -0.348 N 
ATOM      4  H   UNL     1      -5.085 -20.053 -15.663  1.00  0.00     0.345 HD
ATOM      5  H   UNL     1      -6.514 -20.550 -16.429  1.00  0.00     0.345 HD
ATOM      6  H   UNL     1      -5.850 -19.018 -16.779  1.00  0.00     0.345 HD
ENDBRANCH   2   3
BRANCH   2   7
ATOM      7  C   UNL     1      -7.303 -17.784 -15.314  1.00  0.00     0.102 C 
ATOM      8  O   UNL     1      -7.863 -17.606 -16.427  1.00  0.00    -0.544 OA
ATOM      9  O   UNL     1      -7.166 -16.713 -14.438  1.00  0.00    -0.544 OA
ENDBRANCH   2   7
ENDBRANCH   1   2
BRANCH   1  10
ATOM     10  O   UNL     1      -6.774 -18.804 -12.532  1.00  0.00    -0.390 OA
ATOM     11  H   UNL     1      -6.233 -18.253 -11.909  1.00  0.00     0.210 HD
ENDBRANCH   1  10
TORSDOF 4
ENDMDL
MODEL 7
REMARK VINA RESULT:    -3.201      3.917      5.230
REMARK INTER + INTRA:          -3.971
REMARK INTER:                  -3.601
REMARK INTRA:                  -0.371
REMARK UNBOUND:                -0.209
REMARK SMILES [NH3+][C@@H](CO)C(=O)[O-]
REMARK SMILES IDX 3 1 2 2 1 3 5 7 6 8 7 9 4 10
REMARK H PARENT 1 4 1 5 1 6 4 11
REMARK Flexibility Score: inf
ROOT
ATOM      1  C   UNL     1      -4.438 -22.002 -11.414  1.00  0.00     0.227 C 
ENDROOT
BRANCH   1   2
ATOM      2  C   UNL     1      -5.883 -21.492 -11.551  1.00  0.00     0.253 C 
BRANCH   2   3
ATOM      3  N   UNL     1      -6.755 -22.544 -12.084  1.00  0.00    -0.348 N 
ATOM      4  H   UNL     1      -6.644 -23.417 -11.517  1.00  0.00     0.345 HD
ATOM      5  H   UNL     1      -7.755 -22.241 -12.026  1.00  0.00     0.345 HD
ATOM      6  H   UNL     1      -6.516 -22.753 -13.081  1.00  0.00     0.345 HD
ENDBRANCH   2   3
BRANCH   2   7
ATOM      7  C   UNL     1      -5.932 -20.275 -12.436  1.00  0.00     0.102 C 
ATOM      8  O   UNL     1      -5.905 -19.122 -11.931  1.00  0.00    -0.544 OA
ATOM      9  O   UNL     1      -5.997 -20.415 -13.818  1.00  0.00    -0.544 OA
ENDBRANCH   2   7
ENDBRANCH   1   2
BRANCH   1  10
ATOM     10  O   UNL     1      -3.524 -21.036 -11.862  1.00  0.00    -0.390 OA
ATOM     11  H   UNL     1      -2.674 -21.204 -11.378  1.00  0.00     0.210 HD
ENDBRANCH   1  10
TORSDOF 4
ENDMDL
MODEL 8
REMARK VINA RESULT:    -3.186      3.316      4.449
REMARK INTER + INTRA:          -3.953
REMARK INTER:                  -3.591
REMARK INTRA:                  -0.362
REMARK UNBOUND:                -0.209
REMARK SMILES [NH3+][C@@H](CO)C(=O)[O-]
REMARK SMILES IDX 3 1 2 2 1 3 5 7 6 8 7 9 4 10
REMARK H PARENT 1 4 1 5 1 6 4 11
REMARK Flexibility Score: inf
ROOT
ATOM      1  C   UNL     1      -5.611 -21.895 -11.825  1.00  0.00     0.227 C 
ENDROOT
BRANCH   1   2
ATOM      2  C   UNL     1      -4.989 -20.494 -11.950  1.00  0.00     0.253 C 
BRANCH   2   3
ATOM      3  N   UNL     1      -4.889 -19.854 -10.633  1.00  0.00    -0.348 N 
ATOM      4  H   UNL     1      -4.099 -20.278 -10.093  1.00  0.00     0.345 HD
ATOM      5  H   UNL     1      -4.695 -18.832 -10.749  1.00  0.00     0.345 HD
ATOM      6  H   UNL     1      -5.776 -19.977 -10.093  1.00  0.00     0.345 HD
ENDBRANCH   2   3
BRANCH   2   7
ATOM      7  C   UNL     1      -5.800 -19.637 -12.885  1.00  0.00     0.102 C 
ATOM      8  O   UNL     1      -6.577 -18.759 -12.426  1.00  0.00    -0.544 OA
ATOM      9  O   UNL     1      -5.688 -19.800 -14.261  1.00  0.00    -0.544 OA
ENDBRANCH   2   7
ENDBRANCH   1   2
BRANCH   1  10
ATOM     10  O   UNL     1      -6.768 -21.999 -12.612  1.00  0.00    -0.390 OA
ATOM     11  H   UNL     1      -6.574 -22.674 -13.313  1.00  0.00     0.210 HD
ENDBRANCH   1  10
TORSDOF 4
ENDMDL
MODEL 9
REMARK VINA RESULT:    -3.168      4.573      5.597
REMARK INTER + INTRA:          -3.933
REMARK INTER:                  -3.542
REMARK INTRA:                  -0.391
REMARK UNBOUND:                -0.209
REMARK SMILES [NH3+][C@@H](CO)C(=O)[O-]
REMARK SMILES IDX 3 1 2 2 1 3 5 7 6 8 7 9 4 10
REMARK H PARENT 1 4 1 5 1 6 4 11
REMARK Flexibility Score: inf
ROOT
ATOM      1  C   UNL     1      -5.578 -20.522 -12.438  1.00  0.00     0.227 C 
ENDROOT
BRANCH   1   2
ATOM      2  C   UNL     1      -5.631 -21.902 -11.760  1.00  0.00     0.253 C 
BRANCH   2   3
ATOM      3  N   UNL     1      -6.939 -22.533 -11.972  1.00  0.00    -0.348 N 
ATOM      4  H   UNL     1      -6.811 -23.468 -12.424  1.00  0.00     0.345 HD
ATOM      5  H   UNL     1      -7.417 -22.676 -11.053  1.00  0.00     0.345 HD
ATOM      6  H   UNL     1      -7.542 -21.938 -12.586  1.00  0.00     0.345 HD
ENDBRANCH   2   3
BRANCH   2   7
ATOM      7  C   UNL     1      -5.345 -21.778 -10.287  1.00  0.00     0.102 C 
ATOM      8  O   UNL     1      -6.285 -21.572  -9.475  1.00  0.00    -0.544 OA
ATOM      9  O   UNL     1      -4.045 -21.901  -9.812  1.00  0.00    -0.544 OA
ENDBRANCH   2   7
ENDBRANCH   1   2
BRANCH   1  10
ATOM     10  O   UNL     1      -5.089 -19.550 -11.554  1.00  0.00    -0.390 OA
ATOM     11  H   UNL     1      -5.879 -19.071 -11.193  1.00  0.00     0.210 HD
ENDBRANCH   1  10
TORSDOF 4
ENDMDL
