MODEL 1
REMARK VINA RESULT:    -5.192      0.000      0.000
REMARK INTER + INTRA:          -9.527
REMARK INTER:                  -7.924
REMARK INTRA:                  -1.602
REMARK UNBOUND:                -1.602
REMARK SMILES CC(=O)CCC=C(C)CCC=C(C)CCC=C(C)C
REMARK SMILES IDX 10 1 11 2 12 3 13 4 14 5 15 6 16 7 18 8 17 9 19 10 9 11 7 12
REMARK SMILES IDX 6 13 8 14 5 15 4 16 2 17 3 18 1 19
REMARK H PARENT
REMARK Flexibility Score: inf
ROOT
ATOM      1  C   UNL     1      18.617  26.909  27.581  1.00  0.00     0.032 C 
ENDROOT
BRANCH   1   2
ATOM      2  C   UNL     1      17.388  27.445  28.277  1.00  0.00    -0.028 C 
ATOM      3  C   UNL     1      17.371  28.478  29.151  1.00  0.00    -0.077 C 
ATOM      4  C   UNL     1      16.037  28.933  29.687  1.00  0.00     0.039 C 
BRANCH   3   5
ATOM      5  C   UNL     1      18.627  29.190  29.620  1.00  0.00     0.034 C 
BRANCH   5   6
ATOM      6  C   UNL     1      18.940  30.425  28.762  1.00  0.00     0.032 C 
BRANCH   6   7
ATOM      7  C   UNL     1      19.096  31.668  29.607  1.00  0.00    -0.028 C 
ATOM      8  C   UNL     1      16.833  32.561  29.012  1.00  0.00     0.039 C 
ATOM      9  C   UNL     1      18.139  32.610  29.765  1.00  0.00    -0.080 C 
ATOM     10  C   UNL     1      18.402  33.795  30.658  1.00  0.00     0.039 C 
ENDBRANCH   6   7
ENDBRANCH   5   6
ENDBRANCH   3   5
ENDBRANCH   1   2
BRANCH   1  11
ATOM     11  C   UNL     1      19.087  25.591  28.212  1.00  0.00     0.034 C 
BRANCH  11  12
ATOM     12  C   UNL     1      20.471  25.189  27.733  1.00  0.00    -0.077 C 
ATOM     13  C   UNL     1      21.604  25.777  28.179  1.00  0.00    -0.028 C 
ATOM     14  C   UNL     1      20.593  24.108  26.689  1.00  0.00     0.039 C 
BRANCH  13  15
ATOM     15  C   UNL     1      21.661  26.836  29.251  1.00  0.00     0.035 C 
BRANCH  15  16
ATOM     16  C   UNL     1      22.072  28.187  28.656  1.00  0.00     0.079 C 
BRANCH  16  17
ATOM     17  C   UNL     1      23.569  28.316  28.614  1.00  0.00     0.130 C 
ATOM     18  O   UNL     1      24.189  28.524  29.647  1.00  0.00    -0.300 OA
ATOM     19  C   UNL     1      24.304  28.213  27.313  1.00  0.00     0.087 C 
ENDBRANCH  16  17
ENDBRANCH  15  16
ENDBRANCH  13  15
ENDBRANCH  11  12
ENDBRANCH   1  11
TORSDOF 9
ENDMDL
MODEL 2
REMARK VINA RESULT:    -5.190      2.643      6.512
REMARK INTER + INTRA:          -9.524
REMARK INTER:                  -6.944
REMARK INTRA:                  -2.580
REMARK UNBOUND:                -1.602
REMARK SMILES CC(=O)CCC=C(C)CCC=C(C)CCC=C(C)C
REMARK SMILES IDX 10 1 11 2 12 3 13 4 14 5 15 6 16 7 18 8 17 9 19 10 9 11 7 12
REMARK SMILES IDX 6 13 8 14 5 15 4 16 2 17 3 18 1 19
REMARK H PARENT
REMARK Flexibility Score: inf
ROOT
ATOM      1  C   UNL     1      18.007  29.176  31.397  1.00  0.00     0.032 C 
ENDROOT
BRANCH   1   2
ATOM      2  C   UNL     1      19.306  29.917  31.179  1.00  0.00    -0.028 C 
ATOM      3  C   UNL     1      19.798  30.299  29.978  1.00  0.00    -0.077 C 
ATOM      4  C   UNL     1      21.071  31.106  29.956  1.00  0.00     0.039 C 
BRANCH   3   5
ATOM      5  C   UNL     1      19.133  29.948  28.659  1.00  0.00     0.034 C 
BRANCH   5   6
ATOM      6  C   UNL     1      19.485  28.524  28.202  1.00  0.00     0.032 C 
BRANCH   6   7
ATOM      7  C   UNL     1      18.248  27.675  28.018  1.00  0.00    -0.028 C 
ATOM      8  C   UNL     1      19.510  25.514  28.132  1.00  0.00     0.039 C 
ATOM      9  C   UNL     1      18.240  26.323  28.032  1.00  0.00    -0.080 C 
ATOM     10  C   UNL     1      16.938  25.585  27.865  1.00  0.00     0.039 C 
ENDBRANCH   6   7
ENDBRANCH   5   6
ENDBRANCH   3   5
ENDBRANCH   1   2
BRANCH   1  11
ATOM     11  C   UNL     1      16.825  30.147  31.523  1.00  0.00     0.034 C 
BRANCH  11  12
ATOM     12  C   UNL     1      15.920  30.107  30.304  1.00  0.00    -0.077 C 
ATOM     13  C   UNL     1      15.531  31.219  29.639  1.00  0.00    -0.028 C 
ATOM     14  C   UNL     1      15.402  28.774  29.827  1.00  0.00     0.039 C 
BRANCH  13  15
ATOM     15  C   UNL     1      15.994  32.619  29.955  1.00  0.00     0.035 C 
BRANCH  15  16
ATOM     16  C   UNL     1      17.187  33.006  29.075  1.00  0.00     0.079 C 
BRANCH  16  17
ATOM     17  C   UNL     1      18.286  33.610  29.905  1.00  0.00     0.130 C 
ATOM     18  O   UNL     1      19.248  34.125  29.355  1.00  0.00    -0.300 OA
ATOM     19  C   UNL     1      18.219  33.567  31.401  1.00  0.00     0.087 C 
ENDBRANCH  16  17
ENDBRANCH  15  16
ENDBRANCH  13  15
ENDBRANCH  11  12
ENDBRANCH   1  11
TORSDOF 9
ENDMDL
MODEL 3
REMARK VINA RESULT:    -5.190      2.753      5.131
REMARK INTER + INTRA:          -9.522
REMARK INTER:                  -7.799
REMARK INTRA:                  -1.723
REMARK UNBOUND:                -1.602
REMARK SMILES CC(=O)CCC=C(C)CCC=C(C)CCC=C(C)C
REMARK SMILES IDX 10 1 11 2 12 3 13 4 14 5 15 6 16 7 18 8 17 9 19 10 9 11 7 12
REMARK SMILES IDX 6 13 8 14 5 15 4 16 2 17 3 18 1 19
REMARK H PARENT
REMARK Flexibility Score: inf
ROOT
ATOM      1  C   UNL     1      18.681  26.525  28.103  1.00  0.00     0.032 C 
ENDROOT
BRANCH   1   2
ATOM      2  C   UNL     1      18.444  28.017  28.121  1.00  0.00    -0.028 C 
ATOM      3  C   UNL     1      19.056  28.897  28.947  1.00  0.00    -0.077 C 
ATOM      4  C   UNL     1      18.759  30.364  28.768  1.00  0.00     0.039 C 
BRANCH   3   5
ATOM      5  C   UNL     1      20.017  28.475  30.044  1.00  0.00     0.034 C 
BRANCH   5   6
ATOM      6  C   UNL     1      21.396  29.133  29.882  1.00  0.00     0.032 C 
BRANCH   6   7
ATOM      7  C   UNL     1      22.117  28.624  28.656  1.00  0.00    -0.028 C 
ATOM      8  C   UNL     1      24.393  28.962  29.647  1.00  0.00     0.039 C 
ATOM      9  C   UNL     1      23.460  28.498  28.556  1.00  0.00    -0.080 C 
ATOM     10  C   UNL     1      24.064  27.950  27.289  1.00  0.00     0.039 C 
ENDBRANCH   6   7
ENDBRANCH   5   6
ENDBRANCH   3   5
ENDBRANCH   1   2
BRANCH   1  11
ATOM     11  C   UNL     1      19.829  26.153  27.156  1.00  0.00     0.034 C 
BRANCH  11  12
ATOM     12  C   UNL     1      20.703  25.047  27.722  1.00  0.00    -0.077 C 
ATOM     13  C   UNL     1      21.031  23.937  27.023  1.00  0.00    -0.028 C 
ATOM     14  C   UNL     1      21.204  25.171  29.139  1.00  0.00     0.039 C 
BRANCH  13  15
ATOM     15  C   UNL     1      20.653  23.680  25.585  1.00  0.00     0.035 C 
BRANCH  15  16
ATOM     16  C   UNL     1      21.709  24.257  24.637  1.00  0.00     0.079 C 
BRANCH  16  17
ATOM     17  C   UNL     1      21.944  23.331  23.476  1.00  0.00     0.130 C 
ATOM     18  O   UNL     1      20.990  22.848  22.884  1.00  0.00    -0.300 OA
ATOM     19  C   UNL     1      23.338  22.981  23.055  1.00  0.00     0.087 C 
ENDBRANCH  16  17
ENDBRANCH  15  16
ENDBRANCH  13  15
ENDBRANCH  11  12
ENDBRANCH   1  11
TORSDOF 9
ENDMDL
MODEL 4
REMARK VINA RESULT:    -5.080      1.234      3.416
REMARK INTER + INTRA:          -9.354
REMARK INTER:                  -7.036
REMARK INTRA:                  -2.318
REMARK UNBOUND:                -1.602
REMARK SMILES CC(=O)CCC=C(C)CCC=C(C)CCC=C(C)C
REMARK SMILES IDX 10 1 11 2 12 3 13 4 14 5 15 6 16 7 18 8 17 9 19 10 9 11 7 12
REMARK SMILES IDX 6 13 8 14 5 15 4 16 2 17 3 18 1 19
REMARK H PARENT
REMARK Flexibility Score: inf
ROOT
ATOM      1  C   UNL     1      19.479  29.875  28.790  1.00  0.00     0.032 C 
ENDROOT
BRANCH   1   2
ATOM      2  C   UNL     1      19.686  30.987  29.791  1.00  0.00    -0.028 C 
ATOM      3  C   UNL     1      18.901  32.083  29.918  1.00  0.00    -0.077 C 
ATOM      4  C   UNL     1      19.208  33.052  31.031  1.00  0.00     0.039 C 
BRANCH   3   5
ATOM      5  C   UNL     1      17.736  32.382  28.991  1.00  0.00     0.034 C 
BRANCH   5   6
ATOM      6  C   UNL     1      16.382  32.144  29.676  1.00  0.00     0.032 C 
BRANCH   6   7
ATOM      7  C   UNL     1      15.858  30.752  29.411  1.00  0.00    -0.028 C 
ATOM      8  C   UNL     1      16.520  29.890  31.667  1.00  0.00     0.039 C 
ATOM      9  C   UNL     1      15.871  29.745  30.313  1.00  0.00    -0.080 C 
ATOM     10  C   UNL     1      15.293  28.404  29.940  1.00  0.00     0.039 C 
ENDBRANCH   6   7
ENDBRANCH   5   6
ENDBRANCH   3   5
ENDBRANCH   1   2
BRANCH   1  11
ATOM     11  C   UNL     1      19.268  28.525  29.490  1.00  0.00     0.034 C 
BRANCH  11  12
ATOM     12  C   UNL     1      19.147  27.380  28.500  1.00  0.00    -0.077 C 
ATOM     13  C   UNL     1      20.044  26.370  28.429  1.00  0.00    -0.028 C 
ATOM     14  C   UNL     1      17.995  27.379  27.527  1.00  0.00     0.039 C 
BRANCH  13  15
ATOM     15  C   UNL     1      21.222  26.197  29.355  1.00  0.00     0.035 C 
BRANCH  15  16
ATOM     16  C   UNL     1      22.539  26.301  28.581  1.00  0.00     0.079 C 
BRANCH  16  17
ATOM     17  C   UNL     1      23.073  27.706  28.626  1.00  0.00     0.130 C 
ATOM     18  O   UNL     1      22.776  28.437  29.559  1.00  0.00    -0.300 OA
ATOM     19  C   UNL     1      23.948  28.221  27.526  1.00  0.00     0.087 C 
ENDBRANCH  16  17
ENDBRANCH  15  16
ENDBRANCH  13  15
ENDBRANCH  11  12
ENDBRANCH   1  11
TORSDOF 9
ENDMDL
MODEL 5
REMARK VINA RESULT:    -5.022      2.250      4.592
REMARK INTER + INTRA:          -9.267
REMARK INTER:                  -6.891
REMARK INTRA:                  -2.376
REMARK UNBOUND:                -1.602
REMARK SMILES CC(=O)CCC=C(C)CCC=C(C)CCC=C(C)C
REMARK SMILES IDX 10 1 11 2 12 3 13 4 14 5 15 6 16 7 18 8 17 9 19 10 9 11 7 12
REMARK SMILES IDX 6 13 8 14 5 15 4 16 2 17 3 18 1 19
REMARK H PARENT
REMARK Flexibility Score: inf
ROOT
ATOM      1  C   UNL     1      20.239  30.208  29.831  1.00  0.00     0.032 C 
ENDROOT
BRANCH   1   2
ATOM      2  C   UNL     1      20.471  31.660  29.484  1.00  0.00    -0.028 C 
ATOM      3  C   UNL     1      20.146  32.714  30.268  1.00  0.00    -0.077 C 
ATOM      4  C   UNL     1      20.529  34.095  29.797  1.00  0.00     0.039 C 
BRANCH   3   5
ATOM      5  C   UNL     1      19.410  32.572  31.588  1.00  0.00     0.034 C 
BRANCH   5   6
ATOM      6  C   UNL     1      18.013  33.209  31.538  1.00  0.00     0.032 C 
BRANCH   6   7
ATOM      7  C   UNL     1      16.950  32.197  31.180  1.00  0.00    -0.028 C 
ATOM      8  C   UNL     1      16.783  32.962  28.801  1.00  0.00     0.039 C 
ATOM      9  C   UNL     1      16.424  32.045  29.944  1.00  0.00    -0.080 C 
ATOM     10  C   UNL     1      15.386  30.980  29.702  1.00  0.00     0.039 C 
ENDBRANCH   6   7
ENDBRANCH   5   6
ENDBRANCH   3   5
ENDBRANCH   1   2
BRANCH   1  11
ATOM     11  C   UNL     1      19.093  29.612  29.001  1.00  0.00     0.034 C 
BRANCH  11  12
ATOM     12  C   UNL     1      18.308  28.569  29.777  1.00  0.00    -0.077 C 
ATOM     13  C   UNL     1      17.838  27.432  29.214  1.00  0.00    -0.028 C 
ATOM     14  C   UNL     1      18.009  28.819  31.233  1.00  0.00     0.039 C 
BRANCH  13  15
ATOM     15  C   UNL     1      18.088  27.008  27.788  1.00  0.00     0.035 C 
BRANCH  15  16
ATOM     16  C   UNL     1      18.483  25.529  27.724  1.00  0.00     0.079 C 
BRANCH  16  17
ATOM     17  C   UNL     1      19.973  25.382  27.592  1.00  0.00     0.130 C 
ATOM     18  O   UNL     1      20.442  24.803  26.623  1.00  0.00    -0.300 OA
ATOM     19  C   UNL     1      20.886  25.922  28.650  1.00  0.00     0.087 C 
ENDBRANCH  16  17
ENDBRANCH  15  16
ENDBRANCH  13  15
ENDBRANCH  11  12
ENDBRANCH   1  11
TORSDOF 9
ENDMDL
MODEL 6
REMARK VINA RESULT:    -5.016      2.516      4.956
REMARK INTER + INTRA:          -9.257
REMARK INTER:                  -6.774
REMARK INTRA:                  -2.483
REMARK UNBOUND:                -1.602
REMARK SMILES CC(=O)CCC=C(C)CCC=C(C)CCC=C(C)C
REMARK SMILES IDX 10 1 11 2 12 3 13 4 14 5 15 6 16 7 18 8 17 9 19 10 9 11 7 12
REMARK SMILES IDX 6 13 8 14 5 15 4 16 2 17 3 18 1 19
REMARK H PARENT
REMARK Flexibility Score: inf
ROOT
ATOM      1  C   UNL     1      20.727  30.966  30.238  1.00  0.00     0.032 C 
ENDROOT
BRANCH   1   2
ATOM      2  C   UNL     1      20.208  32.057  31.146  1.00  0.00    -0.028 C 
ATOM      3  C   UNL     1      19.318  33.013  30.791  1.00  0.00    -0.077 C 
ATOM      4  C   UNL     1      18.847  33.974  31.853  1.00  0.00     0.039 C 
BRANCH   3   5
ATOM      5  C   UNL     1      18.782  33.166  29.379  1.00  0.00     0.034 C 
BRANCH   5   6
ATOM      6  C   UNL     1      17.270  33.433  29.366  1.00  0.00     0.032 C 
BRANCH   6   7
ATOM      7  C   UNL     1      16.480  32.160  29.167  1.00  0.00    -0.028 C 
ATOM      8  C   UNL     1      15.528  32.190  31.484  1.00  0.00     0.039 C 
ATOM      9  C   UNL     1      15.658  31.618  30.094  1.00  0.00    -0.080 C 
ATOM     10  C   UNL     1      14.899  30.357  29.769  1.00  0.00     0.039 C 
ENDBRANCH   6   7
ENDBRANCH   5   6
ENDBRANCH   3   5
ENDBRANCH   1   2
BRANCH   1  11
ATOM     11  C   UNL     1      20.396  29.574  30.793  1.00  0.00     0.034 C 
BRANCH  11  12
ATOM     12  C   UNL     1      18.909  29.272  30.732  1.00  0.00    -0.077 C 
ATOM     13  C   UNL     1      18.276  28.919  29.589  1.00  0.00    -0.028 C 
ATOM     14  C   UNL     1      18.089  29.401  31.990  1.00  0.00     0.039 C 
BRANCH  13  15
ATOM     15  C   UNL     1      18.954  28.701  28.260  1.00  0.00     0.035 C 
BRANCH  15  16
ATOM     16  C   UNL     1      18.292  27.548  27.498  1.00  0.00     0.079 C 
BRANCH  16  17
ATOM     17  C   UNL     1      18.994  26.249  27.785  1.00  0.00     0.130 C 
ATOM     18  O   UNL     1      18.446  25.191  27.516  1.00  0.00    -0.300 OA
ATOM     19  C   UNL     1      20.352  26.244  28.418  1.00  0.00     0.087 C 
ENDBRANCH  16  17
ENDBRANCH  15  16
ENDBRANCH  13  15
ENDBRANCH  11  12
ENDBRANCH   1  11
TORSDOF 9
ENDMDL
MODEL 7
REMARK VINA RESULT:    -5.001      1.986      3.952
REMARK INTER + INTRA:          -9.234
REMARK INTER:                  -6.958
REMARK INTRA:                  -2.276
REMARK UNBOUND:                -1.602
REMARK SMILES CC(=O)CCC=C(C)CCC=C(C)CCC=C(C)C
REMARK SMILES IDX 10 1 11 2 12 3 13 4 14 5 15 6 16 7 18 8 17 9 19 10 9 11 7 12
REMARK SMILES IDX 6 13 8 14 5 15 4 16 2 17 3 18 1 19
REMARK H PARENT
REMARK Flexibility Score: inf
ROOT
ATOM      1  C   UNL     1      18.474  29.572  29.001  1.00  0.00     0.032 C 
ENDROOT
BRANCH   1   2
ATOM      2  C   UNL     1      17.788  29.846  30.319  1.00  0.00    -0.028 C 
ATOM      3  C   UNL     1      16.731  30.673  30.494  1.00  0.00    -0.077 C 
ATOM      4  C   UNL     1      16.119  30.761  31.869  1.00  0.00     0.039 C 
BRANCH   3   5
ATOM      5  C   UNL     1      16.142  31.516  29.378  1.00  0.00     0.034 C 
BRANCH   5   6
ATOM      6  C   UNL     1      16.407  33.014  29.590  1.00  0.00     0.032 C 
BRANCH   6   7
ATOM      7  C   UNL     1      17.810  33.397  29.178  1.00  0.00    -0.028 C 
ATOM      8  C   UNL     1      18.592  33.727  31.535  1.00  0.00     0.039 C 
ATOM      9  C   UNL     1      18.812  33.672  30.043  1.00  0.00    -0.080 C 
ATOM     10  C   UNL     1      20.179  34.016  29.512  1.00  0.00     0.039 C 
ENDBRANCH   6   7
ENDBRANCH   5   6
ENDBRANCH   3   5
ENDBRANCH   1   2
BRANCH   1  11
ATOM     11  C   UNL     1      19.853  30.242  28.939  1.00  0.00     0.034 C 
BRANCH  11  12
ATOM     12  C   UNL     1      20.758  29.795  30.074  1.00  0.00    -0.077 C 
ATOM     13  C   UNL     1      21.433  28.623  30.059  1.00  0.00    -0.028 C 
ATOM     14  C   UNL     1      20.889  30.676  31.290  1.00  0.00     0.039 C 
BRANCH  13  15
ATOM     15  C   UNL     1      21.449  27.652  28.905  1.00  0.00     0.035 C 
BRANCH  15  16
ATOM     16  C   UNL     1      21.195  26.223  29.396  1.00  0.00     0.079 C 
BRANCH  16  17
ATOM     17  C   UNL     1      20.379  25.454  28.394  1.00  0.00     0.130 C 
ATOM     18  O   UNL     1      20.870  24.491  27.824  1.00  0.00    -0.300 OA
ATOM     19  C   UNL     1      18.977  25.873  28.075  1.00  0.00     0.087 C 
ENDBRANCH  16  17
ENDBRANCH  15  16
ENDBRANCH  13  15
ENDBRANCH  11  12
ENDBRANCH   1  11
TORSDOF 9
ENDMDL
MODEL 8
REMARK VINA RESULT:    -4.979      2.587      6.814
REMARK INTER + INTRA:          -9.201
REMARK INTER:                  -7.260
REMARK INTRA:                  -1.941
REMARK UNBOUND:                -1.602
REMARK SMILES CC(=O)CCC=C(C)CCC=C(C)CCC=C(C)C
REMARK SMILES IDX 10 1 11 2 12 3 13 4 14 5 15 6 16 7 18 8 17 9 19 10 9 11 7 12
REMARK SMILES IDX 6 13 8 14 5 15 4 16 2 17 3 18 1 19
REMARK H PARENT
REMARK Flexibility Score: inf
ROOT
ATOM      1  C   UNL     1      19.561  30.875  29.681  1.00  0.00     0.032 C 
ENDROOT
BRANCH   1   2
ATOM      2  C   UNL     1      18.964  29.938  28.657  1.00  0.00    -0.028 C 
ATOM      3  C   UNL     1      19.191  28.605  28.588  1.00  0.00    -0.077 C 
ATOM      4  C   UNL     1      18.443  27.810  27.549  1.00  0.00     0.039 C 
BRANCH   3   5
ATOM      5  C   UNL     1      20.164  27.880  29.501  1.00  0.00     0.034 C 
BRANCH   5   6
ATOM      6  C   UNL     1      21.484  27.554  28.787  1.00  0.00     0.032 C 
BRANCH   6   7
ATOM      7  C   UNL     1      22.654  28.271  29.419  1.00  0.00    -0.028 C 
ATOM      8  C   UNL     1      24.105  28.048  27.389  1.00  0.00     0.039 C 
ATOM      9  C   UNL     1      23.818  28.541  28.786  1.00  0.00    -0.080 C 
ATOM     10  C   UNL     1      24.905  29.288  29.514  1.00  0.00     0.039 C 
ENDBRANCH   6   7
ENDBRANCH   5   6
ENDBRANCH   3   5
ENDBRANCH   1   2
BRANCH   1  11
ATOM     11  C   UNL     1      18.473  31.505  30.562  1.00  0.00     0.034 C 
BRANCH  11  12
ATOM     12  C   UNL     1      17.504  32.351  29.755  1.00  0.00    -0.077 C 
ATOM     13  C   UNL     1      16.178  32.089  29.687  1.00  0.00    -0.028 C 
ATOM     14  C   UNL     1      18.040  33.518  28.965  1.00  0.00     0.039 C 
BRANCH  13  15
ATOM     15  C   UNL     1      15.476  30.994  30.450  1.00  0.00     0.035 C 
BRANCH  15  16
ATOM     16  C   UNL     1      15.089  29.844  29.514  1.00  0.00     0.079 C 
BRANCH  16  17
ATOM     17  C   UNL     1      15.670  28.545  30.000  1.00  0.00     0.130 C 
ATOM     18  O   UNL     1      15.455  27.515  29.379  1.00  0.00    -0.300 OA
ATOM     19  C   UNL     1      16.491  28.502  31.252  1.00  0.00     0.087 C 
ENDBRANCH  16  17
ENDBRANCH  15  16
ENDBRANCH  13  15
ENDBRANCH  11  12
ENDBRANCH   1  11
TORSDOF 9
ENDMDL
MODEL 9
REMARK VINA RESULT:    -4.891      2.341      4.697
REMARK INTER + INTRA:          -9.067
REMARK INTER:                  -5.891
REMARK INTRA:                  -3.176
REMARK UNBOUND:                -1.602
REMARK SMILES CC(=O)CCC=C(C)CCC=C(C)CCC=C(C)C
REMARK SMILES IDX 10 1 11 2 12 3 13 4 14 5 15 6 16 7 18 8 17 9 19 10 9 11 7 12
REMARK SMILES IDX 6 13 8 14 5 15 4 16 2 17 3 18 1 19
REMARK H PARENT
REMARK Flexibility Score: inf
ROOT
ATOM      1  C   UNL     1      15.026  30.783  30.127  1.00  0.00     0.032 C 
ENDROOT
BRANCH   1   2
ATOM      2  C   UNL     1      15.997  31.652  29.362  1.00  0.00    -0.028 C 
ATOM      3  C   UNL     1      16.860  32.536  29.914  1.00  0.00    -0.077 C 
ATOM      4  C   UNL     1      17.818  33.258  29.002  1.00  0.00     0.039 C 
BRANCH   3   5
ATOM      5  C   UNL     1      16.902  32.837  31.402  1.00  0.00     0.034 C 
BRANCH   5   6
ATOM      6  C   UNL     1      18.338  33.046  31.904  1.00  0.00     0.032 C 
BRANCH   6   7
ATOM      7  C   UNL     1      18.995  31.738  32.280  1.00  0.00    -0.028 C 
ATOM      8  C   UNL     1      20.903  32.045  30.687  1.00  0.00     0.039 C 
ATOM      9  C   UNL     1      20.170  31.300  31.775  1.00  0.00    -0.080 C 
ATOM     10  C   UNL     1      20.740  29.988  32.248  1.00  0.00     0.039 C 
ENDBRANCH   6   7
ENDBRANCH   5   6
ENDBRANCH   3   5
ENDBRANCH   1   2
BRANCH   1  11
ATOM     11  C   UNL     1      15.430  29.304  30.065  1.00  0.00     0.034 C 
BRANCH  11  12
ATOM     12  C   UNL     1      16.640  29.006  30.933  1.00  0.00    -0.077 C 
ATOM     13  C   UNL     1      17.846  28.663  30.423  1.00  0.00    -0.028 C 
ATOM     14  C   UNL     1      16.491  29.061  32.432  1.00  0.00     0.039 C 
BRANCH  13  15
ATOM     15  C   UNL     1      18.176  28.609  28.953  1.00  0.00     0.035 C 
BRANCH  15  16
ATOM     16  C   UNL     1      19.487  29.347  28.664  1.00  0.00     0.079 C 
BRANCH  16  17
ATOM     17  C   UNL     1      20.654  28.401  28.721  1.00  0.00     0.130 C 
ATOM     18  O   UNL     1      20.463  27.197  28.637  1.00  0.00    -0.300 OA
ATOM     19  C   UNL     1      22.046  28.923  28.902  1.00  0.00     0.087 C 
ENDBRANCH  16  17
ENDBRANCH  15  16
ENDBRANCH  13  15
ENDBRANCH  11  12
ENDBRANCH   1  11
TORSDOF 9
ENDMDL
