MODEL 1
REMARK VINA RESULT:    -3.790      0.000      0.000
REMARK INTER + INTRA:          -5.064
REMARK INTER:                  -5.119
REMARK INTRA:                   0.055
REMARK UNBOUND:                 0.055
REMARK SMILES C=C1CCC=C(C)CC[C@@H]2[C@H]1CC2(C)C
REMARK SMILES IDX 11 1 12 2 13 3 10 4 14 5 15 6 9 7 8 8 6 9 7 10 5 11 2 13
REMARK SMILES IDX 1 14 3 15 4 16
REMARK H PARENT
REMARK Flexibility Score: 70.00
ROOT
ATOM      1  C   UNL     1      -0.223  15.121  16.399  1.00  0.00     0.018 C 
ATOM      2  C   UNL     1      -0.605  14.936  17.876  1.00  0.00     0.015 C 
ATOM      3  C   UNL     1       0.048  13.542  17.882  1.00  0.00    -0.031 C 
ATOM      4  C   UNL     1       0.386  13.698  16.375  1.00  0.00     0.002 C 
ATOM      5  C   UNL     1       1.242  13.446  18.853  1.00  0.00     0.011 C 
ATOM      6  C   UNL     1      -0.971  12.419  18.149  1.00  0.00     0.011 C 
ENDROOT
BRANCH   4   7
ATOM      7  C   UNL     1       1.872  13.550  15.940  1.00  0.00     0.009 C 
BRANCH   7   8
ATOM      8  C   UNL     1       2.087  13.221  14.442  1.00  0.00     0.030 C 
BRANCH   8   9
ATOM      9  C   UNL     1       2.729  14.317  13.603  1.00  0.00    -0.077 C 
ATOM     10  C   UNL     1       4.150  14.132  13.132  1.00  0.00     0.039 C 
ATOM     11  C   UNL     1       2.108  15.474  13.282  1.00  0.00    -0.028 CG0
ATOM     12  G   UNL     1       0.682  15.829  13.618  1.00  0.00     0.000 G0
ENDBRANCH   8   9
ENDBRANCH   7   8
ENDBRANCH   4   7
BRANCH   1  13
ATOM     13  C   UNL     1       0.695  16.307  16.080  1.00  0.00    -0.074 C 
ATOM     14  C   UNL     1       1.612  16.791  16.942  1.00  0.00     0.008 C 
BRANCH  13  15
ATOM     15  C   UNL     1       0.618  16.919  14.701  1.00  0.00     0.035 C 
BRANCH  15  16
ATOM     16  C   UNL     1       0.676  15.840  13.614  1.00  0.00     0.032 CG0
ATOM     17  G   UNL     1       2.105  15.490  13.287  1.00  0.00     0.000 G0
ENDBRANCH  15  16
ENDBRANCH  13  15
ENDBRANCH   1  13
TORSDOF 0
ENDMDL
MODEL 2
REMARK VINA RESULT:    -3.554      1.750      4.572
REMARK INTER + INTRA:          -4.745
REMARK INTER:                  -4.821
REMARK INTRA:                   0.076
REMARK UNBOUND:                 0.055
REMARK SMILES C=C1CCC=C(C)CC[C@@H]2[C@H]1CC2(C)C
REMARK SMILES IDX 11 1 12 2 13 3 10 4 14 5 15 6 9 7 8 8 6 9 7 10 5 11 2 13
REMARK SMILES IDX 1 14 3 15 4 16
REMARK H PARENT
REMARK Flexibility Score: 70.00
ROOT
ATOM      1  C   UNL     1       1.506  15.384  14.545  1.00  0.00     0.018 C 
ATOM      2  C   UNL     1       1.968  15.102  13.107  1.00  0.00     0.015 C 
ATOM      3  C   UNL     1       2.669  13.813  13.574  1.00  0.00    -0.031 C 
ATOM      4  C   UNL     1       2.255  14.122  15.037  1.00  0.00     0.002 C 
ATOM      5  C   UNL     1       2.068  12.543  12.936  1.00  0.00     0.011 C 
ATOM      6  C   UNL     1       4.193  13.866  13.363  1.00  0.00     0.011 C 
ENDROOT
BRANCH   4   7
ATOM      7  C   UNL     1       1.438  13.045  15.808  1.00  0.00     0.009 C 
BRANCH   7   8
ATOM      8  C   UNL     1       1.433  13.205  17.349  1.00  0.00     0.030 C 
BRANCH   8   9
ATOM      9  C   UNL     1       0.099  13.585  17.976  1.00  0.00    -0.077 C 
ATOM     10  C   UNL     1      -0.680  12.529  18.721  1.00  0.00     0.039 C 
ATOM     11  C   UNL     1      -0.452  14.815  17.874  1.00  0.00    -0.028 CG0
ATOM     12  G   UNL     1       0.183  16.011  17.213  1.00  0.00     0.000 G0
ENDBRANCH   8   9
ENDBRANCH   7   8
ENDBRANCH   4   7
BRANCH   1  13
ATOM     13  C   UNL     1      -0.009  15.459  14.767  1.00  0.00    -0.074 C 
ATOM     14  C   UNL     1      -0.901  14.734  14.064  1.00  0.00     0.008 C 
BRANCH  13  15
ATOM     15  C   UNL     1      -0.525  16.339  15.883  1.00  0.00     0.035 C 
BRANCH  15  16
ATOM     16  C   UNL     1       0.175  16.017  17.208  1.00  0.00     0.032 CG0
ATOM     17  G   UNL     1      -0.457  14.818  17.866  1.00  0.00     0.000 G0
ENDBRANCH  15  16
ENDBRANCH  13  15
ENDBRANCH   1  13
TORSDOF 0
ENDMDL
MODEL 3
REMARK VINA RESULT:    -3.361      1.632      3.220
REMARK INTER + INTRA:          -4.485
REMARK INTER:                  -4.679
REMARK INTRA:                   0.195
REMARK UNBOUND:                 0.055
REMARK SMILES C=C1CCC=C(C)CC[C@@H]2[C@H]1CC2(C)C
REMARK SMILES IDX 11 1 12 2 13 3 10 4 14 5 15 6 9 7 8 8 6 9 7 10 5 11 2 13
REMARK SMILES IDX 1 14 3 15 4 16
REMARK H PARENT
REMARK Flexibility Score: 70.00
ROOT
ATOM      1  C   UNL     1       2.066  14.339  15.627  1.00  0.00     0.018 C 
ATOM      2  C   UNL     1       1.859  14.311  17.150  1.00  0.00     0.015 C 
ATOM      3  C   UNL     1       1.131  15.666  17.086  1.00  0.00    -0.031 C 
ATOM      4  C   UNL     1       1.385  15.728  15.556  1.00  0.00     0.002 C 
ATOM      5  C   UNL     1      -0.341  15.573  17.540  1.00  0.00     0.011 C 
ATOM      6  C   UNL     1       1.877  16.769  17.859  1.00  0.00     0.011 C 
ENDROOT
BRANCH   4   7
ATOM      7  C   UNL     1       0.157  15.890  14.617  1.00  0.00     0.009 C 
BRANCH   7   8
ATOM      8  C   UNL     1       0.422  16.703  13.325  1.00  0.00     0.030 C 
BRANCH   8   9
ATOM      9  C   UNL     1       1.687  16.343  12.558  1.00  0.00    -0.077 C 
ATOM     10  C   UNL     1       2.659  17.442  12.205  1.00  0.00     0.039 C 
ATOM     11  C   UNL     1       1.977  15.091  12.140  1.00  0.00    -0.028 CG0
ATOM     12  G   UNL     1       1.162  13.856  12.427  1.00  0.00     0.000 G0
ENDBRANCH   8   9
ENDBRANCH   7   8
ENDBRANCH   4   7
BRANCH   1  13
ATOM     13  C   UNL     1       1.437  13.185  14.837  1.00  0.00    -0.074 C 
ATOM     14  C   UNL     1       0.440  12.413  15.314  1.00  0.00     0.008 C 
BRANCH  13  15
ATOM     15  C   UNL     1       1.911  12.946  13.422  1.00  0.00     0.035 C 
BRANCH  15  16
ATOM     16  C   UNL     1       1.170  13.851  12.432  1.00  0.00     0.032 CG0
ATOM     17  G   UNL     1       1.973  15.093  12.142  1.00  0.00     0.000 G0
ENDBRANCH  15  16
ENDBRANCH  13  15
ENDBRANCH   1  13
TORSDOF 0
ENDMDL
MODEL 4
REMARK VINA RESULT:    -3.347      2.090      4.540
REMARK INTER + INTRA:          -4.466
REMARK INTER:                  -4.628
REMARK INTRA:                   0.162
REMARK UNBOUND:                 0.055
REMARK SMILES C=C1CCC=C(C)CC[C@@H]2[C@H]1CC2(C)C
REMARK SMILES IDX 11 1 12 2 13 3 10 4 14 5 15 6 9 7 8 8 6 9 7 10 5 11 2 13
REMARK SMILES IDX 1 14 3 15 4 16
REMARK H PARENT
REMARK Flexibility Score: 70.00
ROOT
ATOM      1  C   UNL     1       2.096  13.577  15.318  1.00  0.00     0.018 C 
ATOM      2  C   UNL     1       2.439  13.113  13.894  1.00  0.00     0.015 C 
ATOM      3  C   UNL     1       1.190  12.213  13.875  1.00  0.00    -0.031 C 
ATOM      4  C   UNL     1       0.869  12.635  15.334  1.00  0.00     0.002 C 
ATOM      5  C   UNL     1       0.172  12.630  12.794  1.00  0.00     0.011 C 
ATOM      6  C   UNL     1       1.545  10.721  13.751  1.00  0.00     0.011 C 
ENDROOT
BRANCH   4   7
ATOM      7  C   UNL     1      -0.525  13.260  15.624  1.00  0.00     0.009 C 
BRANCH   7   8
ATOM      8  C   UNL     1      -1.123  12.914  17.011  1.00  0.00     0.030 C 
BRANCH   8   9
ATOM      9  C   UNL     1      -0.203  13.124  18.205  1.00  0.00    -0.077 C 
ATOM     10  C   UNL     1      -0.044  12.005  19.205  1.00  0.00     0.039 C 
ATOM     11  C   UNL     1       0.460  14.277  18.445  1.00  0.00    -0.028 CG0
ATOM     12  G   UNL     1       0.468  15.489  17.550  1.00  0.00     0.000 G0
ENDBRANCH   8   9
ENDBRANCH   7   8
ENDBRANCH   4   7
BRANCH   1  13
ATOM     13  C   UNL     1       1.856  15.081  15.500  1.00  0.00    -0.074 C 
ATOM     14  C   UNL     1       1.573  15.918  14.482  1.00  0.00     0.008 C 
BRANCH  13  15
ATOM     15  C   UNL     1       1.868  15.641  16.904  1.00  0.00     0.035 C 
BRANCH  15  16
ATOM     16  C   UNL     1       0.492  15.502  17.564  1.00  0.00     0.032 CG0
ATOM     17  G   UNL     1       0.452  14.292  18.462  1.00  0.00     0.000 G0
ENDBRANCH  15  16
ENDBRANCH  13  15
ENDBRANCH   1  13
TORSDOF 0
ENDMDL
MODEL 5
REMARK VINA RESULT:    -3.290      1.814      3.970
REMARK INTER + INTRA:          -4.389
REMARK INTER:                  -4.622
REMARK INTRA:                   0.232
REMARK UNBOUND:                 0.055
REMARK SMILES C=C1CCC=C(C)CC[C@@H]2[C@H]1CC2(C)C
REMARK SMILES IDX 11 1 12 2 13 3 10 4 14 5 15 6 9 7 8 8 6 9 7 10 5 11 2 13
REMARK SMILES IDX 1 14 3 15 4 16
REMARK H PARENT
REMARK Flexibility Score: 70.00
ROOT
ATOM      1  C   UNL     1       1.317  16.041  16.215  1.00  0.00     0.018 C 
ATOM      2  C   UNL     1       1.196  17.572  16.272  1.00  0.00     0.015 C 
ATOM      3  C   UNL     1       0.630  17.592  14.841  1.00  0.00    -0.031 C 
ATOM      4  C   UNL     1       0.803  16.052  14.755  1.00  0.00     0.002 C 
ATOM      5  C   UNL     1      -0.813  18.131  14.778  1.00  0.00     0.011 C 
ATOM      6  C   UNL     1       1.544  18.348  13.860  1.00  0.00     0.011 C 
ENDROOT
BRANCH   4   7
ATOM      7  C   UNL     1      -0.450  15.193  14.418  1.00  0.00     0.009 C 
BRANCH   7   8
ATOM      8  C   UNL     1      -0.148  13.820  13.768  1.00  0.00     0.030 C 
BRANCH   8   9
ATOM      9  C   UNL     1       1.153  13.153  14.191  1.00  0.00    -0.077 C 
ATOM     10  C   UNL     1       2.238  12.958  13.160  1.00  0.00     0.039 C 
ATOM     11  C   UNL     1       1.384  12.688  15.439  1.00  0.00    -0.028 CG0
ATOM     12  G   UNL     1       0.451  12.824  16.614  1.00  0.00     0.000 G0
ENDBRANCH   8   9
ENDBRANCH   7   8
ENDBRANCH   4   7
BRANCH   1  13
ATOM     13  C   UNL     1       0.512  15.259  17.259  1.00  0.00    -0.074 C 
ATOM     14  C   UNL     1      -0.620  15.721  17.825  1.00  0.00     0.008 C 
BRANCH  13  15
ATOM     15  C   UNL     1       0.975  13.866  17.621  1.00  0.00     0.035 C 
BRANCH  15  16
ATOM     16  C   UNL     1       0.448  12.832  16.619  1.00  0.00     0.032 CG0
ATOM     17  G   UNL     1       1.386  12.701  15.447  1.00  0.00     0.000 G0
ENDBRANCH  15  16
ENDBRANCH  13  15
ENDBRANCH   1  13
TORSDOF 0
ENDMDL
MODEL 6
REMARK VINA RESULT:    -3.229      1.324      3.355
REMARK INTER + INTRA:          -4.306
REMARK INTER:                  -4.390
REMARK INTRA:                   0.083
REMARK UNBOUND:                 0.055
REMARK SMILES C=C1CCC=C(C)CC[C@@H]2[C@H]1CC2(C)C
REMARK SMILES IDX 11 1 12 2 13 3 10 4 14 5 15 6 9 7 8 8 6 9 7 10 5 11 2 13
REMARK SMILES IDX 1 14 3 15 4 16
REMARK H PARENT
REMARK Flexibility Score: 70.00
ROOT
ATOM      1  C   UNL     1       2.259  14.332  15.467  1.00  0.00     0.018 C 
ATOM      2  C   UNL     1       2.155  13.297  16.598  1.00  0.00     0.015 C 
ATOM      3  C   UNL     1       1.648  14.384  17.562  1.00  0.00    -0.031 C 
ATOM      4  C   UNL     1       1.804  15.446  16.441  1.00  0.00     0.002 C 
ATOM      5  C   UNL     1       0.215  14.114  18.065  1.00  0.00     0.011 C 
ATOM      6  C   UNL     1       2.610  14.617  18.740  1.00  0.00     0.011 C 
ENDROOT
BRANCH   4   7
ATOM      7  C   UNL     1       0.556  16.288  16.052  1.00  0.00     0.009 C 
BRANCH   7   8
ATOM      8  C   UNL     1       0.863  17.607  15.298  1.00  0.00     0.030 C 
BRANCH   8   9
ATOM      9  C   UNL     1       0.425  17.660  13.842  1.00  0.00    -0.077 C 
ATOM     10  C   UNL     1      -0.770  18.505  13.473  1.00  0.00     0.039 C 
ATOM     11  C   UNL     1       1.026  16.961  12.854  1.00  0.00    -0.028 CG0
ATOM     12  G   UNL     1       2.253  16.099  13.007  1.00  0.00     0.000 G0
ENDBRANCH   8   9
ENDBRANCH   7   8
ENDBRANCH   4   7
BRANCH   1  13
ATOM     13  C   UNL     1       1.403  14.065  14.223  1.00  0.00    -0.074 C 
ATOM     14  C   UNL     1       0.216  13.427  14.260  1.00  0.00     0.008 C 
BRANCH  13  15
ATOM     15  C   UNL     1       1.881  14.609  12.897  1.00  0.00     0.035 C 
BRANCH  15  16
ATOM     16  C   UNL     1       2.251  16.092  13.009  1.00  0.00     0.032 CG0
ATOM     17  G   UNL     1       1.030  16.959  12.842  1.00  0.00     0.000 G0
ENDBRANCH  15  16
ENDBRANCH  13  15
ENDBRANCH   1  13
TORSDOF 0
ENDMDL
MODEL 7
REMARK VINA RESULT:    -3.227      1.357      1.853
REMARK INTER + INTRA:          -4.305
REMARK INTER:                  -4.484
REMARK INTRA:                   0.179
REMARK UNBOUND:                 0.055
REMARK SMILES C=C1CCC=C(C)CC[C@@H]2[C@H]1CC2(C)C
REMARK SMILES IDX 11 1 12 2 13 3 10 4 14 5 15 6 9 7 8 8 6 9 7 10 5 11 2 13
REMARK SMILES IDX 1 14 3 15 4 16
REMARK H PARENT
REMARK Flexibility Score: 70.00
ROOT
ATOM      1  C   UNL     1      -0.541  14.712  16.508  1.00  0.00     0.018 C 
ATOM      2  C   UNL     1      -0.585  14.776  18.043  1.00  0.00     0.015 C 
ATOM      3  C   UNL     1       0.117  13.409  18.131  1.00  0.00    -0.031 C 
ATOM      4  C   UNL     1       0.114  13.312  16.582  1.00  0.00     0.002 C 
ATOM      5  C   UNL     1       1.496  13.490  18.817  1.00  0.00     0.011 C 
ATOM      6  C   UNL     1      -0.767  12.339  18.796  1.00  0.00     0.011 C 
ENDROOT
BRANCH   4   7
ATOM      7  C   UNL     1       1.477  13.106  15.860  1.00  0.00     0.009 C 
BRANCH   7   8
ATOM      8  C   UNL     1       1.407  12.275  14.554  1.00  0.00     0.030 C 
BRANCH   8   9
ATOM      9  C   UNL     1       0.280  12.632  13.595  1.00  0.00    -0.077 C 
ATOM     10  C   UNL     1      -0.644  11.538  13.121  1.00  0.00     0.039 C 
ATOM     11  C   UNL     1       0.077  13.877  13.110  1.00  0.00    -0.028 CG0
ATOM     12  G   UNL     1       0.858  15.108  13.492  1.00  0.00     0.000 G0
ENDBRANCH   8   9
ENDBRANCH   7   8
ENDBRANCH   4   7
BRANCH   1  13
ATOM     13  C   UNL     1       0.232  15.835  15.806  1.00  0.00    -0.074 C 
ATOM     14  C   UNL     1       1.163  16.594  16.417  1.00  0.00     0.008 C 
BRANCH  13  15
ATOM     15  C   UNL     1      -0.014  16.057  14.331  1.00  0.00     0.035 C 
BRANCH  15  16
ATOM     16  C   UNL     1       0.848  15.117  13.481  1.00  0.00     0.032 CG0
ATOM     17  G   UNL     1       0.077  13.874  13.114  1.00  0.00     0.000 G0
ENDBRANCH  15  16
ENDBRANCH  13  15
ENDBRANCH   1  13
TORSDOF 0
ENDMDL
MODEL 8
REMARK VINA RESULT:    -3.015      1.803      4.687
REMARK INTER + INTRA:          -4.017
REMARK INTER:                  -4.226
REMARK INTRA:                   0.209
REMARK UNBOUND:                 0.055
REMARK SMILES C=C1CCC=C(C)CC[C@@H]2[C@H]1CC2(C)C
REMARK SMILES IDX 11 1 12 2 13 3 10 4 14 5 15 6 9 7 8 8 6 9 7 10 5 11 2 13
REMARK SMILES IDX 1 14 3 15 4 16
REMARK H PARENT
REMARK Flexibility Score: 70.00
ROOT
ATOM      1  C   UNL     1      -0.106  15.252  14.002  1.00  0.00     0.018 C 
ATOM      2  C   UNL     1      -0.169  16.495  13.099  1.00  0.00     0.015 C 
ATOM      3  C   UNL     1       0.146  17.399  14.304  1.00  0.00    -0.031 C 
ATOM      4  C   UNL     1       0.156  16.155  15.232  1.00  0.00     0.002 C 
ATOM      5  C   UNL     1       1.481  18.157  14.148  1.00  0.00     0.011 C 
ATOM      6  C   UNL     1      -1.004  18.371  14.624  1.00  0.00     0.011 C 
ENDROOT
BRANCH   4   7
ATOM      7  C   UNL     1       1.433  15.883  16.076  1.00  0.00     0.009 C 
BRANCH   7   8
ATOM      8  C   UNL     1       1.179  15.216  17.452  1.00  0.00     0.030 C 
BRANCH   8   9
ATOM      9  C   UNL     1       0.197  14.052  17.458  1.00  0.00    -0.077 C 
ATOM     10  C   UNL     1      -0.970  14.093  18.414  1.00  0.00     0.039 C 
ATOM     11  C   UNL     1       0.329  12.958  16.677  1.00  0.00    -0.028 CG0
ATOM     12  G   UNL     1       1.395  12.746  15.632  1.00  0.00     0.000 G0
ENDBRANCH   8   9
ENDBRANCH   7   8
ENDBRANCH   4   7
BRANCH   1  13
ATOM     13  C   UNL     1       0.951  14.204  13.636  1.00  0.00    -0.074 C 
ATOM     14  C   UNL     1       2.033  14.470  12.877  1.00  0.00     0.008 C 
BRANCH  13  15
ATOM     15  C   UNL     1       0.811  12.815  14.217  1.00  0.00     0.035 C 
BRANCH  15  16
ATOM     16  C   UNL     1       1.402  12.746  15.630  1.00  0.00     0.032 CG0
ATOM     17  G   UNL     1       0.326  12.942  16.667  1.00  0.00     0.000 G0
ENDBRANCH  15  16
ENDBRANCH  13  15
ENDBRANCH   1  13
TORSDOF 0
ENDMDL
MODEL 9
REMARK VINA RESULT:    -2.943      1.640      3.509
REMARK INTER + INTRA:          -3.920
REMARK INTER:                  -4.076
REMARK INTRA:                   0.156
REMARK UNBOUND:                 0.055
REMARK SMILES C=C1CCC=C(C)CC[C@@H]2[C@H]1CC2(C)C
REMARK SMILES IDX 11 1 12 2 13 3 10 4 14 5 15 6 9 7 8 8 6 9 7 10 5 11 2 13
REMARK SMILES IDX 1 14 3 15 4 16
REMARK H PARENT
REMARK Flexibility Score: 70.00
ROOT
ATOM      1  C   UNL     1       1.407  15.250  16.164  1.00  0.00     0.018 C 
ATOM      2  C   UNL     1       0.752  16.333  17.036  1.00  0.00     0.015 C 
ATOM      3  C   UNL     1       0.655  17.269  15.818  1.00  0.00    -0.031 C 
ATOM      4  C   UNL     1       1.367  16.202  14.945  1.00  0.00     0.002 C 
ATOM      5  C   UNL     1      -0.802  17.610  15.443  1.00  0.00     0.011 C 
ATOM      6  C   UNL     1       1.492  18.549  15.995  1.00  0.00     0.011 C 
ENDROOT
BRANCH   4   7
ATOM      7  C   UNL     1       0.644  15.709  13.659  1.00  0.00     0.009 C 
BRANCH   7   8
ATOM      8  C   UNL     1       1.581  15.348  12.479  1.00  0.00     0.030 C 
BRANCH   8   9
ATOM      9  C   UNL     1       2.774  14.466  12.819  1.00  0.00    -0.077 C 
ATOM     10  C   UNL     1       4.151  14.911  12.391  1.00  0.00     0.039 C 
ATOM     11  C   UNL     1       2.669  13.279  13.456  1.00  0.00    -0.028 CG0
ATOM     12  G   UNL     1       1.397  12.682  14.001  1.00  0.00     0.000 G0
ENDBRANCH   8   9
ENDBRANCH   7   8
ENDBRANCH   4   7
BRANCH   1  13
ATOM     13  C   UNL     1       0.657  13.916  16.065  1.00  0.00    -0.074 C 
ATOM     14  C   UNL     1      -0.652  13.774  16.354  1.00  0.00     0.008 C 
BRANCH  13  15
ATOM     15  C   UNL     1       1.409  12.711  15.548  1.00  0.00     0.035 C 
BRANCH  15  16
ATOM     16  C   UNL     1       1.389  12.664  14.016  1.00  0.00     0.032 CG0
ATOM     17  G   UNL     1       2.646  13.272  13.448  1.00  0.00     0.000 G0
ENDBRANCH  15  16
ENDBRANCH  13  15
ENDBRANCH   1  13
TORSDOF 0
ENDMDL
