MODEL 1
REMARK VINA RESULT:    -2.746      0.000      0.000
REMARK INTER + INTRA:          -2.746
REMARK INTER:                  -2.746
REMARK INTRA:                   0.000
REMARK UNBOUND:                 0.000
REMARK SMILES CC(=O)[O-]
REMARK SMILES IDX 1 1 2 2 3 3 4 4
REMARK H PARENT
REMARK Flexibility Score: inf
ROOT
ATOM      1  C   UNL     1      22.709 -11.984  20.821  1.00  0.00     0.063 C 
ATOM      2  C   UNL     1      23.255 -10.716  21.384  1.00  0.00     0.038 C 
ATOM      3  O   UNL     1      23.048 -10.419  22.590  1.00  0.00    -0.550 OA
ATOM      4  O   UNL     1      23.947  -9.831  20.566  1.00  0.00    -0.550 OA
ENDROOT
TORSDOF 0
ENDMDL
MODEL 2
REMARK VINA RESULT:    -2.722      1.482      1.913
REMARK INTER + INTRA:          -2.722
REMARK INTER:                  -2.722
REMARK INTRA:                   0.000
REMARK UNBOUND:                 0.000
REMARK SMILES CC(=O)[O-]
REMARK SMILES IDX 1 1 2 2 3 3 4 4
REMARK H PARENT
REMARK Flexibility Score: inf
ROOT
ATOM      1  C   UNL     1      23.016 -10.741  22.334  1.00  0.00     0.063 C 
ATOM      2  C   UNL     1      23.379 -10.626  20.893  1.00  0.00     0.038 C 
ATOM      3  O   UNL     1      24.272  -9.816  20.528  1.00  0.00    -0.550 OA
ATOM      4  O   UNL     1      22.695 -11.371  19.941  1.00  0.00    -0.550 OA
ENDROOT
TORSDOF 0
ENDMDL
MODEL 3
REMARK VINA RESULT:    -2.710      0.276      1.643
REMARK INTER + INTRA:          -2.710
REMARK INTER:                  -2.710
REMARK INTRA:                   0.000
REMARK UNBOUND:                 0.000
REMARK SMILES CC(=O)[O-]
REMARK SMILES IDX 1 1 2 2 3 3 4 4
REMARK H PARENT
REMARK Flexibility Score: inf
ROOT
ATOM      1  C   UNL     1      22.646 -11.829  20.407  1.00  0.00     0.063 C 
ATOM      2  C   UNL     1      23.288 -10.697  21.136  1.00  0.00     0.038 C 
ATOM      3  O   UNL     1      24.050  -9.903  20.525  1.00  0.00    -0.550 OA
ATOM      4  O   UNL     1      23.089 -10.547  22.503  1.00  0.00    -0.550 OA
ENDROOT
TORSDOF 0
ENDMDL
MODEL 4
REMARK VINA RESULT:    -2.702      1.409      1.704
REMARK INTER + INTRA:          -2.702
REMARK INTER:                  -2.702
REMARK INTRA:                   0.000
REMARK UNBOUND:                 0.000
REMARK SMILES CC(=O)[O-]
REMARK SMILES IDX 1 1 2 2 3 3 4 4
REMARK H PARENT
REMARK Flexibility Score: inf
ROOT
ATOM      1  C   UNL     1      22.898 -11.118  22.246  1.00  0.00     0.063 C 
ATOM      2  C   UNL     1      23.289 -10.786  20.846  1.00  0.00     0.038 C 
ATOM      3  O   UNL     1      22.777 -11.412  19.881  1.00  0.00    -0.550 OA
ATOM      4  O   UNL     1      24.260  -9.822  20.604  1.00  0.00    -0.550 OA
ENDROOT
TORSDOF 0
ENDMDL
MODEL 5
REMARK VINA RESULT:    -2.404      2.906      3.130
REMARK INTER + INTRA:          -2.404
REMARK INTER:                  -2.404
REMARK INTRA:                   0.000
REMARK UNBOUND:                 0.000
REMARK SMILES CC(=O)[O-]
REMARK SMILES IDX 1 1 2 2 3 3 4 4
REMARK H PARENT
REMARK Flexibility Score: inf
ROOT
ATOM      1  C   UNL     1      22.707 -11.849  21.028  1.00  0.00     0.063 C 
ATOM      2  C   UNL     1      22.561 -12.837  19.921  1.00  0.00     0.038 C 
ATOM      3  O   UNL     1      22.556 -14.071  20.171  1.00  0.00    -0.550 OA
ATOM      4  O   UNL     1      22.485 -12.401  18.604  1.00  0.00    -0.550 OA
ENDROOT
TORSDOF 0
ENDMDL
MODEL 6
REMARK VINA RESULT:    -2.336      2.975      3.307
REMARK INTER + INTRA:          -2.336
REMARK INTER:                  -2.336
REMARK INTRA:                   0.000
REMARK UNBOUND:                 0.000
REMARK SMILES CC(=O)[O-]
REMARK SMILES IDX 1 1 2 2 3 3 4 4
REMARK H PARENT
REMARK Flexibility Score: inf
ROOT
ATOM      1  C   UNL     1      22.816 -12.615  18.775  1.00  0.00     0.063 C 
ATOM      2  C   UNL     1      22.613 -13.177  20.140  1.00  0.00     0.038 C 
ATOM      3  O   UNL     1      22.817 -12.462  21.156  1.00  0.00    -0.550 OA
ATOM      4  O   UNL     1      22.249 -14.509  20.298  1.00  0.00    -0.550 OA
ENDROOT
TORSDOF 0
ENDMDL
MODEL 7
REMARK VINA RESULT:    -2.252      4.001      4.529
REMARK INTER + INTRA:          -2.252
REMARK INTER:                  -2.252
REMARK INTRA:                   0.000
REMARK UNBOUND:                 0.000
REMARK SMILES CC(=O)[O-]
REMARK SMILES IDX 1 1 2 2 3 3 4 4
REMARK H PARENT
REMARK Flexibility Score: inf
ROOT
ATOM      1  C   UNL     1      23.694 -12.786  16.074  1.00  0.00     0.063 C 
ATOM      2  C   UNL     1      23.625 -12.277  17.474  1.00  0.00     0.038 C 
ATOM      3  O   UNL     1      24.594 -11.638  17.963  1.00  0.00    -0.550 OA
ATOM      4  O   UNL     1      22.514 -12.552  18.261  1.00  0.00    -0.550 OA
ENDROOT
TORSDOF 0
ENDMDL
MODEL 8
REMARK VINA RESULT:    -2.162      5.515      6.038
REMARK INTER + INTRA:          -2.162
REMARK INTER:                  -2.162
REMARK INTRA:                   0.000
REMARK UNBOUND:                 0.000
REMARK SMILES CC(=O)[O-]
REMARK SMILES IDX 1 1 2 2 3 3 4 4
REMARK H PARENT
REMARK Flexibility Score: inf
ROOT
ATOM      1  C   UNL     1      26.150 -11.073  14.862  1.00  0.00     0.063 C 
ATOM      2  C   UNL     1      25.124 -11.230  15.932  1.00  0.00     0.038 C 
ATOM      3  O   UNL     1      25.255 -10.624  17.028  1.00  0.00    -0.550 OA
ATOM      4  O   UNL     1      24.048 -12.089  15.745  1.00  0.00    -0.550 OA
ENDROOT
TORSDOF 0
ENDMDL
MODEL 9
REMARK VINA RESULT:    -2.157      5.272      5.697
REMARK INTER + INTRA:          -2.157
REMARK INTER:                  -2.157
REMARK INTRA:                   0.000
REMARK UNBOUND:                 0.000
REMARK SMILES CC(=O)[O-]
REMARK SMILES IDX 1 1 2 2 3 3 4 4
REMARK H PARENT
REMARK Flexibility Score: inf
ROOT
ATOM      1  C   UNL     1      23.698 -12.674  16.127  1.00  0.00     0.063 C 
ATOM      2  C   UNL     1      24.825 -11.699  16.177  1.00  0.00     0.038 C 
ATOM      3  O   UNL     1      24.944 -10.824  15.279  1.00  0.00    -0.550 OA
ATOM      4  O   UNL     1      25.777 -11.786  17.185  1.00  0.00    -0.550 OA
ENDROOT
TORSDOF 0
ENDMDL
