MODEL 1
REMARK VINA RESULT:    -4.239      0.000      0.000
REMARK INTER + INTRA:          -9.276
REMARK INTER:                  -7.709
REMARK INTRA:                  -1.567
REMARK UNBOUND:                -1.567
REMARK SMILES CCCCCCCCCCCCCCCC(=O)[O-]
REMARK SMILES IDX 9 1 10 2 11 3 12 4 13 5 14 6 15 7 16 8 17 9 18 10 8 11 7 12
REMARK SMILES IDX 6 13 5 14 4 15 3 16 2 17 1 18
REMARK H PARENT
REMARK Flexibility Score: inf
ROOT
ATOM      1  C   UNL     1       6.465  -2.324  -9.360  1.00  0.00     0.000 C 
ENDROOT
BRANCH   1   2
ATOM      2  C   UNL     1       7.813  -2.285  -8.626  1.00  0.00     0.000 C 
BRANCH   2   3
ATOM      3  C   UNL     1       7.686  -2.593  -7.123  1.00  0.00     0.000 C 
BRANCH   3   4
ATOM      4  C   UNL     1       8.418  -3.867  -6.653  1.00  0.00     0.000 C 
BRANCH   4   5
ATOM      5  C   UNL     1       8.685  -4.912  -7.751  1.00  0.00     0.000 C 
BRANCH   5   6
ATOM      6  C   UNL     1       7.572  -5.970  -7.853  1.00  0.00     0.006 C 
BRANCH   6   7
ATOM      7  C   UNL     1       7.554  -6.908  -6.640  1.00  0.00     0.053 C 
BRANCH   7   8
ATOM      8  C   UNL     1       6.294  -6.762  -5.843  1.00  0.00     0.041 C 
ATOM      9  O   UNL     1       6.168  -5.814  -5.022  1.00  0.00    -0.550 OA
ATOM     10  O   UNL     1       5.247  -7.656  -6.026  1.00  0.00    -0.550 OA
ENDBRANCH   7   8
ENDBRANCH   6   7
ENDBRANCH   5   6
ENDBRANCH   4   5
ENDBRANCH   3   4
ENDBRANCH   2   3
ENDBRANCH   1   2
BRANCH   1  11
ATOM     11  C   UNL     1       5.318  -2.620  -8.381  1.00  0.00     0.000 C 
BRANCH  11  12
ATOM     12  C   UNL     1       4.393  -3.747  -8.871  1.00  0.00    -0.000 C 
BRANCH  12  13
ATOM     13  C   UNL     1       3.631  -4.428  -7.721  1.00  0.00    -0.000 C 
BRANCH  13  14
ATOM     14  C   UNL     1       3.849  -3.725  -6.372  1.00  0.00    -0.000 C 
BRANCH  14  15
ATOM     15  C   UNL     1       2.564  -3.640  -5.532  1.00  0.00    -0.000 C 
BRANCH  15  16
ATOM     16  C   UNL     1       2.631  -2.540  -4.460  1.00  0.00    -0.000 C 
BRANCH  16  17
ATOM     17  C   UNL     1       1.794  -2.876  -3.217  1.00  0.00    -0.003 C 
ATOM     18  C   UNL     1       2.412  -2.271  -1.959  1.00  0.00     0.004 C 
ENDBRANCH  16  17
ENDBRANCH  15  16
ENDBRANCH  14  15
ENDBRANCH  13  14
ENDBRANCH  12  13
ENDBRANCH  11  12
ENDBRANCH   1  11
TORSDOF 14
ENDMDL
MODEL 2
REMARK VINA RESULT:    -3.944      1.546      2.273
REMARK INTER + INTRA:          -8.738
REMARK INTER:                  -7.166
REMARK INTRA:                  -1.573
REMARK UNBOUND:                -1.567
REMARK SMILES CCCCCCCCCCCCCCCC(=O)[O-]
REMARK SMILES IDX 9 1 10 2 11 3 12 4 13 5 14 6 15 7 16 8 17 9 18 10 8 11 7 12
REMARK SMILES IDX 6 13 5 14 4 15 3 16 2 17 1 18
REMARK H PARENT
REMARK Flexibility Score: inf
ROOT
ATOM      1  C   UNL     1       8.231  -2.673  -7.377  1.00  0.00     0.000 C 
ENDROOT
BRANCH   1   2
ATOM      2  C   UNL     1       9.211  -3.749  -6.887  1.00  0.00     0.000 C 
BRANCH   2   3
ATOM      3  C   UNL     1       8.866  -5.156  -7.409  1.00  0.00     0.000 C 
BRANCH   3   4
ATOM      4  C   UNL     1       8.441  -6.169  -6.325  1.00  0.00     0.000 C 
BRANCH   4   5
ATOM      5  C   UNL     1       7.127  -6.919  -6.610  1.00  0.00     0.000 C 
BRANCH   5   6
ATOM      6  C   UNL     1       6.723  -6.873  -8.094  1.00  0.00     0.006 C 
BRANCH   6   7
ATOM      7  C   UNL     1       5.542  -7.802  -8.401  1.00  0.00     0.053 C 
BRANCH   7   8
ATOM      8  C   UNL     1       4.230  -7.090  -8.284  1.00  0.00     0.041 C 
ATOM      9  O   UNL     1       3.600  -7.094  -7.192  1.00  0.00    -0.550 OA
ATOM     10  O   UNL     1       3.714  -6.399  -9.373  1.00  0.00    -0.550 OA
ENDBRANCH   7   8
ENDBRANCH   6   7
ENDBRANCH   5   6
ENDBRANCH   4   5
ENDBRANCH   3   4
ENDBRANCH   2   3
ENDBRANCH   1   2
BRANCH   1  11
ATOM     11  C   UNL     1       6.789  -3.026  -6.982  1.00  0.00     0.000 C 
BRANCH  11  12
ATOM     12  C   UNL     1       5.833  -3.059  -8.185  1.00  0.00    -0.000 C 
BRANCH  12  13
ATOM     13  C   UNL     1       4.397  -3.443  -7.789  1.00  0.00    -0.000 C 
BRANCH  13  14
ATOM     14  C   UNL     1       4.252  -3.707  -6.282  1.00  0.00    -0.000 C 
BRANCH  14  15
ATOM     15  C   UNL     1       2.794  -3.611  -5.800  1.00  0.00    -0.000 C 
BRANCH  15  16
ATOM     16  C   UNL     1       2.589  -2.501  -4.756  1.00  0.00    -0.000 C 
BRANCH  16  17
ATOM     17  C   UNL     1       1.818  -2.988  -3.521  1.00  0.00    -0.003 C 
ATOM     18  C   UNL     1       2.548  -2.613  -2.235  1.00  0.00     0.004 C 
ENDBRANCH  16  17
ENDBRANCH  15  16
ENDBRANCH  14  15
ENDBRANCH  13  14
ENDBRANCH  12  13
ENDBRANCH  11  12
ENDBRANCH   1  11
TORSDOF 14
ENDMDL
MODEL 3
REMARK VINA RESULT:    -3.770      2.216      5.463
REMARK INTER + INTRA:          -8.422
REMARK INTER:                  -6.026
REMARK INTRA:                  -2.396
REMARK UNBOUND:                -1.567
REMARK SMILES CCCCCCCCCCCCCCCC(=O)[O-]
REMARK SMILES IDX 9 1 10 2 11 3 12 4 13 5 14 6 15 7 16 8 17 9 18 10 8 11 7 12
REMARK SMILES IDX 6 13 5 14 4 15 3 16 2 17 1 18
REMARK H PARENT
REMARK Flexibility Score: inf
ROOT
ATOM      1  C   UNL     1       6.154  -4.402  -5.978  1.00  0.00     0.000 C 
ENDROOT
BRANCH   1   2
ATOM      2  C   UNL     1       4.648  -4.101  -5.985  1.00  0.00     0.000 C 
BRANCH   2   3
ATOM      3  C   UNL     1       4.164  -3.505  -7.319  1.00  0.00     0.000 C 
BRANCH   3   4
ATOM      4  C   UNL     1       5.280  -3.175  -8.331  1.00  0.00     0.000 C 
BRANCH   4   5
ATOM      5  C   UNL     1       5.506  -4.234  -9.424  1.00  0.00     0.000 C 
BRANCH   5   6
ATOM      6  C   UNL     1       4.428  -5.332  -9.424  1.00  0.00     0.006 C 
BRANCH   6   7
ATOM      7  C   UNL     1       5.033  -6.738  -9.519  1.00  0.00     0.053 C 
BRANCH   7   8
ATOM      8  C   UNL     1       4.741  -7.552  -8.296  1.00  0.00     0.041 C 
ATOM      9  O   UNL     1       5.393  -8.604  -8.062  1.00  0.00    -0.550 OA
ATOM     10  O   UNL     1       3.765  -7.134  -7.399  1.00  0.00    -0.550 OA
ENDBRANCH   7   8
ENDBRANCH   6   7
ENDBRANCH   5   6
ENDBRANCH   4   5
ENDBRANCH   3   4
ENDBRANCH   2   3
ENDBRANCH   1   2
BRANCH   1  11
ATOM     11  C   UNL     1       6.417  -5.867  -5.595  1.00  0.00     0.000 C 
BRANCH  11  12
ATOM     12  C   UNL     1       7.783  -6.374  -6.084  1.00  0.00    -0.000 C 
BRANCH  12  13
ATOM     13  C   UNL     1       8.253  -5.664  -7.366  1.00  0.00    -0.000 C 
BRANCH  13  14
ATOM     14  C   UNL     1       9.769  -5.408  -7.375  1.00  0.00    -0.000 C 
BRANCH  14  15
ATOM     15  C   UNL     1      10.125  -3.970  -7.792  1.00  0.00    -0.000 C 
BRANCH  15  16
ATOM     16  C   UNL     1       8.993  -2.972  -7.497  1.00  0.00    -0.000 C 
BRANCH  16  17
ATOM     17  C   UNL     1       8.862  -1.892  -8.580  1.00  0.00    -0.003 C 
ATOM     18  C   UNL     1       8.669  -2.519  -9.959  1.00  0.00     0.004 C 
ENDBRANCH  16  17
ENDBRANCH  15  16
ENDBRANCH  14  15
ENDBRANCH  13  14
ENDBRANCH  12  13
ENDBRANCH  11  12
ENDBRANCH   1  11
TORSDOF 14
ENDMDL
MODEL 4
REMARK VINA RESULT:    -3.762      2.609      5.794
REMARK INTER + INTRA:          -8.408
REMARK INTER:                  -5.787
REMARK INTRA:                  -2.621
REMARK UNBOUND:                -1.567
REMARK SMILES CCCCCCCCCCCCCCCC(=O)[O-]
REMARK SMILES IDX 9 1 10 2 11 3 12 4 13 5 14 6 15 7 16 8 17 9 18 10 8 11 7 12
REMARK SMILES IDX 6 13 5 14 4 15 3 16 2 17 1 18
REMARK H PARENT
REMARK Flexibility Score: inf
ROOT
ATOM      1  C   UNL     1       6.512  -5.384  -5.691  1.00  0.00     0.000 C 
ENDROOT
BRANCH   1   2
ATOM      2  C   UNL     1       7.616  -4.477  -6.255  1.00  0.00     0.000 C 
BRANCH   2   3
ATOM      3  C   UNL     1       7.126  -3.048  -6.548  1.00  0.00     0.000 C 
BRANCH   3   4
ATOM      4  C   UNL     1       7.219  -2.615  -8.026  1.00  0.00     0.000 C 
BRANCH   4   5
ATOM      5  C   UNL     1       5.894  -2.665  -8.807  1.00  0.00     0.000 C 
BRANCH   5   6
ATOM      6  C   UNL     1       4.686  -2.998  -7.914  1.00  0.00     0.006 C 
BRANCH   6   7
ATOM      7  C   UNL     1       3.774  -4.057  -8.545  1.00  0.00     0.053 C 
BRANCH   7   8
ATOM      8  C   UNL     1       3.215  -4.993  -7.518  1.00  0.00     0.041 C 
ATOM      9  O   UNL     1       3.581  -6.198  -7.489  1.00  0.00    -0.550 OA
ATOM     10  O   UNL     1       2.310  -4.527  -6.572  1.00  0.00    -0.550 OA
ENDBRANCH   7   8
ENDBRANCH   6   7
ENDBRANCH   5   6
ENDBRANCH   4   5
ENDBRANCH   3   4
ENDBRANCH   2   3
ENDBRANCH   1   2
BRANCH   1  11
ATOM     11  C   UNL     1       6.973  -6.849  -5.652  1.00  0.00     0.000 C 
BRANCH  11  12
ATOM     12  C   UNL     1       8.499  -6.989  -5.532  1.00  0.00    -0.000 C 
BRANCH  12  13
ATOM     13  C   UNL     1       9.092  -7.927  -6.598  1.00  0.00    -0.000 C 
BRANCH  13  14
ATOM     14  C   UNL     1       9.726  -7.160  -7.770  1.00  0.00    -0.000 C 
BRANCH  14  15
ATOM     15  C   UNL     1       8.918  -7.292  -9.072  1.00  0.00    -0.000 C 
BRANCH  15  16
ATOM     16  C   UNL     1       8.138  -6.012  -9.415  1.00  0.00    -0.000 C 
BRANCH  16  17
ATOM     17  C   UNL     1       6.619  -6.234  -9.431  1.00  0.00    -0.003 C 
ATOM     18  C   UNL     1       6.275  -7.698  -9.171  1.00  0.00     0.004 C 
ENDBRANCH  16  17
ENDBRANCH  15  16
ENDBRANCH  14  15
ENDBRANCH  13  14
ENDBRANCH  12  13
ENDBRANCH  11  12
ENDBRANCH   1  11
TORSDOF 14
ENDMDL
MODEL 5
REMARK VINA RESULT:    -3.742      2.084      4.873
REMARK INTER + INTRA:          -8.372
REMARK INTER:                  -6.128
REMARK INTRA:                  -2.244
REMARK UNBOUND:                -1.567
REMARK SMILES CCCCCCCCCCCCCCCC(=O)[O-]
REMARK SMILES IDX 9 1 10 2 11 3 12 4 13 5 14 6 15 7 16 8 17 9 18 10 8 11 7 12
REMARK SMILES IDX 6 13 5 14 4 15 3 16 2 17 1 18
REMARK H PARENT
REMARK Flexibility Score: inf
ROOT
ATOM      1  C   UNL     1       3.376  -4.501  -8.059  1.00  0.00     0.000 C 
ENDROOT
BRANCH   1   2
ATOM      2  C   UNL     1       3.715  -5.998  -8.004  1.00  0.00     0.000 C 
BRANCH   2   3
ATOM      3  C   UNL     1       4.134  -6.567  -9.371  1.00  0.00     0.000 C 
BRANCH   3   4
ATOM      4  C   UNL     1       5.628  -6.397  -9.720  1.00  0.00     0.000 C 
BRANCH   4   5
ATOM      5  C   UNL     1       6.603  -7.172  -8.816  1.00  0.00     0.000 C 
BRANCH   5   6
ATOM      6  C   UNL     1       7.377  -6.258  -7.850  1.00  0.00     0.006 C 
BRANCH   6   7
ATOM      7  C   UNL     1       7.571  -6.903  -6.473  1.00  0.00     0.053 C 
BRANCH   7   8
ATOM      8  C   UNL     1       6.304  -6.898  -5.674  1.00  0.00     0.041 C 
ATOM      9  O   UNL     1       5.563  -7.916  -5.652  1.00  0.00    -0.550 OA
ATOM     10  O   UNL     1       5.955  -5.778  -4.930  1.00  0.00    -0.550 OA
ENDBRANCH   7   8
ENDBRANCH   6   7
ENDBRANCH   5   6
ENDBRANCH   4   5
ENDBRANCH   3   4
ENDBRANCH   2   3
ENDBRANCH   1   2
BRANCH   1  11
ATOM     11  C   UNL     1       4.128  -3.730  -6.962  1.00  0.00     0.000 C 
BRANCH  11  12
ATOM     12  C   UNL     1       5.492  -3.202  -7.435  1.00  0.00    -0.000 C 
BRANCH  12  13
ATOM     13  C   UNL     1       5.451  -2.663  -8.876  1.00  0.00    -0.000 C 
BRANCH  13  14
ATOM     14  C   UNL     1       6.745  -2.957  -9.652  1.00  0.00    -0.000 C 
BRANCH  14  15
ATOM     15  C   UNL     1       7.619  -1.705  -9.844  1.00  0.00    -0.000 C 
BRANCH  15  16
ATOM     16  C   UNL     1       8.633  -1.513  -8.705  1.00  0.00    -0.000 C 
BRANCH  16  17
ATOM     17  C   UNL     1       9.533  -2.741  -8.504  1.00  0.00    -0.003 C 
ATOM     18  C   UNL     1       9.338  -3.343  -7.115  1.00  0.00     0.004 C 
ENDBRANCH  16  17
ENDBRANCH  15  16
ENDBRANCH  14  15
ENDBRANCH  13  14
ENDBRANCH  12  13
ENDBRANCH  11  12
ENDBRANCH   1  11
TORSDOF 14
ENDMDL
MODEL 6
REMARK VINA RESULT:    -3.702      2.331      4.922
REMARK INTER + INTRA:          -8.299
REMARK INTER:                  -6.071
REMARK INTRA:                  -2.227
REMARK UNBOUND:                -1.567
REMARK SMILES CCCCCCCCCCCCCCCC(=O)[O-]
REMARK SMILES IDX 9 1 10 2 11 3 12 4 13 5 14 6 15 7 16 8 17 9 18 10 8 11 7 12
REMARK SMILES IDX 6 13 5 14 4 15 3 16 2 17 1 18
REMARK H PARENT
REMARK Flexibility Score: inf
ROOT
ATOM      1  C   UNL     1       8.105  -2.610  -7.169  1.00  0.00     0.000 C 
ENDROOT
BRANCH   1   2
ATOM      2  C   UNL     1       8.796  -2.014  -8.404  1.00  0.00     0.000 C 
BRANCH   2   3
ATOM      3  C   UNL     1       7.805  -1.631  -9.518  1.00  0.00     0.000 C 
BRANCH   3   4
ATOM      4  C   UNL     1       6.799  -2.735  -9.905  1.00  0.00     0.000 C 
BRANCH   4   5
ATOM      5  C   UNL     1       5.317  -2.363  -9.722  1.00  0.00     0.000 C 
BRANCH   5   6
ATOM      6  C   UNL     1       4.811  -2.613  -8.291  1.00  0.00     0.006 C 
BRANCH   6   7
ATOM      7  C   UNL     1       4.747  -4.107  -7.952  1.00  0.00     0.053 C 
BRANCH   7   8
ATOM      8  C   UNL     1       3.671  -4.405  -6.953  1.00  0.00     0.041 C 
ATOM      9  O   UNL     1       2.816  -5.300  -7.188  1.00  0.00    -0.550 OA
ATOM     10  O   UNL     1       3.629  -3.713  -5.749  1.00  0.00    -0.550 OA
ENDBRANCH   7   8
ENDBRANCH   6   7
ENDBRANCH   5   6
ENDBRANCH   4   5
ENDBRANCH   3   4
ENDBRANCH   2   3
ENDBRANCH   1   2
BRANCH   1  11
ATOM     11  C   UNL     1       8.741  -3.954  -6.782  1.00  0.00     0.000 C 
BRANCH  11  12
ATOM     12  C   UNL     1       9.840  -4.397  -7.762  1.00  0.00    -0.000 C 
BRANCH  12  13
ATOM     13  C   UNL     1       9.522  -5.741  -8.439  1.00  0.00    -0.000 C 
BRANCH  13  14
ATOM     14  C   UNL     1       8.017  -5.933  -8.689  1.00  0.00    -0.000 C 
BRANCH  14  15
ATOM     15  C   UNL     1       7.537  -7.355  -8.354  1.00  0.00    -0.000 C 
BRANCH  15  16
ATOM     16  C   UNL     1       7.468  -7.614  -6.840  1.00  0.00    -0.000 C 
BRANCH  16  17
ATOM     17  C   UNL     1       6.139  -7.153  -6.223  1.00  0.00    -0.003 C 
ATOM     18  C   UNL     1       6.369  -6.074  -5.168  1.00  0.00     0.004 C 
ENDBRANCH  16  17
ENDBRANCH  15  16
ENDBRANCH  14  15
ENDBRANCH  13  14
ENDBRANCH  12  13
ENDBRANCH  11  12
ENDBRANCH   1  11
TORSDOF 14
ENDMDL
MODEL 7
REMARK VINA RESULT:    -3.697      3.017      5.280
REMARK INTER + INTRA:          -8.289
REMARK INTER:                  -5.948
REMARK INTRA:                  -2.341
REMARK UNBOUND:                -1.567
REMARK SMILES CCCCCCCCCCCCCCCC(=O)[O-]
REMARK SMILES IDX 9 1 10 2 11 3 12 4 13 5 14 6 15 7 16 8 17 9 18 10 8 11 7 12
REMARK SMILES IDX 6 13 5 14 4 15 3 16 2 17 1 18
REMARK H PARENT
REMARK Flexibility Score: inf
ROOT
ATOM      1  C   UNL     1       3.132  -4.690  -8.251  1.00  0.00     0.000 C 
ENDROOT
BRANCH   1   2
ATOM      2  C   UNL     1       3.979  -4.110  -7.108  1.00  0.00     0.000 C 
BRANCH   2   3
ATOM      3  C   UNL     1       4.935  -2.999  -7.576  1.00  0.00     0.000 C 
BRANCH   3   4
ATOM      4  C   UNL     1       4.538  -2.308  -8.897  1.00  0.00     0.000 C 
BRANCH   4   5
ATOM      5  C   UNL     1       5.568  -2.426 -10.034  1.00  0.00     0.000 C 
BRANCH   5   6
ATOM      6  C   UNL     1       6.713  -3.400  -9.703  1.00  0.00     0.006 C 
BRANCH   6   7
ATOM      7  C   UNL     1       8.089  -2.804 -10.022  1.00  0.00     0.053 C 
BRANCH   7   8
ATOM      8  C   UNL     1       8.553  -1.869  -8.947  1.00  0.00     0.041 C 
ATOM      9  O   UNL     1       8.305  -0.637  -9.025  1.00  0.00    -0.550 OA
ATOM     10  O   UNL     1       9.236  -2.364  -7.843  1.00  0.00    -0.550 OA
ENDBRANCH   7   8
ENDBRANCH   6   7
ENDBRANCH   5   6
ENDBRANCH   4   5
ENDBRANCH   3   4
ENDBRANCH   2   3
ENDBRANCH   1   2
BRANCH   1  11
ATOM     11  C   UNL     1       3.904  -5.784  -9.004  1.00  0.00     0.000 C 
BRANCH  11  12
ATOM     12  C   UNL     1       4.100  -7.058  -8.165  1.00  0.00    -0.000 C 
BRANCH  12  13
ATOM     13  C   UNL     1       5.371  -7.833  -8.555  1.00  0.00    -0.000 C 
BRANCH  13  14
ATOM     14  C   UNL     1       6.587  -6.913  -8.746  1.00  0.00    -0.000 C 
BRANCH  14  15
ATOM     15  C   UNL     1       7.610  -7.038  -7.604  1.00  0.00    -0.000 C 
BRANCH  15  16
ATOM     16  C   UNL     1       8.213  -5.682  -7.201  1.00  0.00    -0.000 C 
BRANCH  16  17
ATOM     17  C   UNL     1       7.428  -5.001  -6.070  1.00  0.00    -0.003 C 
ATOM     18  C   UNL     1       6.561  -6.008  -5.320  1.00  0.00     0.004 C 
ENDBRANCH  16  17
ENDBRANCH  15  16
ENDBRANCH  14  15
ENDBRANCH  13  14
ENDBRANCH  12  13
ENDBRANCH  11  12
ENDBRANCH   1  11
TORSDOF 14
ENDMDL
MODEL 8
REMARK VINA RESULT:    -3.696      2.740      5.784
REMARK INTER + INTRA:          -8.288
REMARK INTER:                  -6.310
REMARK INTRA:                  -1.978
REMARK UNBOUND:                -1.567
REMARK SMILES CCCCCCCCCCCCCCCC(=O)[O-]
REMARK SMILES IDX 9 1 10 2 11 3 12 4 13 5 14 6 15 7 16 8 17 9 18 10 8 11 7 12
REMARK SMILES IDX 6 13 5 14 4 15 3 16 2 17 1 18
REMARK H PARENT
REMARK Flexibility Score: inf
ROOT
ATOM      1  C   UNL     1       6.055  -4.580  -5.970  1.00  0.00     0.000 C 
ENDROOT
BRANCH   1   2
ATOM      2  C   UNL     1       7.332  -3.841  -6.399  1.00  0.00     0.000 C 
BRANCH   2   3
ATOM      3  C   UNL     1       7.081  -2.813  -7.517  1.00  0.00     0.000 C 
BRANCH   3   4
ATOM      4  C   UNL     1       6.214  -3.320  -8.688  1.00  0.00     0.000 C 
BRANCH   4   5
ATOM      5  C   UNL     1       4.823  -2.671  -8.800  1.00  0.00     0.000 C 
BRANCH   5   6
ATOM      6  C   UNL     1       3.741  -3.656  -9.277  1.00  0.00     0.006 C 
BRANCH   6   7
ATOM      7  C   UNL     1       4.094  -5.110  -8.942  1.00  0.00     0.053 C 
BRANCH   7   8
ATOM      8  C   UNL     1       3.306  -5.619  -7.774  1.00  0.00     0.041 C 
ATOM      9  O   UNL     1       2.619  -4.826  -7.078  1.00  0.00    -0.550 OA
ATOM     10  O   UNL     1       3.309  -6.975  -7.471  1.00  0.00    -0.550 OA
ENDBRANCH   7   8
ENDBRANCH   6   7
ENDBRANCH   5   6
ENDBRANCH   4   5
ENDBRANCH   3   4
ENDBRANCH   2   3
ENDBRANCH   1   2
BRANCH   1  11
ATOM     11  C   UNL     1       6.399  -5.891  -5.246  1.00  0.00     0.000 C 
BRANCH  11  12
ATOM     12  C   UNL     1       6.423  -7.104  -6.191  1.00  0.00    -0.000 C 
BRANCH  12  13
ATOM     13  C   UNL     1       7.697  -7.951  -6.032  1.00  0.00    -0.000 C 
BRANCH  13  14
ATOM     14  C   UNL     1       8.801  -7.216  -5.256  1.00  0.00    -0.000 C 
BRANCH  14  15
ATOM     15  C   UNL     1      10.103  -7.077  -6.064  1.00  0.00    -0.000 C 
BRANCH  15  16
ATOM     16  C   UNL     1      10.125  -5.810  -6.935  1.00  0.00    -0.000 C 
BRANCH  16  17
ATOM     17  C   UNL     1       9.599  -6.063  -8.356  1.00  0.00    -0.003 C 
ATOM     18  C   UNL     1       9.735  -4.813  -9.221  1.00  0.00     0.004 C 
ENDBRANCH  16  17
ENDBRANCH  15  16
ENDBRANCH  14  15
ENDBRANCH  13  14
ENDBRANCH  12  13
ENDBRANCH  11  12
ENDBRANCH   1  11
TORSDOF 14
ENDMDL
MODEL 9
REMARK VINA RESULT:    -3.669      1.927      3.279
REMARK INTER + INTRA:          -8.238
REMARK INTER:                  -6.093
REMARK INTRA:                  -2.146
REMARK UNBOUND:                -1.567
REMARK SMILES CCCCCCCCCCCCCCCC(=O)[O-]
REMARK SMILES IDX 9 1 10 2 11 3 12 4 13 5 14 6 15 7 16 8 17 9 18 10 8 11 7 12
REMARK SMILES IDX 6 13 5 14 4 15 3 16 2 17 1 18
REMARK H PARENT
REMARK Flexibility Score: inf
ROOT
ATOM      1  C   UNL     1       8.020  -2.571  -7.663  1.00  0.00     0.000 C 
ENDROOT
BRANCH   1   2
ATOM      2  C   UNL     1       9.291  -3.266  -7.151  1.00  0.00     0.000 C 
BRANCH   2   3
ATOM      3  C   UNL     1       9.990  -4.108  -8.233  1.00  0.00     0.000 C 
BRANCH   3   4
ATOM      4  C   UNL     1       9.705  -5.623  -8.168  1.00  0.00     0.000 C 
BRANCH   4   5
ATOM      5  C   UNL     1       8.512  -6.101  -9.014  1.00  0.00     0.000 C 
BRANCH   5   6
ATOM      6  C   UNL     1       7.198  -6.155  -8.215  1.00  0.00     0.006 C 
BRANCH   6   7
ATOM      7  C   UNL     1       7.440  -6.367  -6.715  1.00  0.00     0.053 C 
BRANCH   7   8
ATOM      8  C   UNL     1       6.166  -6.651  -5.981  1.00  0.00     0.041 C 
ATOM      9  O   UNL     1       5.343  -7.490  -6.437  1.00  0.00    -0.550 OA
ATOM     10  O   UNL     1       5.899  -6.010  -4.778  1.00  0.00    -0.550 OA
ENDBRANCH   7   8
ENDBRANCH   6   7
ENDBRANCH   5   6
ENDBRANCH   4   5
ENDBRANCH   3   4
ENDBRANCH   2   3
ENDBRANCH   1   2
BRANCH   1  11
ATOM     11  C   UNL     1       8.340  -1.654  -8.853  1.00  0.00     0.000 C 
BRANCH  11  12
ATOM     12  C   UNL     1       7.444  -1.927 -10.072  1.00  0.00    -0.000 C 
BRANCH  12  13
ATOM     13  C   UNL     1       6.265  -2.859  -9.742  1.00  0.00    -0.000 C 
BRANCH  13  14
ATOM     14  C   UNL     1       4.911  -2.133  -9.787  1.00  0.00    -0.000 C 
BRANCH  14  15
ATOM     15  C   UNL     1       3.716  -3.102  -9.746  1.00  0.00    -0.000 C 
BRANCH  15  16
ATOM     16  C   UNL     1       4.073  -4.452  -9.102  1.00  0.00    -0.000 C 
BRANCH  16  17
ATOM     17  C   UNL     1       3.464  -4.617  -7.703  1.00  0.00    -0.003 C 
ATOM     18  C   UNL     1       4.114  -3.661  -6.705  1.00  0.00     0.004 C 
ENDBRANCH  16  17
ENDBRANCH  15  16
ENDBRANCH  14  15
ENDBRANCH  13  14
ENDBRANCH  12  13
ENDBRANCH  11  12
ENDBRANCH   1  11
TORSDOF 14
ENDMDL
