MODEL 1
REMARK VINA RESULT:    -4.388      0.000      0.000
REMARK INTER + INTRA:          -4.680
REMARK INTER:                  -4.645
REMARK INTRA:                  -0.035
REMARK UNBOUND:                -0.035
REMARK SMILES COc1ccc2ccc(=O)oc2c1
REMARK SMILES IDX 3 1 13 2 12 3 6 4 5 5 4 6 7 7 8 8 9 9 10 10 11 11 2 12 1 13
REMARK H PARENT
REMARK Flexibility Score: inf
ROOT
ATOM      1  C   UNL     1      11.321  13.556  19.954  1.00  0.00     0.122 A 
ATOM      2  C   UNL     1      11.737  14.160  21.148  1.00  0.00     0.094 A 
ATOM      3  C   UNL     1      12.831  15.032  21.160  1.00  0.00     0.142 A 
ATOM      4  C   UNL     1      13.522  15.306  19.962  1.00  0.00     0.018 A 
ATOM      5  C   UNL     1      13.111  14.705  18.764  1.00  0.00     0.016 A 
ATOM      6  C   UNL     1      12.016  13.836  18.760  1.00  0.00     0.047 A 
ATOM      7  C   UNL     1      14.612  16.182  20.005  1.00  0.00     0.019 A 
ATOM      8  C   UNL     1      14.982  16.753  21.222  1.00  0.00     0.094 A 
ATOM      9  C   UNL     1      14.250  16.435  22.371  1.00  0.00     0.336 A 
ATOM     10  O   UNL     1      14.567  16.941  23.479  1.00  0.00    -0.246 OA
ATOM     11  O   UNL     1      13.217  15.599  22.301  1.00  0.00    -0.423 OA
ENDROOT
BRANCH   1  12
ATOM     12  O   UNL     1      10.218  12.690  19.996  1.00  0.00    -0.497 OA
ATOM     13  C   UNL     1       9.517  12.226  18.848  1.00  0.00     0.278 C 
ENDBRANCH   1  12
TORSDOF 1
ENDMDL
MODEL 2
REMARK VINA RESULT:    -4.313      0.989      4.829
REMARK INTER + INTRA:          -4.600
REMARK INTER:                  -4.566
REMARK INTRA:                  -0.034
REMARK UNBOUND:                -0.035
REMARK SMILES COc1ccc2ccc(=O)oc2c1
REMARK SMILES IDX 3 1 13 2 12 3 6 4 5 5 4 6 7 7 8 8 9 9 10 10 11 11 2 12 1 13
REMARK H PARENT
REMARK Flexibility Score: inf
ROOT
ATOM      1  C   UNL     1      14.041  16.038  22.372  1.00  0.00     0.122 A 
ATOM      2  C   UNL     1      12.958  15.149  22.366  1.00  0.00     0.094 A 
ATOM      3  C   UNL     1      12.485  14.614  21.163  1.00  0.00     0.142 A 
ATOM      4  C   UNL     1      13.102  14.970  19.946  1.00  0.00     0.018 A 
ATOM      5  C   UNL     1      14.186  15.858  19.946  1.00  0.00     0.016 A 
ATOM      6  C   UNL     1      14.653  16.389  21.151  1.00  0.00     0.047 A 
ATOM      7  C   UNL     1      12.607  14.418  18.760  1.00  0.00     0.019 A 
ATOM      8  C   UNL     1      11.526  13.539  18.814  1.00  0.00     0.094 A 
ATOM      9  C   UNL     1      10.963  13.231  20.058  1.00  0.00     0.336 A 
ATOM     10  O   UNL     1       9.987  12.439  20.128  1.00  0.00    -0.246 OA
ATOM     11  O   UNL     1      11.454  13.770  21.171  1.00  0.00    -0.423 OA
ENDROOT
BRANCH   1  12
ATOM     12  O   UNL     1      14.476  16.547  23.604  1.00  0.00    -0.497 OA
ATOM     13  C   UNL     1      15.101  17.815  23.774  1.00  0.00     0.278 C 
ENDBRANCH   1  12
TORSDOF 1
ENDMDL
MODEL 3
REMARK VINA RESULT:    -4.260      1.553      2.380
REMARK INTER + INTRA:          -4.544
REMARK INTER:                  -4.502
REMARK INTRA:                  -0.042
REMARK UNBOUND:                -0.035
REMARK SMILES COc1ccc2ccc(=O)oc2c1
REMARK SMILES IDX 3 1 13 2 12 3 6 4 5 5 4 6 7 7 8 8 9 9 10 10 11 11 2 12 1 13
REMARK H PARENT
REMARK Flexibility Score: inf
ROOT
ATOM      1  C   UNL     1      10.760  12.972  20.566  1.00  0.00     0.122 A 
ATOM      2  C   UNL     1      11.636  13.797  19.846  1.00  0.00     0.094 A 
ATOM      3  C   UNL     1      12.556  14.611  20.515  1.00  0.00     0.142 A 
ATOM      4  C   UNL     1      12.605  14.603  21.924  1.00  0.00     0.018 A 
ATOM      5  C   UNL     1      11.733  13.781  22.649  1.00  0.00     0.016 A 
ATOM      6  C   UNL     1      10.815  12.970  21.974  1.00  0.00     0.047 A 
ATOM      7  C   UNL     1      13.536  15.428  22.565  1.00  0.00     0.019 A 
ATOM      8  C   UNL     1      14.382  16.228  21.797  1.00  0.00     0.094 A 
ATOM      9  C   UNL     1      14.277  16.185  20.403  1.00  0.00     0.336 A 
ATOM     10  O   UNL     1      15.032  16.898  19.693  1.00  0.00    -0.246 OA
ATOM     11  O   UNL     1      13.382  15.390  19.820  1.00  0.00    -0.423 OA
ENDROOT
BRANCH   1  12
ATOM     12  O   UNL     1       9.857  12.176  19.847  1.00  0.00    -0.497 OA
ATOM     13  C   UNL     1       9.420  12.453  18.521  1.00  0.00     0.278 C 
ENDBRANCH   1  12
TORSDOF 1
ENDMDL
MODEL 4
REMARK VINA RESULT:    -4.135      1.463      4.713
REMARK INTER + INTRA:          -4.412
REMARK INTER:                  -4.370
REMARK INTRA:                  -0.042
REMARK UNBOUND:                -0.035
REMARK SMILES COc1ccc2ccc(=O)oc2c1
REMARK SMILES IDX 3 1 13 2 12 3 6 4 5 5 4 6 7 7 8 8 9 9 10 10 11 11 2 12 1 13
REMARK H PARENT
REMARK Flexibility Score: inf
ROOT
ATOM      1  C   UNL     1      13.966  15.781  21.046  1.00  0.00     0.122 A 
ATOM      2  C   UNL     1      13.139  14.984  21.850  1.00  0.00     0.094 A 
ATOM      3  C   UNL     1      12.188  14.137  21.271  1.00  0.00     0.142 A 
ATOM      4  C   UNL     1      12.059  14.083  19.867  1.00  0.00     0.018 A 
ATOM      5  C   UNL     1      12.883  14.877  19.059  1.00  0.00     0.016 A 
ATOM      6  C   UNL     1      13.831  15.721  19.644  1.00  0.00     0.047 A 
ATOM      7  C   UNL     1      11.100  13.226  19.318  1.00  0.00     0.019 A 
ATOM      8  C   UNL     1      10.304  12.457  20.166  1.00  0.00     0.094 A 
ATOM      9  C   UNL     1      10.488  12.562  21.549  1.00  0.00     0.336 A 
ATOM     10  O   UNL     1       9.780  11.875  22.331  1.00  0.00    -0.246 OA
ATOM     11  O   UNL     1      11.409  13.385  22.045  1.00  0.00    -0.423 OA
ENDROOT
BRANCH   1  12
ATOM     12  O   UNL     1      14.902  16.613  21.676  1.00  0.00    -0.497 OA
ATOM     13  C   UNL     1      14.763  17.122  22.999  1.00  0.00     0.278 C 
ENDBRANCH   1  12
TORSDOF 1
ENDMDL
MODEL 5
REMARK VINA RESULT:    -4.094      1.829      2.491
REMARK INTER + INTRA:          -4.369
REMARK INTER:                  -4.332
REMARK INTRA:                  -0.037
REMARK UNBOUND:                -0.035
REMARK SMILES COc1ccc2ccc(=O)oc2c1
REMARK SMILES IDX 3 1 13 2 12 3 6 4 5 5 4 6 7 7 8 8 9 9 10 10 11 11 2 12 1 13
REMARK H PARENT
REMARK Flexibility Score: inf
ROOT
ATOM      1  C   UNL     1      10.545  12.898  22.067  1.00  0.00     0.122 A 
ATOM      2  C   UNL     1      11.567  13.770  22.468  1.00  0.00     0.094 A 
ATOM      3  C   UNL     1      12.363  14.415  21.516  1.00  0.00     0.142 A 
ATOM      4  C   UNL     1      12.138  14.189  20.142  1.00  0.00     0.018 A 
ATOM      5  C   UNL     1      11.118  13.318  19.736  1.00  0.00     0.016 A 
ATOM      6  C   UNL     1      10.326  12.677  20.693  1.00  0.00     0.047 A 
ATOM      7  C   UNL     1      12.950  14.848  19.214  1.00  0.00     0.019 A 
ATOM      8  C   UNL     1      13.952  15.704  19.670  1.00  0.00     0.094 A 
ATOM      9  C   UNL     1      14.119  15.881  21.048  1.00  0.00     0.336 A 
ATOM     10  O   UNL     1      15.017  16.650  21.479  1.00  0.00    -0.246 OA
ATOM     11  O   UNL     1      13.331  15.241  21.909  1.00  0.00    -0.423 OA
ENDROOT
BRANCH   1  12
ATOM     12  O   UNL     1       9.775  12.276  23.061  1.00  0.00    -0.497 OA
ATOM     13  C   UNL     1       9.104  12.969  24.109  1.00  0.00     0.278 C 
ENDBRANCH   1  12
TORSDOF 1
ENDMDL
MODEL 6
REMARK VINA RESULT:    -4.068      1.470      5.346
REMARK INTER + INTRA:          -4.341
REMARK INTER:                  -4.305
REMARK INTRA:                  -0.036
REMARK UNBOUND:                -0.035
REMARK SMILES COc1ccc2ccc(=O)oc2c1
REMARK SMILES IDX 3 1 13 2 12 3 6 4 5 5 4 6 7 7 8 8 9 9 10 10 11 11 2 12 1 13
REMARK H PARENT
REMARK Flexibility Score: inf
ROOT
ATOM      1  C   UNL     1      13.175  15.441  21.638  1.00  0.00     0.122 A 
ATOM      2  C   UNL     1      12.354  15.280  20.514  1.00  0.00     0.094 A 
ATOM      3  C   UNL     1      11.572  14.130  20.364  1.00  0.00     0.142 A 
ATOM      4  C   UNL     1      11.609  13.123  21.351  1.00  0.00     0.018 A 
ATOM      5  C   UNL     1      12.427  13.279  22.478  1.00  0.00     0.016 A 
ATOM      6  C   UNL     1      13.206  14.431  22.621  1.00  0.00     0.047 A 
ATOM      7  C   UNL     1      10.816  11.985  21.174  1.00  0.00     0.019 A 
ATOM      8  C   UNL     1      10.018  11.878  20.035  1.00  0.00     0.094 A 
ATOM      9  C   UNL     1      10.033  12.916  19.096  1.00  0.00     0.336 A 
ATOM     10  O   UNL     1       9.320  12.838  18.062  1.00  0.00    -0.246 OA
ATOM     11  O   UNL     1      10.797  13.988  19.291  1.00  0.00    -0.423 OA
ENDROOT
BRANCH   1  12
ATOM     12  O   UNL     1      13.939  16.613  21.740  1.00  0.00    -0.497 OA
ATOM     13  C   UNL     1      14.615  17.031  22.921  1.00  0.00     0.278 C 
ENDBRANCH   1  12
TORSDOF 1
ENDMDL
MODEL 7
REMARK VINA RESULT:    -3.730      2.430      4.526
REMARK INTER + INTRA:          -3.984
REMARK INTER:                  -3.945
REMARK INTRA:                  -0.039
REMARK UNBOUND:                -0.035
REMARK SMILES COc1ccc2ccc(=O)oc2c1
REMARK SMILES IDX 3 1 13 2 12 3 6 4 5 5 4 6 7 7 8 8 9 9 10 10 11 11 2 12 1 13
REMARK H PARENT
REMARK Flexibility Score: inf
ROOT
ATOM      1  C   UNL     1      13.888  14.642  20.480  1.00  0.00     0.122 A 
ATOM      2  C   UNL     1      12.828  13.741  20.649  1.00  0.00     0.094 A 
ATOM      3  C   UNL     1      12.069  13.750  21.824  1.00  0.00     0.142 A 
ATOM      4  C   UNL     1      12.372  14.673  22.847  1.00  0.00     0.018 A 
ATOM      5  C   UNL     1      13.430  15.576  22.683  1.00  0.00     0.016 A 
ATOM      6  C   UNL     1      14.184  15.561  21.506  1.00  0.00     0.047 A 
ATOM      7  C   UNL     1      11.595  14.658  24.011  1.00  0.00     0.019 A 
ATOM      8  C   UNL     1      10.553  13.738  24.125  1.00  0.00     0.094 A 
ATOM      9  C   UNL     1      10.310  12.852  23.070  1.00  0.00     0.336 A 
ATOM     10  O   UNL     1       9.374  12.016  23.153  1.00  0.00    -0.246 OA
ATOM     11  O   UNL     1      11.065  12.889  21.974  1.00  0.00    -0.423 OA
ENDROOT
BRANCH   1  12
ATOM     12  O   UNL     1      14.618  14.591  19.283  1.00  0.00    -0.497 OA
ATOM     13  C   UNL     1      15.064  13.389  18.665  1.00  0.00     0.278 C 
ENDBRANCH   1  12
TORSDOF 1
ENDMDL
MODEL 8
REMARK VINA RESULT:    -3.649     24.786     25.344
REMARK INTER + INTRA:          -3.897
REMARK INTER:                  -3.854
REMARK INTRA:                  -0.043
REMARK UNBOUND:                -0.035
REMARK SMILES COc1ccc2ccc(=O)oc2c1
REMARK SMILES IDX 3 1 13 2 12 3 6 4 5 5 4 6 7 7 8 8 9 9 10 10 11 11 2 12 1 13
REMARK H PARENT
REMARK Flexibility Score: inf
ROOT
ATOM      1  C   UNL     1      -2.762  29.901   5.481  1.00  0.00     0.122 A 
ATOM      2  C   UNL     1      -2.673  30.115   6.863  1.00  0.00     0.094 A 
ATOM      3  C   UNL     1      -1.575  30.790   7.407  1.00  0.00     0.142 A 
ATOM      4  C   UNL     1      -0.550  31.260   6.561  1.00  0.00     0.018 A 
ATOM      5  C   UNL     1      -0.634  31.049   5.178  1.00  0.00     0.016 A 
ATOM      6  C   UNL     1      -1.734  30.374   4.641  1.00  0.00     0.047 A 
ATOM      7  C   UNL     1       0.534  31.932   7.134  1.00  0.00     0.019 A 
ATOM      8  C   UNL     1       0.571  32.116   8.516  1.00  0.00     0.094 A 
ATOM      9  C   UNL     1      -0.481  31.622   9.295  1.00  0.00     0.336 A 
ATOM     10  O   UNL     1      -0.467  31.779  10.543  1.00  0.00    -0.246 OA
ATOM     11  O   UNL     1      -1.502  30.987   8.722  1.00  0.00    -0.423 OA
ENDROOT
BRANCH   1  12
ATOM     12  O   UNL     1      -3.883  29.218   4.986  1.00  0.00    -0.497 OA
ATOM     13  C   UNL     1      -4.867  28.591   5.802  1.00  0.00     0.278 C 
ENDBRANCH   1  12
TORSDOF 1
ENDMDL
MODEL 9
REMARK VINA RESULT:    -3.428     24.749     25.675
REMARK INTER + INTRA:          -3.664
REMARK INTER:                  -3.625
REMARK INTRA:                  -0.039
REMARK UNBOUND:                -0.035
REMARK SMILES COc1ccc2ccc(=O)oc2c1
REMARK SMILES IDX 3 1 13 2 12 3 6 4 5 5 4 6 7 7 8 8 9 9 10 10 11 11 2 12 1 13
REMARK H PARENT
REMARK Flexibility Score: inf
ROOT
ATOM      1  C   UNL     1      -0.310  31.539   8.656  1.00  0.00     0.122 A 
ATOM      2  C   UNL     1      -1.429  30.754   8.348  1.00  0.00     0.094 A 
ATOM      3  C   UNL     1      -1.748  30.462   7.018  1.00  0.00     0.142 A 
ATOM      4  C   UNL     1      -0.938  30.960   5.977  1.00  0.00     0.018 A 
ATOM      5  C   UNL     1       0.182  31.745   6.278  1.00  0.00     0.016 A 
ATOM      6  C   UNL     1       0.495  32.033   7.610  1.00  0.00     0.047 A 
ATOM      7  C   UNL     1      -1.283  30.651   4.657  1.00  0.00     0.019 A 
ATOM      8  C   UNL     1      -2.408  29.865   4.410  1.00  0.00     0.094 A 
ATOM      9  C   UNL     1      -3.166  29.406   5.493  1.00  0.00     0.336 A 
ATOM     10  O   UNL     1      -4.185  28.695   5.291  1.00  0.00    -0.246 OA
ATOM     11  O   UNL     1      -2.815  29.715   6.739  1.00  0.00    -0.423 OA
ENDROOT
BRANCH   1  12
ATOM     12  O   UNL     1      -0.034  31.803  10.005  1.00  0.00    -0.497 OA
ATOM     13  C   UNL     1      -1.023  32.111  10.982  1.00  0.00     0.278 C 
ENDBRANCH   1  12
TORSDOF 1
ENDMDL
