MODEL 1
REMARK VINA RESULT:    -8.745      0.000      0.000
REMARK INTER + INTRA:          -9.310
REMARK INTER:                  -9.512
REMARK INTRA:                   0.202
REMARK UNBOUND:                 0.202
REMARK SMILES CC1(C)CC[C@]2(C(=O)[O-])CC[C@]3(C)C(=CC[C@H]4[C@@]5(C)CC[C@H](O)C(C)(C)[C@H]5CC[C@@]43C)[C@@H]2C1
REMARK SMILES IDX 6 1 5 2 10 3 32 4 4 5 11 6 14 7 33 8 2 9 12 10 15 11 1 12
REMARK SMILES IDX 3 13 13 14 30 15 16 16 17 17 29 18 31 19 18 20 28 21 27 22
REMARK SMILES IDX 20 23 19 24 24 25 21 26 22 27 25 28 26 29 7 30 8 31 9 32
REMARK SMILES IDX 23 33
REMARK H PARENT 23 34
REMARK Flexibility Score: inf
ROOT
ATOM      1  C   UNL     1     -13.228  10.782 -27.700  1.00  0.00     0.017 C 
ATOM      2  C   UNL     1     -12.378   9.490 -27.920  1.00  0.00     0.014 C 
ATOM      3  C   UNL     1     -12.347  12.046 -28.010  1.00  0.00     0.014 C 
ATOM      4  C   UNL     1     -13.796  10.820 -26.220  1.00  0.00     0.028 C 
ATOM      5  C   UNL     1     -13.039   8.263 -27.264  1.00  0.00     0.007 C 
ATOM      6  C   UNL     1     -11.637  12.640 -26.775  1.00  0.00     0.013 C 
ATOM      7  C   UNL     1     -13.899  12.274 -25.738  1.00  0.00    -0.064 C 
ATOM      8  C   UNL     1     -13.024   9.884 -25.261  1.00  0.00     0.015 C 
ATOM      9  C   UNL     1     -13.102   8.388 -25.707  1.00  0.00    -0.035 C 
ATOM     10  C   UNL     1     -12.605  13.128 -25.611  1.00  0.00    -0.006 C 
ATOM     11  C   UNL     1     -15.123  12.839 -25.894  1.00  0.00    -0.027 C 
ATOM     12  C   UNL     1     -14.408   7.744 -25.188  1.00  0.00     0.011 C 
ATOM     13  C   UNL     1     -11.914   7.624 -25.081  1.00  0.00     0.011 C 
ATOM     14  C   UNL     1     -11.891  12.773 -24.262  1.00  0.00     0.017 C 
ATOM     15  C   UNL     1     -12.937  14.730 -25.595  1.00  0.00    -0.020 C 
ATOM     16  C   UNL     1     -15.376  14.300 -26.100  1.00  0.00     0.032 C 
ATOM     17  C   UNL     1     -14.111  15.063 -26.557  1.00  0.00     0.006 C 
ATOM     18  C   UNL     1     -11.724  15.562 -26.079  1.00  0.00     0.008 C 
ATOM     19  C   UNL     1     -13.345  15.182 -24.146  1.00  0.00     0.012 C 
ATOM     20  C   UNL     1     -14.378  16.610 -26.959  1.00  0.00    -0.025 C 
ATOM     21  C   UNL     1     -11.934  17.052 -25.908  1.00  0.00     0.005 C 
ATOM     22  C   UNL     1     -13.126  17.607 -26.738  1.00  0.00     0.003 C 
ATOM     23  C   UNL     1     -15.651  17.191 -26.259  1.00  0.00     0.010 C 
ATOM     24  C   UNL     1     -14.715  16.554 -28.489  1.00  0.00     0.012 C 
ATOM     25  C   UNL     1     -13.477  19.097 -26.283  1.00  0.00    -0.006 C 
ATOM     26  C   UNL     1     -16.000  18.656 -26.604  1.00  0.00     0.033 C 
ATOM     27  C   UNL     1     -14.804  19.576 -26.932  1.00  0.00     0.120 C 
ATOM     28  C   UNL     1     -12.349  20.065 -26.744  1.00  0.00     0.014 C 
ATOM     29  C   UNL     1     -13.598  19.274 -24.735  1.00  0.00     0.014 C 
ENDROOT
BRANCH   1  30
ATOM     30  C   UNL     1     -14.361  10.764 -28.730  1.00  0.00     0.048 C 
ATOM     31  O   UNL     1     -14.265  10.031 -29.751  1.00  0.00    -0.550 OA
ATOM     32  O   UNL     1     -15.528  11.503 -28.553  1.00  0.00    -0.550 OA
ENDBRANCH   1  30
BRANCH  27  33
ATOM     33  O   UNL     1     -14.649  19.713 -28.322  1.00  0.00    -0.393 OA
ATOM     34  H   UNL     1     -15.114  20.547 -28.590  1.00  0.00     0.210 HD
ENDBRANCH  27  33
TORSDOF 2
ENDMDL
MODEL 2
REMARK VINA RESULT:    -8.504      1.818      8.094
REMARK INTER + INTRA:          -9.048
REMARK INTER:                  -8.767
REMARK INTRA:                  -0.281
REMARK UNBOUND:                 0.202
REMARK SMILES CC1(C)CC[C@]2(C(=O)[O-])CC[C@]3(C)C(=CC[C@H]4[C@@]5(C)CC[C@H](O)C(C)(C)[C@H]5CC[C@@]43C)[C@@H]2C1
REMARK SMILES IDX 6 1 5 2 10 3 32 4 4 5 11 6 14 7 33 8 2 9 12 10 15 11 1 12
REMARK SMILES IDX 3 13 13 14 30 15 16 16 17 17 29 18 31 19 18 20 28 21 27 22
REMARK SMILES IDX 20 23 19 24 24 25 21 26 22 27 25 28 26 29 7 30 8 31 9 32
REMARK SMILES IDX 23 33
REMARK H PARENT 23 34
REMARK Flexibility Score: inf
ROOT
ATOM      1  C   UNL     1     -13.273  18.051 -27.652  1.00  0.00     0.017 C 
ATOM      2  C   UNL     1     -13.968  19.328 -28.224  1.00  0.00     0.014 C 
ATOM      3  C   UNL     1     -13.708  16.797 -28.494  1.00  0.00     0.014 C 
ATOM      4  C   UNL     1     -13.632  17.871 -26.118  1.00  0.00     0.028 C 
ATOM      5  C   UNL     1     -13.905  20.499 -27.225  1.00  0.00     0.007 C 
ATOM      6  C   UNL     1     -14.930  16.046 -27.923  1.00  0.00     0.013 C 
ATOM      7  C   UNL     1     -13.683  16.378 -25.765  1.00  0.00    -0.064 C 
ATOM      8  C   UNL     1     -14.890  18.669 -25.702  1.00  0.00     0.015 C 
ATOM      9  C   UNL     1     -14.714  20.206 -25.920  1.00  0.00    -0.035 C 
ATOM     10  C   UNL     1     -14.740  15.469 -26.454  1.00  0.00    -0.006 C 
ATOM     11  C   UNL     1     -12.536  15.879 -25.239  1.00  0.00    -0.027 C 
ATOM     12  C   UNL     1     -13.989  20.837 -24.709  1.00  0.00     0.011 C 
ATOM     13  C   UNL     1     -16.113  20.853 -26.026  1.00  0.00     0.011 C 
ATOM     14  C   UNL     1     -16.117  15.648 -25.725  1.00  0.00     0.017 C 
ATOM     15  C   UNL     1     -14.329  13.889 -26.364  1.00  0.00    -0.020 C 
ATOM     16  C   UNL     1     -12.078  14.459 -25.366  1.00  0.00     0.032 C 
ATOM     17  C   UNL     1     -12.792  13.706 -26.512  1.00  0.00     0.006 C 
ATOM     18  C   UNL     1     -14.980  13.071 -27.506  1.00  0.00     0.008 C 
ATOM     19  C   UNL     1     -14.764  13.295 -24.975  1.00  0.00     0.012 C 
ATOM     20  C   UNL     1     -12.206  12.222 -26.798  1.00  0.00    -0.025 C 
ATOM     21  C   UNL     1     -14.765  11.579 -27.351  1.00  0.00     0.005 C 
ATOM     22  C   UNL     1     -13.268  11.163 -27.396  1.00  0.00     0.003 C 
ATOM     23  C   UNL     1     -11.497  11.615 -25.542  1.00  0.00     0.010 C 
ATOM     24  C   UNL     1     -11.076  12.459 -27.859  1.00  0.00     0.012 C 
ATOM     25  C   UNL     1     -13.097   9.646 -26.927  1.00  0.00    -0.006 C 
ATOM     26  C   UNL     1     -10.881  10.211 -25.730  1.00  0.00     0.033 C 
ATOM     27  C   UNL     1     -11.597   9.289 -26.741  1.00  0.00     0.120 C 
ATOM     28  C   UNL     1     -13.678   8.693 -28.012  1.00  0.00     0.014 C 
ATOM     29  C   UNL     1     -13.848   9.304 -25.601  1.00  0.00     0.014 C 
ENDROOT
BRANCH   1  30
ATOM     30  C   UNL     1     -11.765  18.223 -27.854  1.00  0.00     0.048 C 
ATOM     31  O   UNL     1     -11.266  18.064 -29.001  1.00  0.00    -0.550 OA
ATOM     32  O   UNL     1     -10.921  18.599 -26.812  1.00  0.00    -0.550 OA
ENDBRANCH   1  30
BRANCH  27  33
ATOM     33  O   UNL     1     -10.933   9.299 -27.980  1.00  0.00    -0.393 OA
ATOM     34  H   UNL     1     -11.100  10.184 -28.397  1.00  0.00     0.210 HD
ENDBRANCH  27  33
TORSDOF 2
ENDMDL
MODEL 3
REMARK VINA RESULT:    -7.875      2.708      4.106
REMARK INTER + INTRA:          -8.364
REMARK INTER:                  -8.082
REMARK INTRA:                  -0.281
REMARK UNBOUND:                 0.202
REMARK SMILES CC1(C)CC[C@]2(C(=O)[O-])CC[C@]3(C)C(=CC[C@H]4[C@@]5(C)CC[C@H](O)C(C)(C)[C@H]5CC[C@@]43C)[C@@H]2C1
REMARK SMILES IDX 6 1 5 2 10 3 32 4 4 5 11 6 14 7 33 8 2 9 12 10 15 11 1 12
REMARK SMILES IDX 3 13 13 14 30 15 16 16 17 17 29 18 31 19 18 20 28 21 27 22
REMARK SMILES IDX 20 23 19 24 24 25 21 26 22 27 25 28 26 29 7 30 8 31 9 32
REMARK SMILES IDX 23 33
REMARK H PARENT 23 34
REMARK Flexibility Score: inf
ROOT
ATOM      1  C   UNL     1     -10.328  11.104 -23.836  1.00  0.00     0.017 C 
ATOM      2  C   UNL     1     -10.074   9.833 -22.965  1.00  0.00     0.014 C 
ATOM      3  C   UNL     1     -11.300  12.076 -23.073  1.00  0.00     0.014 C 
ATOM      4  C   UNL     1     -10.913  10.692 -25.251  1.00  0.00     0.028 C 
ATOM      5  C   UNL     1      -9.469   8.689 -23.800  1.00  0.00     0.007 C 
ATOM      6  C   UNL     1     -12.790  11.881 -23.423  1.00  0.00     0.013 C 
ATOM      7  C   UNL     1     -11.866  11.784 -25.759  1.00  0.00    -0.064 C 
ATOM      8  C   UNL     1     -11.516   9.267 -25.255  1.00  0.00     0.015 C 
ATOM      9  C   UNL     1     -10.455   8.177 -24.901  1.00  0.00    -0.035 C 
ATOM     10  C   UNL     1     -13.157  12.103 -24.954  1.00  0.00    -0.006 C 
ATOM     11  C   UNL     1     -11.299  12.686 -26.600  1.00  0.00    -0.027 C 
ATOM     12  C   UNL     1      -9.658   7.778 -26.164  1.00  0.00     0.011 C 
ATOM     13  C   UNL     1     -11.191   6.919 -24.387  1.00  0.00     0.011 C 
ATOM     14  C   UNL     1     -14.253  11.038 -25.307  1.00  0.00     0.017 C 
ATOM     15  C   UNL     1     -13.755  13.579 -25.330  1.00  0.00    -0.020 C 
ATOM     16  C   UNL     1     -11.738  14.108 -26.758  1.00  0.00     0.032 C 
ATOM     17  C   UNL     1     -12.606  14.597 -25.575  1.00  0.00     0.006 C 
ATOM     18  C   UNL     1     -14.609  14.152 -24.173  1.00  0.00     0.008 C 
ATOM     19  C   UNL     1     -14.624  13.492 -26.637  1.00  0.00     0.012 C 
ATOM     20  C   UNL     1     -12.958  16.178 -25.618  1.00  0.00    -0.025 C 
ATOM     21  C   UNL     1     -15.321  15.433 -24.555  1.00  0.00     0.005 C 
ATOM     22  C   UNL     1     -14.353  16.594 -24.918  1.00  0.00     0.003 C 
ATOM     23  C   UNL     1     -12.898  16.756 -27.071  1.00  0.00     0.010 C 
ATOM     24  C   UNL     1     -11.779  16.852 -24.836  1.00  0.00     0.012 C 
ATOM     25  C   UNL     1     -15.155  17.799 -25.594  1.00  0.00    -0.006 C 
ATOM     26  C   UNL     1     -13.194  18.267 -27.207  1.00  0.00     0.033 C 
ATOM     27  C   UNL     1     -14.178  18.858 -26.173  1.00  0.00     0.120 C 
ATOM     28  C   UNL     1     -16.039  18.505 -24.525  1.00  0.00     0.014 C 
ATOM     29  C   UNL     1     -16.124  17.352 -26.735  1.00  0.00     0.014 C 
ENDROOT
BRANCH   1  30
ATOM     30  C   UNL     1      -8.989  11.833 -23.979  1.00  0.00     0.048 C 
ATOM     31  O   UNL     1      -8.550  12.527 -23.023  1.00  0.00    -0.550 OA
ATOM     32  O   UNL     1      -8.207  11.718 -25.126  1.00  0.00    -0.550 OA
ENDBRANCH   1  30
BRANCH  27  33
ATOM     33  O   UNL     1     -13.482  19.502 -25.136  1.00  0.00    -0.393 OA
ATOM     34  H   UNL     1     -12.922  20.208 -25.551  1.00  0.00     0.210 HD
ENDBRANCH  27  33
TORSDOF 2
ENDMDL
MODEL 4
REMARK VINA RESULT:    -7.485      2.601      8.027
REMARK INTER + INTRA:          -7.939
REMARK INTER:                  -7.770
REMARK INTRA:                  -0.169
REMARK UNBOUND:                 0.202
REMARK SMILES CC1(C)CC[C@]2(C(=O)[O-])CC[C@]3(C)C(=CC[C@H]4[C@@]5(C)CC[C@H](O)C(C)(C)[C@H]5CC[C@@]43C)[C@@H]2C1
REMARK SMILES IDX 6 1 5 2 10 3 32 4 4 5 11 6 14 7 33 8 2 9 12 10 15 11 1 12
REMARK SMILES IDX 3 13 13 14 30 15 16 16 17 17 29 18 31 19 18 20 28 21 27 22
REMARK SMILES IDX 20 23 19 24 24 25 21 26 22 27 25 28 26 29 7 30 8 31 9 32
REMARK SMILES IDX 23 33
REMARK H PARENT 23 34
REMARK Flexibility Score: inf
ROOT
ATOM      1  C   UNL     1     -14.648  16.304 -25.056  1.00  0.00     0.017 C 
ATOM      2  C   UNL     1     -15.505  17.502 -24.536  1.00  0.00     0.014 C 
ATOM      3  C   UNL     1     -14.313  15.342 -23.859  1.00  0.00     0.014 C 
ATOM      4  C   UNL     1     -13.329  16.835 -25.759  1.00  0.00     0.028 C 
ATOM      5  C   UNL     1     -15.527  18.660 -25.551  1.00  0.00     0.007 C 
ATOM      6  C   UNL     1     -12.966  15.641 -23.167  1.00  0.00     0.013 C 
ATOM      7  C   UNL     1     -12.186  15.832 -25.550  1.00  0.00    -0.064 C 
ATOM      8  C   UNL     1     -12.984  18.289 -25.357  1.00  0.00     0.015 C 
ATOM      9  C   UNL     1     -14.112  19.294 -25.755  1.00  0.00    -0.035 C 
ATOM     10  C   UNL     1     -11.688  15.535 -24.107  1.00  0.00    -0.006 C 
ATOM     11  C   UNL     1     -12.007  14.955 -26.569  1.00  0.00    -0.027 C 
ATOM     12  C   UNL     1     -13.946  19.727 -27.230  1.00  0.00     0.011 C 
ATOM     13  C   UNL     1     -13.982  20.556 -24.872  1.00  0.00     0.011 C 
ATOM     14  C   UNL     1     -10.713  16.679 -23.660  1.00  0.00     0.017 C 
ATOM     15  C   UNL     1     -10.868  14.122 -24.029  1.00  0.00    -0.020 C 
ATOM     16  C   UNL     1     -11.452  13.571 -26.425  1.00  0.00     0.032 C 
ATOM     17  C   UNL     1     -11.505  13.059 -24.967  1.00  0.00     0.006 C 
ATOM     18  C   UNL     1     -10.908  13.526 -22.600  1.00  0.00     0.008 C 
ATOM     19  C   UNL     1      -9.375  14.338 -24.470  1.00  0.00     0.012 C 
ATOM     20  C   UNL     1     -11.077  11.506 -24.793  1.00  0.00    -0.025 C 
ATOM     21  C   UNL     1     -10.014  12.312 -22.450  1.00  0.00     0.005 C 
ATOM     22  C   UNL     1     -10.425  11.125 -23.365  1.00  0.00     0.003 C 
ATOM     23  C   UNL     1     -10.146  11.017 -25.952  1.00  0.00     0.010 C 
ATOM     24  C   UNL     1     -12.423  10.719 -24.960  1.00  0.00     0.012 C 
ATOM     25  C   UNL     1      -9.280  10.011 -23.383  1.00  0.00    -0.006 C 
ATOM     26  C   UNL     1      -9.708   9.537 -25.884  1.00  0.00     0.033 C 
ATOM     27  C   UNL     1      -9.568   8.938 -24.467  1.00  0.00     0.120 C 
ATOM     28  C   UNL     1      -9.230   9.290 -22.004  1.00  0.00     0.014 C 
ATOM     29  C   UNL     1      -7.846  10.582 -23.628  1.00  0.00     0.014 C 
ENDROOT
BRANCH   1  30
ATOM     30  C   UNL     1     -15.519  15.512 -26.035  1.00  0.00     0.048 C 
ATOM     31  O   UNL     1     -16.100  14.463 -25.647  1.00  0.00    -0.550 OA
ATOM     32  O   UNL     1     -15.731  15.939 -27.344  1.00  0.00    -0.550 OA
ENDBRANCH   1  30
BRANCH  27  33
ATOM     33  O   UNL     1     -10.710   8.192 -24.128  1.00  0.00    -0.393 OA
ATOM     34  H   UNL     1     -10.738   7.405 -24.731  1.00  0.00     0.210 HD
ENDBRANCH  27  33
TORSDOF 2
ENDMDL
MODEL 5
REMARK VINA RESULT:    -7.441      1.813      2.479
REMARK INTER + INTRA:          -7.891
REMARK INTER:                  -7.610
REMARK INTRA:                  -0.281
REMARK UNBOUND:                 0.202
REMARK SMILES CC1(C)CC[C@]2(C(=O)[O-])CC[C@]3(C)C(=CC[C@H]4[C@@]5(C)CC[C@H](O)C(C)(C)[C@H]5CC[C@@]43C)[C@@H]2C1
REMARK SMILES IDX 6 1 5 2 10 3 32 4 4 5 11 6 14 7 33 8 2 9 12 10 15 11 1 12
REMARK SMILES IDX 3 13 13 14 30 15 16 16 17 17 29 18 31 19 18 20 28 21 27 22
REMARK SMILES IDX 20 23 19 24 24 25 21 26 22 27 25 28 26 29 7 30 8 31 9 32
REMARK SMILES IDX 23 33
REMARK H PARENT 23 34
REMARK Flexibility Score: inf
ROOT
ATOM      1  C   UNL     1     -11.911   9.467 -26.617  1.00  0.00     0.017 C 
ATOM      2  C   UNL     1     -10.978   8.348 -27.180  1.00  0.00     0.014 C 
ATOM      3  C   UNL     1     -11.797  10.748 -27.521  1.00  0.00     0.014 C 
ATOM      4  C   UNL     1     -11.538   9.787 -25.109  1.00  0.00     0.028 C 
ATOM      5  C   UNL     1     -10.742   7.236 -26.141  1.00  0.00     0.007 C 
ATOM      6  C   UNL     1     -10.747  11.770 -27.037  1.00  0.00     0.013 C 
ATOM      7  C   UNL     1     -11.801  11.269 -24.810  1.00  0.00    -0.064 C 
ATOM      8  C   UNL     1     -10.119   9.301 -24.731  1.00  0.00     0.015 C 
ATOM      9  C   UNL     1      -9.963   7.755 -24.888  1.00  0.00    -0.035 C 
ATOM     10  C   UNL     1     -10.998  12.356 -25.580  1.00  0.00    -0.006 C 
ATOM     11  C   UNL     1     -13.006  11.529 -24.244  1.00  0.00    -0.027 C 
ATOM     12  C   UNL     1     -10.482   7.034 -23.622  1.00  0.00     0.011 C 
ATOM     13  C   UNL     1      -8.462   7.423 -25.042  1.00  0.00     0.011 C 
ATOM     14  C   UNL     1      -9.587  12.512 -24.916  1.00  0.00     0.017 C 
ATOM     15  C   UNL     1     -11.742  13.811 -25.523  1.00  0.00    -0.020 C 
ATOM     16  C   UNL     1     -13.770  12.809 -24.396  1.00  0.00     0.032 C 
ATOM     17  C   UNL     1     -13.286  13.649 -25.600  1.00  0.00     0.006 C 
ATOM     18  C   UNL     1     -11.334  14.700 -26.723  1.00  0.00     0.008 C 
ATOM     19  C   UNL     1     -11.391  14.545 -24.178  1.00  0.00     0.012 C 
ATOM     20  C   UNL     1     -14.195  14.955 -25.907  1.00  0.00    -0.025 C 
ATOM     21  C   UNL     1     -11.864  16.115 -26.607  1.00  0.00     0.005 C 
ATOM     22  C   UNL     1     -13.416  16.193 -26.592  1.00  0.00     0.003 C 
ATOM     23  C   UNL     1     -14.967  15.448 -24.638  1.00  0.00     0.010 C 
ATOM     24  C   UNL     1     -15.288  14.433 -26.902  1.00  0.00     0.012 C 
ATOM     25  C   UNL     1     -13.896  17.656 -26.166  1.00  0.00    -0.006 C 
ATOM     26  C   UNL     1     -15.883  16.675 -24.841  1.00  0.00     0.033 C 
ATOM     27  C   UNL     1     -15.429  17.685 -25.918  1.00  0.00     0.120 C 
ATOM     28  C   UNL     1     -13.583  18.664 -27.310  1.00  0.00     0.014 C 
ATOM     29  C   UNL     1     -13.184  18.210 -24.891  1.00  0.00     0.014 C 
ENDROOT
BRANCH   1  30
ATOM     30  C   UNL     1     -13.352   8.962 -26.738  1.00  0.00     0.048 C 
ATOM     31  O   UNL     1     -13.918   8.952 -27.864  1.00  0.00    -0.550 OA
ATOM     32  O   UNL     1     -14.052   8.465 -25.641  1.00  0.00    -0.550 OA
ENDBRANCH   1  30
BRANCH  27  33
ATOM     33  O   UNL     1     -16.125  17.477 -27.121  1.00  0.00    -0.393 OA
ATOM     34  H   UNL     1     -16.747  16.719 -26.974  1.00  0.00     0.210 HD
ENDBRANCH  27  33
TORSDOF 2
ENDMDL
MODEL 6
REMARK VINA RESULT:    -7.333     10.191     14.090
REMARK INTER + INTRA:          -7.774
REMARK INTER:                  -7.864
REMARK INTRA:                   0.089
REMARK UNBOUND:                 0.202
REMARK SMILES CC1(C)CC[C@]2(C(=O)[O-])CC[C@]3(C)C(=CC[C@H]4[C@@]5(C)CC[C@H](O)C(C)(C)[C@H]5CC[C@@]43C)[C@@H]2C1
REMARK SMILES IDX 6 1 5 2 10 3 32 4 4 5 11 6 14 7 33 8 2 9 12 10 15 11 1 12
REMARK SMILES IDX 3 13 13 14 30 15 16 16 17 17 29 18 31 19 18 20 28 21 27 22
REMARK SMILES IDX 20 23 19 24 24 25 21 26 22 27 25 28 26 29 7 30 8 31 9 32
REMARK SMILES IDX 23 33
REMARK H PARENT 23 34
REMARK Flexibility Score: inf
ROOT
ATOM      1  C   UNL     1     -11.343   4.092 -33.943  1.00  0.00     0.017 C 
ATOM      2  C   UNL     1     -11.498   3.247 -32.638  1.00  0.00     0.014 C 
ATOM      3  C   UNL     1     -10.070   3.611 -34.730  1.00  0.00     0.014 C 
ATOM      4  C   UNL     1     -11.258   5.635 -33.592  1.00  0.00     0.028 C 
ATOM      5  C   UNL     1     -12.468   3.916 -31.646  1.00  0.00     0.007 C 
ATOM      6  C   UNL     1      -8.787   4.403 -34.399  1.00  0.00     0.013 C 
ATOM      7  C   UNL     1     -10.360   6.354 -34.609  1.00  0.00    -0.064 C 
ATOM      8  C   UNL     1     -10.878   5.890 -32.114  1.00  0.00     0.015 C 
ATOM      9  C   UNL     1     -11.925   5.286 -31.123  1.00  0.00    -0.035 C 
ATOM     10  C   UNL     1      -8.858   5.961 -34.710  1.00  0.00    -0.006 C 
ATOM     11  C   UNL     1     -11.022   6.939 -35.637  1.00  0.00    -0.027 C 
ATOM     12  C   UNL     1     -13.103   6.268 -30.927  1.00  0.00     0.011 C 
ATOM     13  C   UNL     1     -11.245   5.080 -29.751  1.00  0.00     0.011 C 
ATOM     14  C   UNL     1      -8.066   6.678 -33.563  1.00  0.00     0.017 C 
ATOM     15  C   UNL     1      -8.206   6.427 -36.135  1.00  0.00    -0.020 C 
ATOM     16  C   UNL     1     -10.463   7.153 -37.010  1.00  0.00     0.032 C 
ATOM     17  C   UNL     1      -9.230   6.265 -37.294  1.00  0.00     0.006 C 
ATOM     18  C   UNL     1      -6.982   5.555 -36.507  1.00  0.00     0.008 C 
ATOM     19  C   UNL     1      -7.778   7.938 -36.065  1.00  0.00     0.012 C 
ATOM     20  C   UNL     1      -8.698   6.335 -38.823  1.00  0.00    -0.025 C 
ATOM     21  C   UNL     1      -6.248   6.071 -37.728  1.00  0.00     0.005 C 
ATOM     22  C   UNL     1      -7.117   6.068 -39.017  1.00  0.00     0.003 C 
ATOM     23  C   UNL     1      -9.103   7.672 -39.528  1.00  0.00     0.010 C 
ATOM     24  C   UNL     1      -9.496   5.202 -39.556  1.00  0.00     0.012 C 
ATOM     25  C   UNL     1      -6.395   6.895 -40.178  1.00  0.00    -0.006 C 
ATOM     26  C   UNL     1      -8.662   7.818 -41.001  1.00  0.00     0.033 C 
ATOM     27  C   UNL     1      -7.349   7.101 -41.386  1.00  0.00     0.120 C 
ATOM     28  C   UNL     1      -5.151   6.110 -40.685  1.00  0.00     0.014 C 
ATOM     29  C   UNL     1      -5.871   8.296 -39.725  1.00  0.00     0.014 C 
ENDROOT
BRANCH   1  30
ATOM     30  C   UNL     1     -12.555   3.789 -34.828  1.00  0.00     0.048 C 
ATOM     31  O   UNL     1     -12.486   3.984 -36.072  1.00  0.00    -0.550 OA
ATOM     32  O   UNL     1     -13.732   3.256 -34.307  1.00  0.00    -0.550 OA
ENDBRANCH   1  30
BRANCH  27  33
ATOM     33  O   UNL     1      -7.618   5.872 -42.013  1.00  0.00    -0.393 OA
ATOM     34  H   UNL     1      -6.746   5.433 -42.187  1.00  0.00     0.210 HD
ENDBRANCH  27  33
TORSDOF 2
ENDMDL
MODEL 7
REMARK VINA RESULT:    -7.137      4.652      7.696
REMARK INTER + INTRA:          -7.561
REMARK INTER:                  -7.280
REMARK INTRA:                  -0.280
REMARK UNBOUND:                 0.202
REMARK SMILES CC1(C)CC[C@]2(C(=O)[O-])CC[C@]3(C)C(=CC[C@H]4[C@@]5(C)CC[C@H](O)C(C)(C)[C@H]5CC[C@@]43C)[C@@H]2C1
REMARK SMILES IDX 6 1 5 2 10 3 32 4 4 5 11 6 14 7 33 8 2 9 12 10 15 11 1 12
REMARK SMILES IDX 3 13 13 14 30 15 16 16 17 17 29 18 31 19 18 20 28 21 27 22
REMARK SMILES IDX 20 23 19 24 24 25 21 26 22 27 25 28 26 29 7 30 8 31 9 32
REMARK SMILES IDX 23 33
REMARK H PARENT 23 34
REMARK Flexibility Score: inf
ROOT
ATOM      1  C   UNL     1      -7.269  17.393 -22.965  1.00  0.00     0.017 C 
ATOM      2  C   UNL     1      -6.347  16.750 -21.880  1.00  0.00     0.014 C 
ATOM      3  C   UNL     1      -8.773  17.119 -22.601  1.00  0.00     0.014 C 
ATOM      4  C   UNL     1      -6.907  16.825 -24.400  1.00  0.00     0.028 C 
ATOM      5  C   UNL     1      -4.892  16.637 -22.373  1.00  0.00     0.007 C 
ATOM      6  C   UNL     1      -9.360  15.850 -23.256  1.00  0.00     0.013 C 
ATOM      7  C   UNL     1      -8.169  16.767 -25.272  1.00  0.00    -0.064 C 
ATOM      8  C   UNL     1      -6.116  15.497 -24.334  1.00  0.00     0.015 C 
ATOM      9  C   UNL     1      -4.754  15.658 -23.585  1.00  0.00    -0.035 C 
ATOM     10  C   UNL     1      -9.347  15.845 -24.846  1.00  0.00    -0.006 C 
ATOM     11  C   UNL     1      -8.350  17.841 -26.081  1.00  0.00    -0.027 C 
ATOM     12  C   UNL     1      -3.671  16.185 -24.554  1.00  0.00     0.011 C 
ATOM     13  C   UNL     1      -4.303  14.271 -23.077  1.00  0.00     0.011 C 
ATOM     14  C   UNL     1      -9.026  14.374 -25.283  1.00  0.00     0.017 C 
ATOM     15  C   UNL     1     -10.749  16.285 -25.564  1.00  0.00    -0.020 C 
ATOM     16  C   UNL     1      -9.678  18.353 -26.545  1.00  0.00     0.032 C 
ATOM     17  C   UNL     1     -10.851  17.832 -25.683  1.00  0.00     0.006 C 
ATOM     18  C   UNL     1     -11.975  15.827 -24.736  1.00  0.00     0.008 C 
ATOM     19  C   UNL     1     -10.830  15.674 -27.010  1.00  0.00     0.012 C 
ATOM     20  C   UNL     1     -12.285  18.496 -26.040  1.00  0.00    -0.025 C 
ATOM     21  C   UNL     1     -13.286  16.061 -25.458  1.00  0.00     0.005 C 
ATOM     22  C   UNL     1     -13.570  17.560 -25.753  1.00  0.00     0.003 C 
ATOM     23  C   UNL     1     -12.336  19.036 -27.508  1.00  0.00     0.010 C 
ATOM     24  C   UNL     1     -12.362  19.758 -25.113  1.00  0.00     0.012 C 
ATOM     25  C   UNL     1     -14.795  17.706 -26.768  1.00  0.00    -0.006 C 
ATOM     26  C   UNL     1     -13.659  19.712 -27.931  1.00  0.00     0.033 C 
ATOM     27  C   UNL     1     -14.939  19.174 -27.254  1.00  0.00     0.120 C 
ATOM     28  C   UNL     1     -16.119  17.313 -26.051  1.00  0.00     0.014 C 
ATOM     29  C   UNL     1     -14.690  16.784 -28.025  1.00  0.00     0.014 C 
ENDROOT
BRANCH   1  30
ATOM     30  C   UNL     1      -7.063  18.908 -22.898  1.00  0.00     0.048 C 
ATOM     31  O   UNL     1      -7.577  19.568 -21.955  1.00  0.00    -0.550 OA
ATOM     32  O   UNL     1      -6.279  19.586 -23.829  1.00  0.00    -0.550 OA
ENDBRANCH   1  30
BRANCH  27  33
ATOM     33  O   UNL     1     -15.327  20.007 -26.190  1.00  0.00    -0.393 OA
ATOM     34  H   UNL     1     -15.025  19.573 -25.351  1.00  0.00     0.210 HD
ENDBRANCH  27  33
TORSDOF 2
ENDMDL
MODEL 8
REMARK VINA RESULT:    -7.097      3.179      8.237
REMARK INTER + INTRA:          -7.518
REMARK INTER:                  -7.237
REMARK INTRA:                  -0.281
REMARK UNBOUND:                 0.202
REMARK SMILES CC1(C)CC[C@]2(C(=O)[O-])CC[C@]3(C)C(=CC[C@H]4[C@@]5(C)CC[C@H](O)C(C)(C)[C@H]5CC[C@@]43C)[C@@H]2C1
REMARK SMILES IDX 6 1 5 2 10 3 32 4 4 5 11 6 14 7 33 8 2 9 12 10 15 11 1 12
REMARK SMILES IDX 3 13 13 14 30 15 16 16 17 17 29 18 31 19 18 20 28 21 27 22
REMARK SMILES IDX 20 23 19 24 24 25 21 26 22 27 25 28 26 29 7 30 8 31 9 32
REMARK SMILES IDX 23 33
REMARK H PARENT 23 34
REMARK Flexibility Score: inf
ROOT
ATOM      1  C   UNL     1     -12.819  17.368 -26.785  1.00  0.00     0.017 C 
ATOM      2  C   UNL     1     -14.027  18.069 -27.483  1.00  0.00     0.014 C 
ATOM      3  C   UNL     1     -12.935  15.812 -26.976  1.00  0.00     0.014 C 
ATOM      4  C   UNL     1     -12.767  17.761 -25.250  1.00  0.00     0.028 C 
ATOM      5  C   UNL     1     -14.187  19.524 -27.005  1.00  0.00     0.007 C 
ATOM      6  C   UNL     1     -13.661  15.087 -25.822  1.00  0.00     0.013 C 
ATOM      7  C   UNL     1     -12.204  16.592 -24.430  1.00  0.00    -0.064 C 
ATOM      8  C   UNL     1     -14.115  18.314 -24.731  1.00  0.00     0.015 C 
ATOM      9  C   UNL     1     -14.552  19.610 -25.486  1.00  0.00    -0.035 C 
ATOM     10  C   UNL     1     -12.980  15.244 -24.394  1.00  0.00    -0.006 C 
ATOM     11  C   UNL     1     -10.873  16.664 -24.178  1.00  0.00    -0.027 C 
ATOM     12  C   UNL     1     -13.872  20.849 -24.860  1.00  0.00     0.011 C 
ATOM     13  C   UNL     1     -16.080  19.779 -25.334  1.00  0.00     0.011 C 
ATOM     14  C   UNL     1     -14.148  15.358 -23.355  1.00  0.00     0.017 C 
ATOM     15  C   UNL     1     -12.018  14.005 -23.930  1.00  0.00    -0.020 C 
ATOM     16  C   UNL     1      -9.971  15.486 -23.975  1.00  0.00     0.032 C 
ATOM     17  C   UNL     1     -10.583  14.171 -24.506  1.00  0.00     0.006 C 
ATOM     18  C   UNL     1     -12.550  12.651 -24.459  1.00  0.00     0.008 C 
ATOM     19  C   UNL     1     -11.916  13.958 -22.362  1.00  0.00     0.012 C 
ATOM     20  C   UNL     1      -9.574  12.903 -24.466  1.00  0.00    -0.025 C 
ATOM     21  C   UNL     1     -11.785  11.467 -23.902  1.00  0.00     0.005 C 
ATOM     22  C   UNL     1     -10.282  11.462 -24.297  1.00  0.00     0.003 C 
ATOM     23  C   UNL     1      -8.453  13.076 -23.387  1.00  0.00     0.010 C 
ATOM     24  C   UNL     1      -8.847  12.951 -25.854  1.00  0.00     0.012 C 
ATOM     25  C   UNL     1      -9.484  10.375 -23.440  1.00  0.00    -0.006 C 
ATOM     26  C   UNL     1      -7.425  11.927 -23.294  1.00  0.00     0.033 C 
ATOM     27  C   UNL     1      -7.952  10.519 -23.651  1.00  0.00     0.120 C 
ATOM     28  C   UNL     1      -9.892   8.944 -23.897  1.00  0.00     0.014 C 
ATOM     29  C   UNL     1      -9.774  10.442 -21.906  1.00  0.00     0.014 C 
ENDROOT
BRANCH   1  30
ATOM     30  C   UNL     1     -11.549  17.813 -27.517  1.00  0.00     0.048 C 
ATOM     31  O   UNL     1     -11.247  17.287 -28.622  1.00  0.00    -0.550 OA
ATOM     32  O   UNL     1     -10.730  18.825 -27.021  1.00  0.00    -0.550 OA
ENDBRANCH   1  30
BRANCH  27  33
ATOM     33  O   UNL     1      -7.605  10.178 -24.970  1.00  0.00    -0.393 OA
ATOM     34  H   UNL     1      -7.560   9.188 -25.016  1.00  0.00     0.210 HD
ENDBRANCH  27  33
TORSDOF 2
ENDMDL
MODEL 9
REMARK VINA RESULT:    -7.021      2.391      3.302
REMARK INTER + INTRA:          -7.435
REMARK INTER:                  -7.164
REMARK INTRA:                  -0.270
REMARK UNBOUND:                 0.202
REMARK SMILES CC1(C)CC[C@]2(C(=O)[O-])CC[C@]3(C)C(=CC[C@H]4[C@@]5(C)CC[C@H](O)C(C)(C)[C@H]5CC[C@@]43C)[C@@H]2C1
REMARK SMILES IDX 6 1 5 2 10 3 32 4 4 5 11 6 14 7 33 8 2 9 12 10 15 11 1 12
REMARK SMILES IDX 3 13 13 14 30 15 16 16 17 17 29 18 31 19 18 20 28 21 27 22
REMARK SMILES IDX 20 23 19 24 24 25 21 26 22 27 25 28 26 29 7 30 8 31 9 32
REMARK SMILES IDX 23 33
REMARK H PARENT 23 34
REMARK Flexibility Score: inf
ROOT
ATOM      1  C   UNL     1     -10.835  11.831 -25.306  1.00  0.00     0.017 C 
ATOM      2  C   UNL     1      -9.662  10.842 -25.600  1.00  0.00     0.014 C 
ATOM      3  C   UNL     1     -10.783  13.023 -26.330  1.00  0.00     0.014 C 
ATOM      4  C   UNL     1     -10.755  12.350 -23.810  1.00  0.00     0.028 C 
ATOM      5  C   UNL     1      -9.420   9.888 -24.414  1.00  0.00     0.007 C 
ATOM      6  C   UNL     1      -9.992  14.251 -25.830  1.00  0.00     0.013 C 
ATOM      7  C   UNL     1     -11.289  13.787 -23.726  1.00  0.00    -0.064 C 
ATOM      8  C   UNL     1      -9.354  12.152 -23.185  1.00  0.00     0.015 C 
ATOM      9  C   UNL     1      -8.936  10.647 -23.136  1.00  0.00    -0.035 C 
ATOM     10  C   UNL     1     -10.555  14.918 -24.501  1.00  0.00    -0.006 C 
ATOM     11  C   UNL     1     -12.593  13.888 -23.367  1.00  0.00    -0.027 C 
ATOM     12  C   UNL     1      -9.526   9.970 -21.878  1.00  0.00     0.011 C 
ATOM     13  C   UNL     1      -7.396  10.565 -23.041  1.00  0.00     0.011 C 
ATOM     14  C   UNL     1      -9.306  15.375 -23.671  1.00  0.00     0.017 C 
ATOM     15  C   UNL     1     -11.516  16.223 -24.718  1.00  0.00    -0.020 C 
ATOM     16  C   UNL     1     -13.513  14.997 -23.772  1.00  0.00     0.032 C 
ATOM     17  C   UNL     1     -12.985  15.792 -24.988  1.00  0.00     0.006 C 
ATOM     18  C   UNL     1     -11.070  17.053 -25.947  1.00  0.00     0.008 C 
ATOM     19  C   UNL     1     -11.497  17.128 -23.433  1.00  0.00     0.012 C 
ATOM     20  C   UNL     1     -14.028  16.889 -25.569  1.00  0.00    -0.025 C 
ATOM     21  C   UNL     1     -11.826  18.360 -26.073  1.00  0.00     0.005 C 
ATOM     22  C   UNL     1     -13.355  18.172 -26.280  1.00  0.00     0.003 C 
ATOM     23  C   UNL     1     -15.055  17.357 -24.485  1.00  0.00     0.010 C 
ATOM     24  C   UNL     1     -14.858  16.096 -26.636  1.00  0.00     0.012 C 
ATOM     25  C   UNL     1     -14.117  19.565 -26.100  1.00  0.00    -0.006 C 
ATOM     26  C   UNL     1     -16.108  18.385 -24.956  1.00  0.00     0.033 C 
ATOM     27  C   UNL     1     -15.655  19.353 -26.071  1.00  0.00     0.120 C 
ATOM     28  C   UNL     1     -13.791  20.500 -27.301  1.00  0.00     0.014 C 
ATOM     29  C   UNL     1     -13.707  20.349 -24.813  1.00  0.00     0.014 C 
ENDROOT
BRANCH   1  30
ATOM     30  C   UNL     1     -12.142  11.078 -25.565  1.00  0.00     0.048 C 
ATOM     31  O   UNL     1     -12.476  10.791 -26.746  1.00  0.00    -0.550 OA
ATOM     32  O   UNL     1     -12.965  10.652 -24.524  1.00  0.00    -0.550 OA
ENDBRANCH   1  30
BRANCH  27  33
ATOM     33  O   UNL     1     -16.115  18.918 -27.325  1.00  0.00    -0.393 OA
ATOM     34  H   UNL     1     -16.437  17.986 -27.214  1.00  0.00     0.210 HD
ENDBRANCH  27  33
TORSDOF 2
ENDMDL
