MODEL 1
REMARK VINA RESULT:    -6.329      0.000      0.000
REMARK INTER + INTRA:          -7.167
REMARK INTER:                  -6.884
REMARK INTRA:                  -0.283
REMARK UNBOUND:                -0.283
REMARK SMILES C[C@@H]1[C@H](C)CC[C@@]2(C(=O)[O-])CC[C@]3(C)C(=CC[C@@H]4[C@@]5(C)CC[C@@H](O)C(C)(C)[C@H]5CC[C@]43C)[C@@H]12
REMARK SMILES IDX 7 1 6 2 11 3 33 4 5 5 12 6 15 7 2 8 3 9 13 10 16 11 1 12
REMARK SMILES IDX 4 13 14 14 31 15 17 16 18 17 30 18 32 19 19 20 29 21 28 22
REMARK SMILES IDX 21 23 20 24 25 25 22 26 23 27 26 28 27 29 8 30 9 31 10 32
REMARK SMILES IDX 24 33
REMARK H PARENT 24 34
REMARK Flexibility Score: inf
ROOT
ATOM      1  C   UNL     1      43.967   2.429 -47.483  1.00  0.00     0.017 C 
ATOM      2  C   UNL     1      44.792   3.752 -47.573  1.00  0.00     0.014 C 
ATOM      3  C   UNL     1      44.085   1.749 -48.910  1.00  0.00     0.014 C 
ATOM      4  C   UNL     1      44.465   1.439 -46.331  1.00  0.00     0.030 C 
ATOM      5  C   UNL     1      45.239   4.303 -46.227  1.00  0.00     0.004 C 
ATOM      6  C   UNL     1      43.678   0.248 -49.035  1.00  0.00     0.013 C 
ATOM      7  C   UNL     1      44.989   0.148 -46.957  1.00  0.00    -0.063 C 
ATOM      8  C   UNL     1      45.356   2.009 -45.155  1.00  0.00    -0.003 C 
ATOM      9  C   UNL     1      46.153   3.281 -45.548  1.00  0.00    -0.011 C 
ATOM     10  C   UNL     1      43.968  -0.676 -47.774  1.00  0.00    -0.006 C 
ATOM     11  C   UNL     1      46.292   0.093 -47.328  1.00  0.00    -0.027 C 
ATOM     12  C   UNL     1      44.529   2.206 -43.858  1.00  0.00     0.008 C 
ATOM     13  C   UNL     1      46.912   3.921 -44.374  1.00  0.00     0.008 C 
ATOM     14  C   UNL     1      42.594  -0.796 -47.033  1.00  0.00     0.017 C 
ATOM     15  C   UNL     1      44.532  -2.188 -48.121  1.00  0.00    -0.020 C 
ATOM     16  C   UNL     1      46.768  -0.940 -48.310  1.00  0.00     0.032 C 
ATOM     17  C   UNL     1      46.095  -2.269 -47.944  1.00  0.00     0.006 C 
ATOM     18  C   UNL     1      43.990  -3.297 -47.138  1.00  0.00     0.008 C 
ATOM     19  C   UNL     1      44.060  -2.577 -49.559  1.00  0.00     0.012 C 
ATOM     20  C   UNL     1      46.810  -3.612 -48.423  1.00  0.00    -0.025 C 
ATOM     21  C   UNL     1      44.900  -4.543 -46.915  1.00  0.00     0.005 C 
ATOM     22  C   UNL     1      45.883  -4.873 -48.081  1.00  0.00     0.003 C 
ATOM     23  C   UNL     1      48.181  -3.690 -47.660  1.00  0.00     0.010 C 
ATOM     24  C   UNL     1      47.106  -3.548 -49.954  1.00  0.00     0.012 C 
ATOM     25  C   UNL     1      46.635  -6.272 -47.917  1.00  0.00    -0.006 C 
ATOM     26  C   UNL     1      48.863  -5.055 -47.680  1.00  0.00     0.033 C 
ATOM     27  C   UNL     1      47.948  -6.135 -47.100  1.00  0.00     0.120 C 
ATOM     28  C   UNL     1      46.950  -6.877 -49.316  1.00  0.00     0.014 C 
ATOM     29  C   UNL     1      45.745  -7.343 -47.223  1.00  0.00     0.014 C 
ENDROOT
BRANCH   1  30
ATOM     30  C   UNL     1      42.515   2.825 -47.224  1.00  0.00     0.048 C 
ATOM     31  O   UNL     1      41.885   3.561 -48.033  1.00  0.00    -0.550 OA
ATOM     32  O   UNL     1      41.883   2.447 -46.045  1.00  0.00    -0.550 OA
ENDBRANCH   1  30
BRANCH  27  33
ATOM     33  O   UNL     1      47.663  -5.842 -45.753  1.00  0.00    -0.393 OA
ATOM     34  H   UNL     1      47.048  -5.063 -45.748  1.00  0.00     0.210 HD
ENDBRANCH  27  33
TORSDOF 2
ENDMDL
MODEL 2
REMARK VINA RESULT:    -6.162      7.413     11.874
REMARK INTER + INTRA:          -6.985
REMARK INTER:                  -6.684
REMARK INTRA:                  -0.301
REMARK UNBOUND:                -0.283
REMARK SMILES C[C@@H]1[C@H](C)CC[C@@]2(C(=O)[O-])CC[C@]3(C)C(=CC[C@@H]4[C@@]5(C)CC[C@@H](O)C(C)(C)[C@H]5CC[C@]43C)[C@@H]12
REMARK SMILES IDX 7 1 6 2 11 3 33 4 5 5 12 6 15 7 2 8 3 9 13 10 16 11 1 12
REMARK SMILES IDX 4 13 14 14 31 15 17 16 18 17 30 18 32 19 19 20 29 21 28 22
REMARK SMILES IDX 21 23 20 24 25 25 22 26 23 27 26 28 27 29 8 30 9 31 10 32
REMARK SMILES IDX 24 33
REMARK H PARENT 24 34
REMARK Flexibility Score: inf
ROOT
ATOM      1  C   UNL     1      50.937  -5.680 -48.971  1.00  0.00     0.017 C 
ATOM      2  C   UNL     1      50.122  -7.011 -48.904  1.00  0.00     0.014 C 
ATOM      3  C   UNL     1      51.214  -5.269 -47.466  1.00  0.00     0.014 C 
ATOM      4  C   UNL     1      52.301  -5.804 -49.794  1.00  0.00     0.030 C 
ATOM      5  C   UNL     1      50.178  -7.844 -50.176  1.00  0.00     0.004 C 
ATOM      6  C   UNL     1      52.309  -4.189 -47.199  1.00  0.00     0.013 C 
ATOM      7  C   UNL     1      53.486  -5.568 -48.859  1.00  0.00    -0.063 C 
ATOM      8  C   UNL     1      52.489  -7.010 -50.801  1.00  0.00    -0.003 C 
ATOM      9  C   UNL     1      51.628  -8.250 -50.443  1.00  0.00    -0.011 C 
ATOM     10  C   UNL     1      53.555  -4.178 -48.185  1.00  0.00    -0.006 C 
ATOM     11  C   UNL     1      53.999  -6.626 -48.185  1.00  0.00    -0.027 C 
ATOM     12  C   UNL     1      52.293  -6.560 -52.271  1.00  0.00     0.008 C 
ATOM     13  C   UNL     1      51.698  -9.374 -51.490  1.00  0.00     0.008 C 
ATOM     14  C   UNL     1      53.258  -3.025 -49.203  1.00  0.00     0.017 C 
ATOM     15  C   UNL     1      55.019  -3.909 -47.473  1.00  0.00    -0.020 C 
ATOM     16  C   UNL     1      54.849  -6.420 -46.963  1.00  0.00     0.032 C 
ATOM     17  C   UNL     1      55.805  -5.257 -47.257  1.00  0.00     0.006 C 
ATOM     18  C   UNL     1      55.998  -3.048 -48.363  1.00  0.00     0.008 C 
ATOM     19  C   UNL     1      54.788  -3.118 -46.145  1.00  0.00     0.012 C 
ATOM     20  C   UNL     1      57.154  -5.182 -46.409  1.00  0.00    -0.025 C 
ATOM     21  C   UNL     1      57.525  -3.285 -48.156  1.00  0.00     0.005 C 
ATOM     22  C   UNL     1      57.937  -3.827 -46.752  1.00  0.00     0.003 C 
ATOM     23  C   UNL     1      58.004  -6.444 -46.801  1.00  0.00     0.010 C 
ATOM     24  C   UNL     1      56.836  -5.262 -44.883  1.00  0.00     0.012 C 
ATOM     25  C   UNL     1      59.513  -3.845 -46.502  1.00  0.00    -0.006 C 
ATOM     26  C   UNL     1      59.475  -6.392 -46.398  1.00  0.00     0.033 C 
ATOM     27  C   UNL     1      60.166  -5.165 -46.994  1.00  0.00     0.120 C 
ATOM     28  C   UNL     1      59.817  -3.643 -44.989  1.00  0.00     0.014 C 
ATOM     29  C   UNL     1      60.237  -2.659 -47.204  1.00  0.00     0.014 C 
ENDROOT
BRANCH   1  30
ATOM     30  C   UNL     1      50.037  -4.637 -49.629  1.00  0.00     0.048 C 
ATOM     31  O   UNL     1      50.295  -4.184 -50.778  1.00  0.00    -0.550 OA
ATOM     32  O   UNL     1      48.955  -4.105 -48.936  1.00  0.00    -0.550 OA
ENDBRANCH   1  30
BRANCH  27  33
ATOM     33  O   UNL     1      60.131  -5.238 -48.400  1.00  0.00    -0.393 OA
ATOM     34  H   UNL     1      60.945  -5.729 -48.687  1.00  0.00     0.210 HD
ENDBRANCH  27  33
TORSDOF 2
ENDMDL
MODEL 3
REMARK VINA RESULT:    -6.152      3.010      5.551
REMARK INTER + INTRA:          -6.974
REMARK INTER:                  -6.677
REMARK INTRA:                  -0.297
REMARK UNBOUND:                -0.283
REMARK SMILES C[C@@H]1[C@H](C)CC[C@@]2(C(=O)[O-])CC[C@]3(C)C(=CC[C@@H]4[C@@]5(C)CC[C@@H](O)C(C)(C)[C@H]5CC[C@]43C)[C@@H]12
REMARK SMILES IDX 7 1 6 2 11 3 33 4 5 5 12 6 15 7 2 8 3 9 13 10 16 11 1 12
REMARK SMILES IDX 4 13 14 14 31 15 17 16 18 17 30 18 32 19 19 20 29 21 28 22
REMARK SMILES IDX 21 23 20 24 25 25 22 26 23 27 26 28 27 29 8 30 9 31 10 32
REMARK SMILES IDX 24 33
REMARK H PARENT 24 34
REMARK Flexibility Score: inf
ROOT
ATOM      1  C   UNL     1      43.312  -2.329 -48.591  1.00  0.00     0.017 C 
ATOM      2  C   UNL     1      42.252  -2.816 -49.630  1.00  0.00     0.014 C 
ATOM      3  C   UNL     1      43.125  -3.254 -47.319  1.00  0.00     0.014 C 
ATOM      4  C   UNL     1      44.815  -2.389 -49.131  1.00  0.00     0.030 C 
ATOM      5  C   UNL     1      42.567  -2.437 -51.070  1.00  0.00     0.004 C 
ATOM      6  C   UNL     1      44.265  -3.262 -46.253  1.00  0.00     0.013 C 
ATOM      7  C   UNL     1      45.615  -3.393 -48.304  1.00  0.00    -0.063 C 
ATOM      8  C   UNL     1      45.073  -2.468 -50.690  1.00  0.00    -0.003 C 
ATOM      9  C   UNL     1      43.889  -3.087 -51.479  1.00  0.00    -0.011 C 
ATOM     10  C   UNL     1      45.748  -3.081 -46.796  1.00  0.00    -0.006 C 
ATOM     11  C   UNL     1      45.610  -4.695 -48.684  1.00  0.00    -0.027 C 
ATOM     12  C   UNL     1      45.512  -1.096 -51.264  1.00  0.00     0.008 C 
ATOM     13  C   UNL     1      44.073  -3.041 -53.005  1.00  0.00     0.008 C 
ATOM     14  C   UNL     1      46.092  -1.573 -46.545  1.00  0.00     0.017 C 
ATOM     15  C   UNL     1      46.888  -4.026 -46.067  1.00  0.00    -0.020 C 
ATOM     16  C   UNL     1      45.998  -5.779 -47.719  1.00  0.00     0.032 C 
ATOM     17  C   UNL     1      47.229  -5.289 -46.945  1.00  0.00     0.006 C 
ATOM     18  C   UNL     1      48.283  -3.305 -45.899  1.00  0.00     0.008 C 
ATOM     19  C   UNL     1      46.386  -4.396 -44.635  1.00  0.00     0.012 C 
ATOM     20  C   UNL     1      48.173  -6.394 -46.289  1.00  0.00    -0.025 C 
ATOM     21  C   UNL     1      49.546  -4.219 -45.877  1.00  0.00     0.005 C 
ATOM     22  C   UNL     1      49.306  -5.686 -45.405  1.00  0.00     0.003 C 
ATOM     23  C   UNL     1      48.804  -7.209 -47.476  1.00  0.00     0.010 C 
ATOM     24  C   UNL     1      47.329  -7.376 -45.418  1.00  0.00     0.012 C 
ATOM     25  C   UNL     1      50.647  -6.522 -45.183  1.00  0.00    -0.006 C 
ATOM     26  C   UNL     1      50.011  -8.068 -47.109  1.00  0.00     0.033 C 
ATOM     27  C   UNL     1      51.121  -7.219 -46.487  1.00  0.00     0.120 C 
ATOM     28  C   UNL     1      50.435  -7.587 -44.068  1.00  0.00     0.014 C 
ATOM     29  C   UNL     1      51.815  -5.638 -44.657  1.00  0.00     0.014 C 
ENDROOT
BRANCH   1  30
ATOM     30  C   UNL     1      42.956  -0.887 -48.232  1.00  0.00     0.048 C 
ATOM     31  O   UNL     1      43.672   0.077 -48.619  1.00  0.00    -0.550 OA
ATOM     32  O   UNL     1      41.875  -0.617 -47.401  1.00  0.00    -0.550 OA
ENDBRANCH   1  30
BRANCH  27  33
ATOM     33  O   UNL     1      51.569  -6.266 -47.421  1.00  0.00    -0.393 OA
ATOM     34  H   UNL     1      52.560  -6.240 -47.359  1.00  0.00     0.210 HD
ENDBRANCH  27  33
TORSDOF 2
ENDMDL
MODEL 4
REMARK VINA RESULT:    -6.077      3.227      7.877
REMARK INTER + INTRA:          -6.892
REMARK INTER:                  -6.591
REMARK INTRA:                  -0.301
REMARK UNBOUND:                -0.283
REMARK SMILES C[C@@H]1[C@H](C)CC[C@@]2(C(=O)[O-])CC[C@]3(C)C(=CC[C@@H]4[C@@]5(C)CC[C@@H](O)C(C)(C)[C@H]5CC[C@]43C)[C@@H]12
REMARK SMILES IDX 7 1 6 2 11 3 33 4 5 5 12 6 15 7 2 8 3 9 13 10 16 11 1 12
REMARK SMILES IDX 4 13 14 14 31 15 17 16 18 17 30 18 32 19 19 20 29 21 28 22
REMARK SMILES IDX 21 23 20 24 25 25 22 26 23 27 26 28 27 29 8 30 9 31 10 32
REMARK SMILES IDX 24 33
REMARK H PARENT 24 34
REMARK Flexibility Score: inf
ROOT
ATOM      1  C   UNL     1      49.106  -5.207 -43.923  1.00  0.00     0.017 C 
ATOM      2  C   UNL     1      48.881  -6.649 -43.366  1.00  0.00     0.014 C 
ATOM      3  C   UNL     1      49.024  -5.336 -45.500  1.00  0.00     0.014 C 
ATOM      4  C   UNL     1      48.050  -4.138 -43.377  1.00  0.00     0.030 C 
ATOM      5  C   UNL     1      48.419  -6.695 -41.917  1.00  0.00     0.004 C 
ATOM      6  C   UNL     1      48.845  -4.026 -46.327  1.00  0.00     0.013 C 
ATOM      7  C   UNL     1      47.210  -3.610 -44.539  1.00  0.00    -0.063 C 
ATOM      8  C   UNL     1      47.228  -4.463 -42.066  1.00  0.00    -0.003 C 
ATOM      9  C   UNL     1      47.071  -5.983 -41.800  1.00  0.00    -0.011 C 
ATOM     10  C   UNL     1      47.981  -2.872 -45.657  1.00  0.00    -0.006 C 
ATOM     11  C   UNL     1      46.085  -4.286 -44.883  1.00  0.00    -0.027 C 
ATOM     12  C   UNL     1      47.792  -3.703 -40.837  1.00  0.00     0.008 C 
ATOM     13  C   UNL     1      46.395  -6.309 -40.458  1.00  0.00     0.008 C 
ATOM     14  C   UNL     1      49.029  -1.866 -45.072  1.00  0.00     0.017 C 
ATOM     15  C   UNL     1      46.965  -2.066 -46.678  1.00  0.00    -0.020 C 
ATOM     16  C   UNL     1      45.458  -4.097 -46.235  1.00  0.00     0.032 C 
ATOM     17  C   UNL     1      45.488  -2.596 -46.550  1.00  0.00     0.006 C 
ATOM     18  C   UNL     1      46.837  -0.528 -46.345  1.00  0.00     0.008 C 
ATOM     19  C   UNL     1      47.530  -2.177 -48.131  1.00  0.00     0.012 C 
ATOM     20  C   UNL     1      44.426  -2.045 -47.606  1.00  0.00    -0.025 C 
ATOM     21  C   UNL     1      45.497   0.165 -46.737  1.00  0.00     0.005 C 
ATOM     22  C   UNL     1      44.715  -0.499 -47.912  1.00  0.00     0.003 C 
ATOM     23  C   UNL     1      43.007  -2.242 -46.963  1.00  0.00     0.010 C 
ATOM     24  C   UNL     1      44.488  -2.886 -48.920  1.00  0.00     0.012 C 
ATOM     25  C   UNL     1      43.472   0.358 -48.429  1.00  0.00    -0.006 C 
ATOM     26  C   UNL     1      41.875  -1.461 -47.625  1.00  0.00     0.033 C 
ATOM     27  C   UNL     1      42.175   0.038 -47.636  1.00  0.00     0.120 C 
ATOM     28  C   UNL     1      43.235   0.096 -49.945  1.00  0.00     0.014 C 
ATOM     29  C   UNL     1      43.729   1.889 -48.335  1.00  0.00     0.014 C 
ENDROOT
BRANCH   1  30
ATOM     30  C   UNL     1      50.516  -4.785 -43.516  1.00  0.00     0.048 C 
ATOM     31  O   UNL     1      50.707  -3.804 -42.747  1.00  0.00    -0.550 OA
ATOM     32  O   UNL     1      51.624  -5.429 -44.056  1.00  0.00    -0.550 OA
ENDBRANCH   1  30
BRANCH  27  33
ATOM     33  O   UNL     1      42.277   0.512 -46.314  1.00  0.00    -0.393 OA
ATOM     34  H   UNL     1      42.882  -0.107 -45.828  1.00  0.00     0.210 HD
ENDBRANCH  27  33
TORSDOF 2
ENDMDL
MODEL 5
REMARK VINA RESULT:    -5.963      9.238     13.780
REMARK INTER + INTRA:          -6.769
REMARK INTER:                  -6.467
REMARK INTRA:                  -0.301
REMARK UNBOUND:                -0.283
REMARK SMILES C[C@@H]1[C@H](C)CC[C@@]2(C(=O)[O-])CC[C@]3(C)C(=CC[C@@H]4[C@@]5(C)CC[C@@H](O)C(C)(C)[C@H]5CC[C@]43C)[C@@H]12
REMARK SMILES IDX 7 1 6 2 11 3 33 4 5 5 12 6 15 7 2 8 3 9 13 10 16 11 1 12
REMARK SMILES IDX 4 13 14 14 31 15 17 16 18 17 30 18 32 19 19 20 29 21 28 22
REMARK SMILES IDX 21 23 20 24 25 25 22 26 23 27 26 28 27 29 8 30 9 31 10 32
REMARK SMILES IDX 24 33
REMARK H PARENT 24 34
REMARK Flexibility Score: inf
ROOT
ATOM      1  C   UNL     1      60.566  -4.780 -46.582  1.00  0.00     0.017 C 
ATOM      2  C   UNL     1      61.614  -5.938 -46.623  1.00  0.00     0.014 C 
ATOM      3  C   UNL     1      59.796  -4.846 -47.965  1.00  0.00     0.014 C 
ATOM      4  C   UNL     1      59.550  -4.879 -45.352  1.00  0.00     0.030 C 
ATOM      5  C   UNL     1      62.104  -6.387 -45.255  1.00  0.00     0.004 C 
ATOM      6  C   UNL     1      58.453  -4.061 -48.086  1.00  0.00     0.013 C 
ATOM      7  C   UNL     1      58.131  -5.091 -45.877  1.00  0.00    -0.063 C 
ATOM      8  C   UNL     1      59.930  -5.775 -44.105  1.00  0.00    -0.003 C 
ATOM      9  C   UNL     1      60.919  -6.920 -44.450  1.00  0.00    -0.011 C 
ATOM     10  C   UNL     1      57.561  -3.968 -46.773  1.00  0.00    -0.006 C 
ATOM     11  C   UNL     1      57.708  -6.360 -46.103  1.00  0.00    -0.027 C 
ATOM     12  C   UNL     1      60.417  -4.913 -42.912  1.00  0.00     0.008 C 
ATOM     13  C   UNL     1      61.402  -7.709 -43.221  1.00  0.00     0.008 C 
ATOM     14  C   UNL     1      57.855  -2.549 -46.180  1.00  0.00     0.017 C 
ATOM     15  C   UNL     1      55.936  -4.132 -47.009  1.00  0.00    -0.020 C 
ATOM     16  C   UNL     1      56.530  -6.630 -46.995  1.00  0.00     0.032 C 
ATOM     17  C   UNL     1      55.452  -5.590 -46.662  1.00  0.00     0.006 C 
ATOM     18  C   UNL     1      55.071  -3.218 -46.056  1.00  0.00     0.008 C 
ATOM     19  C   UNL     1      55.602  -3.711 -48.477  1.00  0.00     0.012 C 
ATOM     20  C   UNL     1      53.941  -5.957 -47.019  1.00  0.00    -0.025 C 
ATOM     21  C   UNL     1      53.643  -3.731 -45.697  1.00  0.00     0.005 C 
ATOM     22  C   UNL     1      52.995  -4.695 -46.739  1.00  0.00     0.003 C 
ATOM     23  C   UNL     1      53.547  -7.176 -46.110  1.00  0.00     0.010 C 
ATOM     24  C   UNL     1      53.833  -6.404 -48.510  1.00  0.00     0.012 C 
ATOM     25  C   UNL     1      51.459  -5.020 -46.451  1.00  0.00    -0.006 C 
ATOM     26  C   UNL     1      52.051  -7.461 -46.013  1.00  0.00     0.033 C 
ATOM     27  C   UNL     1      51.290  -6.237 -45.502  1.00  0.00     0.120 C 
ATOM     28  C   UNL     1      50.710  -5.292 -47.788  1.00  0.00     0.014 C 
ATOM     29  C   UNL     1      50.706  -3.812 -45.824  1.00  0.00     0.014 C 
ENDROOT
BRANCH   1  30
ATOM     30  C   UNL     1      61.349  -3.472 -46.493  1.00  0.00     0.048 C 
ATOM     31  O   UNL     1      61.255  -2.723 -45.482  1.00  0.00    -0.550 OA
ATOM     32  O   UNL     1      62.119  -3.041 -47.567  1.00  0.00    -0.550 OA
ENDBRANCH   1  30
BRANCH  27  33
ATOM     33  O   UNL     1      51.728  -5.915 -44.204  1.00  0.00    -0.393 OA
ATOM     34  H   UNL     1      52.650  -6.270 -44.110  1.00  0.00     0.210 HD
ENDBRANCH  27  33
TORSDOF 2
ENDMDL
MODEL 6
REMARK VINA RESULT:    -5.916      2.467      7.799
REMARK INTER + INTRA:          -6.718
REMARK INTER:                  -6.418
REMARK INTRA:                  -0.300
REMARK UNBOUND:                -0.283
REMARK SMILES C[C@@H]1[C@H](C)CC[C@@]2(C(=O)[O-])CC[C@]3(C)C(=CC[C@@H]4[C@@]5(C)CC[C@@H](O)C(C)(C)[C@H]5CC[C@]43C)[C@@H]12
REMARK SMILES IDX 7 1 6 2 11 3 33 4 5 5 12 6 15 7 2 8 3 9 13 10 16 11 1 12
REMARK SMILES IDX 4 13 14 14 31 15 17 16 18 17 30 18 32 19 19 20 29 21 28 22
REMARK SMILES IDX 21 23 20 24 25 25 22 26 23 27 26 28 27 29 8 30 9 31 10 32
REMARK SMILES IDX 24 33
REMARK H PARENT 24 34
REMARK Flexibility Score: inf
ROOT
ATOM      1  C   UNL     1      47.834  -6.222 -45.699  1.00  0.00     0.017 C 
ATOM      2  C   UNL     1      47.455  -7.161 -44.509  1.00  0.00     0.014 C 
ATOM      3  C   UNL     1      46.806  -6.558 -46.857  1.00  0.00     0.014 C 
ATOM      4  C   UNL     1      47.794  -4.668 -45.327  1.00  0.00     0.030 C 
ATOM      5  C   UNL     1      47.950  -6.682 -43.152  1.00  0.00     0.004 C 
ATOM      6  C   UNL     1      46.688  -5.547 -48.039  1.00  0.00     0.013 C 
ATOM      7  C   UNL     1      46.709  -3.974 -46.149  1.00  0.00    -0.063 C 
ATOM      8  C   UNL     1      47.845  -4.235 -43.806  1.00  0.00    -0.003 C 
ATOM      9  C   UNL     1      47.315  -5.327 -42.839  1.00  0.00    -0.011 C 
ATOM     10  C   UNL     1      46.890  -4.010 -47.684  1.00  0.00    -0.006 C 
ATOM     11  C   UNL     1      45.445  -3.945 -45.659  1.00  0.00    -0.027 C 
ATOM     12  C   UNL     1      49.252  -3.724 -43.407  1.00  0.00     0.008 C 
ATOM     13  C   UNL     1      47.489  -4.971 -41.353  1.00  0.00     0.008 C 
ATOM     14  C   UNL     1      48.364  -3.686 -48.102  1.00  0.00     0.017 C 
ATOM     15  C   UNL     1      45.866  -2.967 -48.451  1.00  0.00    -0.020 C 
ATOM     16  C   UNL     1      44.276  -3.677 -46.564  1.00  0.00     0.032 C 
ATOM     17  C   UNL     1      44.678  -2.538 -47.510  1.00  0.00     0.006 C 
ATOM     18  C   UNL     1      46.546  -1.595 -48.836  1.00  0.00     0.008 C 
ATOM     19  C   UNL     1      45.384  -3.631 -49.780  1.00  0.00     0.012 C 
ATOM     20  C   UNL     1      43.504  -1.682 -48.169  1.00  0.00    -0.025 C 
ATOM     21  C   UNL     1      45.613  -0.349 -48.921  1.00  0.00     0.005 C 
ATOM     22  C   UNL     1      44.115  -0.652 -49.233  1.00  0.00     0.003 C 
ATOM     23  C   UNL     1      42.784  -0.927 -46.995  1.00  0.00     0.010 C 
ATOM     24  C   UNL     1      42.467  -2.626 -48.852  1.00  0.00     0.012 C 
ATOM     25  C   UNL     1      43.241   0.650 -49.531  1.00  0.00    -0.006 C 
ATOM     26  C   UNL     1      41.876   0.225 -47.419  1.00  0.00     0.033 C 
ATOM     27  C   UNL     1      42.649   1.264 -48.233  1.00  0.00     0.120 C 
ATOM     28  C   UNL     1      42.088   0.305 -50.519  1.00  0.00     0.014 C 
ATOM     29  C   UNL     1      44.057   1.757 -50.259  1.00  0.00     0.014 C 
ENDROOT
BRANCH   1  30
ATOM     30  C   UNL     1      49.245  -6.606 -46.139  1.00  0.00     0.048 C 
ATOM     31  O   UNL     1      50.221  -5.830 -45.948  1.00  0.00    -0.550 OA
ATOM     32  O   UNL     1      49.466  -7.789 -46.835  1.00  0.00    -0.550 OA
ENDBRANCH   1  30
BRANCH  27  33
ATOM     33  O   UNL     1      43.672   1.821 -47.442  1.00  0.00    -0.393 OA
ATOM     34  H   UNL     1      44.489   1.279 -47.596  1.00  0.00     0.210 HD
ENDBRANCH  27  33
TORSDOF 2
ENDMDL
MODEL 7
REMARK VINA RESULT:    -5.852      9.021     12.859
REMARK INTER + INTRA:          -6.647
REMARK INTER:                  -6.345
REMARK INTRA:                  -0.302
REMARK UNBOUND:                -0.283
REMARK SMILES C[C@@H]1[C@H](C)CC[C@@]2(C(=O)[O-])CC[C@]3(C)C(=CC[C@@H]4[C@@]5(C)CC[C@@H](O)C(C)(C)[C@H]5CC[C@]43C)[C@@H]12
REMARK SMILES IDX 7 1 6 2 11 3 33 4 5 5 12 6 15 7 2 8 3 9 13 10 16 11 1 12
REMARK SMILES IDX 4 13 14 14 31 15 17 16 18 17 30 18 32 19 19 20 29 21 28 22
REMARK SMILES IDX 21 23 20 24 25 25 22 26 23 27 26 28 27 29 8 30 9 31 10 32
REMARK SMILES IDX 24 33
REMARK H PARENT 24 34
REMARK Flexibility Score: inf
ROOT
ATOM      1  C   UNL     1      52.137  -6.016 -44.537  1.00  0.00     0.017 C 
ATOM      2  C   UNL     1      51.218  -5.362 -43.457  1.00  0.00     0.014 C 
ATOM      3  C   UNL     1      52.502  -4.857 -45.553  1.00  0.00     0.014 C 
ATOM      4  C   UNL     1      53.456  -6.689 -43.934  1.00  0.00     0.030 C 
ATOM      5  C   UNL     1      51.160  -6.122 -42.141  1.00  0.00     0.004 C 
ATOM      6  C   UNL     1      53.690  -5.099 -46.534  1.00  0.00     0.013 C 
ATOM      7  C   UNL     1      54.689  -5.955 -44.458  1.00  0.00    -0.063 C 
ATOM      8  C   UNL     1      53.507  -7.045 -42.393  1.00  0.00    -0.003 C 
ATOM      9  C   UNL     1      52.561  -6.170 -41.529  1.00  0.00    -0.011 C 
ATOM     10  C   UNL     1      54.897  -5.979 -45.989  1.00  0.00    -0.006 C 
ATOM     11  C   UNL     1      55.138  -4.874 -43.773  1.00  0.00    -0.027 C 
ATOM     12  C   UNL     1      53.296  -8.561 -42.152  1.00  0.00     0.008 C 
ATOM     13  C   UNL     1      52.499  -6.599 -40.054  1.00  0.00     0.008 C 
ATOM     14  C   UNL     1      54.659  -7.408 -46.584  1.00  0.00     0.017 C 
ATOM     15  C   UNL     1      56.403  -5.456 -46.416  1.00  0.00    -0.020 C 
ATOM     16  C   UNL     1      56.045  -3.871 -44.428  1.00  0.00     0.032 C 
ATOM     17  C   UNL     1      57.082  -4.653 -45.244  1.00  0.00     0.006 C 
ATOM     18  C   UNL     1      57.417  -6.634 -46.695  1.00  0.00     0.008 C 
ATOM     19  C   UNL     1      56.286  -4.628 -47.736  1.00  0.00     0.012 C 
ATOM     20  C   UNL     1      58.463  -3.924 -45.571  1.00  0.00    -0.025 C 
ATOM     21  C   UNL     1      58.926  -6.335 -46.440  1.00  0.00     0.005 C 
ATOM     22  C   UNL     1      59.342  -4.836 -46.551  1.00  0.00     0.003 C 
ATOM     23  C   UNL     1      59.191  -3.701 -44.196  1.00  0.00     0.010 C 
ATOM     24  C   UNL     1      58.195  -2.527 -46.213  1.00  0.00     0.012 C 
ATOM     25  C   UNL     1      60.919  -4.597 -46.506  1.00  0.00    -0.006 C 
ATOM     26  C   UNL     1      60.674  -3.357 -44.291  1.00  0.00     0.033 C 
ATOM     27  C   UNL     1      61.442  -4.439 -45.052  1.00  0.00     0.120 C 
ATOM     28  C   UNL     1      61.293  -3.335 -47.336  1.00  0.00     0.014 C 
ATOM     29  C   UNL     1      61.712  -5.754 -47.180  1.00  0.00     0.014 C 
ENDROOT
BRANCH   1  30
ATOM     30  C   UNL     1      51.303  -7.078 -45.250  1.00  0.00     0.048 C 
ATOM     31  O   UNL     1      51.562  -8.306 -45.122  1.00  0.00    -0.550 OA
ATOM     32  O   UNL     1      50.287  -6.704 -46.123  1.00  0.00    -0.550 OA
ENDBRANCH   1  30
BRANCH  27  33
ATOM     33  O   UNL     1      61.351  -5.661 -44.360  1.00  0.00    -0.393 OA
ATOM     34  H   UNL     1      60.483  -6.074 -44.608  1.00  0.00     0.210 HD
ENDBRANCH  27  33
TORSDOF 2
ENDMDL
MODEL 8
REMARK VINA RESULT:    -5.822      8.014     10.767
REMARK INTER + INTRA:          -6.615
REMARK INTER:                  -6.337
REMARK INTRA:                  -0.278
REMARK UNBOUND:                -0.283
REMARK SMILES C[C@@H]1[C@H](C)CC[C@@]2(C(=O)[O-])CC[C@]3(C)C(=CC[C@@H]4[C@@]5(C)CC[C@@H](O)C(C)(C)[C@H]5CC[C@]43C)[C@@H]12
REMARK SMILES IDX 7 1 6 2 11 3 33 4 5 5 12 6 15 7 2 8 3 9 13 10 16 11 1 12
REMARK SMILES IDX 4 13 14 14 31 15 17 16 18 17 30 18 32 19 19 20 29 21 28 22
REMARK SMILES IDX 21 23 20 24 25 25 22 26 23 27 26 28 27 29 8 30 9 31 10 32
REMARK SMILES IDX 24 33
REMARK H PARENT 24 34
REMARK Flexibility Score: inf
ROOT
ATOM      1  C   UNL     1      52.589  -7.430 -42.830  1.00  0.00     0.017 C 
ATOM      2  C   UNL     1      51.382  -7.979 -42.003  1.00  0.00     0.014 C 
ATOM      3  C   UNL     1      52.858  -8.503 -43.964  1.00  0.00     0.014 C 
ATOM      4  C   UNL     1      52.331  -5.983 -43.456  1.00  0.00     0.030 C 
ATOM      5  C   UNL     1      50.635  -6.919 -41.207  1.00  0.00     0.004 C 
ATOM      6  C   UNL     1      53.755  -8.078 -45.167  1.00  0.00     0.013 C 
ATOM      7  C   UNL     1      52.340  -6.077 -44.981  1.00  0.00    -0.063 C 
ATOM      8  C   UNL     1      51.180  -5.076 -42.860  1.00  0.00    -0.003 C 
ATOM      9  C   UNL     1      50.050  -5.888 -42.175  1.00  0.00    -0.011 C 
ATOM     10  C   UNL     1      53.659  -6.560 -45.627  1.00  0.00    -0.006 C 
ATOM     11  C   UNL     1      51.178  -6.368 -45.617  1.00  0.00    -0.027 C 
ATOM     12  C   UNL     1      51.750  -3.964 -41.942  1.00  0.00     0.008 C 
ATOM     13  C   UNL     1      49.000  -5.013 -41.472  1.00  0.00     0.008 C 
ATOM     14  C   UNL     1      54.906  -5.861 -44.987  1.00  0.00     0.017 C 
ATOM     15  C   UNL     1      53.675  -6.312 -47.258  1.00  0.00    -0.020 C 
ATOM     16  C   UNL     1      51.184  -6.889 -47.027  1.00  0.00     0.032 C 
ATOM     17  C   UNL     1      52.220  -6.077 -47.814  1.00  0.00     0.006 C 
ATOM     18  C   UNL     1      54.449  -5.004 -47.684  1.00  0.00     0.008 C 
ATOM     19  C   UNL     1      54.401  -7.518 -47.937  1.00  0.00     0.012 C 
ATOM     20  C   UNL     1      52.052  -6.011 -49.399  1.00  0.00    -0.025 C 
ATOM     21  C   UNL     1      53.991  -4.316 -49.006  1.00  0.00     0.005 C 
ATOM     22  C   UNL     1      53.305  -5.253 -50.048  1.00  0.00     0.003 C 
ATOM     23  C   UNL     1      50.713  -5.238 -49.678  1.00  0.00     0.010 C 
ATOM     24  C   UNL     1      51.916  -7.451 -49.987  1.00  0.00     0.012 C 
ATOM     25  C   UNL     1      53.053  -4.567 -51.467  1.00  0.00    -0.006 C 
ATOM     26  C   UNL     1      50.534  -4.737 -51.109  1.00  0.00     0.033 C 
ATOM     27  C   UNL     1      51.690  -3.825 -51.520  1.00  0.00     0.120 C 
ATOM     28  C   UNL     1      53.110  -5.638 -52.595  1.00  0.00     0.014 C 
ATOM     29  C   UNL     1      54.171  -3.551 -51.839  1.00  0.00     0.014 C 
ENDROOT
BRANCH   1  30
ATOM     30  C   UNL     1      53.788  -7.372 -41.885  1.00  0.00     0.048 C 
ATOM     31  O   UNL     1      54.188  -8.402 -41.275  1.00  0.00    -0.550 OA
ATOM     32  O   UNL     1      54.412  -6.160 -41.617  1.00  0.00    -0.550 OA
ENDBRANCH   1  30
BRANCH  27  33
ATOM     33  O   UNL     1      51.716  -2.687 -50.691  1.00  0.00    -0.393 OA
ATOM     34  H   UNL     1      51.942  -2.999 -49.776  1.00  0.00     0.210 HD
ENDBRANCH  27  33
TORSDOF 2
ENDMDL
MODEL 9
REMARK VINA RESULT:    -5.640      9.113     12.976
REMARK INTER + INTRA:          -6.417
REMARK INTER:                  -6.119
REMARK INTRA:                  -0.298
REMARK UNBOUND:                -0.283
REMARK SMILES C[C@@H]1[C@H](C)CC[C@@]2(C(=O)[O-])CC[C@]3(C)C(=CC[C@@H]4[C@@]5(C)CC[C@@H](O)C(C)(C)[C@H]5CC[C@]43C)[C@@H]12
REMARK SMILES IDX 7 1 6 2 11 3 33 4 5 5 12 6 15 7 2 8 3 9 13 10 16 11 1 12
REMARK SMILES IDX 4 13 14 14 31 15 17 16 18 17 30 18 32 19 19 20 29 21 28 22
REMARK SMILES IDX 21 23 20 24 25 25 22 26 23 27 26 28 27 29 8 30 9 31 10 32
REMARK SMILES IDX 24 33
REMARK H PARENT 24 34
REMARK Flexibility Score: inf
ROOT
ATOM      1  C   UNL     1      59.290  -3.409 -47.485  1.00  0.00     0.017 C 
ATOM      2  C   UNL     1      60.456  -4.171 -48.194  1.00  0.00     0.014 C 
ATOM      3  C   UNL     1      58.046  -3.523 -48.460  1.00  0.00     0.014 C 
ATOM      4  C   UNL     1      58.940  -3.981 -46.035  1.00  0.00     0.030 C 
ATOM      5  C   UNL     1      61.566  -4.626 -47.258  1.00  0.00     0.004 C 
ATOM      6  C   UNL     1      56.638  -3.182 -47.881  1.00  0.00     0.013 C 
ATOM      7  C   UNL     1      57.521  -4.548 -46.038  1.00  0.00    -0.063 C 
ATOM      8  C   UNL     1      60.003  -4.874 -45.278  1.00  0.00    -0.003 C 
ATOM      9  C   UNL     1      60.986  -5.601 -46.233  1.00  0.00    -0.011 C 
ATOM     10  C   UNL     1      56.387  -3.546 -46.354  1.00  0.00    -0.006 C 
ATOM     11  C   UNL     1      57.344  -5.843 -46.400  1.00  0.00    -0.027 C 
ATOM     12  C   UNL     1      60.738  -4.072 -44.173  1.00  0.00     0.008 C 
ATOM     13  C   UNL     1      62.108  -6.360 -45.504  1.00  0.00     0.008 C 
ATOM     14  C   UNL     1      56.573  -2.198 -45.579  1.00  0.00     0.017 C 
ATOM     15  C   UNL     1      54.899  -4.170 -46.011  1.00  0.00    -0.020 C 
ATOM     16  C   UNL     1      55.994  -6.341 -46.835  1.00  0.00     0.032 C 
ATOM     17  C   UNL     1      54.952  -5.739 -45.883  1.00  0.00     0.006 C 
ATOM     18  C   UNL     1      54.334  -3.704 -44.612  1.00  0.00     0.008 C 
ATOM     19  C   UNL     1      53.891  -3.680 -47.100  1.00  0.00     0.012 C 
ATOM     20  C   UNL     1      53.559  -6.502 -45.740  1.00  0.00    -0.025 C 
ATOM     21  C   UNL     1      53.349  -4.676 -43.894  1.00  0.00     0.005 C 
ATOM     22  C   UNL     1      52.559  -5.643 -44.829  1.00  0.00     0.003 C 
ATOM     23  C   UNL     1      53.874  -7.894 -45.083  1.00  0.00     0.010 C 
ATOM     24  C   UNL     1      52.937  -6.757 -47.149  1.00  0.00     0.012 C 
ATOM     25  C   UNL     1      51.407  -6.462 -44.088  1.00  0.00    -0.006 C 
ATOM     26  C   UNL     1      52.667  -8.637 -44.518  1.00  0.00     0.033 C 
ATOM     27  C   UNL     1      51.936  -7.788 -43.477  1.00  0.00     0.120 C 
ATOM     28  C   UNL     1      50.247  -6.770 -45.080  1.00  0.00     0.014 C 
ATOM     29  C   UNL     1      50.736  -5.640 -42.950  1.00  0.00     0.014 C 
ENDROOT
BRANCH   1  30
ATOM     30  C   UNL     1      59.717  -1.947 -47.369  1.00  0.00     0.048 C 
ATOM     31  O   UNL     1      59.859  -1.397 -46.242  1.00  0.00    -0.550 OA
ATOM     32  O   UNL     1      59.878  -1.170 -48.510  1.00  0.00    -0.550 OA
ENDBRANCH   1  30
BRANCH  27  33
ATOM     33  O   UNL     1      52.794  -7.523 -42.393  1.00  0.00    -0.393 OA
ATOM     34  H   UNL     1      52.790  -6.540 -42.251  1.00  0.00     0.210 HD
ENDBRANCH  27  33
TORSDOF 2
ENDMDL
