MODEL 1
REMARK VINA RESULT:    16.879      0.000      0.000
REMARK INTER + INTRA:          29.955
REMARK INTER:                  30.694
REMARK INTRA:                  -0.739
REMARK UNBOUND:                -0.739
REMARK SMILES CCCCCCCCCCCCCCCC(=O)[O-]
REMARK SMILES IDX 9 1 10 2 11 3 12 4 13 5 14 6 15 7 16 8 17 9 18 10 8 11 7 12
REMARK SMILES IDX 6 13 5 14 4 15 3 16 2 17 1 18
REMARK H PARENT
REMARK Flexibility Score: inf
ROOT
ATOM      1  C   UNL     1     -42.676  23.572 -14.500  1.00  0.00     0.000 C 
ENDROOT
BRANCH   1   2
ATOM      2  C   UNL     1     -42.329  23.187 -13.054  1.00  0.00     0.000 C 
BRANCH   2   3
ATOM      3  C   UNL     1     -41.217  24.063 -12.457  1.00  0.00     0.000 C 
BRANCH   3   4
ATOM      4  C   UNL     1     -41.663  24.683 -11.126  1.00  0.00     0.000 C 
BRANCH   4   5
ATOM      5  C   UNL     1     -43.141  24.385 -10.847  1.00  0.00     0.000 C 
BRANCH   5   6
ATOM      6  C   UNL     1     -43.550  24.890  -9.456  1.00  0.00     0.006 C 
BRANCH   6   7
ATOM      7  C   UNL     1     -45.071  25.044  -9.318  1.00  0.00     0.053 C 
BRANCH   7   8
ATOM      8  C   UNL     1     -45.447  25.692  -8.021  1.00  0.00     0.041 C 
ATOM      9  O   UNL     1     -44.738  25.515  -6.994  1.00  0.00    -0.550 OA
ATOM     10  O   UNL     1     -46.562  26.517  -7.954  1.00  0.00    -0.550 OA
ENDBRANCH   7   8
ENDBRANCH   6   7
ENDBRANCH   5   6
ENDBRANCH   4   5
ENDBRANCH   3   4
ENDBRANCH   2   3
ENDBRANCH   1   2
BRANCH   1  11
ATOM     11  C   UNL     1     -41.580  24.425 -15.163  1.00  0.00     0.000 C 
BRANCH  11  12
ATOM     12  C   UNL     1     -41.514  24.236 -16.690  1.00  0.00    -0.000 C 
BRANCH  12  13
ATOM     13  C   UNL     1     -41.750  22.795 -17.178  1.00  0.00    -0.000 C 
BRANCH  13  14
ATOM     14  C   UNL     1     -41.016  22.483 -18.495  1.00  0.00    -0.000 C 
BRANCH  14  15
ATOM     15  C   UNL     1     -40.426  21.063 -18.523  1.00  0.00    -0.000 C 
BRANCH  15  16
ATOM     16  C   UNL     1     -38.957  21.046 -18.978  1.00  0.00    -0.000 C 
BRANCH  16  17
ATOM     17  C   UNL     1     -38.198  22.317 -18.562  1.00  0.00    -0.003 C 
ATOM     18  C   UNL     1     -37.884  23.235 -19.744  1.00  0.00     0.004 C 
ENDBRANCH  16  17
ENDBRANCH  15  16
ENDBRANCH  14  15
ENDBRANCH  13  14
ENDBRANCH  12  13
ENDBRANCH  11  12
ENDBRANCH   1  11
TORSDOF 14
ENDMDL
MODEL 2
REMARK VINA RESULT:    17.971      0.960      1.694
REMARK INTER + INTRA:          31.941
REMARK INTER:                  32.672
REMARK INTRA:                  -0.731
REMARK UNBOUND:                -0.739
REMARK SMILES CCCCCCCCCCCCCCCC(=O)[O-]
REMARK SMILES IDX 9 1 10 2 11 3 12 4 13 5 14 6 15 7 16 8 17 9 18 10 8 11 7 12
REMARK SMILES IDX 6 13 5 14 4 15 3 16 2 17 1 18
REMARK H PARENT
REMARK Flexibility Score: inf
ROOT
ATOM      1  C   UNL     1     -39.178  24.638 -13.579  1.00  0.00     0.000 C 
ENDROOT
BRANCH   1   2
ATOM      2  C   UNL     1     -39.700  24.058 -12.255  1.00  0.00     0.000 C 
BRANCH   2   3
ATOM      3  C   UNL     1     -41.232  23.936 -12.224  1.00  0.00     0.000 C 
BRANCH   3   4
ATOM      4  C   UNL     1     -41.844  24.956 -11.255  1.00  0.00     0.000 C 
BRANCH   4   5
ATOM      5  C   UNL     1     -43.338  24.687 -11.043  1.00  0.00     0.000 C 
BRANCH   5   6
ATOM      6  C   UNL     1     -43.686  24.665  -9.548  1.00  0.00     0.006 C 
BRANCH   6   7
ATOM      7  C   UNL     1     -45.174  24.941  -9.293  1.00  0.00     0.053 C 
BRANCH   7   8
ATOM      8  C   UNL     1     -45.390  25.670  -8.002  1.00  0.00     0.041 C 
ATOM      9  O   UNL     1     -44.578  25.525  -7.049  1.00  0.00    -0.550 OA
ATOM     10  O   UNL     1     -46.468  26.534  -7.863  1.00  0.00    -0.550 OA
ENDBRANCH   7   8
ENDBRANCH   6   7
ENDBRANCH   5   6
ENDBRANCH   4   5
ENDBRANCH   3   4
ENDBRANCH   2   3
ENDBRANCH   1   2
BRANCH   1  11
ATOM     11  C   UNL     1     -39.959  24.119 -14.799  1.00  0.00     0.000 C 
BRANCH  11  12
ATOM     12  C   UNL     1     -41.095  25.066 -15.231  1.00  0.00    -0.000 C 
BRANCH  12  13
ATOM     13  C   UNL     1     -42.298  24.376 -15.899  1.00  0.00    -0.000 C 
BRANCH  13  14
ATOM     14  C   UNL     1     -41.967  22.966 -16.418  1.00  0.00    -0.000 C 
BRANCH  14  15
ATOM     15  C   UNL     1     -41.681  22.941 -17.929  1.00  0.00    -0.000 C 
BRANCH  15  16
ATOM     16  C   UNL     1     -40.472  22.060 -18.285  1.00  0.00    -0.000 C 
BRANCH  16  17
ATOM     17  C   UNL     1     -39.245  22.887 -18.702  1.00  0.00    -0.003 C 
ATOM     18  C   UNL     1     -37.985  22.037 -18.869  1.00  0.00     0.004 C 
ENDBRANCH  16  17
ENDBRANCH  15  16
ENDBRANCH  14  15
ENDBRANCH  13  14
ENDBRANCH  12  13
ENDBRANCH  11  12
ENDBRANCH   1  11
TORSDOF 14
ENDMDL
MODEL 3
REMARK VINA RESULT:    18.641      3.543      5.924
REMARK INTER + INTRA:          33.159
REMARK INTER:                  33.726
REMARK INTRA:                  -0.568
REMARK UNBOUND:                -0.739
REMARK SMILES CCCCCCCCCCCCCCCC(=O)[O-]
REMARK SMILES IDX 9 1 10 2 11 3 12 4 13 5 14 6 15 7 16 8 17 9 18 10 8 11 7 12
REMARK SMILES IDX 6 13 5 14 4 15 3 16 2 17 1 18
REMARK H PARENT
REMARK Flexibility Score: inf
ROOT
ATOM      1  C   UNL     1     -39.693  23.138 -18.493  1.00  0.00     0.000 C 
ENDROOT
BRANCH   1   2
ATOM      2  C   UNL     1     -40.771  22.096 -18.157  1.00  0.00     0.000 C 
BRANCH   2   3
ATOM      3  C   UNL     1     -42.076  22.734 -17.656  1.00  0.00     0.000 C 
BRANCH   3   4
ATOM      4  C   UNL     1     -41.808  23.675 -16.474  1.00  0.00     0.000 C 
BRANCH   4   5
ATOM      5  C   UNL     1     -42.570  23.219 -15.224  1.00  0.00     0.000 C 
BRANCH   5   6
ATOM      6  C   UNL     1     -42.472  24.269 -14.107  1.00  0.00     0.006 C 
BRANCH   6   7
ATOM      7  C   UNL     1     -42.199  23.636 -12.736  1.00  0.00     0.053 C 
BRANCH   7   8
ATOM      8  C   UNL     1     -41.069  24.317 -12.026  1.00  0.00     0.041 C 
ATOM      9  O   UNL     1     -41.259  24.856 -10.903  1.00  0.00    -0.550 OA
ATOM     10  O   UNL     1     -39.800  24.327 -12.589  1.00  0.00    -0.550 OA
ENDBRANCH   7   8
ENDBRANCH   6   7
ENDBRANCH   5   6
ENDBRANCH   4   5
ENDBRANCH   3   4
ENDBRANCH   2   3
ENDBRANCH   1   2
BRANCH   1  11
ATOM     11  C   UNL     1     -38.376  22.495 -18.959  1.00  0.00     0.000 C 
BRANCH  11  12
ATOM     12  C   UNL     1     -37.492  23.459 -19.773  1.00  0.00    -0.000 C 
BRANCH  12  13
ATOM     13  C   UNL     1     -38.258  24.396 -20.725  1.00  0.00    -0.000 C 
BRANCH  13  14
ATOM     14  C   UNL     1     -37.479  25.683 -21.051  1.00  0.00    -0.000 C 
BRANCH  14  15
ATOM     15  C   UNL     1     -38.272  26.645 -21.952  1.00  0.00    -0.000 C 
BRANCH  15  16
ATOM     16  C   UNL     1     -37.618  28.033 -22.049  1.00  0.00    -0.000 C 
BRANCH  16  17
ATOM     17  C   UNL     1     -38.300  29.069 -21.142  1.00  0.00    -0.003 C 
ATOM     18  C   UNL     1     -39.756  29.328 -21.527  1.00  0.00     0.004 C 
ENDBRANCH  16  17
ENDBRANCH  15  16
ENDBRANCH  14  15
ENDBRANCH  13  14
ENDBRANCH  12  13
ENDBRANCH  11  12
ENDBRANCH   1  11
TORSDOF 14
ENDMDL
MODEL 4
REMARK VINA RESULT:    18.807      5.697      9.855
REMARK INTER + INTRA:          33.460
REMARK INTER:                  34.128
REMARK INTRA:                  -0.668
REMARK UNBOUND:                -0.739
REMARK SMILES CCCCCCCCCCCCCCCC(=O)[O-]
REMARK SMILES IDX 9 1 10 2 11 3 12 4 13 5 14 6 15 7 16 8 17 9 18 10 8 11 7 12
REMARK SMILES IDX 6 13 5 14 4 15 3 16 2 17 1 18
REMARK H PARENT
REMARK Flexibility Score: inf
ROOT
ATOM      1  C   UNL     1     -39.521  23.110 -18.412  1.00  0.00     0.000 C 
ENDROOT
BRANCH   1   2
ATOM      2  C   UNL     1     -38.344  22.398 -19.097  1.00  0.00     0.000 C 
BRANCH   2   3
ATOM      3  C   UNL     1     -37.481  23.352 -19.937  1.00  0.00     0.000 C 
BRANCH   3   4
ATOM      4  C   UNL     1     -38.350  24.409 -20.631  1.00  0.00     0.000 C 
BRANCH   4   5
ATOM      5  C   UNL     1     -37.502  25.597 -21.102  1.00  0.00     0.000 C 
BRANCH   5   6
ATOM      6  C   UNL     1     -38.336  26.563 -21.955  1.00  0.00     0.006 C 
BRANCH   6   7
ATOM      7  C   UNL     1     -37.725  27.971 -22.003  1.00  0.00     0.053 C 
BRANCH   7   8
ATOM      8  C   UNL     1     -38.664  29.002 -21.454  1.00  0.00     0.041 C 
ATOM      9  O   UNL     1     -38.215  29.993 -20.819  1.00  0.00    -0.550 OA
ATOM     10  O   UNL     1     -40.030  28.884 -21.672  1.00  0.00    -0.550 OA
ENDBRANCH   7   8
ENDBRANCH   6   7
ENDBRANCH   5   6
ENDBRANCH   4   5
ENDBRANCH   3   4
ENDBRANCH   2   3
ENDBRANCH   1   2
BRANCH   1  11
ATOM     11  C   UNL     1     -40.728  22.181 -18.195  1.00  0.00     0.000 C 
BRANCH  11  12
ATOM     12  C   UNL     1     -41.940  22.906 -17.580  1.00  0.00    -0.000 C 
BRANCH  12  13
ATOM     13  C   UNL     1     -41.659  23.629 -16.249  1.00  0.00    -0.000 C 
BRANCH  13  14
ATOM     14  C   UNL     1     -42.720  23.335 -15.174  1.00  0.00    -0.000 C 
BRANCH  14  15
ATOM     15  C   UNL     1     -42.584  24.244 -13.941  1.00  0.00    -0.000 C 
BRANCH  15  16
ATOM     16  C   UNL     1     -41.808  23.570 -12.796  1.00  0.00    -0.000 C 
BRANCH  16  17
ATOM     17  C   UNL     1     -40.663  24.447 -12.267  1.00  0.00    -0.003 C 
ATOM     18  C   UNL     1     -39.318  24.124 -12.918  1.00  0.00     0.004 C 
ENDBRANCH  16  17
ENDBRANCH  15  16
ENDBRANCH  14  15
ENDBRANCH  13  14
ENDBRANCH  12  13
ENDBRANCH  11  12
ENDBRANCH   1  11
TORSDOF 14
ENDMDL
MODEL 5
REMARK VINA RESULT:    19.138      3.813      5.670
REMARK INTER + INTRA:          34.062
REMARK INTER:                  34.542
REMARK INTRA:                  -0.479
REMARK UNBOUND:                -0.739
REMARK SMILES CCCCCCCCCCCCCCCC(=O)[O-]
REMARK SMILES IDX 9 1 10 2 11 3 12 4 13 5 14 6 15 7 16 8 17 9 18 10 8 11 7 12
REMARK SMILES IDX 6 13 5 14 4 15 3 16 2 17 1 18
REMARK H PARENT
REMARK Flexibility Score: inf
ROOT
ATOM      1  C   UNL     1     -40.886  21.960 -18.331  1.00  0.00     0.000 C 
ENDROOT
BRANCH   1   2
ATOM      2  C   UNL     1     -42.124  22.438 -17.556  1.00  0.00     0.000 C 
BRANCH   2   3
ATOM      3  C   UNL     1     -41.800  23.552 -16.548  1.00  0.00     0.000 C 
BRANCH   3   4
ATOM      4  C   UNL     1     -42.605  23.371 -15.255  1.00  0.00     0.000 C 
BRANCH   4   5
ATOM      5  C   UNL     1     -42.180  24.394 -14.194  1.00  0.00     0.000 C 
BRANCH   5   6
ATOM      6  C   UNL     1     -41.837  23.700 -12.868  1.00  0.00     0.006 C 
BRANCH   6   7
ATOM      7  C   UNL     1     -40.686  24.397 -12.128  1.00  0.00     0.053 C 
BRANCH   7   8
ATOM      8  C   UNL     1     -39.374  24.187 -12.821  1.00  0.00     0.041 C 
ATOM      9  O   UNL     1     -38.500  23.438 -12.310  1.00  0.00    -0.550 OA
ATOM     10  O   UNL     1     -39.131  24.794 -14.046  1.00  0.00    -0.550 OA
ENDBRANCH   7   8
ENDBRANCH   6   7
ENDBRANCH   5   6
ENDBRANCH   4   5
ENDBRANCH   3   4
ENDBRANCH   2   3
ENDBRANCH   1   2
BRANCH   1  11
ATOM     11  C   UNL     1     -39.721  22.963 -18.258  1.00  0.00     0.000 C 
BRANCH  11  12
ATOM     12  C   UNL     1     -38.376  22.352 -18.693  1.00  0.00    -0.000 C 
BRANCH  12  13
ATOM     13  C   UNL     1     -37.673  23.083 -19.851  1.00  0.00    -0.000 C 
BRANCH  13  14
ATOM     14  C   UNL     1     -38.430  24.342 -20.310  1.00  0.00    -0.000 C 
BRANCH  14  15
ATOM     15  C   UNL     1     -37.533  25.326 -21.079  1.00  0.00    -0.000 C 
BRANCH  15  16
ATOM     16  C   UNL     1     -38.342  26.304 -21.949  1.00  0.00    -0.000 C 
BRANCH  16  17
ATOM     17  C   UNL     1     -37.670  27.681 -22.065  1.00  0.00    -0.003 C 
ATOM     18  C   UNL     1     -38.530  28.811 -21.499  1.00  0.00     0.004 C 
ENDBRANCH  16  17
ENDBRANCH  15  16
ENDBRANCH  14  15
ENDBRANCH  13  14
ENDBRANCH  12  13
ENDBRANCH  11  12
ENDBRANCH   1  11
TORSDOF 14
ENDMDL
MODEL 6
REMARK VINA RESULT:    19.330      5.854      9.746
REMARK INTER + INTRA:          34.411
REMARK INTER:                  35.212
REMARK INTRA:                  -0.801
REMARK UNBOUND:                -0.739
REMARK SMILES CCCCCCCCCCCCCCCC(=O)[O-]
REMARK SMILES IDX 9 1 10 2 11 3 12 4 13 5 14 6 15 7 16 8 17 9 18 10 8 11 7 12
REMARK SMILES IDX 6 13 5 14 4 15 3 16 2 17 1 18
REMARK H PARENT
REMARK Flexibility Score: inf
ROOT
ATOM      1  C   UNL     1     -41.478  23.370 -17.916  1.00  0.00     0.000 C 
ENDROOT
BRANCH   1   2
ATOM      2  C   UNL     1     -40.473  22.279 -18.319  1.00  0.00     0.000 C 
BRANCH   2   3
ATOM      3  C   UNL     1     -39.013  22.746 -18.204  1.00  0.00     0.000 C 
BRANCH   3   4
ATOM      4  C   UNL     1     -38.191  22.276 -19.411  1.00  0.00     0.000 C 
BRANCH   4   5
ATOM      5  C   UNL     1     -37.295  23.403 -19.939  1.00  0.00     0.000 C 
BRANCH   5   6
ATOM      6  C   UNL     1     -38.113  24.430 -20.734  1.00  0.00     0.006 C 
BRANCH   6   7
ATOM      7  C   UNL     1     -37.351  25.746 -20.941  1.00  0.00     0.053 C 
BRANCH   7   8
ATOM      8  C   UNL     1     -38.037  26.634 -21.934  1.00  0.00     0.041 C 
ATOM      9  O   UNL     1     -37.590  27.789 -22.167  1.00  0.00    -0.550 OA
ATOM     10  O   UNL     1     -39.149  26.173 -22.627  1.00  0.00    -0.550 OA
ENDBRANCH   7   8
ENDBRANCH   6   7
ENDBRANCH   5   6
ENDBRANCH   4   5
ENDBRANCH   3   4
ENDBRANCH   2   3
ENDBRANCH   1   2
BRANCH   1  11
ATOM     11  C   UNL     1     -42.340  22.961 -16.710  1.00  0.00     0.000 C 
BRANCH  11  12
ATOM     12  C   UNL     1     -42.113  23.857 -15.478  1.00  0.00    -0.000 C 
BRANCH  12  13
ATOM     13  C   UNL     1     -42.960  23.496 -14.245  1.00  0.00    -0.000 C 
BRANCH  13  14
ATOM     14  C   UNL     1     -42.106  23.098 -13.028  1.00  0.00    -0.000 C 
BRANCH  14  15
ATOM     15  C   UNL     1     -41.963  24.236 -12.005  1.00  0.00    -0.000 C 
BRANCH  15  16
ATOM     16  C   UNL     1     -40.496  24.508 -11.628  1.00  0.00    -0.000 C 
BRANCH  16  17
ATOM     17  C   UNL     1     -39.554  24.427 -12.839  1.00  0.00    -0.003 C 
ATOM     18  C   UNL     1     -38.422  23.419 -12.645  1.00  0.00     0.004 C 
ENDBRANCH  16  17
ENDBRANCH  15  16
ENDBRANCH  14  15
ENDBRANCH  13  14
ENDBRANCH  12  13
ENDBRANCH  11  12
ENDBRANCH   1  11
TORSDOF 14
ENDMDL
MODEL 7
REMARK VINA RESULT:    19.374      7.099     10.272
REMARK INTER + INTRA:          34.491
REMARK INTER:                  35.276
REMARK INTRA:                  -0.785
REMARK UNBOUND:                -0.739
REMARK SMILES CCCCCCCCCCCCCCCC(=O)[O-]
REMARK SMILES IDX 9 1 10 2 11 3 12 4 13 5 14 6 15 7 16 8 17 9 18 10 8 11 7 12
REMARK SMILES IDX 6 13 5 14 4 15 3 16 2 17 1 18
REMARK H PARENT
REMARK Flexibility Score: inf
ROOT
ATOM      1  C   UNL     1     -37.479  27.661 -21.562  1.00  0.00     0.000 C 
ENDROOT
BRANCH   1   2
ATOM      2  C   UNL     1     -38.484  28.733 -22.013  1.00  0.00     0.000 C 
BRANCH   2   3
ATOM      3  C   UNL     1     -38.856  29.709 -20.886  1.00  0.00     0.000 C 
BRANCH   3   4
ATOM      4  C   UNL     1     -40.375  29.914 -20.819  1.00  0.00     0.000 C 
BRANCH   4   5
ATOM      5  C   UNL     1     -41.074  29.251 -22.012  1.00  0.00     0.000 C 
BRANCH   5   6
ATOM      6  C   UNL     1     -41.719  30.303 -22.926  1.00  0.00     0.006 C 
BRANCH   6   7
ATOM      7  C   UNL     1     -42.187  31.540 -22.149  1.00  0.00     0.053 C 
BRANCH   7   8
ATOM      8  C   UNL     1     -43.640  31.456 -21.796  1.00  0.00     0.041 C 
ATOM      9  O   UNL     1     -44.050  31.893 -20.687  1.00  0.00    -0.550 OA
ATOM     10  O   UNL     1     -44.547  30.926 -22.705  1.00  0.00    -0.550 OA
ENDBRANCH   7   8
ENDBRANCH   6   7
ENDBRANCH   5   6
ENDBRANCH   4   5
ENDBRANCH   3   4
ENDBRANCH   2   3
ENDBRANCH   1   2
BRANCH   1  11
ATOM     11  C   UNL     1     -38.012  26.232 -21.762  1.00  0.00     0.000 C 
BRANCH  11  12
ATOM     12  C   UNL     1     -37.339  25.205 -20.832  1.00  0.00    -0.000 C 
BRANCH  12  13
ATOM     13  C   UNL     1     -38.269  24.099 -20.301  1.00  0.00    -0.000 C 
BRANCH  13  14
ATOM     14  C   UNL     1     -37.500  22.915 -19.689  1.00  0.00    -0.000 C 
BRANCH  14  15
ATOM     15  C   UNL     1     -38.408  21.973 -18.880  1.00  0.00    -0.000 C 
BRANCH  15  16
ATOM     16  C   UNL     1     -39.437  22.735 -18.029  1.00  0.00    -0.000 C 
BRANCH  16  17
ATOM     17  C   UNL     1     -40.881  22.293 -18.317  1.00  0.00    -0.003 C 
ATOM     18  C   UNL     1     -41.901  22.960 -17.393  1.00  0.00     0.004 C 
ENDBRANCH  16  17
ENDBRANCH  15  16
ENDBRANCH  14  15
ENDBRANCH  13  14
ENDBRANCH  12  13
ENDBRANCH  11  12
ENDBRANCH   1  11
TORSDOF 14
ENDMDL
MODEL 8
REMARK VINA RESULT:    19.396      6.653     10.090
REMARK INTER + INTRA:          34.532
REMARK INTER:                  35.143
REMARK INTRA:                  -0.611
REMARK UNBOUND:                -0.739
REMARK SMILES CCCCCCCCCCCCCCCC(=O)[O-]
REMARK SMILES IDX 9 1 10 2 11 3 12 4 13 5 14 6 15 7 16 8 17 9 18 10 8 11 7 12
REMARK SMILES IDX 6 13 5 14 4 15 3 16 2 17 1 18
REMARK H PARENT
REMARK Flexibility Score: inf
ROOT
ATOM      1  C   UNL     1     -37.473  25.932 -21.246  1.00  0.00     0.000 C 
ENDROOT
BRANCH   1   2
ATOM      2  C   UNL     1     -38.322  26.864 -22.126  1.00  0.00     0.000 C 
BRANCH   2   3
ATOM      3  C   UNL     1     -37.826  28.318 -22.100  1.00  0.00     0.000 C 
BRANCH   3   4
ATOM      4  C   UNL     1     -38.748  29.197 -21.245  1.00  0.00     0.000 C 
BRANCH   4   5
ATOM      5  C   UNL     1     -40.221  28.950 -21.592  1.00  0.00     0.000 C 
BRANCH   5   6
ATOM      6  C   UNL     1     -41.071  30.194 -21.297  1.00  0.00     0.006 C 
BRANCH   6   7
ATOM      7  C   UNL     1     -42.125  30.449 -22.384  1.00  0.00     0.053 C 
BRANCH   7   8
ATOM      8  C   UNL     1     -43.273  31.259 -21.864  1.00  0.00     0.041 C 
ATOM      9  O   UNL     1     -44.234  31.558 -22.622  1.00  0.00    -0.550 OA
ATOM     10  O   UNL     1     -43.297  31.656 -20.533  1.00  0.00    -0.550 OA
ENDBRANCH   7   8
ENDBRANCH   6   7
ENDBRANCH   5   6
ENDBRANCH   4   5
ENDBRANCH   3   4
ENDBRANCH   2   3
ENDBRANCH   1   2
BRANCH   1  11
ATOM     11  C   UNL     1     -38.175  24.595 -20.955  1.00  0.00     0.000 C 
BRANCH  11  12
ATOM     12  C   UNL     1     -37.620  23.886 -19.706  1.00  0.00    -0.000 C 
BRANCH  12  13
ATOM     13  C   UNL     1     -38.349  22.587 -19.316  1.00  0.00    -0.000 C 
BRANCH  13  14
ATOM     14  C   UNL     1     -39.360  22.789 -18.173  1.00  0.00    -0.000 C 
BRANCH  14  15
ATOM     15  C   UNL     1     -40.709  22.104 -18.446  1.00  0.00    -0.000 C 
BRANCH  15  16
ATOM     16  C   UNL     1     -41.849  22.691 -17.596  1.00  0.00    -0.000 C 
BRANCH  16  17
ATOM     17  C   UNL     1     -41.355  23.759 -16.607  1.00  0.00    -0.003 C 
ATOM     18  C   UNL     1     -42.227  23.859 -15.356  1.00  0.00     0.004 C 
ENDBRANCH  16  17
ENDBRANCH  15  16
ENDBRANCH  14  15
ENDBRANCH  13  14
ENDBRANCH  12  13
ENDBRANCH  11  12
ENDBRANCH   1  11
TORSDOF 14
ENDMDL
MODEL 9
REMARK VINA RESULT:    19.576      3.615      4.968
REMARK INTER + INTRA:          34.860
REMARK INTER:                  35.374
REMARK INTRA:                  -0.514
REMARK UNBOUND:                -0.739
REMARK SMILES CCCCCCCCCCCCCCCC(=O)[O-]
REMARK SMILES IDX 9 1 10 2 11 3 12 4 13 5 14 6 15 7 16 8 17 9 18 10 8 11 7 12
REMARK SMILES IDX 6 13 5 14 4 15 3 16 2 17 1 18
REMARK H PARENT
REMARK Flexibility Score: inf
ROOT
ATOM      1  C   UNL     1     -41.914  22.733 -17.492  1.00  0.00     0.000 C 
ENDROOT
BRANCH   1   2
ATOM      2  C   UNL     1     -41.927  23.690 -16.290  1.00  0.00     0.000 C 
BRANCH   2   3
ATOM      3  C   UNL     1     -42.929  23.265 -15.205  1.00  0.00     0.000 C 
BRANCH   3   4
ATOM      4  C   UNL     1     -42.737  24.094 -13.928  1.00  0.00     0.000 C 
BRANCH   4   5
ATOM      5  C   UNL     1     -41.804  23.381 -12.943  1.00  0.00     0.000 C 
BRANCH   5   6
ATOM      6  C   UNL     1     -41.546  24.250 -11.703  1.00  0.00     0.006 C 
BRANCH   6   7
ATOM      7  C   UNL     1     -40.169  24.927 -11.744  1.00  0.00     0.053 C 
BRANCH   7   8
ATOM      8  C   UNL     1     -39.277  24.307 -12.775  1.00  0.00     0.041 C 
ATOM      9  O   UNL     1     -39.285  24.734 -13.961  1.00  0.00    -0.550 OA
ATOM     10  O   UNL     1     -38.412  23.281 -12.420  1.00  0.00    -0.550 OA
ENDBRANCH   7   8
ENDBRANCH   6   7
ENDBRANCH   5   6
ENDBRANCH   4   5
ENDBRANCH   3   4
ENDBRANCH   2   3
ENDBRANCH   1   2
BRANCH   1  11
ATOM     11  C   UNL     1     -40.568  22.738 -18.237  1.00  0.00     0.000 C 
BRANCH  11  12
ATOM     12  C   UNL     1     -40.108  21.328 -18.652  1.00  0.00    -0.000 C 
BRANCH  12  13
ATOM     13  C   UNL     1     -38.621  21.216 -19.036  1.00  0.00    -0.000 C 
BRANCH  13  14
ATOM     14  C   UNL     1     -37.858  22.542 -18.866  1.00  0.00    -0.000 C 
BRANCH  14  15
ATOM     15  C   UNL     1     -37.470  23.181 -20.210  1.00  0.00    -0.000 C 
BRANCH  15  16
ATOM     16  C   UNL     1     -38.287  24.448 -20.515  1.00  0.00    -0.000 C 
BRANCH  16  17
ATOM     17  C   UNL     1     -37.428  25.567 -21.127  1.00  0.00    -0.003 C 
ATOM     18  C   UNL     1     -38.245  26.551 -21.965  1.00  0.00     0.004 C 
ENDBRANCH  16  17
ENDBRANCH  15  16
ENDBRANCH  14  15
ENDBRANCH  13  14
ENDBRANCH  12  13
ENDBRANCH  11  12
ENDBRANCH   1  11
TORSDOF 14
ENDMDL
