MODEL 1
REMARK VINA RESULT:    -3.584      0.000      0.000
REMARK INTER + INTRA:          -5.099
REMARK INTER:                  -4.840
REMARK INTRA:                  -0.259
REMARK UNBOUND:                -0.259
REMARK SMILES CCCCCCCC(=O)[O-]
REMARK SMILES IDX 5 1 6 2 7 3 8 4 9 5 10 6 4 7 3 8 2 9 1 10
REMARK H PARENT
REMARK Flexibility Score: inf
ROOT
ATOM      1  C   UNL     1      -7.244  -7.126  -5.607  1.00  0.00     0.000 C 
ENDROOT
BRANCH   1   2
ATOM      2  C   UNL     1      -5.778  -7.336  -6.007  1.00  0.00     0.006 C 
BRANCH   2   3
ATOM      3  C   UNL     1      -5.396  -6.430  -7.182  1.00  0.00     0.053 C 
BRANCH   3   4
ATOM      4  C   UNL     1      -4.563  -7.182  -8.172  1.00  0.00     0.041 C 
ATOM      5  O   UNL     1      -3.375  -7.491  -7.896  1.00  0.00    -0.550 OA
ATOM      6  O   UNL     1      -5.084  -7.500  -9.420  1.00  0.00    -0.550 OA
ENDBRANCH   3   4
ENDBRANCH   2   3
ENDBRANCH   1   2
BRANCH   1   7
ATOM      7  C   UNL     1      -8.083  -6.670  -6.806  1.00  0.00     0.000 C 
BRANCH   7   8
ATOM      8  C   UNL     1      -9.545  -6.435  -6.396  1.00  0.00    -0.000 C 
BRANCH   8   9
ATOM      9  C   UNL     1      -9.926  -4.946  -6.394  1.00  0.00    -0.003 C 
ATOM     10  C   UNL     1      -9.749  -4.289  -7.762  1.00  0.00     0.004 C 
ENDBRANCH   8   9
ENDBRANCH   7   8
ENDBRANCH   1   7
TORSDOF 6
ENDMDL
MODEL 2
REMARK VINA RESULT:    -3.497      1.065      1.469
REMARK INTER + INTRA:          -4.983
REMARK INTER:                  -4.683
REMARK INTRA:                  -0.300
REMARK UNBOUND:                -0.259
REMARK SMILES CCCCCCCC(=O)[O-]
REMARK SMILES IDX 5 1 6 2 7 3 8 4 9 5 10 6 4 7 3 8 2 9 1 10
REMARK H PARENT
REMARK Flexibility Score: inf
ROOT
ATOM      1  C   UNL     1      -6.810  -7.095  -5.926  1.00  0.00     0.000 C 
ENDROOT
BRANCH   1   2
ATOM      2  C   UNL     1      -6.224  -7.320  -7.325  1.00  0.00     0.006 C 
BRANCH   2   3
ATOM      3  C   UNL     1      -4.847  -6.660  -7.456  1.00  0.00     0.053 C 
BRANCH   3   4
ATOM      4  C   UNL     1      -3.822  -7.668  -7.867  1.00  0.00     0.041 C 
ATOM      5  O   UNL     1      -3.411  -7.706  -9.057  1.00  0.00    -0.550 OA
ATOM      6  O   UNL     1      -3.354  -8.600  -6.949  1.00  0.00    -0.550 OA
ENDBRANCH   3   4
ENDBRANCH   2   3
ENDBRANCH   1   2
BRANCH   1   7
ATOM      7  C   UNL     1      -8.304  -6.761  -6.002  1.00  0.00     0.000 C 
BRANCH   7   8
ATOM      8  C   UNL     1      -8.746  -6.542  -7.457  1.00  0.00    -0.000 C 
BRANCH   8   9
ATOM      9  C   UNL     1      -9.918  -5.555  -7.576  1.00  0.00    -0.003 C 
ATOM     10  C   UNL     1     -10.019  -4.611  -6.378  1.00  0.00     0.004 C 
ENDBRANCH   8   9
ENDBRANCH   7   8
ENDBRANCH   1   7
TORSDOF 6
ENDMDL
MODEL 3
REMARK VINA RESULT:    -3.469      2.948      4.923
REMARK INTER + INTRA:          -4.945
REMARK INTER:                  -4.536
REMARK INTRA:                  -0.409
REMARK UNBOUND:                -0.259
REMARK SMILES CCCCCCCC(=O)[O-]
REMARK SMILES IDX 5 1 6 2 7 3 8 4 9 5 10 6 4 7 3 8 2 9 1 10
REMARK H PARENT
REMARK Flexibility Score: inf
ROOT
ATOM      1  C   UNL     1      -5.964  -7.121  -6.020  1.00  0.00     0.000 C 
ENDROOT
BRANCH   1   2
ATOM      2  C   UNL     1      -7.496  -7.151  -5.953  1.00  0.00     0.006 C 
BRANCH   2   3
ATOM      3  C   UNL     1      -8.111  -6.437  -7.160  1.00  0.00     0.053 C 
BRANCH   3   4
ATOM      4  C   UNL     1      -9.246  -5.562  -6.727  1.00  0.00     0.041 C 
ATOM      5  O   UNL     1      -9.949  -5.881  -5.733  1.00  0.00    -0.550 OA
ATOM      6  O   UNL     1      -9.558  -4.419  -7.452  1.00  0.00    -0.550 OA
ENDBRANCH   3   4
ENDBRANCH   2   3
ENDBRANCH   1   2
BRANCH   1   7
ATOM      7  C   UNL     1      -5.481  -6.524  -7.347  1.00  0.00     0.000 C 
BRANCH   7   8
ATOM      8  C   UNL     1      -4.158  -7.165  -7.790  1.00  0.00    -0.000 C 
BRANCH   8   9
ATOM      9  C   UNL     1      -4.277  -7.897  -9.136  1.00  0.00    -0.003 C 
ATOM     10  C   UNL     1      -5.693  -7.852  -9.709  1.00  0.00     0.004 C 
ENDBRANCH   8   9
ENDBRANCH   7   8
ENDBRANCH   1   7
TORSDOF 6
ENDMDL
MODEL 4
REMARK VINA RESULT:    -3.208      2.829      5.296
REMARK INTER + INTRA:          -4.592
REMARK INTER:                  -4.138
REMARK INTRA:                  -0.454
REMARK UNBOUND:                -0.259
REMARK SMILES CCCCCCCC(=O)[O-]
REMARK SMILES IDX 5 1 6 2 7 3 8 4 9 5 10 6 4 7 3 8 2 9 1 10
REMARK H PARENT
REMARK Flexibility Score: inf
ROOT
ATOM      1  C   UNL     1      -5.180  -6.456  -7.195  1.00  0.00     0.000 C 
ENDROOT
BRANCH   1   2
ATOM      2  C   UNL     1      -6.533  -7.160  -7.362  1.00  0.00     0.006 C 
BRANCH   2   3
ATOM      3  C   UNL     1      -7.384  -7.018  -6.097  1.00  0.00     0.053 C 
BRANCH   3   4
ATOM      4  C   UNL     1      -8.753  -6.523  -6.440  1.00  0.00     0.041 C 
ATOM      5  O   UNL     1      -8.896  -5.475  -7.122  1.00  0.00    -0.550 OA
ATOM      6  O   UNL     1      -9.874  -7.194  -5.967  1.00  0.00    -0.550 OA
ENDBRANCH   3   4
ENDBRANCH   2   3
ENDBRANCH   1   2
BRANCH   1   7
ATOM      7  C   UNL     1      -4.078  -7.190  -7.969  1.00  0.00     0.000 C 
BRANCH   7   8
ATOM      8  C   UNL     1      -4.261  -8.712  -7.877  1.00  0.00    -0.000 C 
BRANCH   8   9
ATOM      9  C   UNL     1      -3.581  -9.314  -6.638  1.00  0.00    -0.003 C 
ATOM     10  C   UNL     1      -4.584  -9.811  -5.597  1.00  0.00     0.004 C 
ENDBRANCH   8   9
ENDBRANCH   7   8
ENDBRANCH   1   7
TORSDOF 6
ENDMDL
MODEL 5
REMARK VINA RESULT:    -3.056     21.269     22.654
REMARK INTER + INTRA:          -4.386
REMARK INTER:                  -4.187
REMARK INTRA:                  -0.199
REMARK UNBOUND:                -0.259
REMARK SMILES CCCCCCCC(=O)[O-]
REMARK SMILES IDX 5 1 6 2 7 3 8 4 9 5 10 6 4 7 3 8 2 9 1 10
REMARK H PARENT
REMARK Flexibility Score: inf
ROOT
ATOM      1  C   UNL     1       8.994   6.803   2.398  1.00  0.00     0.000 C 
ENDROOT
BRANCH   1   2
ATOM      2  C   UNL     1       8.375   8.187   2.630  1.00  0.00     0.006 C 
BRANCH   2   3
ATOM      3  C   UNL     1       6.898   8.203   2.223  1.00  0.00     0.053 C 
BRANCH   3   4
ATOM      4  C   UNL     1       6.595   9.414   1.400  1.00  0.00     0.041 C 
ATOM      5  O   UNL     1       7.531  10.125   0.949  1.00  0.00    -0.550 OA
ATOM      6  O   UNL     1       5.277   9.788   1.171  1.00  0.00    -0.550 OA
ENDBRANCH   3   4
ENDBRANCH   2   3
ENDBRANCH   1   2
BRANCH   1   7
ATOM      7  C   UNL     1       9.676   6.727   1.027  1.00  0.00     0.000 C 
BRANCH   7   8
ATOM      8  C   UNL     1      10.121   5.291   0.712  1.00  0.00    -0.000 C 
BRANCH   8   9
ATOM      9  C   UNL     1       9.299   4.652  -0.418  1.00  0.00    -0.003 C 
ATOM     10  C   UNL     1       9.998   3.449  -1.050  1.00  0.00     0.004 C 
ENDBRANCH   8   9
ENDBRANCH   7   8
ENDBRANCH   1   7
TORSDOF 6
ENDMDL
MODEL 6
REMARK VINA RESULT:    -2.952      2.555      3.622
REMARK INTER + INTRA:          -4.246
REMARK INTER:                  -3.646
REMARK INTRA:                  -0.601
REMARK UNBOUND:                -0.259
REMARK SMILES CCCCCCCC(=O)[O-]
REMARK SMILES IDX 5 1 6 2 7 3 8 4 9 5 10 6 4 7 3 8 2 9 1 10
REMARK H PARENT
REMARK Flexibility Score: inf
ROOT
ATOM      1  C   UNL     1      -4.116  -7.080  -7.977  1.00  0.00     0.000 C 
ENDROOT
BRANCH   1   2
ATOM      2  C   UNL     1      -4.712  -8.320  -8.656  1.00  0.00     0.006 C 
BRANCH   2   3
ATOM      3  C   UNL     1      -5.580  -7.925  -9.855  1.00  0.00     0.053 C 
BRANCH   3   4
ATOM      4  C   UNL     1      -6.976  -8.432  -9.679  1.00  0.00     0.041 C 
ATOM      5  O   UNL     1      -7.199  -9.670  -9.623  1.00  0.00    -0.550 OA
ATOM      6  O   UNL     1      -8.039  -7.539  -9.625  1.00  0.00    -0.550 OA
ENDBRANCH   3   4
ENDBRANCH   2   3
ENDBRANCH   1   2
BRANCH   1   7
ATOM      7  C   UNL     1      -5.176  -6.340  -7.154  1.00  0.00     0.000 C 
BRANCH   7   8
ATOM      8  C   UNL     1      -5.869  -7.291  -6.167  1.00  0.00    -0.000 C 
BRANCH   8   9
ATOM      9  C   UNL     1      -7.394  -7.103  -6.138  1.00  0.00    -0.003 C 
ATOM     10  C   UNL     1      -8.153  -8.430  -6.133  1.00  0.00     0.004 C 
ENDBRANCH   8   9
ENDBRANCH   7   8
ENDBRANCH   1   7
TORSDOF 6
ENDMDL
MODEL 7
REMARK VINA RESULT:    -2.867      1.741      2.605
REMARK INTER + INTRA:          -4.131
REMARK INTER:                  -3.720
REMARK INTRA:                  -0.412
REMARK UNBOUND:                -0.259
REMARK SMILES CCCCCCCC(=O)[O-]
REMARK SMILES IDX 5 1 6 2 7 3 8 4 9 5 10 6 4 7 3 8 2 9 1 10
REMARK H PARENT
REMARK Flexibility Score: inf
ROOT
ATOM      1  C   UNL     1      -6.698  -8.618  -9.038  1.00  0.00     0.000 C 
ENDROOT
BRANCH   1   2
ATOM      2  C   UNL     1      -5.400  -7.851  -9.321  1.00  0.00     0.006 C 
BRANCH   2   3
ATOM      3  C   UNL     1      -4.944  -7.070  -8.086  1.00  0.00     0.053 C 
BRANCH   3   4
ATOM      4  C   UNL     1      -4.559  -8.008  -6.986  1.00  0.00     0.041 C 
ATOM      5  O   UNL     1      -5.333  -8.193  -6.011  1.00  0.00    -0.550 OA
ATOM      6  O   UNL     1      -3.323  -8.641  -7.013  1.00  0.00    -0.550 OA
ENDBRANCH   3   4
ENDBRANCH   2   3
ENDBRANCH   1   2
BRANCH   1   7
ATOM      7  C   UNL     1      -7.898  -7.665  -8.976  1.00  0.00     0.000 C 
BRANCH   7   8
ATOM      8  C   UNL     1      -8.599  -7.752  -7.613  1.00  0.00    -0.000 C 
BRANCH   8   9
ATOM      9  C   UNL     1      -8.364  -6.505  -6.747  1.00  0.00    -0.003 C 
ATOM     10  C   UNL     1      -9.644  -5.995  -6.085  1.00  0.00     0.004 C 
ENDBRANCH   8   9
ENDBRANCH   7   8
ENDBRANCH   1   7
TORSDOF 6
ENDMDL
MODEL 8
REMARK VINA RESULT:    -2.845     15.908     16.687
REMARK INTER + INTRA:          -4.101
REMARK INTER:                  -3.753
REMARK INTRA:                  -0.348
REMARK UNBOUND:                -0.259
REMARK SMILES CCCCCCCC(=O)[O-]
REMARK SMILES IDX 5 1 6 2 7 3 8 4 9 5 10 6 4 7 3 8 2 9 1 10
REMARK H PARENT
REMARK Flexibility Score: inf
ROOT
ATOM      1  C   UNL     1      -1.554   8.655  -9.264  1.00  0.00     0.000 C 
ENDROOT
BRANCH   1   2
ATOM      2  C   UNL     1      -0.491   7.806  -9.973  1.00  0.00     0.006 C 
BRANCH   2   3
ATOM      3  C   UNL     1       0.915   8.173  -9.490  1.00  0.00     0.053 C 
BRANCH   3   4
ATOM      4  C   UNL     1       1.661   6.946  -9.069  1.00  0.00     0.041 C 
ATOM      5  O   UNL     1       2.833   6.743  -9.481  1.00  0.00    -0.550 OA
ATOM      6  O   UNL     1       1.043   6.000  -8.261  1.00  0.00    -0.550 OA
ENDBRANCH   3   4
ENDBRANCH   2   3
ENDBRANCH   1   2
BRANCH   1   7
ATOM      7  C   UNL     1      -0.922   9.539  -8.183  1.00  0.00     0.000 C 
BRANCH   7   8
ATOM      8  C   UNL     1      -1.910   9.794  -7.035  1.00  0.00    -0.000 C 
BRANCH   8   9
ATOM      9  C   UNL     1      -1.204  10.124  -5.711  1.00  0.00    -0.003 C 
ATOM     10  C   UNL     1       0.319  10.125  -5.837  1.00  0.00     0.004 C 
ENDBRANCH   8   9
ENDBRANCH   7   8
ENDBRANCH   1   7
TORSDOF 6
ENDMDL
MODEL 9
REMARK VINA RESULT:    -2.709      2.868      4.677
REMARK INTER + INTRA:          -3.919
REMARK INTER:                  -3.417
REMARK INTRA:                  -0.502
REMARK UNBOUND:                -0.259
REMARK SMILES CCCCCCCC(=O)[O-]
REMARK SMILES IDX 5 1 6 2 7 3 8 4 9 5 10 6 4 7 3 8 2 9 1 10
REMARK H PARENT
REMARK Flexibility Score: inf
ROOT
ATOM      1  C   UNL     1      -4.841  -9.573  -5.839  1.00  0.00     0.000 C 
ENDROOT
BRANCH   1   2
ATOM      2  C   UNL     1      -6.191  -9.716  -6.552  1.00  0.00     0.006 C 
BRANCH   2   3
ATOM      3  C   UNL     1      -7.307  -9.032  -5.757  1.00  0.00     0.053 C 
BRANCH   3   4
ATOM      4  C   UNL     1      -7.321  -7.562  -6.033  1.00  0.00     0.041 C 
ATOM      5  O   UNL     1      -6.778  -6.760  -5.229  1.00  0.00    -0.550 OA
ATOM      6  O   UNL     1      -7.975  -7.072  -7.157  1.00  0.00    -0.550 OA
ENDBRANCH   3   4
ENDBRANCH   2   3
ENDBRANCH   1   2
BRANCH   1   7
ATOM      7  C   UNL     1      -3.741  -9.155  -6.822  1.00  0.00     0.000 C 
BRANCH   7   8
ATOM      8  C   UNL     1      -4.061  -7.795  -7.460  1.00  0.00    -0.000 C 
BRANCH   8   9
ATOM      9  C   UNL     1      -4.012  -7.837  -8.995  1.00  0.00    -0.003 C 
ATOM     10  C   UNL     1      -5.402  -7.826  -9.631  1.00  0.00     0.004 C 
ENDBRANCH   8   9
ENDBRANCH   7   8
ENDBRANCH   1   7
TORSDOF 6
ENDMDL
