MODEL 1
REMARK VINA RESULT:    -3.740      0.000      0.000
REMARK INTER + INTRA:          -6.459
REMARK INTER:                  -5.707
REMARK INTRA:                  -0.752
REMARK UNBOUND:                -0.752
REMARK SMILES CCCCCCCCCC=CC(=O)[O-]
REMARK SMILES IDX 7 1 8 2 9 3 10 4 11 5 12 6 13 7 14 8 6 9 5 10 4 11 3 12 2 13
REMARK SMILES IDX 1 14
REMARK H PARENT
REMARK Flexibility Score: inf
ROOT
ATOM      1  C   UNL     1      60.647  31.727  59.955  1.00  0.00     0.000 C 
ENDROOT
BRANCH   1   2
ATOM      2  C   UNL     1      60.758  31.552  61.479  1.00  0.00     0.004 C 
BRANCH   2   3
ATOM      3  C   UNL     1      61.639  30.359  61.875  1.00  0.00     0.027 C 
BRANCH   3   4
ATOM      4  C   UNL     1      62.778  30.183  60.912  1.00  0.00    -0.025 C 
ATOM      5  C   UNL     1      64.004  30.640  61.188  1.00  0.00     0.020 C 
BRANCH   5   6
ATOM      6  C   UNL     1      65.125  30.489  60.248  1.00  0.00     0.064 C 
ATOM      7  O   UNL     1      65.072  31.050  59.123  1.00  0.00    -0.545 OA
ATOM      8  O   UNL     1      66.243  29.735  60.583  1.00  0.00    -0.545 OA
ENDBRANCH   5   6
ENDBRANCH   3   4
ENDBRANCH   2   3
ENDBRANCH   1   2
BRANCH   1   9
ATOM      9  C   UNL     1      61.045  33.139  59.491  1.00  0.00     0.000 C 
BRANCH   9  10
ATOM     10  C   UNL     1      61.663  33.979  60.622  1.00  0.00     0.000 C 
BRANCH  10  11
ATOM     11  C   UNL     1      61.499  35.492  60.391  1.00  0.00    -0.000 C 
BRANCH  11  12
ATOM     12  C   UNL     1      62.533  36.324  61.167  1.00  0.00    -0.000 C 
BRANCH  12  13
ATOM     13  C   UNL     1      63.868  35.587  61.352  1.00  0.00    -0.003 C 
ATOM     14  C   UNL     1      64.880  36.462  62.086  1.00  0.00     0.004 C 
ENDBRANCH  12  13
ENDBRANCH  11  12
ENDBRANCH  10  11
ENDBRANCH   9  10
ENDBRANCH   1   9
TORSDOF 9
ENDMDL
MODEL 2
REMARK VINA RESULT:    -3.696     11.714     13.803
REMARK INTER + INTRA:          -6.393
REMARK INTER:                  -5.523
REMARK INTRA:                  -0.869
REMARK UNBOUND:                -0.752
REMARK SMILES CCCCCCCCCC=CC(=O)[O-]
REMARK SMILES IDX 7 1 8 2 9 3 10 4 11 5 12 6 13 7 14 8 6 9 5 10 4 11 3 12 2 13
REMARK SMILES IDX 1 14
REMARK H PARENT
REMARK Flexibility Score: inf
ROOT
ATOM      1  C   UNL     1      58.166  29.044  51.377  1.00  0.00     0.000 C 
ENDROOT
BRANCH   1   2
ATOM      2  C   UNL     1      58.477  29.533  49.953  1.00  0.00     0.004 C 
BRANCH   2   3
ATOM      3  C   UNL     1      59.308  28.521  49.148  1.00  0.00     0.027 C 
BRANCH   3   4
ATOM      4  C   UNL     1      59.061  27.118  49.624  1.00  0.00    -0.025 C 
ATOM      5  C   UNL     1      60.070  26.277  49.877  1.00  0.00     0.020 C 
BRANCH   5   6
ATOM      6  C   UNL     1      59.842  24.897  50.328  1.00  0.00     0.064 C 
ATOM      7  O   UNL     1      58.965  24.665  51.200  1.00  0.00    -0.545 OA
ATOM      8  O   UNL     1      60.582  23.842  49.807  1.00  0.00    -0.545 OA
ENDBRANCH   5   6
ENDBRANCH   3   4
ENDBRANCH   2   3
ENDBRANCH   1   2
BRANCH   1   9
ATOM      9  C   UNL     1      56.665  29.111  51.710  1.00  0.00     0.000 C 
BRANCH   9  10
ATOM     10  C   UNL     1      55.780  29.117  50.452  1.00  0.00     0.000 C 
BRANCH  10  11
ATOM     11  C   UNL     1      54.727  27.995  50.464  1.00  0.00    -0.000 C 
BRANCH  11  12
ATOM     12  C   UNL     1      55.297  26.646  49.998  1.00  0.00    -0.000 C 
BRANCH  12  13
ATOM     13  C   UNL     1      54.312  25.858  49.121  1.00  0.00    -0.003 C 
ATOM     14  C   UNL     1      53.041  25.517  49.893  1.00  0.00     0.004 C 
ENDBRANCH  12  13
ENDBRANCH  11  12
ENDBRANCH  10  11
ENDBRANCH   9  10
ENDBRANCH   1   9
TORSDOF 9
ENDMDL
MODEL 3
REMARK VINA RESULT:    -3.598      3.079      5.814
REMARK INTER + INTRA:          -6.243
REMARK INTER:                  -4.952
REMARK INTRA:                  -1.290
REMARK UNBOUND:                -0.752
REMARK SMILES CCCCCCCCCC=CC(=O)[O-]
REMARK SMILES IDX 7 1 8 2 9 3 10 4 11 5 12 6 13 7 14 8 6 9 5 10 4 11 3 12 2 13
REMARK SMILES IDX 1 14
REMARK H PARENT
REMARK Flexibility Score: inf
ROOT
ATOM      1  C   UNL     1      64.252  30.965  59.140  1.00  0.00     0.000 C 
ENDROOT
BRANCH   1   2
ATOM      2  C   UNL     1      64.070  32.480  59.330  1.00  0.00     0.004 C 
BRANCH   2   3
ATOM      3  C   UNL     1      64.180  32.909  60.801  1.00  0.00     0.027 C 
BRANCH   3   4
ATOM      4  C   UNL     1      63.631  34.292  61.004  1.00  0.00    -0.025 C 
ATOM      5  C   UNL     1      62.363  34.592  60.707  1.00  0.00     0.020 C 
BRANCH   5   6
ATOM      6  C   UNL     1      61.816  35.945  60.886  1.00  0.00     0.064 C 
ATOM      7  O   UNL     1      62.556  36.860  61.333  1.00  0.00    -0.545 OA
ATOM      8  O   UNL     1      60.493  36.231  60.570  1.00  0.00    -0.545 OA
ENDBRANCH   5   6
ENDBRANCH   3   4
ENDBRANCH   2   3
ENDBRANCH   1   2
BRANCH   1   9
ATOM      9  C   UNL     1      65.100  30.326  60.254  1.00  0.00     0.000 C 
BRANCH   9  10
ATOM     10  C   UNL     1      64.378  29.160  60.950  1.00  0.00     0.000 C 
BRANCH  10  11
ATOM     11  C   UNL     1      62.971  28.910  60.378  1.00  0.00    -0.000 C 
BRANCH  11  12
ATOM     12  C   UNL     1      61.867  29.062  61.437  1.00  0.00    -0.000 C 
BRANCH  12  13
ATOM     13  C   UNL     1      61.733  30.503  61.951  1.00  0.00    -0.003 C 
ATOM     14  C   UNL     1      60.656  31.262  61.180  1.00  0.00     0.004 C 
ENDBRANCH  12  13
ENDBRANCH  11  12
ENDBRANCH  10  11
ENDBRANCH   9  10
ENDBRANCH   1   9
TORSDOF 9
ENDMDL
MODEL 4
REMARK VINA RESULT:    -3.528      1.547      2.063
REMARK INTER + INTRA:          -6.136
REMARK INTER:                  -5.534
REMARK INTRA:                  -0.602
REMARK UNBOUND:                -0.752
REMARK SMILES CCCCCCCCCC=CC(=O)[O-]
REMARK SMILES IDX 7 1 8 2 9 3 10 4 11 5 12 6 13 7 14 8 6 9 5 10 4 11 3 12 2 13
REMARK SMILES IDX 1 14
REMARK H PARENT
REMARK Flexibility Score: inf
ROOT
ATOM      1  C   UNL     1      61.060  32.650  59.662  1.00  0.00     0.000 C 
ENDROOT
BRANCH   1   2
ATOM      2  C   UNL     1      60.421  31.441  60.364  1.00  0.00     0.004 C 
BRANCH   2   3
ATOM      3  C   UNL     1      60.927  31.255  61.802  1.00  0.00     0.027 C 
BRANCH   3   4
ATOM      4  C   UNL     1      61.827  30.057  61.909  1.00  0.00    -0.025 C 
ATOM      5  C   UNL     1      62.319  29.452  60.822  1.00  0.00     0.020 C 
BRANCH   5   6
ATOM      6  C   UNL     1      63.188  28.270  60.912  1.00  0.00     0.064 C 
ATOM      7  O   UNL     1      64.422  28.420  61.108  1.00  0.00    -0.545 OA
ATOM      8  O   UNL     1      62.668  26.987  60.782  1.00  0.00    -0.545 OA
ENDBRANCH   5   6
ENDBRANCH   3   4
ENDBRANCH   2   3
ENDBRANCH   1   2
BRANCH   1   9
ATOM      9  C   UNL     1      61.788  33.587  60.643  1.00  0.00     0.000 C 
BRANCH   9  10
ATOM     10  C   UNL     1      61.289  35.039  60.552  1.00  0.00     0.000 C 
BRANCH  10  11
ATOM     11  C   UNL     1      62.370  36.061  60.948  1.00  0.00    -0.000 C 
BRANCH  11  12
ATOM     12  C   UNL     1      63.792  35.567  60.635  1.00  0.00    -0.000 C 
BRANCH  12  13
ATOM     13  C   UNL     1      64.739  35.688  61.838  1.00  0.00    -0.003 C 
ATOM     14  C   UNL     1      64.775  37.119  62.367  1.00  0.00     0.004 C 
ENDBRANCH  12  13
ENDBRANCH  11  12
ENDBRANCH  10  11
ENDBRANCH   9  10
ENDBRANCH   1   9
TORSDOF 9
ENDMDL
MODEL 5
REMARK VINA RESULT:    -3.523     12.092     13.734
REMARK INTER + INTRA:          -6.128
REMARK INTER:                  -4.732
REMARK INTRA:                  -1.396
REMARK UNBOUND:                -0.752
REMARK SMILES CCCCCCCCCC=CC(=O)[O-]
REMARK SMILES IDX 7 1 8 2 9 3 10 4 11 5 12 6 13 7 14 8 6 9 5 10 4 11 3 12 2 13
REMARK SMILES IDX 1 14
REMARK H PARENT
REMARK Flexibility Score: inf
ROOT
ATOM      1  C   UNL     1      58.850  29.914  50.939  1.00  0.00     0.000 C 
ENDROOT
BRANCH   1   2
ATOM      2  C   UNL     1      57.530  29.906  51.728  1.00  0.00     0.004 C 
BRANCH   2   3
ATOM      3  C   UNL     1      56.971  28.491  51.933  1.00  0.00     0.027 C 
BRANCH   3   4
ATOM      4  C   UNL     1      55.727  28.277  51.119  1.00  0.00    -0.025 C 
ATOM      5  C   UNL     1      55.514  27.137  50.453  1.00  0.00     0.020 C 
BRANCH   5   6
ATOM      6  C   UNL     1      54.308  26.919  49.640  1.00  0.00     0.064 C 
ATOM      7  O   UNL     1      53.441  27.828  49.560  1.00  0.00    -0.545 OA
ATOM      8  O   UNL     1      54.110  25.724  48.958  1.00  0.00    -0.545 OA
ENDBRANCH   5   6
ENDBRANCH   3   4
ENDBRANCH   2   3
ENDBRANCH   1   2
BRANCH   1   9
ATOM      9  C   UNL     1      58.651  29.574  49.451  1.00  0.00     0.000 C 
BRANCH   9  10
ATOM     10  C   UNL     1      59.453  28.335  49.017  1.00  0.00     0.000 C 
BRANCH  10  11
ATOM     11  C   UNL     1      60.560  27.965  50.021  1.00  0.00    -0.000 C 
BRANCH  11  12
ATOM     12  C   UNL     1      60.433  26.522  50.534  1.00  0.00    -0.000 C 
BRANCH  12  13
ATOM     13  C   UNL     1      59.076  25.890  50.195  1.00  0.00    -0.003 C 
ATOM     14  C   UNL     1      58.505  25.138  51.395  1.00  0.00     0.004 C 
ENDBRANCH  12  13
ENDBRANCH  11  12
ENDBRANCH  10  11
ENDBRANCH   9  10
ENDBRANCH   1   9
TORSDOF 9
ENDMDL
MODEL 6
REMARK VINA RESULT:    -3.511      2.380      5.225
REMARK INTER + INTRA:          -6.111
REMARK INTER:                  -5.258
REMARK INTRA:                  -0.853
REMARK UNBOUND:                -0.752
REMARK SMILES CCCCCCCCCC=CC(=O)[O-]
REMARK SMILES IDX 7 1 8 2 9 3 10 4 11 5 12 6 13 7 14 8 6 9 5 10 4 11 3 12 2 13
REMARK SMILES IDX 1 14
REMARK H PARENT
REMARK Flexibility Score: inf
ROOT
ATOM      1  C   UNL     1      60.625  31.639  59.943  1.00  0.00     0.000 C 
ENDROOT
BRANCH   1   2
ATOM      2  C   UNL     1      61.218  32.979  59.477  1.00  0.00     0.004 C 
BRANCH   2   3
ATOM      3  C   UNL     1      61.404  33.977  60.630  1.00  0.00     0.027 C 
BRANCH   3   4
ATOM      4  C   UNL     1      62.841  34.391  60.761  1.00  0.00    -0.025 C 
ATOM      5  C   UNL     1      63.182  35.641  61.095  1.00  0.00     0.020 C 
BRANCH   5   6
ATOM      6  C   UNL     1      64.585  36.064  61.213  1.00  0.00     0.064 C 
ATOM      7  O   UNL     1      65.049  36.368  62.342  1.00  0.00    -0.545 OA
ATOM      8  O   UNL     1      65.408  36.134  60.094  1.00  0.00    -0.545 OA
ENDBRANCH   5   6
ENDBRANCH   3   4
ENDBRANCH   2   3
ENDBRANCH   1   2
BRANCH   1   9
ATOM      9  C   UNL     1      60.818  31.399  61.451  1.00  0.00     0.000 C 
BRANCH   9  10
ATOM     10  C   UNL     1      61.831  30.279  61.745  1.00  0.00     0.000 C 
BRANCH  10  11
ATOM     11  C   UNL     1      63.289  30.737  61.561  1.00  0.00    -0.000 C 
BRANCH  11  12
ATOM     12  C   UNL     1      63.966  30.076  60.350  1.00  0.00    -0.000 C 
BRANCH  12  13
ATOM     13  C   UNL     1      64.399  28.629  60.629  1.00  0.00    -0.003 C 
ATOM     14  C   UNL     1      65.893  28.553  60.933  1.00  0.00     0.004 C 
ENDBRANCH  12  13
ENDBRANCH  11  12
ENDBRANCH  10  11
ENDBRANCH   9  10
ENDBRANCH   1   9
TORSDOF 9
ENDMDL
MODEL 7
REMARK VINA RESULT:    -3.436      2.937      5.445
REMARK INTER + INTRA:          -5.995
REMARK INTER:                  -4.498
REMARK INTRA:                  -1.497
REMARK UNBOUND:                -0.752
REMARK SMILES CCCCCCCCCC=CC(=O)[O-]
REMARK SMILES IDX 7 1 8 2 9 3 10 4 11 5 12 6 13 7 14 8 6 9 5 10 4 11 3 12 2 13
REMARK SMILES IDX 1 14
REMARK H PARENT
REMARK Flexibility Score: inf
ROOT
ATOM      1  C   UNL     1      64.349  30.556  60.654  1.00  0.00     0.000 C 
ENDROOT
BRANCH   1   2
ATOM      2  C   UNL     1      64.527  31.939  60.006  1.00  0.00     0.004 C 
BRANCH   2   3
ATOM      3  C   UNL     1      64.195  33.090  60.968  1.00  0.00     0.027 C 
BRANCH   3   4
ATOM      4  C   UNL     1      63.349  34.132  60.294  1.00  0.00    -0.025 C 
ATOM      5  C   UNL     1      62.656  35.033  60.998  1.00  0.00     0.020 C 
BRANCH   5   6
ATOM      6  C   UNL     1      61.811  36.049  60.352  1.00  0.00     0.064 C 
ATOM      7  O   UNL     1      61.114  36.819  61.061  1.00  0.00    -0.545 OA
ATOM      8  O   UNL     1      61.771  36.171  58.968  1.00  0.00    -0.545 OA
ENDBRANCH   5   6
ENDBRANCH   3   4
ENDBRANCH   2   3
ENDBRANCH   1   2
BRANCH   1   9
ATOM      9  C   UNL     1      63.222  30.534  61.701  1.00  0.00     0.000 C 
BRANCH   9  10
ATOM     10  C   UNL     1      62.172  29.446  61.416  1.00  0.00     0.000 C 
BRANCH  10  11
ATOM     11  C   UNL     1      60.781  30.032  61.115  1.00  0.00    -0.000 C 
BRANCH  11  12
ATOM     12  C   UNL     1      60.789  31.567  61.042  1.00  0.00    -0.000 C 
BRANCH  12  13
ATOM     13  C   UNL     1      60.317  32.098  59.681  1.00  0.00    -0.003 C 
ATOM     14  C   UNL     1      61.191  31.562  58.550  1.00  0.00     0.004 C 
ENDBRANCH  12  13
ENDBRANCH  11  12
ENDBRANCH  10  11
ENDBRANCH   9  10
ENDBRANCH   1   9
TORSDOF 9
ENDMDL
MODEL 8
REMARK VINA RESULT:    -3.400      2.488      5.089
REMARK INTER + INTRA:          -5.940
REMARK INTER:                  -4.361
REMARK INTRA:                  -1.579
REMARK UNBOUND:                -0.752
REMARK SMILES CCCCCCCCCC=CC(=O)[O-]
REMARK SMILES IDX 7 1 8 2 9 3 10 4 11 5 12 6 13 7 14 8 6 9 5 10 4 11 3 12 2 13
REMARK SMILES IDX 1 14
REMARK H PARENT
REMARK Flexibility Score: inf
ROOT
ATOM      1  C   UNL     1      63.039  31.997  57.986  1.00  0.00     0.000 C 
ENDROOT
BRANCH   1   2
ATOM      2  C   UNL     1      61.529  31.733  58.109  1.00  0.00     0.004 C 
BRANCH   2   3
ATOM      3  C   UNL     1      60.783  32.878  58.810  1.00  0.00     0.027 C 
BRANCH   3   4
ATOM      4  C   UNL     1      61.740  33.927  59.300  1.00  0.00    -0.025 C 
ATOM      5  C   UNL     1      61.769  34.303  60.583  1.00  0.00     0.020 C 
BRANCH   5   6
ATOM      6  C   UNL     1      62.690  35.340  61.074  1.00  0.00     0.064 C 
ATOM      7  O   UNL     1      62.253  36.494  61.316  1.00  0.00    -0.545 OA
ATOM      8  O   UNL     1      64.037  35.063  61.275  1.00  0.00    -0.545 OA
ENDBRANCH   5   6
ENDBRANCH   3   4
ENDBRANCH   2   3
ENDBRANCH   1   2
BRANCH   1   9
ATOM      9  C   UNL     1      63.882  30.994  58.793  1.00  0.00     0.000 C 
BRANCH   9  10
ATOM     10  C   UNL     1      64.492  31.621  60.059  1.00  0.00     0.000 C 
BRANCH  10  11
ATOM     11  C   UNL     1      63.759  31.191  61.343  1.00  0.00    -0.000 C 
BRANCH  11  12
ATOM     12  C   UNL     1      63.308  29.722  61.302  1.00  0.00    -0.000 C 
BRANCH  12  13
ATOM     13  C   UNL     1      61.842  29.540  61.722  1.00  0.00    -0.003 C 
ATOM     14  C   UNL     1      61.132  30.886  61.832  1.00  0.00     0.004 C 
ENDBRANCH  12  13
ENDBRANCH  11  12
ENDBRANCH  10  11
ENDBRANCH   9  10
ENDBRANCH   1   9
TORSDOF 9
ENDMDL
MODEL 9
REMARK VINA RESULT:    -3.386     11.331     13.269
REMARK INTER + INTRA:          -5.920
REMARK INTER:                  -4.354
REMARK INTRA:                  -1.566
REMARK UNBOUND:                -0.752
REMARK SMILES CCCCCCCCCC=CC(=O)[O-]
REMARK SMILES IDX 7 1 8 2 9 3 10 4 11 5 12 6 13 7 14 8 6 9 5 10 4 11 3 12 2 13
REMARK SMILES IDX 1 14
REMARK H PARENT
REMARK Flexibility Score: inf
ROOT
ATOM      1  C   UNL     1      58.790  25.806  51.118  1.00  0.00     0.000 C 
ENDROOT
BRANCH   1   2
ATOM      2  C   UNL     1      57.387  26.382  51.369  1.00  0.00     0.004 C 
BRANCH   2   3
ATOM      3  C   UNL     1      56.487  26.310  50.127  1.00  0.00     0.027 C 
BRANCH   3   4
ATOM      4  C   UNL     1      55.444  27.391  50.151  1.00  0.00    -0.025 C 
ATOM      5  C   UNL     1      55.154  28.059  51.273  1.00  0.00     0.020 C 
BRANCH   5   6
ATOM      6  C   UNL     1      54.125  29.108  51.314  1.00  0.00     0.064 C 
ATOM      7  O   UNL     1      53.449  29.274  52.362  1.00  0.00    -0.545 OA
ATOM      8  O   UNL     1      53.888  29.922  50.213  1.00  0.00    -0.545 OA
ENDBRANCH   5   6
ENDBRANCH   3   4
ENDBRANCH   2   3
ENDBRANCH   1   2
BRANCH   1   9
ATOM      9  C   UNL     1      59.382  26.256  49.770  1.00  0.00     0.000 C 
BRANCH   9  10
ATOM     10  C   UNL     1      59.982  27.671  49.832  1.00  0.00     0.000 C 
BRANCH  10  11
ATOM     11  C   UNL     1      59.197  28.684  48.979  1.00  0.00    -0.000 C 
BRANCH  11  12
ATOM     12  C   UNL     1      58.395  29.679  49.832  1.00  0.00    -0.000 C 
BRANCH  12  13
ATOM     13  C   UNL     1      58.956  29.827  51.254  1.00  0.00    -0.003 C 
ATOM     14  C   UNL     1      57.860  30.229  52.238  1.00  0.00     0.004 C 
ENDBRANCH  12  13
ENDBRANCH  11  12
ENDBRANCH  10  11
ENDBRANCH   9  10
ENDBRANCH   1   9
TORSDOF 9
ENDMDL
