MODEL 1
REMARK VINA RESULT:    -1.960      0.000      0.000
REMARK INTER + INTRA:          -1.960
REMARK INTER:                  -1.960
REMARK INTRA:                   0.000
REMARK UNBOUND:                 0.000
REMARK SMILES CC(=O)[O-]
REMARK SMILES IDX 1 1 2 2 3 3 4 4
REMARK H PARENT
REMARK Flexibility Score: inf
ROOT
ATOM      1  C   UNL     1       9.406  -0.800   7.626  1.00  0.00     0.063 C 
ATOM      2  C   UNL     1       9.929  -2.063   8.221  1.00  0.00     0.038 C 
ATOM      3  O   UNL     1       9.318  -3.148   8.039  1.00  0.00    -0.550 OA
ATOM      4  O   UNL     1      11.121  -2.055   8.935  1.00  0.00    -0.550 OA
ENDROOT
TORSDOF 0
ENDMDL
MODEL 2
REMARK VINA RESULT:    -1.829      2.268      2.763
REMARK INTER + INTRA:          -1.829
REMARK INTER:                  -1.829
REMARK INTRA:                   0.000
REMARK UNBOUND:                 0.000
REMARK SMILES CC(=O)[O-]
REMARK SMILES IDX 1 1 2 2 3 3 4 4
REMARK H PARENT
REMARK Flexibility Score: inf
ROOT
ATOM      1  C   UNL     1       9.113  -4.244  10.044  1.00  0.00     0.063 C 
ATOM      2  C   UNL     1       9.495  -4.076   8.613  1.00  0.00     0.038 C 
ATOM      3  O   UNL     1       9.842  -5.075   7.931  1.00  0.00    -0.550 OA
ATOM      4  O   UNL     1       9.417  -2.825   8.014  1.00  0.00    -0.550 OA
ENDROOT
TORSDOF 0
ENDMDL
MODEL 3
REMARK VINA RESULT:    -1.799      2.444      2.795
REMARK INTER + INTRA:          -1.799
REMARK INTER:                  -1.799
REMARK INTRA:                   0.000
REMARK UNBOUND:                 0.000
REMARK SMILES CC(=O)[O-]
REMARK SMILES IDX 1 1 2 2 3 3 4 4
REMARK H PARENT
REMARK Flexibility Score: inf
ROOT
ATOM      1  C   UNL     1       9.360  -0.624   7.732  1.00  0.00     0.063 C 
ATOM      2  C   UNL     1       9.529   0.148   8.996  1.00  0.00     0.038 C 
ATOM      3  O   UNL     1       9.332  -0.409  10.108  1.00  0.00    -0.550 OA
ATOM      4  O   UNL     1       9.956   1.469   8.954  1.00  0.00    -0.550 OA
ENDROOT
TORSDOF 0
ENDMDL
MODEL 4
REMARK VINA RESULT:    -1.791      2.315      2.571
REMARK INTER + INTRA:          -1.791
REMARK INTER:                  -1.791
REMARK INTRA:                   0.000
REMARK UNBOUND:                 0.000
REMARK SMILES CC(=O)[O-]
REMARK SMILES IDX 1 1 2 2 3 3 4 4
REMARK H PARENT
REMARK Flexibility Score: inf
ROOT
ATOM      1  C   UNL     1       9.693  -2.794   8.312  1.00  0.00     0.063 C 
ATOM      2  C   UNL     1       9.453  -4.221   8.670  1.00  0.00     0.038 C 
ATOM      3  O   UNL     1       9.905  -5.140   7.939  1.00  0.00    -0.550 OA
ATOM      4  O   UNL     1       8.776  -4.541   9.840  1.00  0.00    -0.550 OA
ENDROOT
TORSDOF 0
ENDMDL
MODEL 5
REMARK VINA RESULT:    -1.715      1.848      2.477
REMARK INTER + INTRA:          -1.715
REMARK INTER:                  -1.715
REMARK INTRA:                   0.000
REMARK UNBOUND:                 0.000
REMARK SMILES CC(=O)[O-]
REMARK SMILES IDX 1 1 2 2 3 3 4 4
REMARK H PARENT
REMARK Flexibility Score: inf
ROOT
ATOM      1  C   UNL     1       9.695  -4.609   8.290  1.00  0.00     0.063 C 
ATOM      2  C   UNL     1       9.612  -3.207   8.790  1.00  0.00     0.038 C 
ATOM      3  O   UNL     1       9.676  -2.972  10.024  1.00  0.00    -0.550 OA
ATOM      4  O   UNL     1       9.516  -2.152   7.891  1.00  0.00    -0.550 OA
ENDROOT
TORSDOF 0
ENDMDL
MODEL 6
REMARK VINA RESULT:    -1.689      2.006      2.124
REMARK INTER + INTRA:          -1.689
REMARK INTER:                  -1.689
REMARK INTRA:                   0.000
REMARK UNBOUND:                 0.000
REMARK SMILES CC(=O)[O-]
REMARK SMILES IDX 1 1 2 2 3 3 4 4
REMARK H PARENT
REMARK Flexibility Score: inf
ROOT
ATOM      1  C   UNL     1       9.963   1.011   9.034  1.00  0.00     0.063 C 
ATOM      2  C   UNL     1       9.626  -0.369   8.583  1.00  0.00     0.038 C 
ATOM      3  O   UNL     1       9.212  -0.568   7.412  1.00  0.00    -0.550 OA
ATOM      4  O   UNL     1       9.819  -1.448   9.438  1.00  0.00    -0.550 OA
ENDROOT
TORSDOF 0
ENDMDL
MODEL 7
REMARK VINA RESULT:    -1.655     15.832     16.261
REMARK INTER + INTRA:          -1.655
REMARK INTER:                  -1.655
REMARK INTRA:                   0.000
REMARK UNBOUND:                 0.000
REMARK SMILES CC(=O)[O-]
REMARK SMILES IDX 1 1 2 2 3 3 4 4
REMARK H PARENT
REMARK Flexibility Score: inf
ROOT
ATOM      1  C   UNL     1      -7.427  -3.876  10.779  1.00  0.00     0.063 C 
ATOM      2  C   UNL     1      -5.973  -3.820  10.453  1.00  0.00     0.038 C 
ATOM      3  O   UNL     1      -5.555  -4.266   9.354  1.00  0.00    -0.550 OA
ATOM      4  O   UNL     1      -5.084  -3.225  11.340  1.00  0.00    -0.550 OA
ENDROOT
TORSDOF 0
ENDMDL
MODEL 8
REMARK VINA RESULT:    -1.611     10.994     11.432
REMARK INTER + INTRA:          -1.611
REMARK INTER:                  -1.611
REMARK INTRA:                   0.000
REMARK UNBOUND:                 0.000
REMARK SMILES CC(=O)[O-]
REMARK SMILES IDX 1 1 2 2 3 3 4 4
REMARK H PARENT
REMARK Flexibility Score: inf
ROOT
ATOM      1  C   UNL     1       4.464   2.059  -1.951  1.00  0.00     0.063 C 
ATOM      2  C   UNL     1       4.195   0.799  -1.202  1.00  0.00     0.038 C 
ATOM      3  O   UNL     1       3.038   0.555  -0.770  1.00  0.00    -0.550 OA
ATOM      4  O   UNL     1       5.208  -0.135  -1.024  1.00  0.00    -0.550 OA
ENDROOT
TORSDOF 0
ENDMDL
MODEL 9
REMARK VINA RESULT:    -1.604      8.339      8.829
REMARK INTER + INTRA:          -1.604
REMARK INTER:                  -1.604
REMARK INTRA:                   0.000
REMARK UNBOUND:                 0.000
REMARK SMILES CC(=O)[O-]
REMARK SMILES IDX 1 1 2 2 3 3 4 4
REMARK H PARENT
REMARK Flexibility Score: inf
ROOT
ATOM      1  C   UNL     1       6.496  -3.460   0.400  1.00  0.00     0.063 C 
ATOM      2  C   UNL     1       7.223  -2.190   0.114  1.00  0.00     0.038 C 
ATOM      3  O   UNL     1       8.457  -2.104   0.343  1.00  0.00    -0.550 OA
ATOM      4  O   UNL     1       6.550  -1.116  -0.455  1.00  0.00    -0.550 OA
ENDROOT
TORSDOF 0
ENDMDL
