MODEL 1
REMARK VINA RESULT:     0.035      0.000      0.000
REMARK INTER + INTRA:          -0.120
REMARK INTER:                   0.038
REMARK INTRA:                  -0.158
REMARK UNBOUND:                -0.158
REMARK SMILES CC1(C)CC[C@@]2(C(=O)[O-])CC[C@@]3(C)C(=CC[C@@H]4[C@]5(C)CC[C@H](O)C(C)(C)[C@@H]5CC[C@]43C)[C@H]2C1
REMARK SMILES IDX 6 1 5 2 10 3 32 4 4 5 11 6 14 7 33 8 2 9 12 10 15 11 1 12
REMARK SMILES IDX 3 13 13 14 30 15 16 16 17 17 29 18 31 19 18 20 28 21 27 22
REMARK SMILES IDX 20 23 19 24 24 25 21 26 22 27 25 28 26 29 7 30 8 31 9 32
REMARK SMILES IDX 23 33
REMARK H PARENT 23 34
REMARK Flexibility Score: inf
ROOT
ATOM      1  C   UNL     1      16.032  -4.139 -19.051  1.00  0.00     0.017 C 
ATOM      2  C   UNL     1      16.097  -2.857 -19.953  1.00  0.00     0.014 C 
ATOM      3  C   UNL     1      17.407  -4.858 -19.010  1.00  0.00     0.014 C 
ATOM      4  C   UNL     1      15.536  -3.843 -17.579  1.00  0.00     0.028 C 
ATOM      5  C   UNL     1      16.160  -1.535 -19.183  1.00  0.00     0.007 C 
ATOM      6  C   UNL     1      18.460  -4.088 -18.218  1.00  0.00     0.013 C 
ATOM      7  C   UNL     1      16.606  -3.794 -16.461  1.00  0.00    -0.064 C 
ATOM      8  C   UNL     1      14.523  -2.658 -17.525  1.00  0.00     0.015 C 
ATOM      9  C   UNL     1      14.964  -1.327 -18.219  1.00  0.00    -0.035 C 
ATOM     10  C   UNL     1      18.137  -3.943 -16.694  1.00  0.00    -0.006 C 
ATOM     11  C   UNL     1      16.159  -3.823 -15.178  1.00  0.00    -0.027 C 
ATOM     12  C   UNL     1      15.362  -0.287 -17.145  1.00  0.00     0.011 C 
ATOM     13  C   UNL     1      13.773  -0.746 -19.016  1.00  0.00     0.011 C 
ATOM     14  C   UNL     1      18.717  -2.540 -16.304  1.00  0.00     0.017 C 
ATOM     15  C   UNL     1      18.793  -5.151 -15.762  1.00  0.00    -0.020 C 
ATOM     16  C   UNL     1      17.023  -4.383 -14.076  1.00  0.00     0.032 C 
ATOM     17  C   UNL     1      17.750  -5.607 -14.669  1.00  0.00     0.006 C 
ATOM     18  C   UNL     1      19.114  -6.471 -16.537  1.00  0.00     0.008 C 
ATOM     19  C   UNL     1      20.145  -4.662 -15.140  1.00  0.00     0.012 C 
ATOM     20  C   UNL     1      18.150  -6.742 -13.639  1.00  0.00    -0.025 C 
ATOM     21  C   UNL     1      19.700  -7.577 -15.642  1.00  0.00     0.005 C 
ATOM     22  C   UNL     1      18.836  -7.973 -14.400  1.00  0.00     0.003 C 
ATOM     23  C   UNL     1      19.028  -6.154 -12.471  1.00  0.00     0.010 C 
ATOM     24  C   UNL     1      16.800  -7.274 -13.011  1.00  0.00     0.012 C 
ATOM     25  C   UNL     1      19.559  -9.062 -13.448  1.00  0.00    -0.006 C 
ATOM     26  C   UNL     1      20.116  -7.089 -11.934  1.00  0.00     0.033 C 
ATOM     27  C   UNL     1      19.664  -8.551 -11.967  1.00  0.00     0.120 C 
ATOM     28  C   UNL     1      20.992  -9.471 -13.933  1.00  0.00     0.014 C 
ATOM     29  C   UNL     1      18.749 -10.386 -13.451  1.00  0.00     0.014 C 
ENDROOT
BRANCH   1  30
ATOM     30  C   UNL     1      15.041  -5.083 -19.740  1.00  0.00     0.048 C 
ATOM     31  O   UNL     1      15.400  -6.235 -20.113  1.00  0.00    -0.550 OA
ATOM     32  O   UNL     1      13.782  -4.619 -20.125  1.00  0.00    -0.550 OA
ENDBRANCH   1  30
BRANCH  27  33
ATOM     33  O   UNL     1      20.556  -9.345 -11.224  1.00  0.00    -0.393 OA
ATOM     34  H   UNL     1      20.521  -9.033 -10.279  1.00  0.00     0.210 HD
ENDBRANCH  27  33
TORSDOF 2
ENDMDL
