MODEL 1
REMARK VINA RESULT:    -3.677      0.000      0.000
REMARK INTER + INTRA:          -7.171
REMARK INTER:                  -5.182
REMARK INTRA:                  -1.989
REMARK UNBOUND:                -1.989
REMARK SMILES C=CC(=C)CCC=C(C)CCC=C(C)C
REMARK SMILES IDX 8 1 7 2 9 3 10 4 11 5 12 6 14 7 13 8 15 9 6 10 5 11 3 12
REMARK SMILES IDX 4 13 2 14 1 15
REMARK H PARENT
REMARK Flexibility Score: inf
ROOT
ATOM      1  C   UNL     1      12.757   5.217  19.148  1.00  0.00    -0.077 C 
ATOM      2  C   UNL     1      11.797   4.901  18.248  1.00  0.00    -0.028 C 
ATOM      3  C   UNL     1      13.039   6.644  19.551  1.00  0.00     0.039 C 
ENDROOT
BRANCH   1   4
ATOM      4  C   UNL     1      13.627   4.116  19.718  1.00  0.00     0.034 C 
BRANCH   4   5
ATOM      5  C   UNL     1      14.451   3.419  18.627  1.00  0.00     0.032 C 
BRANCH   5   6
ATOM      6  C   UNL     1      15.620   4.262  18.172  1.00  0.00    -0.028 C 
ATOM      7  C   UNL     1      16.918   5.691  16.625  1.00  0.00     0.039 C 
ATOM      8  C   UNL     1      15.717   4.844  16.956  1.00  0.00    -0.080 C 
ATOM      9  C   UNL     1      14.686   4.624  15.877  1.00  0.00     0.039 C 
ENDBRANCH   5   6
ENDBRANCH   4   5
ENDBRANCH   1   4
BRANCH   2  10
ATOM     10  C   UNL     1      10.875   5.898  17.591  1.00  0.00     0.032 C 
BRANCH  10  11
ATOM     11  C   UNL     1      11.361   6.253  16.182  1.00  0.00     0.039 C 
BRANCH  11  12
ATOM     12  C   UNL     1      11.876   7.676  16.134  1.00  0.00    -0.055 C 
ATOM     13  C   UNL     1      11.010   8.686  16.274  1.00  0.00     0.012 C 
BRANCH  12  14
ATOM     14  C   UNL     1      13.307   7.993  15.891  1.00  0.00    -0.005 C 
ATOM     15  C   UNL     1      14.052   8.748  16.699  1.00  0.00     0.009 C 
ENDBRANCH  12  14
ENDBRANCH  11  12
ENDBRANCH  10  11
ENDBRANCH   2  10
TORSDOF 7
ENDMDL
MODEL 2
REMARK VINA RESULT:    -3.675      1.442      3.458
REMARK INTER + INTRA:          -7.167
REMARK INTER:                  -5.289
REMARK INTRA:                  -1.878
REMARK UNBOUND:                -1.989
REMARK SMILES C=CC(=C)CCC=C(C)CCC=C(C)C
REMARK SMILES IDX 8 1 7 2 9 3 10 4 11 5 12 6 14 7 13 8 15 9 6 10 5 11 3 12
REMARK SMILES IDX 4 13 2 14 1 15
REMARK H PARENT
REMARK Flexibility Score: inf
ROOT
ATOM      1  C   UNL     1      13.816   5.740  16.044  1.00  0.00    -0.077 C 
ATOM      2  C   UNL     1      12.490   5.987  15.930  1.00  0.00    -0.028 C 
ATOM      3  C   UNL     1      14.821   6.845  16.265  1.00  0.00     0.039 C 
ENDROOT
BRANCH   1   4
ATOM      4  C   UNL     1      14.321   4.323  15.875  1.00  0.00     0.034 C 
BRANCH   4   5
ATOM      5  C   UNL     1      15.257   3.911  17.020  1.00  0.00     0.032 C 
BRANCH   5   6
ATOM      6  C   UNL     1      14.502   3.306  18.181  1.00  0.00    -0.028 C 
ATOM      7  C   UNL     1      13.609   3.178  20.484  1.00  0.00     0.039 C 
ATOM      8  C   UNL     1      14.419   3.859  19.411  1.00  0.00    -0.080 C 
ATOM      9  C   UNL     1      15.167   5.117  19.779  1.00  0.00     0.039 C 
ENDBRANCH   5   6
ENDBRANCH   4   5
ENDBRANCH   1   4
BRANCH   2  10
ATOM     10  C   UNL     1      11.857   7.351  16.060  1.00  0.00     0.032 C 
BRANCH  10  11
ATOM     11  C   UNL     1      10.936   7.416  17.282  1.00  0.00     0.039 C 
BRANCH  11  12
ATOM     12  C   UNL     1      11.742   7.404  18.564  1.00  0.00    -0.055 C 
ATOM     13  C   UNL     1      12.578   8.418  18.817  1.00  0.00     0.012 C 
BRANCH  12  14
ATOM     14  C   UNL     1      11.672   6.279  19.533  1.00  0.00    -0.005 C 
ATOM     15  C   UNL     1      11.795   6.423  20.852  1.00  0.00     0.009 C 
ENDBRANCH  12  14
ENDBRANCH  11  12
ENDBRANCH  10  11
ENDBRANCH   2  10
TORSDOF 7
ENDMDL
MODEL 3
REMARK VINA RESULT:    -3.574      2.235      3.827
REMARK INTER + INTRA:          -7.026
REMARK INTER:                  -5.588
REMARK INTRA:                  -1.437
REMARK UNBOUND:                -1.989
REMARK SMILES C=CC(=C)CCC=C(C)CCC=C(C)C
REMARK SMILES IDX 8 1 7 2 9 3 10 4 11 5 12 6 14 7 13 8 15 9 6 10 5 11 3 12
REMARK SMILES IDX 4 13 2 14 1 15
REMARK H PARENT
REMARK Flexibility Score: inf
ROOT
ATOM      1  C   UNL     1      12.878   4.343  19.152  1.00  0.00    -0.077 C 
ATOM      2  C   UNL     1      12.092   4.276  18.052  1.00  0.00    -0.028 C 
ATOM      3  C   UNL     1      12.742   5.451  20.168  1.00  0.00     0.039 C 
ENDROOT
BRANCH   1   4
ATOM      4  C   UNL     1      13.978   3.319  19.338  1.00  0.00     0.034 C 
BRANCH   4   5
ATOM      5  C   UNL     1      14.488   3.288  20.786  1.00  0.00     0.032 C 
BRANCH   5   6
ATOM      6  C   UNL     1      14.418   1.901  21.382  1.00  0.00    -0.028 C 
ATOM      7  C   UNL     1      13.452   0.049  22.708  1.00  0.00     0.039 C 
ATOM      8  C   UNL     1      13.432   1.467  22.199  1.00  0.00    -0.080 C 
ATOM      9  C   UNL     1      12.329   2.378  22.679  1.00  0.00     0.039 C 
ENDBRANCH   5   6
ENDBRANCH   4   5
ENDBRANCH   1   4
BRANCH   2  10
ATOM     10  C   UNL     1      10.975   5.239  17.737  1.00  0.00     0.032 C 
BRANCH  10  11
ATOM     11  C   UNL     1      11.271   6.026  16.456  1.00  0.00     0.039 C 
BRANCH  11  12
ATOM     12  C   UNL     1      12.396   7.015  16.682  1.00  0.00    -0.055 C 
ATOM     13  C   UNL     1      12.170   8.096  17.437  1.00  0.00     0.012 C 
BRANCH  12  14
ATOM     14  C   UNL     1      13.733   6.850  16.056  1.00  0.00    -0.005 C 
ATOM     15  C   UNL     1      14.838   6.530  16.729  1.00  0.00     0.009 C 
ENDBRANCH  12  14
ENDBRANCH  11  12
ENDBRANCH  10  11
ENDBRANCH   2  10
TORSDOF 7
ENDMDL
MODEL 4
REMARK VINA RESULT:    -3.547      1.313      4.120
REMARK INTER + INTRA:          -6.988
REMARK INTER:                  -4.976
REMARK INTRA:                  -2.012
REMARK UNBOUND:                -1.989
REMARK SMILES C=CC(=C)CCC=C(C)CCC=C(C)C
REMARK SMILES IDX 8 1 7 2 9 3 10 4 11 5 12 6 14 7 13 8 15 9 6 10 5 11 3 12
REMARK SMILES IDX 4 13 2 14 1 15
REMARK H PARENT
REMARK Flexibility Score: inf
ROOT
ATOM      1  C   UNL     1      11.703   5.668  18.401  1.00  0.00    -0.077 C 
ATOM      2  C   UNL     1      12.272   4.440  18.388  1.00  0.00    -0.028 C 
ATOM      3  C   UNL     1      11.799   6.583  19.598  1.00  0.00     0.039 C 
ENDROOT
BRANCH   1   4
ATOM      4  C   UNL     1      10.883   6.116  17.210  1.00  0.00     0.034 C 
BRANCH   4   5
ATOM      5  C   UNL     1      11.757   6.330  15.966  1.00  0.00     0.032 C 
BRANCH   5   6
ATOM      6  C   UNL     1      12.956   7.202  16.257  1.00  0.00    -0.028 C 
ATOM      7  C   UNL     1      15.357   7.761  16.463  1.00  0.00     0.039 C 
ATOM      8  C   UNL     1      14.240   6.789  16.179  1.00  0.00    -0.080 C 
ATOM      9  C   UNL     1      14.606   5.357  15.875  1.00  0.00     0.039 C 
ENDBRANCH   5   6
ENDBRANCH   4   5
ENDBRANCH   1   4
BRANCH   2  10
ATOM     10  C   UNL     1      13.097   3.864  19.512  1.00  0.00     0.032 C 
BRANCH  10  11
ATOM     11  C   UNL     1      14.454   3.369  19.002  1.00  0.00     0.039 C 
BRANCH  11  12
ATOM     12  C   UNL     1      15.539   4.384  19.290  1.00  0.00    -0.055 C 
ATOM     13  C   UNL     1      16.714   4.278  18.659  1.00  0.00     0.012 C 
BRANCH  12  14
ATOM     14  C   UNL     1      15.362   5.472  20.287  1.00  0.00    -0.005 C 
ATOM     15  C   UNL     1      15.384   6.771  19.985  1.00  0.00     0.009 C 
ENDBRANCH  12  14
ENDBRANCH  11  12
ENDBRANCH  10  11
ENDBRANCH   2  10
TORSDOF 7
ENDMDL
MODEL 5
REMARK VINA RESULT:    -3.532      1.541      3.548
REMARK INTER + INTRA:          -6.966
REMARK INTER:                  -5.043
REMARK INTRA:                  -1.924
REMARK UNBOUND:                -1.989
REMARK SMILES C=CC(=C)CCC=C(C)CCC=C(C)C
REMARK SMILES IDX 8 1 7 2 9 3 10 4 11 5 12 6 14 7 13 8 15 9 6 10 5 11 3 12
REMARK SMILES IDX 4 13 2 14 1 15
REMARK H PARENT
REMARK Flexibility Score: inf
ROOT
ATOM      1  C   UNL     1      14.041   7.057  16.656  1.00  0.00    -0.077 C 
ATOM      2  C   UNL     1      12.772   7.324  16.268  1.00  0.00    -0.028 C 
ATOM      3  C   UNL     1      14.736   7.859  17.730  1.00  0.00     0.039 C 
ENDROOT
BRANCH   1   4
ATOM      4  C   UNL     1      14.818   5.968  15.947  1.00  0.00     0.034 C 
BRANCH   4   5
ATOM      5  C   UNL     1      14.183   4.586  16.158  1.00  0.00     0.032 C 
BRANCH   5   6
ATOM      6  C   UNL     1      14.282   4.130  17.595  1.00  0.00    -0.028 C 
ATOM      7  C   UNL     1      13.443   3.462  19.825  1.00  0.00     0.039 C 
ATOM      8  C   UNL     1      13.224   3.952  18.416  1.00  0.00    -0.080 C 
ATOM      9  C   UNL     1      11.815   4.289  17.995  1.00  0.00     0.039 C 
ENDBRANCH   5   6
ENDBRANCH   4   5
ENDBRANCH   1   4
BRANCH   2  10
ATOM     10  C   UNL     1      11.895   8.389  16.876  1.00  0.00     0.032 C 
BRANCH  10  11
ATOM     11  C   UNL     1      10.879   7.778  17.847  1.00  0.00     0.039 C 
BRANCH  11  12
ATOM     12  C   UNL     1      11.305   8.003  19.282  1.00  0.00    -0.055 C 
ATOM     13  C   UNL     1      11.204   9.230  19.806  1.00  0.00     0.012 C 
BRANCH  12  14
ATOM     14  C   UNL     1      11.875   6.916  20.119  1.00  0.00    -0.005 C 
ATOM     15  C   UNL     1      12.743   7.115  21.110  1.00  0.00     0.009 C 
ENDBRANCH  12  14
ENDBRANCH  11  12
ENDBRANCH  10  11
ENDBRANCH   2  10
TORSDOF 7
ENDMDL
MODEL 6
REMARK VINA RESULT:    -3.524      1.250      5.000
REMARK INTER + INTRA:          -6.955
REMARK INTER:                  -4.887
REMARK INTRA:                  -2.068
REMARK UNBOUND:                -1.989
REMARK SMILES C=CC(=C)CCC=C(C)CCC=C(C)C
REMARK SMILES IDX 8 1 7 2 9 3 10 4 11 5 12 6 14 7 13 8 15 9 6 10 5 11 3 12
REMARK SMILES IDX 4 13 2 14 1 15
REMARK H PARENT
REMARK Flexibility Score: inf
ROOT
ATOM      1  C   UNL     1      12.955   6.361  16.099  1.00  0.00    -0.077 C 
ATOM      2  C   UNL     1      13.739   5.263  15.996  1.00  0.00    -0.028 C 
ATOM      3  C   UNL     1      13.532   7.754  16.181  1.00  0.00     0.039 C 
ENDROOT
BRANCH   1   4
ATOM      4  C   UNL     1      11.454   6.190  16.209  1.00  0.00     0.034 C 
BRANCH   4   5
ATOM      5  C   UNL     1      10.876   6.979  17.392  1.00  0.00     0.032 C 
BRANCH   5   6
ATOM      6  C   UNL     1      11.158   6.305  18.715  1.00  0.00    -0.028 C 
ATOM      7  C   UNL     1      12.028   6.118  21.023  1.00  0.00     0.039 C 
ATOM      8  C   UNL     1      11.835   6.877  19.736  1.00  0.00    -0.080 C 
ATOM      9  C   UNL     1      12.468   8.241  19.616  1.00  0.00     0.039 C 
ENDBRANCH   5   6
ENDBRANCH   4   5
ENDBRANCH   1   4
BRANCH   2  10
ATOM     10  C   UNL     1      15.244   5.290  15.897  1.00  0.00     0.032 C 
BRANCH  10  11
ATOM     11  C   UNL     1      15.887   4.544  17.070  1.00  0.00     0.039 C 
BRANCH  11  12
ATOM     12  C   UNL     1      15.504   5.184  18.388  1.00  0.00    -0.055 C 
ATOM     13  C   UNL     1      15.913   6.431  18.649  1.00  0.00     0.012 C 
BRANCH  12  14
ATOM     14  C   UNL     1      14.726   4.458  19.425  1.00  0.00    -0.005 C 
ATOM     15  C   UNL     1      13.954   3.400  19.174  1.00  0.00     0.009 C 
ENDBRANCH  12  14
ENDBRANCH  11  12
ENDBRANCH  10  11
ENDBRANCH   2  10
TORSDOF 7
ENDMDL
MODEL 7
REMARK VINA RESULT:    -3.358      1.369      4.487
REMARK INTER + INTRA:          -6.721
REMARK INTER:                  -4.880
REMARK INTRA:                  -1.841
REMARK UNBOUND:                -1.989
REMARK SMILES C=CC(=C)CCC=C(C)CCC=C(C)C
REMARK SMILES IDX 8 1 7 2 9 3 10 4 11 5 12 6 14 7 13 8 15 9 6 10 5 11 3 12
REMARK SMILES IDX 4 13 2 14 1 15
REMARK H PARENT
REMARK Flexibility Score: inf
ROOT
ATOM      1  C   UNL     1      13.278   6.601  20.093  1.00  0.00    -0.077 C 
ATOM      2  C   UNL     1      12.638   5.410  20.087  1.00  0.00    -0.028 C 
ATOM      3  C   UNL     1      14.733   6.732  19.709  1.00  0.00     0.039 C 
ENDROOT
BRANCH   1   4
ATOM      4  C   UNL     1      12.540   7.836  20.566  1.00  0.00     0.034 C 
BRANCH   4   5
ATOM      5  C   UNL     1      11.273   8.094  19.738  1.00  0.00     0.032 C 
BRANCH   5   6
ATOM      6  C   UNL     1      11.595   8.626  18.361  1.00  0.00    -0.028 C 
ATOM      7  C   UNL     1      11.713   8.596  15.890  1.00  0.00     0.039 C 
ATOM      8  C   UNL     1      11.381   7.949  17.210  1.00  0.00    -0.080 C 
ATOM      9  C   UNL     1      10.876   6.528  17.196  1.00  0.00     0.039 C 
ENDBRANCH   5   6
ENDBRANCH   4   5
ENDBRANCH   1   4
BRANCH   2  10
ATOM     10  C   UNL     1      13.259   4.104  19.656  1.00  0.00     0.032 C 
BRANCH  10  11
ATOM     11  C   UNL     1      12.992   3.830  18.172  1.00  0.00     0.039 C 
BRANCH  11  12
ATOM     12  C   UNL     1      14.288   3.810  17.389  1.00  0.00    -0.055 C 
ATOM     13  C   UNL     1      15.364   3.222  17.926  1.00  0.00     0.012 C 
BRANCH  12  14
ATOM     14  C   UNL     1      14.421   4.462  16.060  1.00  0.00    -0.005 C 
ATOM     15  C   UNL     1      14.537   5.778  15.883  1.00  0.00     0.009 C 
ENDBRANCH  12  14
ENDBRANCH  11  12
ENDBRANCH  10  11
ENDBRANCH   2  10
TORSDOF 7
ENDMDL
