MODEL 1
REMARK VINA RESULT:    -6.395      0.000      0.000
REMARK INTER + INTRA:          -7.103
REMARK INTER:                  -6.956
REMARK INTRA:                  -0.147
REMARK UNBOUND:                -0.147
REMARK SMILES CC(=O)[C@@H]1CC[C@@H]2[C@H]3CC=C4C[C@@H](O)CC[C@@]4(C)[C@H]3CC[C@@]21C
REMARK SMILES IDX 4 1 5 2 6 3 7 4 22 5 21 6 20 7 19 8 8 9 9 10 10 11 11 12
REMARK SMILES IDX 17 13 16 14 15 15 13 16 12 17 18 18 23 19 2 20 1 21 3 22
REMARK SMILES IDX 14 23
REMARK H PARENT 14 24
REMARK Flexibility Score: inf
ROOT
ATOM      1  C   UNL     1     -65.864 -80.359 226.107  1.00  0.00     0.062 C 
ATOM      2  C   UNL     1     -66.168 -78.950 226.619  1.00  0.00     0.012 C 
ATOM      3  C   UNL     1     -64.967 -78.091 226.227  1.00  0.00     0.005 C 
ATOM      4  C   UNL     1     -64.022 -78.982 225.397  1.00  0.00    -0.001 C 
ATOM      5  C   UNL     1     -64.888 -80.179 224.913  1.00  0.00    -0.020 C 
ATOM      6  C   UNL     1     -65.641 -79.833 223.596  1.00  0.00     0.008 C 
ATOM      7  C   UNL     1     -64.750 -79.192 222.523  1.00  0.00     0.005 C 
ATOM      8  C   UNL     1     -64.119 -77.879 223.043  1.00  0.00     0.003 C 
ATOM      9  C   UNL     1     -63.261 -78.172 224.303  1.00  0.00     0.000 C 
ATOM     10  C   UNL     1     -61.929 -78.846 223.932  1.00  0.00     0.031 C 
ATOM     11  C   UNL     1     -61.219 -78.165 222.801  1.00  0.00    -0.027 C 
ATOM     12  C   UNL     1     -61.848 -77.453 221.847  1.00  0.00    -0.065 C 
ATOM     13  C   UNL     1     -63.313 -77.018 221.977  1.00  0.00    -0.008 C 
ATOM     14  C   UNL     1     -63.973 -77.089 220.563  1.00  0.00     0.014 C 
ATOM     15  C   UNL     1     -63.161 -76.389 219.460  1.00  0.00     0.033 C 
ATOM     16  C   UNL     1     -61.738 -76.959 219.368  1.00  0.00     0.118 C 
ATOM     17  C   UNL     1     -61.014 -76.863 220.720  1.00  0.00     0.063 C 
ATOM     18  C   UNL     1     -63.331 -75.539 222.457  1.00  0.00     0.016 C 
ATOM     19  C   UNL     1     -64.074 -81.486 224.732  1.00  0.00     0.012 C 
ENDROOT
BRANCH   1  20
ATOM     20  C   UNL     1     -67.116 -81.175 225.818  1.00  0.00     0.133 C 
ATOM     21  C   UNL     1     -68.457 -80.513 225.694  1.00  0.00     0.088 C 
ATOM     22  O   UNL     1     -67.044 -82.385 225.669  1.00  0.00    -0.300 OA
ENDBRANCH   1  20
BRANCH  16  23
ATOM     23  O   UNL     1     -61.794 -78.297 218.941  1.00  0.00    -0.393 OA
ATOM     24  H   UNL     1     -62.292 -78.305 218.082  1.00  0.00     0.210 HD
ENDBRANCH  16  23
TORSDOF 2
ENDMDL
MODEL 2
REMARK VINA RESULT:    -6.204      8.816     10.544
REMARK INTER + INTRA:          -6.895
REMARK INTER:                  -6.748
REMARK INTRA:                  -0.147
REMARK UNBOUND:                -0.147
REMARK SMILES CC(=O)[C@@H]1CC[C@@H]2[C@H]3CC=C4C[C@@H](O)CC[C@@]4(C)[C@H]3CC[C@@]21C
REMARK SMILES IDX 4 1 5 2 6 3 7 4 22 5 21 6 20 7 19 8 8 9 9 10 10 11 11 12
REMARK SMILES IDX 17 13 16 14 15 15 13 16 12 17 18 18 23 19 2 20 1 21 3 22
REMARK SMILES IDX 14 23
REMARK H PARENT 14 24
REMARK Flexibility Score: inf
ROOT
ATOM      1  C   UNL     1     -73.586 -77.430 222.008  1.00  0.00     0.062 C 
ATOM      2  C   UNL     1     -73.221 -78.754 221.335  1.00  0.00     0.012 C 
ATOM      3  C   UNL     1     -73.533 -78.573 219.851  1.00  0.00     0.005 C 
ATOM      4  C   UNL     1     -73.977 -77.110 219.654  1.00  0.00    -0.001 C 
ATOM      5  C   UNL     1     -73.465 -76.342 220.905  1.00  0.00    -0.020 C 
ATOM      6  C   UNL     1     -71.994 -75.872 220.714  1.00  0.00     0.008 C 
ATOM      7  C   UNL     1     -71.735 -75.181 219.369  1.00  0.00     0.005 C 
ATOM      8  C   UNL     1     -72.065 -76.126 218.190  1.00  0.00     0.003 C 
ATOM      9  C   UNL     1     -73.556 -76.551 218.260  1.00  0.00     0.000 C 
ATOM     10  C   UNL     1     -74.487 -75.413 217.809  1.00  0.00     0.031 C 
ATOM     11  C   UNL     1     -74.051 -74.768 216.528  1.00  0.00    -0.027 C 
ATOM     12  C   UNL     1     -72.772 -74.735 216.108  1.00  0.00    -0.065 C 
ATOM     13  C   UNL     1     -71.676 -75.603 216.740  1.00  0.00    -0.008 C 
ATOM     14  C   UNL     1     -70.350 -74.778 216.763  1.00  0.00     0.014 C 
ATOM     15  C   UNL     1     -69.996 -74.128 215.414  1.00  0.00     0.033 C 
ATOM     16  C   UNL     1     -71.131 -73.221 214.918  1.00  0.00     0.118 C 
ATOM     17  C   UNL     1     -72.455 -73.994 214.818  1.00  0.00     0.063 C 
ATOM     18  C   UNL     1     -71.469 -76.847 215.831  1.00  0.00     0.016 C 
ATOM     19  C   UNL     1     -74.362 -75.139 221.290  1.00  0.00     0.012 C 
ENDROOT
BRANCH   1  20
ATOM     20  C   UNL     1     -72.797 -77.167 223.282  1.00  0.00     0.133 C 
ATOM     21  C   UNL     1     -71.570 -77.966 223.609  1.00  0.00     0.088 C 
ATOM     22  O   UNL     1     -73.145 -76.287 224.055  1.00  0.00    -0.300 OA
ENDBRANCH   1  20
BRANCH  16  23
ATOM     23  O   UNL     1     -71.272 -72.126 215.788  1.00  0.00    -0.393 OA
ATOM     24  H   UNL     1     -71.173 -71.306 215.236  1.00  0.00     0.210 HD
ENDBRANCH  16  23
TORSDOF 2
ENDMDL
MODEL 3
REMARK VINA RESULT:    -6.122      8.783     11.602
REMARK INTER + INTRA:          -6.806
REMARK INTER:                  -6.819
REMARK INTRA:                   0.013
REMARK UNBOUND:                -0.147
REMARK SMILES CC(=O)[C@@H]1CC[C@@H]2[C@H]3CC=C4C[C@@H](O)CC[C@@]4(C)[C@H]3CC[C@@]21C
REMARK SMILES IDX 4 1 5 2 6 3 7 4 22 5 21 6 20 7 19 8 8 9 9 10 10 11 11 12
REMARK SMILES IDX 17 13 16 14 15 15 13 16 12 17 18 18 23 19 2 20 1 21 3 22
REMARK SMILES IDX 14 23
REMARK H PARENT 14 24
REMARK Flexibility Score: inf
ROOT
ATOM      1  C   UNL     1     -66.877 -76.775 214.426  1.00  0.00     0.062 C 
ATOM      2  C   UNL     1     -66.352 -76.055 215.670  1.00  0.00     0.012 C 
ATOM      3  C   UNL     1     -67.466 -75.106 216.109  1.00  0.00     0.005 C 
ATOM      4  C   UNL     1     -68.670 -75.358 215.181  1.00  0.00    -0.001 C 
ATOM      5  C   UNL     1     -68.425 -76.754 214.541  1.00  0.00    -0.020 C 
ATOM      6  C   UNL     1     -68.954 -77.894 215.458  1.00  0.00     0.008 C 
ATOM      7  C   UNL     1     -70.375 -77.655 215.987  1.00  0.00     0.005 C 
ATOM      8  C   UNL     1     -70.446 -76.345 216.806  1.00  0.00     0.003 C 
ATOM      9  C   UNL     1     -70.031 -75.145 215.913  1.00  0.00     0.000 C 
ATOM     10  C   UNL     1     -71.147 -74.767 214.924  1.00  0.00     0.031 C 
ATOM     11  C   UNL     1     -72.496 -74.667 215.568  1.00  0.00    -0.027 C 
ATOM     12  C   UNL     1     -72.846 -75.348 216.677  1.00  0.00    -0.065 C 
ATOM     13  C   UNL     1     -71.816 -76.063 217.561  1.00  0.00    -0.008 C 
ATOM     14  C   UNL     1     -72.461 -77.382 218.095  1.00  0.00     0.014 C 
ATOM     15  C   UNL     1     -73.857 -77.188 218.712  1.00  0.00     0.033 C 
ATOM     16  C   UNL     1     -74.823 -76.538 217.712  1.00  0.00     0.118 C 
ATOM     17  C   UNL     1     -74.268 -75.202 217.194  1.00  0.00     0.063 C 
ATOM     18  C   UNL     1     -71.504 -75.139 218.772  1.00  0.00     0.016 C 
ATOM     19  C   UNL     1     -69.033 -76.889 213.122  1.00  0.00     0.012 C 
ENDROOT
BRANCH   1  20
ATOM     20  C   UNL     1     -66.250 -78.146 214.218  1.00  0.00     0.133 C 
ATOM     21  C   UNL     1     -65.810 -78.594 212.855  1.00  0.00     0.088 C 
ATOM     22  O   UNL     1     -66.082 -78.900 215.164  1.00  0.00    -0.300 OA
ENDBRANCH   1  20
BRANCH  16  23
ATOM     23  O   UNL     1     -75.053 -77.417 216.640  1.00  0.00    -0.393 OA
ATOM     24  H   UNL     1     -75.957 -77.806 216.777  1.00  0.00     0.210 HD
ENDBRANCH  16  23
TORSDOF 2
ENDMDL
MODEL 4
REMARK VINA RESULT:    -6.103      1.913      6.632
REMARK INTER + INTRA:          -6.785
REMARK INTER:                  -7.300
REMARK INTRA:                   0.514
REMARK UNBOUND:                -0.147
REMARK SMILES CC(=O)[C@@H]1CC[C@@H]2[C@H]3CC=C4C[C@@H](O)CC[C@@]4(C)[C@H]3CC[C@@]21C
REMARK SMILES IDX 4 1 5 2 6 3 7 4 22 5 21 6 20 7 19 8 8 9 9 10 10 11 11 12
REMARK SMILES IDX 17 13 16 14 15 15 13 16 12 17 18 18 23 19 2 20 1 21 3 22
REMARK SMILES IDX 14 23
REMARK H PARENT 14 24
REMARK Flexibility Score: inf
ROOT
ATOM      1  C   UNL     1     -61.080 -77.786 220.191  1.00  0.00     0.062 C 
ATOM      2  C   UNL     1     -61.310 -79.260 219.857  1.00  0.00     0.012 C 
ATOM      3  C   UNL     1     -61.839 -79.906 221.136  1.00  0.00     0.005 C 
ATOM      4  C   UNL     1     -62.014 -78.781 222.175  1.00  0.00    -0.001 C 
ATOM      5  C   UNL     1     -62.049 -77.457 221.360  1.00  0.00    -0.020 C 
ATOM      6  C   UNL     1     -63.485 -77.146 220.852  1.00  0.00     0.008 C 
ATOM      7  C   UNL     1     -64.567 -77.280 221.932  1.00  0.00     0.005 C 
ATOM      8  C   UNL     1     -64.592 -78.713 222.513  1.00  0.00     0.003 C 
ATOM      9  C   UNL     1     -63.212 -79.050 223.137  1.00  0.00     0.000 C 
ATOM     10  C   UNL     1     -63.016 -78.341 224.487  1.00  0.00     0.031 C 
ATOM     11  C   UNL     1     -64.196 -78.477 225.400  1.00  0.00    -0.027 C 
ATOM     12  C   UNL     1     -65.458 -78.660 224.966  1.00  0.00    -0.065 C 
ATOM     13  C   UNL     1     -65.780 -79.042 223.516  1.00  0.00    -0.008 C 
ATOM     14  C   UNL     1     -67.102 -78.319 223.101  1.00  0.00     0.014 C 
ATOM     15  C   UNL     1     -68.250 -78.488 224.111  1.00  0.00     0.033 C 
ATOM     16  C   UNL     1     -67.839 -78.000 225.508  1.00  0.00     0.118 C 
ATOM     17  C   UNL     1     -66.574 -78.721 225.997  1.00  0.00     0.063 C 
ATOM     18  C   UNL     1     -66.022 -80.578 223.471  1.00  0.00     0.016 C 
ATOM     19  C   UNL     1     -61.489 -76.244 222.146  1.00  0.00     0.012 C 
ENDROOT
BRANCH   1  20
ATOM     20  C   UNL     1     -61.177 -76.873 218.978  1.00  0.00     0.133 C 
ATOM     21  C   UNL     1     -59.949 -76.468 218.217  1.00  0.00     0.088 C 
ATOM     22  O   UNL     1     -62.263 -76.466 218.596  1.00  0.00    -0.300 OA
ENDBRANCH   1  20
BRANCH  16  23
ATOM     23  O   UNL     1     -67.626 -76.611 225.477  1.00  0.00    -0.393 OA
ATOM     24  H   UNL     1     -68.491 -76.182 225.711  1.00  0.00     0.210 HD
ENDBRANCH  16  23
TORSDOF 2
ENDMDL
MODEL 5
REMARK VINA RESULT:    -6.093      3.997      6.998
REMARK INTER + INTRA:          -6.774
REMARK INTER:                  -6.628
REMARK INTRA:                  -0.146
REMARK UNBOUND:                -0.147
REMARK SMILES CC(=O)[C@@H]1CC[C@@H]2[C@H]3CC=C4C[C@@H](O)CC[C@@]4(C)[C@H]3CC[C@@]21C
REMARK SMILES IDX 4 1 5 2 6 3 7 4 22 5 21 6 20 7 19 8 8 9 9 10 10 11 11 12
REMARK SMILES IDX 17 13 16 14 15 15 13 16 12 17 18 18 23 19 2 20 1 21 3 22
REMARK SMILES IDX 14 23
REMARK H PARENT 14 24
REMARK Flexibility Score: inf
ROOT
ATOM      1  C   UNL     1     -60.983 -79.706 221.438  1.00  0.00     0.062 C 
ATOM      2  C   UNL     1     -59.587 -79.637 222.060  1.00  0.00     0.012 C 
ATOM      3  C   UNL     1     -58.603 -79.681 220.892  1.00  0.00     0.005 C 
ATOM      4  C   UNL     1     -59.435 -79.667 219.595  1.00  0.00    -0.001 C 
ATOM      5  C   UNL     1     -60.839 -79.136 220.000  1.00  0.00    -0.020 C 
ATOM      6  C   UNL     1     -60.878 -77.581 219.986  1.00  0.00     0.008 C 
ATOM      7  C   UNL     1     -60.283 -76.957 218.716  1.00  0.00     0.005 C 
ATOM      8  C   UNL     1     -58.804 -77.375 218.538  1.00  0.00     0.003 C 
ATOM      9  C   UNL     1     -58.704 -78.920 218.437  1.00  0.00     0.000 C 
ATOM     10  C   UNL     1     -59.172 -79.425 217.061  1.00  0.00     0.031 C 
ATOM     11  C   UNL     1     -58.582 -78.655 215.919  1.00  0.00    -0.027 C 
ATOM     12  C   UNL     1     -58.181 -77.373 216.012  1.00  0.00    -0.065 C 
ATOM     13  C   UNL     1     -58.011 -76.661 217.360  1.00  0.00    -0.008 C 
ATOM     14  C   UNL     1     -58.454 -75.173 217.187  1.00  0.00     0.014 C 
ATOM     15  C   UNL     1     -57.822 -74.471 215.973  1.00  0.00     0.033 C 
ATOM     16  C   UNL     1     -58.123 -75.228 214.672  1.00  0.00     0.118 C 
ATOM     17  C   UNL     1     -57.655 -76.689 214.760  1.00  0.00     0.063 C 
ATOM     18  C   UNL     1     -56.500 -76.688 217.727  1.00  0.00     0.016 C 
ATOM     19  C   UNL     1     -61.982 -79.704 219.121  1.00  0.00     0.012 C 
ENDROOT
BRANCH   1  20
ATOM     20  C   UNL     1     -62.056 -79.056 222.300  1.00  0.00     0.133 C 
ATOM     21  C   UNL     1     -61.690 -78.112 223.407  1.00  0.00     0.088 C 
ATOM     22  O   UNL     1     -63.238 -79.284 222.092  1.00  0.00    -0.300 OA
ENDBRANCH   1  20
BRANCH  16  23
ATOM     23  O   UNL     1     -59.502 -75.175 214.405  1.00  0.00    -0.393 OA
ATOM     24  H   UNL     1     -59.891 -76.031 214.728  1.00  0.00     0.210 HD
ENDBRANCH  16  23
TORSDOF 2
ENDMDL
MODEL 6
REMARK VINA RESULT:    -6.040      9.437     11.002
REMARK INTER + INTRA:          -6.717
REMARK INTER:                  -6.571
REMARK INTRA:                  -0.146
REMARK UNBOUND:                -0.147
REMARK SMILES CC(=O)[C@@H]1CC[C@@H]2[C@H]3CC=C4C[C@@H](O)CC[C@@]4(C)[C@H]3CC[C@@]21C
REMARK SMILES IDX 4 1 5 2 6 3 7 4 22 5 21 6 20 7 19 8 8 9 9 10 10 11 11 12
REMARK SMILES IDX 17 13 16 14 15 15 13 16 12 17 18 18 23 19 2 20 1 21 3 22
REMARK SMILES IDX 14 23
REMARK H PARENT 14 24
REMARK Flexibility Score: inf
ROOT
ATOM      1  C   UNL     1     -72.514 -75.050 216.326  1.00  0.00     0.062 C 
ATOM      2  C   UNL     1     -71.478 -74.159 217.014  1.00  0.00     0.012 C 
ATOM      3  C   UNL     1     -70.255 -75.041 217.253  1.00  0.00     0.005 C 
ATOM      4  C   UNL     1     -70.547 -76.410 216.607  1.00  0.00    -0.001 C 
ATOM      5  C   UNL     1     -71.707 -76.162 215.601  1.00  0.00    -0.020 C 
ATOM      6  C   UNL     1     -71.165 -75.681 214.225  1.00  0.00     0.008 C 
ATOM      7  C   UNL     1     -70.001 -76.525 213.688  1.00  0.00     0.005 C 
ATOM      8  C   UNL     1     -68.809 -76.511 214.674  1.00  0.00     0.003 C 
ATOM      9  C   UNL     1     -69.256 -77.082 216.046  1.00  0.00     0.000 C 
ATOM     10  C   UNL     1     -69.398 -78.613 215.999  1.00  0.00     0.031 C 
ATOM     11  C   UNL     1     -68.227 -79.293 215.358  1.00  0.00    -0.027 C 
ATOM     12  C   UNL     1     -67.437 -78.709 214.437  1.00  0.00    -0.065 C 
ATOM     13  C   UNL     1     -67.470 -77.199 214.166  1.00  0.00    -0.008 C 
ATOM     14  C   UNL     1     -67.251 -76.972 212.636  1.00  0.00     0.014 C 
ATOM     15  C   UNL     1     -66.044 -77.732 212.058  1.00  0.00     0.033 C 
ATOM     16  C   UNL     1     -66.158 -79.240 212.320  1.00  0.00     0.118 C 
ATOM     17  C   UNL     1     -66.316 -79.532 213.820  1.00  0.00     0.063 C 
ATOM     18  C   UNL     1     -66.285 -76.550 214.936  1.00  0.00     0.016 C 
ATOM     19  C   UNL     1     -72.622 -77.398 215.410  1.00  0.00     0.012 C 
ENDROOT
BRANCH   1  20
ATOM     20  C   UNL     1     -73.492 -74.272 215.457  1.00  0.00     0.133 C 
ATOM     21  C   UNL     1     -73.190 -72.868 215.022  1.00  0.00     0.088 C 
ATOM     22  O   UNL     1     -74.535 -74.788 215.087  1.00  0.00    -0.300 OA
ENDBRANCH   1  20
BRANCH  16  23
ATOM     23  O   UNL     1     -67.251 -79.761 211.606  1.00  0.00    -0.393 OA
ATOM     24  H   UNL     1     -67.179 -79.414 210.678  1.00  0.00     0.210 HD
ENDBRANCH  16  23
TORSDOF 2
ENDMDL
MODEL 7
REMARK VINA RESULT:    -5.918      3.202      5.511
REMARK INTER + INTRA:          -6.584
REMARK INTER:                  -6.449
REMARK INTRA:                  -0.135
REMARK UNBOUND:                -0.147
REMARK SMILES CC(=O)[C@@H]1CC[C@@H]2[C@H]3CC=C4C[C@@H](O)CC[C@@]4(C)[C@H]3CC[C@@]21C
REMARK SMILES IDX 4 1 5 2 6 3 7 4 22 5 21 6 20 7 19 8 8 9 9 10 10 11 11 12
REMARK SMILES IDX 17 13 16 14 15 15 13 16 12 17 18 18 23 19 2 20 1 21 3 22
REMARK SMILES IDX 14 23
REMARK H PARENT 14 24
REMARK Flexibility Score: inf
ROOT
ATOM      1  C   UNL     1     -64.161 -77.886 222.162  1.00  0.00     0.062 C 
ATOM      2  C   UNL     1     -64.754 -78.921 221.206  1.00  0.00     0.012 C 
ATOM      3  C   UNL     1     -64.008 -78.750 219.884  1.00  0.00     0.005 C 
ATOM      4  C   UNL     1     -62.913 -77.689 220.113  1.00  0.00    -0.001 C 
ATOM      5  C   UNL     1     -62.720 -77.609 221.654  1.00  0.00    -0.020 C 
ATOM      6  C   UNL     1     -61.713 -78.687 222.151  1.00  0.00     0.008 C 
ATOM      7  C   UNL     1     -60.418 -78.750 221.330  1.00  0.00     0.005 C 
ATOM      8  C   UNL     1     -60.721 -79.063 219.846  1.00  0.00     0.003 C 
ATOM      9  C   UNL     1     -61.640 -77.962 219.254  1.00  0.00     0.000 C 
ATOM     10  C   UNL     1     -60.861 -76.665 218.980  1.00  0.00     0.031 C 
ATOM     11  C   UNL     1     -59.568 -76.896 218.257  1.00  0.00    -0.027 C 
ATOM     12  C   UNL     1     -58.869 -78.045 218.329  1.00  0.00    -0.065 C 
ATOM     13  C   UNL     1     -59.462 -79.333 218.914  1.00  0.00    -0.008 C 
ATOM     14  C   UNL     1     -58.330 -80.088 219.682  1.00  0.00     0.014 C 
ATOM     15  C   UNL     1     -57.031 -80.254 218.873  1.00  0.00     0.033 C 
ATOM     16  C   UNL     1     -56.488 -78.896 218.407  1.00  0.00     0.118 C 
ATOM     17  C   UNL     1     -57.540 -78.128 217.593  1.00  0.00     0.063 C 
ATOM     18  C   UNL     1     -59.934 -80.222 217.730  1.00  0.00     0.016 C 
ATOM     19  C   UNL     1     -62.279 -76.206 222.141  1.00  0.00     0.012 C 
ENDROOT
BRANCH   1  20
ATOM     20  C   UNL     1     -64.278 -78.286 223.626  1.00  0.00     0.133 C 
ATOM     21  C   UNL     1     -64.461 -79.722 224.022  1.00  0.00     0.088 C 
ATOM     22  O   UNL     1     -64.211 -77.441 224.505  1.00  0.00    -0.300 OA
ENDBRANCH   1  20
BRANCH  16  23
ATOM     23  O   UNL     1     -56.090 -78.140 219.523  1.00  0.00    -0.393 OA
ATOM     24  H   UNL     1     -56.510 -78.559 220.319  1.00  0.00     0.210 HD
ENDBRANCH  16  23
TORSDOF 2
ENDMDL
MODEL 8
REMARK VINA RESULT:    -5.847      9.275     10.788
REMARK INTER + INTRA:          -6.507
REMARK INTER:                  -6.385
REMARK INTRA:                  -0.122
REMARK UNBOUND:                -0.147
REMARK SMILES CC(=O)[C@@H]1CC[C@@H]2[C@H]3CC=C4C[C@@H](O)CC[C@@]4(C)[C@H]3CC[C@@]21C
REMARK SMILES IDX 4 1 5 2 6 3 7 4 22 5 21 6 20 7 19 8 8 9 9 10 10 11 11 12
REMARK SMILES IDX 17 13 16 14 15 15 13 16 12 17 18 18 23 19 2 20 1 21 3 22
REMARK SMILES IDX 14 23
REMARK H PARENT 14 24
REMARK Flexibility Score: inf
ROOT
ATOM      1  C   UNL     1     -73.091 -74.754 216.820  1.00  0.00     0.062 C 
ATOM      2  C   UNL     1     -73.452 -74.454 215.364  1.00  0.00     0.012 C 
ATOM      3  C   UNL     1     -72.125 -74.294 214.625  1.00  0.00     0.005 C 
ATOM      4  C   UNL     1     -71.002 -74.607 215.633  1.00  0.00    -0.001 C 
ATOM      5  C   UNL     1     -71.680 -75.401 216.786  1.00  0.00    -0.020 C 
ATOM      6  C   UNL     1     -71.746 -76.920 216.460  1.00  0.00     0.008 C 
ATOM      7  C   UNL     1     -70.420 -77.504 215.954  1.00  0.00     0.005 C 
ATOM      8  C   UNL     1     -69.957 -76.784 214.666  1.00  0.00     0.003 C 
ATOM      9  C   UNL     1     -69.766 -75.270 214.950  1.00  0.00     0.000 C 
ATOM     10  C   UNL     1     -68.477 -75.004 215.745  1.00  0.00     0.031 C 
ATOM     11  C   UNL     1     -67.284 -75.720 215.188  1.00  0.00    -0.027 C 
ATOM     12  C   UNL     1     -67.362 -76.867 214.487  1.00  0.00    -0.065 C 
ATOM     13  C   UNL     1     -68.689 -77.403 213.933  1.00  0.00    -0.008 C 
ATOM     14  C   UNL     1     -68.669 -78.961 214.035  1.00  0.00     0.014 C 
ATOM     15  C   UNL     1     -67.395 -79.608 213.466  1.00  0.00     0.033 C 
ATOM     16  C   UNL     1     -66.136 -79.054 214.149  1.00  0.00     0.118 C 
ATOM     17  C   UNL     1     -66.069 -77.524 214.030  1.00  0.00     0.063 C 
ATOM     18  C   UNL     1     -68.774 -77.007 212.432  1.00  0.00     0.016 C 
ATOM     19  C   UNL     1     -70.997 -75.181 218.160  1.00  0.00     0.012 C 
ENDROOT
BRANCH   1  20
ATOM     20  C   UNL     1     -74.163 -75.549 217.552  1.00  0.00     0.133 C 
ATOM     21  C   UNL     1     -75.124 -76.423 216.801  1.00  0.00     0.088 C 
ATOM     22  O   UNL     1     -74.248 -75.497 218.769  1.00  0.00    -0.300 OA
ENDBRANCH   1  20
BRANCH  16  23
ATOM     23  O   UNL     1     -66.127 -79.437 215.501  1.00  0.00    -0.393 OA
ATOM     24  H   UNL     1     -66.335 -80.408 215.527  1.00  0.00     0.210 HD
ENDBRANCH  16  23
TORSDOF 2
ENDMDL
MODEL 9
REMARK VINA RESULT:    -5.834      9.554     11.668
REMARK INTER + INTRA:          -6.492
REMARK INTER:                  -6.425
REMARK INTRA:                  -0.068
REMARK UNBOUND:                -0.147
REMARK SMILES CC(=O)[C@@H]1CC[C@@H]2[C@H]3CC=C4C[C@@H](O)CC[C@@]4(C)[C@H]3CC[C@@]21C
REMARK SMILES IDX 4 1 5 2 6 3 7 4 22 5 21 6 20 7 19 8 8 9 9 10 10 11 11 12
REMARK SMILES IDX 17 13 16 14 15 15 13 16 12 17 18 18 23 19 2 20 1 21 3 22
REMARK SMILES IDX 14 23
REMARK H PARENT 14 24
REMARK Flexibility Score: inf
ROOT
ATOM      1  C   UNL     1     -66.769 -79.641 213.420  1.00  0.00     0.062 C 
ATOM      2  C   UNL     1     -67.436 -80.567 214.438  1.00  0.00     0.012 C 
ATOM      3  C   UNL     1     -67.922 -79.666 215.572  1.00  0.00     0.005 C 
ATOM      4  C   UNL     1     -67.630 -78.211 215.154  1.00  0.00    -0.001 C 
ATOM      5  C   UNL     1     -67.427 -78.248 213.613  1.00  0.00    -0.020 C 
ATOM      6  C   UNL     1     -68.786 -78.140 212.864  1.00  0.00     0.008 C 
ATOM      7  C   UNL     1     -69.690 -77.011 213.380  1.00  0.00     0.005 C 
ATOM      8  C   UNL     1     -70.013 -77.206 214.879  1.00  0.00     0.003 C 
ATOM      9  C   UNL     1     -68.698 -77.216 215.703  1.00  0.00     0.000 C 
ATOM     10  C   UNL     1     -68.118 -75.799 215.855  1.00  0.00     0.031 C 
ATOM     11  C   UNL     1     -69.142 -74.786 216.268  1.00  0.00    -0.027 C 
ATOM     12  C   UNL     1     -70.456 -74.899 215.998  1.00  0.00    -0.065 C 
ATOM     13  C   UNL     1     -71.083 -76.209 215.502  1.00  0.00    -0.008 C 
ATOM     14  C   UNL     1     -72.206 -75.856 214.475  1.00  0.00     0.014 C 
ATOM     15  C   UNL     1     -73.193 -74.786 214.973  1.00  0.00     0.033 C 
ATOM     16  C   UNL     1     -72.462 -73.494 215.367  1.00  0.00     0.118 C 
ATOM     17  C   UNL     1     -71.380 -73.768 216.422  1.00  0.00     0.063 C 
ATOM     18  C   UNL     1     -71.734 -76.918 216.723  1.00  0.00     0.016 C 
ATOM     19  C   UNL     1     -66.450 -77.159 213.101  1.00  0.00     0.012 C 
ENDROOT
BRANCH   1  20
ATOM     20  C   UNL     1     -66.796 -80.192 212.001  1.00  0.00     0.133 C 
ATOM     21  C   UNL     1     -65.810 -79.724 210.972  1.00  0.00     0.088 C 
ATOM     22  O   UNL     1     -67.618 -81.038 211.682  1.00  0.00    -0.300 OA
ENDBRANCH   1  20
BRANCH  16  23
ATOM     23  O   UNL     1     -71.889 -72.910 214.224  1.00  0.00    -0.393 OA
ATOM     24  H   UNL     1     -72.302 -73.354 213.437  1.00  0.00     0.210 HD
ENDBRANCH  16  23
TORSDOF 2
ENDMDL
