MODEL 1
REMARK VINA RESULT:     0.570      0.000      0.000
REMARK INTER + INTRA:           2.461
REMARK INTER:                   1.302
REMARK INTRA:                   1.159
REMARK UNBOUND:                 1.159
REMARK SMILES CCCCCCCCCCCCCCCCCCCCCCCC(=O)[O-]
REMARK SMILES IDX 13 1 14 2 15 3 16 4 17 5 18 6 19 7 20 8 21 9 22 10 23 11
REMARK SMILES IDX 24 12 25 13 26 14 12 15 11 16 10 17 9 18 8 19 7 20 6 21 5 22
REMARK SMILES IDX 4 23 3 24 2 25 1 26
REMARK H PARENT
REMARK Flexibility Score: inf
ROOT
ATOM      1  C   UNL     1      24.124  18.879  25.686  1.00  0.00     0.000 C 
ENDROOT
BRANCH   1   2
ATOM      2  C   UNL     1      23.581  19.100  24.263  1.00  0.00     0.000 C 
BRANCH   2   3
ATOM      3  C   UNL     1      24.617  18.929  23.138  1.00  0.00     0.000 C 
BRANCH   3   4
ATOM      4  C   UNL     1      26.067  18.907  23.653  1.00  0.00     0.000 C 
BRANCH   4   5
ATOM      5  C   UNL     1      27.094  19.144  22.529  1.00  0.00     0.000 C 
BRANCH   5   6
ATOM      6  C   UNL     1      28.554  18.876  22.944  1.00  0.00     0.000 C 
BRANCH   6   7
ATOM      7  C   UNL     1      29.589  19.778  22.243  1.00  0.00     0.000 C 
BRANCH   7   8
ATOM      8  C   UNL     1      30.819  20.056  23.124  1.00  0.00     0.000 C 
BRANCH   8   9
ATOM      9  C   UNL     1      30.621  21.259  24.059  1.00  0.00     0.000 C 
BRANCH   9  10
ATOM     10  C   UNL     1      29.141  21.498  24.409  1.00  0.00     0.006 C 
BRANCH  10  11
ATOM     11  C   UNL     1      28.827  21.148  25.869  1.00  0.00     0.053 C 
BRANCH  11  12
ATOM     12  C   UNL     1      27.364  20.903  26.085  1.00  0.00     0.041 C 
ATOM     13  O   UNL     1      26.980  19.927  26.781  1.00  0.00    -0.550 OA
ATOM     14  O   UNL     1      26.425  21.761  25.527  1.00  0.00    -0.550 OA
ENDBRANCH  11  12
ENDBRANCH  10  11
ENDBRANCH   9  10
ENDBRANCH   8   9
ENDBRANCH   7   8
ENDBRANCH   6   7
ENDBRANCH   5   6
ENDBRANCH   4   5
ENDBRANCH   3   4
ENDBRANCH   2   3
ENDBRANCH   1   2
BRANCH   1  15
ATOM     15  C   UNL     1      23.413  19.741  26.740  1.00  0.00     0.000 C 
BRANCH  15  16
ATOM     16  C   UNL     1      22.929  18.877  27.914  1.00  0.00     0.000 C 
BRANCH  16  17
ATOM     17  C   UNL     1      21.641  19.415  28.560  1.00  0.00     0.000 C 
BRANCH  17  18
ATOM     18  C   UNL     1      21.333  20.865  28.146  1.00  0.00    -0.000 C 
BRANCH  18  19
ATOM     19  C   UNL     1      22.418  21.455  27.231  1.00  0.00    -0.000 C 
BRANCH  19  20
ATOM     20  C   UNL     1      22.470  22.991  27.292  1.00  0.00    -0.000 C 
BRANCH  20  21
ATOM     21  C   UNL     1      23.760  23.572  26.688  1.00  0.00    -0.000 C 
BRANCH  21  22
ATOM     22  C   UNL     1      24.404  24.727  27.486  1.00  0.00    -0.000 C 
BRANCH  22  23
ATOM     23  C   UNL     1      25.268  25.697  26.655  1.00  0.00    -0.000 C 
BRANCH  23  24
ATOM     24  C   UNL     1      25.352  25.328  25.156  1.00  0.00    -0.000 C 
BRANCH  24  25
ATOM     25  C   UNL     1      25.467  26.552  24.232  1.00  0.00    -0.003 C 
ATOM     26  C   UNL     1      24.285  27.508  24.366  1.00  0.00     0.004 C 
ENDBRANCH  24  25
ENDBRANCH  23  24
ENDBRANCH  22  23
ENDBRANCH  21  22
ENDBRANCH  20  21
ENDBRANCH  19  20
ENDBRANCH  18  19
ENDBRANCH  17  18
ENDBRANCH  16  17
ENDBRANCH  15  16
ENDBRANCH   1  15
TORSDOF 22
ENDMDL
MODEL 2
REMARK VINA RESULT:     0.957      1.833      6.615
REMARK INTER + INTRA:           3.346
REMARK INTER:                   4.426
REMARK INTRA:                  -1.079
REMARK UNBOUND:                 1.159
REMARK SMILES CCCCCCCCCCCCCCCCCCCCCCCC(=O)[O-]
REMARK SMILES IDX 13 1 14 2 15 3 16 4 17 5 18 6 19 7 20 8 21 9 22 10 23 11
REMARK SMILES IDX 24 12 25 13 26 14 12 15 11 16 10 17 9 18 8 19 7 20 6 21 5 22
REMARK SMILES IDX 4 23 3 24 2 25 1 26
REMARK H PARENT
REMARK Flexibility Score: inf
ROOT
ATOM      1  C   UNL     1      23.326  18.883  27.938  1.00  0.00     0.000 C 
ENDROOT
BRANCH   1   2
ATOM      2  C   UNL     1      21.805  19.120  27.892  1.00  0.00     0.000 C 
BRANCH   2   3
ATOM      3  C   UNL     1      21.268  20.098  28.952  1.00  0.00     0.000 C 
BRANCH   3   4
ATOM      4  C   UNL     1      20.422  21.232  28.349  1.00  0.00     0.000 C 
BRANCH   4   5
ATOM      5  C   UNL     1      21.117  21.913  27.153  1.00  0.00     0.000 C 
BRANCH   5   6
ATOM      6  C   UNL     1      22.464  22.577  27.503  1.00  0.00     0.000 C 
BRANCH   6   7
ATOM      7  C   UNL     1      23.507  22.532  26.370  1.00  0.00     0.000 C 
BRANCH   7   8
ATOM      8  C   UNL     1      24.846  23.170  26.777  1.00  0.00     0.000 C 
BRANCH   8   9
ATOM      9  C   UNL     1      24.693  24.206  27.901  1.00  0.00     0.000 C 
BRANCH   9  10
ATOM     10  C   UNL     1      24.285  25.593  27.375  1.00  0.00     0.006 C 
BRANCH  10  11
ATOM     11  C   UNL     1      25.310  26.161  26.384  1.00  0.00     0.053 C 
BRANCH  11  12
ATOM     12  C   UNL     1      24.955  25.839  24.965  1.00  0.00     0.041 C 
ATOM     13  O   UNL     1      24.015  25.040  24.711  1.00  0.00    -0.550 OA
ATOM     14  O   UNL     1      25.655  26.430  23.920  1.00  0.00    -0.550 OA
ENDBRANCH  11  12
ENDBRANCH  10  11
ENDBRANCH   9  10
ENDBRANCH   8   9
ENDBRANCH   7   8
ENDBRANCH   6   7
ENDBRANCH   5   6
ENDBRANCH   4   5
ENDBRANCH   3   4
ENDBRANCH   2   3
ENDBRANCH   1   2
BRANCH   1  15
ATOM     15  C   UNL     1      23.979  18.913  26.548  1.00  0.00     0.000 C 
BRANCH  15  16
ATOM     16  C   UNL     1      23.058  19.599  25.528  1.00  0.00     0.000 C 
BRANCH  16  17
ATOM     17  C   UNL     1      23.025  18.875  24.172  1.00  0.00     0.000 C 
BRANCH  17  18
ATOM     18  C   UNL     1      24.134  19.355  23.219  1.00  0.00    -0.000 C 
BRANCH  18  19
ATOM     19  C   UNL     1      25.541  19.067  23.767  1.00  0.00    -0.000 C 
BRANCH  19  20
ATOM     20  C   UNL     1      26.449  20.309  23.743  1.00  0.00    -0.000 C 
BRANCH  20  21
ATOM     21  C   UNL     1      27.455  20.338  24.906  1.00  0.00    -0.000 C 
BRANCH  21  22
ATOM     22  C   UNL     1      28.276  19.045  25.104  1.00  0.00    -0.000 C 
BRANCH  22  23
ATOM     23  C   UNL     1      29.537  18.927  24.225  1.00  0.00    -0.000 C 
BRANCH  23  24
ATOM     24  C   UNL     1      30.047  20.281  23.684  1.00  0.00    -0.000 C 
BRANCH  24  25
ATOM     25  C   UNL     1      30.581  20.202  22.244  1.00  0.00    -0.003 C 
ATOM     26  C   UNL     1      30.127  18.940  21.514  1.00  0.00     0.004 C 
ENDBRANCH  24  25
ENDBRANCH  23  24
ENDBRANCH  22  23
ENDBRANCH  21  22
ENDBRANCH  20  21
ENDBRANCH  19  20
ENDBRANCH  18  19
ENDBRANCH  17  18
ENDBRANCH  16  17
ENDBRANCH  15  16
ENDBRANCH   1  15
TORSDOF 22
ENDMDL
MODEL 3
REMARK VINA RESULT:     1.115      2.048      7.077
REMARK INTER + INTRA:           3.707
REMARK INTER:                   2.391
REMARK INTRA:                   1.316
REMARK UNBOUND:                 1.159
REMARK SMILES CCCCCCCCCCCCCCCCCCCCCCCC(=O)[O-]
REMARK SMILES IDX 13 1 14 2 15 3 16 4 17 5 18 6 19 7 20 8 21 9 22 10 23 11
REMARK SMILES IDX 24 12 25 13 26 14 12 15 11 16 10 17 9 18 8 19 7 20 6 21 5 22
REMARK SMILES IDX 4 23 3 24 2 25 1 26
REMARK H PARENT
REMARK Flexibility Score: inf
ROOT
ATOM      1  C   UNL     1      22.901  18.926  25.750  1.00  0.00     0.000 C 
ENDROOT
BRANCH   1   2
ATOM      2  C   UNL     1      23.517  18.968  27.160  1.00  0.00     0.000 C 
BRANCH   2   3
ATOM      3  C   UNL     1      22.498  19.034  28.312  1.00  0.00     0.000 C 
BRANCH   3   4
ATOM      4  C   UNL     1      21.300  19.947  28.003  1.00  0.00     0.000 C 
BRANCH   4   5
ATOM      5  C   UNL     1      21.715  21.419  27.813  1.00  0.00     0.000 C 
BRANCH   5   6
ATOM      6  C   UNL     1      22.596  21.670  26.572  1.00  0.00     0.000 C 
BRANCH   6   7
ATOM      7  C   UNL     1      23.844  22.532  26.844  1.00  0.00     0.000 C 
BRANCH   7   8
ATOM      8  C   UNL     1      23.521  24.036  26.891  1.00  0.00     0.000 C 
BRANCH   8   9
ATOM      9  C   UNL     1      24.597  24.851  27.626  1.00  0.00     0.000 C 
BRANCH   9  10
ATOM     10  C   UNL     1      25.107  26.041  26.795  1.00  0.00     0.006 C 
BRANCH  10  11
ATOM     11  C   UNL     1      25.706  25.597  25.454  1.00  0.00     0.053 C 
BRANCH  11  12
ATOM     12  C   UNL     1      25.328  26.521  24.337  1.00  0.00     0.041 C 
ATOM     13  O   UNL     1      24.337  27.290  24.458  1.00  0.00    -0.550 OA
ATOM     14  O   UNL     1      26.075  26.542  23.166  1.00  0.00    -0.550 OA
ENDBRANCH  11  12
ENDBRANCH  10  11
ENDBRANCH   9  10
ENDBRANCH   8   9
ENDBRANCH   7   8
ENDBRANCH   6   7
ENDBRANCH   5   6
ENDBRANCH   4   5
ENDBRANCH   3   4
ENDBRANCH   2   3
ENDBRANCH   1   2
BRANCH   1  15
ATOM     15  C   UNL     1      23.957  18.884  24.636  1.00  0.00     0.000 C 
BRANCH  15  16
ATOM     16  C   UNL     1      25.320  19.360  25.159  1.00  0.00     0.000 C 
BRANCH  16  17
ATOM     17  C   UNL     1      26.495  18.878  24.292  1.00  0.00     0.000 C 
BRANCH  17  18
ATOM     18  C   UNL     1      27.645  19.898  24.234  1.00  0.00    -0.000 C 
BRANCH  18  19
ATOM     19  C   UNL     1      27.663  20.829  25.457  1.00  0.00    -0.000 C 
BRANCH  19  20
ATOM     20  C   UNL     1      29.024  21.521  25.652  1.00  0.00    -0.000 C 
BRANCH  20  21
ATOM     21  C   UNL     1      29.851  21.592  24.357  1.00  0.00    -0.000 C 
BRANCH  21  22
ATOM     22  C   UNL     1      30.950  20.517  24.214  1.00  0.00    -0.000 C 
BRANCH  22  23
ATOM     23  C   UNL     1      30.439  19.089  23.939  1.00  0.00    -0.000 C 
BRANCH  23  24
ATOM     24  C   UNL     1      29.925  18.877  22.498  1.00  0.00    -0.000 C 
BRANCH  24  25
ATOM     25  C   UNL     1      30.991  19.149  21.423  1.00  0.00    -0.003 C 
ATOM     26  C   UNL     1      32.316  19.625  22.012  1.00  0.00     0.004 C 
ENDBRANCH  24  25
ENDBRANCH  23  24
ENDBRANCH  22  23
ENDBRANCH  21  22
ENDBRANCH  20  21
ENDBRANCH  19  20
ENDBRANCH  18  19
ENDBRANCH  17  18
ENDBRANCH  16  17
ENDBRANCH  15  16
ENDBRANCH   1  15
TORSDOF 22
ENDMDL
MODEL 4
REMARK VINA RESULT:     1.437      1.084      2.065
REMARK INTER + INTRA:           4.445
REMARK INTER:                   3.245
REMARK INTRA:                   1.200
REMARK UNBOUND:                 1.159
REMARK SMILES CCCCCCCCCCCCCCCCCCCCCCCC(=O)[O-]
REMARK SMILES IDX 13 1 14 2 15 3 16 4 17 5 18 6 19 7 20 8 21 9 22 10 23 11
REMARK SMILES IDX 24 12 25 13 26 14 12 15 11 16 10 17 9 18 8 19 7 20 6 21 5 22
REMARK SMILES IDX 4 23 3 24 2 25 1 26
REMARK H PARENT
REMARK Flexibility Score: inf
ROOT
ATOM      1  C   UNL     1      24.698  19.056  24.871  1.00  0.00     0.000 C 
ENDROOT
BRANCH   1   2
ATOM      2  C   UNL     1      25.125  19.292  23.411  1.00  0.00     0.000 C 
BRANCH   2   3
ATOM      3  C   UNL     1      26.569  18.876  23.081  1.00  0.00     0.000 C 
BRANCH   3   4
ATOM      4  C   UNL     1      26.967  19.186  21.628  1.00  0.00     0.000 C 
BRANCH   4   5
ATOM      5  C   UNL     1      28.365  19.827  21.526  1.00  0.00     0.000 C 
BRANCH   5   6
ATOM      6  C   UNL     1      29.522  18.876  21.894  1.00  0.00     0.000 C 
BRANCH   6   7
ATOM      7  C   UNL     1      30.742  19.577  22.523  1.00  0.00     0.000 C 
BRANCH   7   8
ATOM      8  C   UNL     1      30.393  20.959  23.101  1.00  0.00     0.000 C 
BRANCH   8   9
ATOM      9  C   UNL     1      30.437  20.990  24.637  1.00  0.00     0.000 C 
BRANCH   9  10
ATOM     10  C   UNL     1      29.147  20.446  25.275  1.00  0.00     0.006 C 
BRANCH  10  11
ATOM     11  C   UNL     1      28.018  21.485  25.276  1.00  0.00     0.053 C 
BRANCH  11  12
ATOM     12  C   UNL     1      26.819  21.008  26.037  1.00  0.00     0.041 C 
ATOM     13  O   UNL     1      25.886  21.807  26.316  1.00  0.00    -0.550 OA
ATOM     14  O   UNL     1      26.724  19.679  26.428  1.00  0.00    -0.550 OA
ENDBRANCH  11  12
ENDBRANCH  10  11
ENDBRANCH   9  10
ENDBRANCH   8   9
ENDBRANCH   7   8
ENDBRANCH   6   7
ENDBRANCH   5   6
ENDBRANCH   4   5
ENDBRANCH   3   4
ENDBRANCH   2   3
ENDBRANCH   1   2
BRANCH   1  15
ATOM     15  C   UNL     1      23.173  19.019  25.051  1.00  0.00     0.000 C 
BRANCH  15  16
ATOM     16  C   UNL     1      22.763  19.698  26.366  1.00  0.00     0.000 C 
BRANCH  16  17
ATOM     17  C   UNL     1      23.224  18.919  27.609  1.00  0.00     0.000 C 
BRANCH  17  18
ATOM     18  C   UNL     1      22.491  19.361  28.888  1.00  0.00    -0.000 C 
BRANCH  18  19
ATOM     19  C   UNL     1      20.994  19.615  28.646  1.00  0.00    -0.000 C 
BRANCH  19  20
ATOM     20  C   UNL     1      20.675  21.106  28.442  1.00  0.00    -0.000 C 
BRANCH  20  21
ATOM     21  C   UNL     1      21.362  21.702  27.200  1.00  0.00    -0.000 C 
BRANCH  21  22
ATOM     22  C   UNL     1      22.707  22.412  27.465  1.00  0.00    -0.000 C 
BRANCH  22  23
ATOM     23  C   UNL     1      22.844  23.812  26.835  1.00  0.00    -0.000 C 
BRANCH  23  24
ATOM     24  C   UNL     1      24.193  24.502  27.137  1.00  0.00    -0.000 C 
BRANCH  24  25
ATOM     25  C   UNL     1      24.854  25.124  25.895  1.00  0.00    -0.003 C 
ATOM     26  C   UNL     1      25.946  26.130  26.247  1.00  0.00     0.004 C 
ENDBRANCH  24  25
ENDBRANCH  23  24
ENDBRANCH  22  23
ENDBRANCH  21  22
ENDBRANCH  20  21
ENDBRANCH  19  20
ENDBRANCH  18  19
ENDBRANCH  17  18
ENDBRANCH  16  17
ENDBRANCH  15  16
ENDBRANCH   1  15
TORSDOF 22
ENDMDL
MODEL 5
REMARK VINA RESULT:     2.192      2.907      4.058
REMARK INTER + INTRA:           6.171
REMARK INTER:                   7.752
REMARK INTRA:                  -1.581
REMARK UNBOUND:                 1.159
REMARK SMILES CCCCCCCCCCCCCCCCCCCCCCCC(=O)[O-]
REMARK SMILES IDX 13 1 14 2 15 3 16 4 17 5 18 6 19 7 20 8 21 9 22 10 23 11
REMARK SMILES IDX 24 12 25 13 26 14 12 15 11 16 10 17 9 18 8 19 7 20 6 21 5 22
REMARK SMILES IDX 4 23 3 24 2 25 1 26
REMARK H PARENT
REMARK Flexibility Score: inf
ROOT
ATOM      1  C   UNL     1      26.730  20.847  25.715  1.00  0.00     0.000 C 
ENDROOT
BRANCH   1   2
ATOM      2  C   UNL     1      28.002  21.167  24.909  1.00  0.00     0.000 C 
BRANCH   2   3
ATOM      3  C   UNL     1      29.212  20.268  25.219  1.00  0.00     0.000 C 
BRANCH   3   4
ATOM      4  C   UNL     1      29.328  19.066  24.267  1.00  0.00     0.000 C 
BRANCH   4   5
ATOM      5  C   UNL     1      28.627  19.315  22.917  1.00  0.00     0.000 C 
BRANCH   5   6
ATOM      6  C   UNL     1      29.532  19.097  21.688  1.00  0.00     0.000 C 
BRANCH   6   7
ATOM      7  C   UNL     1      31.035  19.004  22.015  1.00  0.00     0.000 C 
BRANCH   7   8
ATOM      8  C   UNL     1      31.662  20.381  22.293  1.00  0.00     0.000 C 
BRANCH   8   9
ATOM      9  C   UNL     1      30.767  21.544  21.838  1.00  0.00     0.000 C 
BRANCH   9  10
ATOM     10  C   UNL     1      31.573  22.712  21.244  1.00  0.00     0.006 C 
BRANCH  10  11
ATOM     11  C   UNL     1      30.783  24.028  21.259  1.00  0.00     0.053 C 
BRANCH  11  12
ATOM     12  C   UNL     1      31.610  25.183  20.782  1.00  0.00     0.041 C 
ATOM     13  O   UNL     1      31.680  25.448  19.553  1.00  0.00    -0.550 OA
ATOM     14  O   UNL     1      32.294  25.974  21.696  1.00  0.00    -0.550 OA
ENDBRANCH  11  12
ENDBRANCH  10  11
ENDBRANCH   9  10
ENDBRANCH   8   9
ENDBRANCH   7   8
ENDBRANCH   6   7
ENDBRANCH   5   6
ENDBRANCH   4   5
ENDBRANCH   3   4
ENDBRANCH   2   3
ENDBRANCH   1   2
BRANCH   1  15
ATOM     15  C   UNL     1      25.913  19.695  25.112  1.00  0.00     0.000 C 
BRANCH  15  16
ATOM     16  C   UNL     1      25.184  18.911  26.213  1.00  0.00     0.000 C 
BRANCH  16  17
ATOM     17  C   UNL     1      23.660  18.875  26.011  1.00  0.00     0.000 C 
BRANCH  17  18
ATOM     18  C   UNL     1      22.886  18.926  27.340  1.00  0.00    -0.000 C 
BRANCH  18  19
ATOM     19  C   UNL     1      22.496  20.359  27.735  1.00  0.00    -0.000 C 
BRANCH  19  20
ATOM     20  C   UNL     1      22.631  21.351  26.566  1.00  0.00    -0.000 C 
BRANCH  20  21
ATOM     21  C   UNL     1      22.658  22.819  27.026  1.00  0.00    -0.000 C 
BRANCH  21  22
ATOM     22  C   UNL     1      23.918  23.615  26.623  1.00  0.00    -0.000 C 
BRANCH  22  23
ATOM     23  C   UNL     1      24.331  24.730  27.604  1.00  0.00    -0.000 C 
BRANCH  23  24
ATOM     24  C   UNL     1      25.316  25.757  27.002  1.00  0.00    -0.000 C 
BRANCH  24  25
ATOM     25  C   UNL     1      25.578  25.546  25.502  1.00  0.00    -0.003 C 
ATOM     26  C   UNL     1      25.030  26.680  24.640  1.00  0.00     0.004 C 
ENDBRANCH  24  25
ENDBRANCH  23  24
ENDBRANCH  22  23
ENDBRANCH  21  22
ENDBRANCH  20  21
ENDBRANCH  19  20
ENDBRANCH  18  19
ENDBRANCH  17  18
ENDBRANCH  16  17
ENDBRANCH  15  16
ENDBRANCH   1  15
TORSDOF 22
ENDMDL
MODEL 6
REMARK VINA RESULT:     2.329      1.661      7.068
REMARK INTER + INTRA:           6.483
REMARK INTER:                   4.205
REMARK INTRA:                   2.278
REMARK UNBOUND:                 1.159
REMARK SMILES CCCCCCCCCCCCCCCCCCCCCCCC(=O)[O-]
REMARK SMILES IDX 13 1 14 2 15 3 16 4 17 5 18 6 19 7 20 8 21 9 22 10 23 11
REMARK SMILES IDX 24 12 25 13 26 14 12 15 11 16 10 17 9 18 8 19 7 20 6 21 5 22
REMARK SMILES IDX 4 23 3 24 2 25 1 26
REMARK H PARENT
REMARK Flexibility Score: inf
ROOT
ATOM      1  C   UNL     1      24.498  25.885  26.861  1.00  0.00     0.000 C 
ENDROOT
BRANCH   1   2
ATOM      2  C   UNL     1      23.539  24.848  27.472  1.00  0.00     0.000 C 
BRANCH   2   3
ATOM      3  C   UNL     1      23.128  23.706  26.526  1.00  0.00     0.000 C 
BRANCH   3   4
ATOM      4  C   UNL     1      22.196  22.679  27.192  1.00  0.00     0.000 C 
BRANCH   4   5
ATOM      5  C   UNL     1      22.264  21.297  26.514  1.00  0.00     0.000 C 
BRANCH   5   6
ATOM      6  C   UNL     1      22.183  20.110  27.494  1.00  0.00     0.000 C 
BRANCH   6   7
ATOM      7  C   UNL     1      23.011  18.881  27.072  1.00  0.00     0.000 C 
BRANCH   7   8
ATOM      8  C   UNL     1      24.439  19.254  26.640  1.00  0.00     0.000 C 
BRANCH   8   9
ATOM      9  C   UNL     1      24.728  18.900  25.173  1.00  0.00     0.000 C 
BRANCH   9  10
ATOM     10  C   UNL     1      23.517  19.146  24.256  1.00  0.00     0.006 C 
BRANCH  10  11
ATOM     11  C   UNL     1      23.844  18.880  22.781  1.00  0.00     0.053 C 
BRANCH  11  12
ATOM     12  C   UNL     1      25.266  19.218  22.452  1.00  0.00     0.041 C 
ATOM     13  O   UNL     1      26.016  19.725  23.327  1.00  0.00    -0.550 OA
ATOM     14  O   UNL     1      25.768  18.961  21.182  1.00  0.00    -0.550 OA
ENDBRANCH  11  12
ENDBRANCH  10  11
ENDBRANCH   9  10
ENDBRANCH   8   9
ENDBRANCH   7   8
ENDBRANCH   6   7
ENDBRANCH   5   6
ENDBRANCH   4   5
ENDBRANCH   3   4
ENDBRANCH   2   3
ENDBRANCH   1   2
BRANCH   1  15
ATOM     15  C   UNL     1      25.549  25.258  25.934  1.00  0.00     0.000 C 
BRANCH  15  16
ATOM     16  C   UNL     1      26.181  24.020  26.587  1.00  0.00     0.000 C 
BRANCH  16  17
ATOM     17  C   UNL     1      25.598  22.700  26.054  1.00  0.00     0.000 C 
BRANCH  17  18
ATOM     18  C   UNL     1      26.429  21.475  26.474  1.00  0.00    -0.000 C 
BRANCH  18  19
ATOM     19  C   UNL     1      27.522  21.131  25.450  1.00  0.00    -0.000 C 
BRANCH  19  20
ATOM     20  C   UNL     1      28.026  19.683  25.588  1.00  0.00    -0.000 C 
BRANCH  20  21
ATOM     21  C   UNL     1      28.588  19.116  24.273  1.00  0.00    -0.000 C 
BRANCH  21  22
ATOM     22  C   UNL     1      29.081  20.168  23.256  1.00  0.00    -0.000 C 
BRANCH  22  23
ATOM     23  C   UNL     1      30.043  19.634  22.175  1.00  0.00    -0.000 C 
BRANCH  23  24
ATOM     24  C   UNL     1      31.481  20.187  22.292  1.00  0.00    -0.000 C 
BRANCH  24  25
ATOM     25  C   UNL     1      32.507  19.131  22.737  1.00  0.00    -0.003 C 
ATOM     26  C   UNL     1      32.595  18.995  24.255  1.00  0.00     0.004 C 
ENDBRANCH  24  25
ENDBRANCH  23  24
ENDBRANCH  22  23
ENDBRANCH  21  22
ENDBRANCH  20  21
ENDBRANCH  19  20
ENDBRANCH  18  19
ENDBRANCH  17  18
ENDBRANCH  16  17
ENDBRANCH  15  16
ENDBRANCH   1  15
TORSDOF 22
ENDMDL
