MODEL 1
REMARK VINA RESULT:    -7.097      0.000      0.000
REMARK INTER + INTRA:          -7.746
REMARK INTER:                  -7.719
REMARK INTRA:                  -0.027
REMARK UNBOUND:                -0.027
REMARK SMILES CC1(C)[C@H]2CC=C(CO)[C@@H]1C2
REMARK SMILES IDX 8 1 7 2 1 3 2 4 4 5 3 6 10 7 5 8 11 9 6 10 9 11
REMARK H PARENT 9 12
REMARK Flexibility Score: inf
ROOT
ATOM      1  C   UNL     1       9.571 -18.616  36.927  1.00  0.00     0.187 C 
ENDROOT
BRANCH   1   2
ATOM      2  C   UNL     1      10.597 -17.825  37.690  1.00  0.00    -0.045 C 
ATOM      3  C   UNL     1      10.040 -16.661  40.349  1.00  0.00     0.012 C 
ATOM      4  C   UNL     1      10.734 -15.836  39.227  1.00  0.00    -0.026 C 
ATOM      5  C   UNL     1      12.253 -16.047  38.978  1.00  0.00    -0.000 C 
ATOM      6  C   UNL     1      10.374 -14.343  39.431  1.00  0.00     0.012 C 
ATOM      7  C   UNL     1      10.547 -16.292  37.756  1.00  0.00     0.023 C 
ATOM      8  C   UNL     1      12.626 -17.562  39.131  1.00  0.00     0.031 C 
ATOM      9  C   UNL     1      11.991 -15.832  37.474  1.00  0.00     0.013 C 
ATOM     10  C   UNL     1      11.629 -18.435  38.343  1.00  0.00    -0.025 C 
ENDBRANCH   1   2
BRANCH   1  11
ATOM     11  O   UNL     1      10.141 -19.165  35.770  1.00  0.00    -0.392 OA
ATOM     12  H   UNL     1       9.659 -20.015  35.592  1.00  0.00     0.211 HD
ENDBRANCH   1  11
TORSDOF 2
ENDMDL
MODEL 2
REMARK VINA RESULT:    -6.424      1.925      3.108
REMARK INTER + INTRA:          -7.015
REMARK INTER:                  -6.950
REMARK INTRA:                  -0.064
REMARK UNBOUND:                -0.027
REMARK SMILES CC1(C)[C@H]2CC=C(CO)[C@@H]1C2
REMARK SMILES IDX 8 1 7 2 1 3 2 4 4 5 3 6 10 7 5 8 11 9 6 10 9 11
REMARK H PARENT 9 12
REMARK Flexibility Score: inf
ROOT
ATOM      1  C   UNL     1      13.276 -18.284  39.494  1.00  0.00     0.187 C 
ENDROOT
BRANCH   1   2
ATOM      2  C   UNL     1      11.979 -17.683  39.026  1.00  0.00    -0.045 C 
ATOM      3  C   UNL     1      11.877 -15.460  37.081  1.00  0.00     0.012 C 
ATOM      4  C   UNL     1      11.023 -15.445  38.381  1.00  0.00    -0.026 C 
ATOM      5  C   UNL     1       9.704 -16.265  38.415  1.00  0.00    -0.000 C 
ATOM      6  C   UNL     1      10.808 -13.970  38.803  1.00  0.00     0.012 C 
ATOM      7  C   UNL     1      11.473 -16.338  39.567  1.00  0.00     0.023 C 
ATOM      8  C   UNL     1       9.885 -17.624  37.656  1.00  0.00     0.031 C 
ATOM      9  C   UNL     1       9.986 -16.575  39.899  1.00  0.00     0.013 C 
ATOM     10  C   UNL     1      11.186 -18.315  38.113  1.00  0.00    -0.025 C 
ENDBRANCH   1   2
BRANCH   1  11
ATOM     11  O   UNL     1      14.318 -17.358  39.355  1.00  0.00    -0.392 OA
ATOM     12  H   UNL     1      14.684 -17.204  40.266  1.00  0.00     0.211 HD
ENDBRANCH   1  11
TORSDOF 2
ENDMDL
MODEL 3
REMARK VINA RESULT:    -6.380      1.220      2.300
REMARK INTER + INTRA:          -6.967
REMARK INTER:                  -6.903
REMARK INTRA:                  -0.064
REMARK UNBOUND:                -0.027
REMARK SMILES CC1(C)[C@H]2CC=C(CO)[C@@H]1C2
REMARK SMILES IDX 8 1 7 2 1 3 2 4 4 5 3 6 10 7 5 8 11 9 6 10 9 11
REMARK H PARENT 9 12
REMARK Flexibility Score: inf
ROOT
ATOM      1  C   UNL     1      10.781 -18.426  35.985  1.00  0.00     0.187 C 
ENDROOT
BRANCH   1   2
ATOM      2  C   UNL     1      10.762 -17.186  36.835  1.00  0.00    -0.045 C 
ATOM      3  C   UNL     1      12.625 -16.792  39.096  1.00  0.00     0.012 C 
ATOM      4  C   UNL     1      11.103 -16.497  39.233  1.00  0.00    -0.026 C 
ATOM      5  C   UNL     1      10.552 -15.155  38.677  1.00  0.00    -0.000 C 
ATOM      6  C   UNL     1      10.694 -16.734  40.708  1.00  0.00     0.012 C 
ATOM      7  C   UNL     1      10.130 -17.177  38.234  1.00  0.00     0.023 C 
ATOM      8  C   UNL     1      11.267 -14.785  37.332  1.00  0.00     0.031 C 
ATOM      9  C   UNL     1       9.265 -15.902  38.273  1.00  0.00     0.013 C 
ATOM     10  C   UNL     1      11.293 -16.008  36.394  1.00  0.00    -0.025 C 
ENDBRANCH   1   2
BRANCH   1  11
ATOM     11  O   UNL     1      11.524 -19.435  36.614  1.00  0.00    -0.392 OA
ATOM     12  H   UNL     1      12.475 -19.151  36.576  1.00  0.00     0.211 HD
ENDBRANCH   1  11
TORSDOF 2
ENDMDL
MODEL 4
REMARK VINA RESULT:    -6.039      1.507      2.800
REMARK INTER + INTRA:          -6.595
REMARK INTER:                  -6.540
REMARK INTRA:                  -0.055
REMARK UNBOUND:                -0.027
REMARK SMILES CC1(C)[C@H]2CC=C(CO)[C@@H]1C2
REMARK SMILES IDX 8 1 7 2 1 3 2 4 4 5 3 6 10 7 5 8 11 9 6 10 9 11
REMARK H PARENT 9 12
REMARK Flexibility Score: inf
ROOT
ATOM      1  C   UNL     1      12.438 -19.021  39.510  1.00  0.00     0.187 C 
ENDROOT
BRANCH   1   2
ATOM      2  C   UNL     1      11.623 -17.779  39.274  1.00  0.00    -0.045 C 
ATOM      3  C   UNL     1      10.549 -17.076  36.612  1.00  0.00     0.012 C 
ATOM      4  C   UNL     1      11.268 -16.025  37.504  1.00  0.00    -0.026 C 
ATOM      5  C   UNL     1      10.472 -15.359  38.660  1.00  0.00    -0.000 C 
ATOM      6  C   UNL     1      11.940 -14.981  36.577  1.00  0.00     0.012 C 
ATOM      7  C   UNL     1      12.227 -16.533  38.612  1.00  0.00     0.023 C 
ATOM      8  C   UNL     1       9.532 -16.406  39.350  1.00  0.00     0.031 C 
ATOM      9  C   UNL     1      11.770 -15.352  39.492  1.00  0.00     0.013 C 
ATOM     10  C   UNL     1      10.314 -17.700  39.653  1.00  0.00    -0.025 C 
ENDBRANCH   1   2
BRANCH   1  11
ATOM     11  O   UNL     1      12.293 -19.909  38.435  1.00  0.00    -0.392 OA
ATOM     12  H   UNL     1      11.542 -19.565  37.883  1.00  0.00     0.211 HD
ENDBRANCH   1  11
TORSDOF 2
ENDMDL
MODEL 5
REMARK VINA RESULT:    -5.946      4.046      6.026
REMARK INTER + INTRA:          -6.494
REMARK INTER:                  -6.472
REMARK INTRA:                  -0.023
REMARK UNBOUND:                -0.027
REMARK SMILES CC1(C)[C@H]2CC=C(CO)[C@@H]1C2
REMARK SMILES IDX 8 1 7 2 1 3 2 4 4 5 3 6 10 7 5 8 11 9 6 10 9 11
REMARK H PARENT 9 12
REMARK Flexibility Score: inf
ROOT
ATOM      1  C   UNL     1       9.621 -21.376  33.163  1.00  0.00     0.187 C 
ENDROOT
BRANCH   1   2
ATOM      2  C   UNL     1      10.251 -21.121  34.504  1.00  0.00    -0.045 C 
ATOM      3  C   UNL     1      13.173 -21.257  34.929  1.00  0.00     0.012 C 
ATOM      4  C   UNL     1      12.175 -21.939  35.908  1.00  0.00    -0.026 C 
ATOM      5  C   UNL     1      11.460 -21.063  36.973  1.00  0.00    -0.000 C 
ATOM      6  C   UNL     1      12.875 -23.171  36.534  1.00  0.00     0.012 C 
ATOM      7  C   UNL     1      10.749 -22.270  35.392  1.00  0.00     0.023 C 
ATOM      8  C   UNL     1      11.078 -19.669  36.368  1.00  0.00     0.031 C 
ATOM      9  C   UNL     1      10.210 -21.950  36.800  1.00  0.00     0.013 C 
ATOM     10  C   UNL     1      10.393 -19.857  34.999  1.00  0.00    -0.025 C 
ENDBRANCH   1   2
BRANCH   1  11
ATOM     11  O   UNL     1       8.847 -20.274  32.772  1.00  0.00    -0.392 OA
ATOM     12  H   UNL     1       8.019 -20.641  32.364  1.00  0.00     0.211 HD
ENDBRANCH   1  11
TORSDOF 2
ENDMDL
MODEL 6
REMARK VINA RESULT:    -5.721      5.239      6.685
REMARK INTER + INTRA:          -6.250
REMARK INTER:                  -6.212
REMARK INTRA:                  -0.038
REMARK UNBOUND:                -0.027
REMARK SMILES CC1(C)[C@H]2CC=C(CO)[C@@H]1C2
REMARK SMILES IDX 8 1 7 2 1 3 2 4 4 5 3 6 10 7 5 8 11 9 6 10 9 11
REMARK H PARENT 9 12
REMARK Flexibility Score: inf
ROOT
ATOM      1  C   UNL     1      14.521 -22.291  36.130  1.00  0.00     0.187 C 
ENDROOT
BRANCH   1   2
ATOM      2  C   UNL     1      13.049 -21.984  36.144  1.00  0.00    -0.045 C 
ATOM      3  C   UNL     1      11.039 -23.821  34.994  1.00  0.00     0.012 C 
ATOM      4  C   UNL     1      11.009 -22.294  34.701  1.00  0.00    -0.026 C 
ATOM      5  C   UNL     1      10.402 -21.342  35.768  1.00  0.00    -0.000 C 
ATOM      6  C   UNL     1      10.383 -22.080  33.300  1.00  0.00     0.012 C 
ATOM      7  C   UNL     1      12.318 -21.482  34.891  1.00  0.00     0.023 C 
ATOM      8  C   UNL     1      10.790 -21.819  37.210  1.00  0.00     0.031 C 
ATOM      9  C   UNL     1      11.463 -20.295  35.375  1.00  0.00     0.013 C 
ATOM     10  C   UNL     1      12.301 -22.122  37.278  1.00  0.00    -0.025 C 
ENDBRANCH   1   2
BRANCH   1  11
ATOM     11  O   UNL     1      14.744 -23.620  36.517  1.00  0.00    -0.392 OA
ATOM     12  H   UNL     1      15.220 -24.058  35.763  1.00  0.00     0.211 HD
ENDBRANCH   1  11
TORSDOF 2
ENDMDL
MODEL 7
REMARK VINA RESULT:    -5.520      4.893      5.954
REMARK INTER + INTRA:          -6.031
REMARK INTER:                  -6.008
REMARK INTRA:                  -0.022
REMARK UNBOUND:                -0.027
REMARK SMILES CC1(C)[C@H]2CC=C(CO)[C@@H]1C2
REMARK SMILES IDX 8 1 7 2 1 3 2 4 4 5 3 6 10 7 5 8 11 9 6 10 9 11
REMARK H PARENT 9 12
REMARK Flexibility Score: inf
ROOT
ATOM      1  C   UNL     1       9.312 -20.011  33.983  1.00  0.00     0.187 C 
ENDROOT
BRANCH   1   2
ATOM      2  C   UNL     1      10.325 -21.014  34.461  1.00  0.00    -0.045 C 
ATOM      3  C   UNL     1      10.075 -22.401  37.059  1.00  0.00     0.012 C 
ATOM      4  C   UNL     1      11.419 -21.768  36.599  1.00  0.00    -0.026 C 
ATOM      5  C   UNL     1      12.305 -22.551  35.591  1.00  0.00    -0.000 C 
ATOM      6  C   UNL     1      12.208 -21.336  37.860  1.00  0.00     0.012 C 
ATOM      7  C   UNL     1      11.378 -20.655  35.519  1.00  0.00     0.023 C 
ATOM      8  C   UNL     1      11.412 -23.268  34.521  1.00  0.00     0.031 C 
ATOM      9  C   UNL     1      12.707 -21.202  34.963  1.00  0.00     0.013 C 
ATOM     10  C   UNL     1      10.365 -22.284  33.961  1.00  0.00    -0.025 C 
ENDBRANCH   1   2
BRANCH   1  11
ATOM     11  O   UNL     1       8.911 -20.311  32.674  1.00  0.00    -0.392 OA
ATOM     12  H   UNL     1       8.185 -20.985  32.747  1.00  0.00     0.211 HD
ENDBRANCH   1  11
TORSDOF 2
ENDMDL
MODEL 8
REMARK VINA RESULT:    -5.437      3.831      6.049
REMARK INTER + INTRA:          -5.941
REMARK INTER:                  -5.893
REMARK INTRA:                  -0.048
REMARK UNBOUND:                -0.027
REMARK SMILES CC1(C)[C@H]2CC=C(CO)[C@@H]1C2
REMARK SMILES IDX 8 1 7 2 1 3 2 4 4 5 3 6 10 7 5 8 11 9 6 10 9 11
REMARK H PARENT 9 12
REMARK Flexibility Score: inf
ROOT
ATOM      1  C   UNL     1      10.617 -18.831  36.538  1.00  0.00     0.187 C 
ENDROOT
BRANCH   1   2
ATOM      2  C   UNL     1      10.870 -20.144  35.850  1.00  0.00    -0.045 C 
ATOM      3  C   UNL     1      10.260 -22.740  37.124  1.00  0.00     0.012 C 
ATOM      4  C   UNL     1      11.612 -22.486  36.398  1.00  0.00    -0.026 C 
ATOM      5  C   UNL     1      11.654 -22.581  34.847  1.00  0.00    -0.000 C 
ATOM      6  C   UNL     1      12.696 -23.367  37.069  1.00  0.00     0.012 C 
ATOM      7  C   UNL     1      12.080 -21.020  36.204  1.00  0.00     0.023 C 
ATOM      8  C   UNL     1      10.347 -21.977  34.227  1.00  0.00     0.031 C 
ATOM      9  C   UNL     1      12.684 -21.435  34.849  1.00  0.00     0.013 C 
ATOM     10  C   UNL     1      10.044 -20.607  34.866  1.00  0.00    -0.025 C 
ENDBRANCH   1   2
BRANCH   1  11
ATOM     11  O   UNL     1      11.508 -18.664  37.607  1.00  0.00    -0.392 OA
ATOM     12  H   UNL     1      11.225 -19.302  38.314  1.00  0.00     0.211 HD
ENDBRANCH   1  11
TORSDOF 2
ENDMDL
MODEL 9
REMARK VINA RESULT:    -5.402      4.563      6.065
REMARK INTER + INTRA:          -5.902
REMARK INTER:                  -5.880
REMARK INTRA:                  -0.023
REMARK UNBOUND:                -0.027
REMARK SMILES CC1(C)[C@H]2CC=C(CO)[C@@H]1C2
REMARK SMILES IDX 8 1 7 2 1 3 2 4 4 5 3 6 10 7 5 8 11 9 6 10 9 11
REMARK H PARENT 9 12
REMARK Flexibility Score: inf
ROOT
ATOM      1  C   UNL     1      10.376 -24.332  37.242  1.00  0.00     0.187 C 
ENDROOT
BRANCH   1   2
ATOM      2  C   UNL     1      11.267 -23.314  36.585  1.00  0.00    -0.045 C 
ATOM      3  C   UNL     1      11.501 -20.540  37.577  1.00  0.00     0.012 C 
ATOM      4  C   UNL     1      11.311 -20.851  36.065  1.00  0.00    -0.026 C 
ATOM      5  C   UNL     1      12.548 -21.290  35.234  1.00  0.00    -0.000 C 
ATOM      6  C   UNL     1      10.560 -19.662  35.416  1.00  0.00     0.012 C 
ATOM      7  C   UNL     1      10.702 -22.221  35.667  1.00  0.00     0.023 C 
ATOM      8  C   UNL     1      13.469 -22.235  36.081  1.00  0.00     0.031 C 
ATOM      9  C   UNL     1      11.621 -22.224  34.430  1.00  0.00     0.013 C 
ATOM     10  C   UNL     1      12.621 -23.328  36.761  1.00  0.00    -0.025 C 
ENDBRANCH   1   2
BRANCH   1  11
ATOM     11  O   UNL     1      11.121 -25.456  37.623  1.00  0.00    -0.392 OA
ATOM     12  H   UNL     1      10.690 -25.818  38.442  1.00  0.00     0.211 HD
ENDBRANCH   1  11
TORSDOF 2
ENDMDL
