MODEL 1
REMARK VINA RESULT:    -5.005      0.000      0.000
REMARK INTER + INTRA:          -6.070
REMARK INTER:                  -5.736
REMARK INTRA:                  -0.334
REMARK UNBOUND:                -0.334
REMARK SMILES COc1ccc(C(C)=O)c(O)c1
REMARK SMILES IDX 6 1 10 2 12 3 3 4 4 5 5 6 7 7 8 8 9 9 11 10 2 12 1 13
REMARK H PARENT 11 11
REMARK Flexibility Score: inf
ROOT
ATOM      1  C   UNL     1      52.966  63.133  -0.418  1.00  0.00     0.059 A 
ATOM      2  C   UNL     1      52.140  64.279  -0.488  1.00  0.00     0.130 A 
ATOM      3  C   UNL     1      52.002  65.112   0.633  1.00  0.00     0.093 A 
ATOM      4  C   UNL     1      52.690  64.831   1.826  1.00  0.00     0.122 A 
ATOM      5  C   UNL     1      53.519  63.709   1.885  1.00  0.00     0.047 A 
ATOM      6  C   UNL     1      53.659  62.871   0.777  1.00  0.00     0.019 A 
ENDROOT
BRANCH   1   7
ATOM      7  C   UNL     1      53.139  62.202  -1.566  1.00  0.00     0.163 C 
ATOM      8  C   UNL     1      52.763  60.753  -1.491  1.00  0.00     0.093 C 
ATOM      9  O   UNL     1      53.623  62.637  -2.647  1.00  0.00    -0.294 OA
ENDBRANCH   1   7
BRANCH   2  10
ATOM     10  O   UNL     1      51.474  64.610  -1.667  1.00  0.00    -0.507 OA
ATOM     11  H   UNL     1      51.127  63.900  -2.302  1.00  0.00     0.293 HD
ENDBRANCH   2  10
BRANCH   4  12
ATOM     12  O   UNL     1      52.581  65.638   2.969  1.00  0.00    -0.497 OA
ATOM     13  C   UNL     1      53.328  65.441   4.166  1.00  0.00     0.278 C 
ENDBRANCH   4  12
TORSDOF 3
ENDMDL
MODEL 2
REMARK VINA RESULT:    -4.925      9.015     10.314
REMARK INTER + INTRA:          -5.979
REMARK INTER:                  -5.635
REMARK INTRA:                  -0.344
REMARK UNBOUND:                -0.334
REMARK SMILES COc1ccc(C(C)=O)c(O)c1
REMARK SMILES IDX 6 1 10 2 12 3 3 4 4 5 5 6 7 7 8 8 9 9 11 10 2 12 1 13
REMARK H PARENT 11 11
REMARK Flexibility Score: inf
ROOT
ATOM      1  C   UNL     1      49.813  57.912   7.129  1.00  0.00     0.059 A 
ATOM      2  C   UNL     1      48.469  58.313   7.316  1.00  0.00     0.130 A 
ATOM      3  C   UNL     1      47.545  58.176   6.269  1.00  0.00     0.093 A 
ATOM      4  C   UNL     1      47.934  57.628   5.034  1.00  0.00     0.122 A 
ATOM      5  C   UNL     1      49.257  57.215   4.860  1.00  0.00     0.047 A 
ATOM      6  C   UNL     1      50.185  57.352   5.893  1.00  0.00     0.019 A 
ENDROOT
BRANCH   1   7
ATOM      7  C   UNL     1      50.843  58.047   8.194  1.00  0.00     0.163 C 
ATOM      8  C   UNL     1      52.132  58.779   7.978  1.00  0.00     0.093 C 
ATOM      9  O   UNL     1      50.635  57.527   9.325  1.00  0.00    -0.294 OA
ENDBRANCH   1   7
BRANCH   2  10
ATOM     10  O   UNL     1      48.040  58.824   8.540  1.00  0.00    -0.507 OA
ATOM     11  H   UNL     1      48.694  59.091   9.267  1.00  0.00     0.293 HD
ENDBRANCH   2  10
BRANCH   4  12
ATOM     12  O   UNL     1      47.042  57.473   3.963  1.00  0.00    -0.497 OA
ATOM     13  C   UNL     1      47.362  56.816   2.740  1.00  0.00     0.278 C 
ENDBRANCH   4  12
TORSDOF 3
ENDMDL
MODEL 3
REMARK VINA RESULT:    -4.827      1.128      4.584
REMARK INTER + INTRA:          -5.866
REMARK INTER:                  -5.612
REMARK INTRA:                  -0.253
REMARK UNBOUND:                -0.334
REMARK SMILES COc1ccc(C(C)=O)c(O)c1
REMARK SMILES IDX 6 1 10 2 12 3 3 4 4 5 5 6 7 7 8 8 9 9 11 10 2 12 1 13
REMARK H PARENT 11 11
REMARK Flexibility Score: inf
ROOT
ATOM      1  C   UNL     1      52.886  63.878   0.717  1.00  0.00     0.059 A 
ATOM      2  C   UNL     1      52.522  64.117  -0.628  1.00  0.00     0.130 A 
ATOM      3  C   UNL     1      52.830  63.170  -1.617  1.00  0.00     0.093 A 
ATOM      4  C   UNL     1      53.485  61.972  -1.284  1.00  0.00     0.122 A 
ATOM      5  C   UNL     1      53.827  61.731   0.048  1.00  0.00     0.047 A 
ATOM      6  C   UNL     1      53.529  62.669   1.039  1.00  0.00     0.019 A 
ENDROOT
BRANCH   1   7
ATOM      7  C   UNL     1      52.603  64.850   1.807  1.00  0.00     0.163 C 
ATOM      8  C   UNL     1      53.341  64.834   3.112  1.00  0.00     0.093 C 
ATOM      9  O   UNL     1      51.708  65.724   1.639  1.00  0.00    -0.294 OA
ENDBRANCH   1   7
BRANCH   2  10
ATOM     10  O   UNL     1      51.836  65.277  -0.987  1.00  0.00    -0.507 OA
ATOM     11  H   UNL     1      51.355  65.847  -0.301  1.00  0.00     0.293 HD
ENDBRANCH   2  10
BRANCH   4  12
ATOM     12  O   UNL     1      53.811  60.999  -2.240  1.00  0.00    -0.497 OA
ATOM     13  C   UNL     1      53.182  59.725  -2.338  1.00  0.00     0.278 C 
ENDBRANCH   4  12
TORSDOF 3
ENDMDL
MODEL 4
REMARK VINA RESULT:    -4.824      8.543      9.812
REMARK INTER + INTRA:          -5.862
REMARK INTER:                  -5.563
REMARK INTRA:                  -0.300
REMARK UNBOUND:                -0.334
REMARK SMILES COc1ccc(C(C)=O)c(O)c1
REMARK SMILES IDX 6 1 10 2 12 3 3 4 4 5 5 6 7 7 8 8 9 9 11 10 2 12 1 13
REMARK H PARENT 11 11
REMARK Flexibility Score: inf
ROOT
ATOM      1  C   UNL     1      53.202  58.397   7.841  1.00  0.00     0.059 A 
ATOM      2  C   UNL     1      52.790  58.114   6.517  1.00  0.00     0.130 A 
ATOM      3  C   UNL     1      51.437  57.867   6.242  1.00  0.00     0.093 A 
ATOM      4  C   UNL     1      50.475  57.912   7.266  1.00  0.00     0.122 A 
ATOM      5  C   UNL     1      50.883  58.210   8.568  1.00  0.00     0.047 A 
ATOM      6  C   UNL     1      52.228  58.452   8.854  1.00  0.00     0.019 A 
ENDROOT
BRANCH   1   7
ATOM      7  C   UNL     1      54.623  58.650   8.199  1.00  0.00     0.163 C 
ATOM      8  C   UNL     1      55.106  59.985   8.681  1.00  0.00     0.093 C 
ATOM      9  O   UNL     1      55.463  57.714   8.095  1.00  0.00    -0.294 OA
ENDBRANCH   1   7
BRANCH   2  10
ATOM     10  O   UNL     1      53.711  58.100   5.470  1.00  0.00    -0.507 OA
ATOM     11  H   UNL     1      54.623  57.668   5.567  1.00  0.00     0.293 HD
ENDBRANCH   2  10
BRANCH   4  12
ATOM     12  O   UNL     1      49.113  57.672   7.034  1.00  0.00    -0.497 OA
ATOM     13  C   UNL     1      48.054  58.434   7.605  1.00  0.00     0.278 C 
ENDBRANCH   4  12
TORSDOF 3
ENDMDL
MODEL 5
REMARK VINA RESULT:    -4.817      9.119      9.541
REMARK INTER + INTRA:          -5.855
REMARK INTER:                  -5.558
REMARK INTRA:                  -0.297
REMARK UNBOUND:                -0.334
REMARK SMILES COc1ccc(C(C)=O)c(O)c1
REMARK SMILES IDX 6 1 10 2 12 3 3 4 4 5 5 6 7 7 8 8 9 9 11 10 2 12 1 13
REMARK H PARENT 11 11
REMARK Flexibility Score: inf
ROOT
ATOM      1  C   UNL     1      47.456  57.735   4.800  1.00  0.00     0.059 A 
ATOM      2  C   UNL     1      48.726  57.290   4.365  1.00  0.00     0.130 A 
ATOM      3  C   UNL     1      49.809  57.284   5.258  1.00  0.00     0.093 A 
ATOM      4  C   UNL     1      49.644  57.701   6.590  1.00  0.00     0.122 A 
ATOM      5  C   UNL     1      48.384  58.122   7.020  1.00  0.00     0.047 A 
ATOM      6  C   UNL     1      47.301  58.137   6.139  1.00  0.00     0.019 A 
ENDROOT
BRANCH   1   7
ATOM      7  C   UNL     1      46.274  57.782   3.897  1.00  0.00     0.163 C 
ATOM      8  C   UNL     1      45.116  58.703   4.135  1.00  0.00     0.093 C 
ATOM      9  O   UNL     1      46.232  57.019   2.893  1.00  0.00    -0.294 OA
ENDBRANCH   1   7
BRANCH   2  10
ATOM     10  O   UNL     1      48.916  56.833   3.062  1.00  0.00    -0.507 OA
ATOM     11  H   UNL     1      48.684  57.403   2.257  1.00  0.00     0.293 HD
ENDBRANCH   2  10
BRANCH   4  12
ATOM     12  O   UNL     1      50.699  57.710   7.515  1.00  0.00    -0.497 OA
ATOM     13  C   UNL     1      50.532  57.619   8.926  1.00  0.00     0.278 C 
ENDBRANCH   4  12
TORSDOF 3
ENDMDL
MODEL 6
REMARK VINA RESULT:    -4.793      8.884      9.568
REMARK INTER + INTRA:          -5.827
REMARK INTER:                  -5.530
REMARK INTRA:                  -0.298
REMARK UNBOUND:                -0.334
REMARK SMILES COc1ccc(C(C)=O)c(O)c1
REMARK SMILES IDX 6 1 10 2 12 3 3 4 4 5 5 6 7 7 8 8 9 9 11 10 2 12 1 13
REMARK H PARENT 11 11
REMARK Flexibility Score: inf
ROOT
ATOM      1  C   UNL     1      48.770  57.745   5.800  1.00  0.00     0.059 A 
ATOM      2  C   UNL     1      48.340  57.848   7.143  1.00  0.00     0.130 A 
ATOM      3  C   UNL     1      49.281  58.025   8.169  1.00  0.00     0.093 A 
ATOM      4  C   UNL     1      50.653  58.119   7.877  1.00  0.00     0.122 A 
ATOM      5  C   UNL     1      51.072  58.035   6.548  1.00  0.00     0.047 A 
ATOM      6  C   UNL     1      50.145  57.853   5.520  1.00  0.00     0.019 A 
ENDROOT
BRANCH   1   7
ATOM      7  C   UNL     1      47.823  57.539   4.671  1.00  0.00     0.163 C 
ATOM      8  C   UNL     1      48.239  56.906   3.377  1.00  0.00     0.093 C 
ATOM      9  O   UNL     1      46.624  57.910   4.795  1.00  0.00    -0.294 OA
ENDBRANCH   1   7
BRANCH   2  10
ATOM     10  O   UNL     1      46.984  57.799   7.465  1.00  0.00    -0.507 OA
ATOM     11  H   UNL     1      46.344  57.172   6.990  1.00  0.00     0.293 HD
ENDBRANCH   2  10
BRANCH   4  12
ATOM     12  O   UNL     1      51.626  58.297   8.871  1.00  0.00    -0.497 OA
ATOM     13  C   UNL     1      52.957  58.737   8.623  1.00  0.00     0.278 C 
ENDBRANCH   4  12
TORSDOF 3
ENDMDL
MODEL 7
REMARK VINA RESULT:    -4.788      8.013      9.733
REMARK INTER + INTRA:          -5.822
REMARK INTER:                  -5.492
REMARK INTRA:                  -0.329
REMARK UNBOUND:                -0.334
REMARK SMILES COc1ccc(C(C)=O)c(O)c1
REMARK SMILES IDX 6 1 10 2 12 3 3 4 4 5 5 6 7 7 8 8 9 9 11 10 2 12 1 13
REMARK H PARENT 11 11
REMARK Flexibility Score: inf
ROOT
ATOM      1  C   UNL     1      45.239  66.295   3.454  1.00  0.00     0.059 A 
ATOM      2  C   UNL     1      45.831  65.014   3.550  1.00  0.00     0.130 A 
ATOM      3  C   UNL     1      45.056  63.866   3.322  1.00  0.00     0.093 A 
ATOM      4  C   UNL     1      43.696  63.972   2.983  1.00  0.00     0.122 A 
ATOM      5  C   UNL     1      43.121  65.240   2.871  1.00  0.00     0.047 A 
ATOM      6  C   UNL     1      43.881  66.388   3.100  1.00  0.00     0.019 A 
ENDROOT
BRANCH   1   7
ATOM      7  C   UNL     1      46.002  67.549   3.701  1.00  0.00     0.163 C 
ATOM      8  C   UNL     1      45.416  68.717   4.434  1.00  0.00     0.093 C 
ATOM      9  O   UNL     1      47.187  67.643   3.279  1.00  0.00    -0.294 OA
ENDBRANCH   1   7
BRANCH   2  10
ATOM     10  O   UNL     1      47.186  64.873   3.846  1.00  0.00    -0.507 OA
ATOM     11  H   UNL     1      47.905  65.043   3.153  1.00  0.00     0.293 HD
ENDBRANCH   2  10
BRANCH   4  12
ATOM     12  O   UNL     1      42.887  62.852   2.746  1.00  0.00    -0.497 OA
ATOM     13  C   UNL     1      43.220  61.523   3.136  1.00  0.00     0.278 C 
ENDBRANCH   4  12
TORSDOF 3
ENDMDL
MODEL 8
REMARK VINA RESULT:    -4.751      1.495      4.977
REMARK INTER + INTRA:          -5.779
REMARK INTER:                  -5.497
REMARK INTRA:                  -0.282
REMARK UNBOUND:                -0.334
REMARK SMILES COc1ccc(C(C)=O)c(O)c1
REMARK SMILES IDX 6 1 10 2 12 3 3 4 4 5 5 6 7 7 8 8 9 9 11 10 2 12 1 13
REMARK H PARENT 11 11
REMARK Flexibility Score: inf
ROOT
ATOM      1  C   UNL     1      52.410  64.955   1.623  1.00  0.00     0.059 A 
ATOM      2  C   UNL     1      53.334  63.978   2.063  1.00  0.00     0.130 A 
ATOM      3  C   UNL     1      53.747  62.961   1.189  1.00  0.00     0.093 A 
ATOM      4  C   UNL     1      53.265  62.907  -0.130  1.00  0.00     0.122 A 
ATOM      5  C   UNL     1      52.367  63.883  -0.566  1.00  0.00     0.047 A 
ATOM      6  C   UNL     1      51.945  64.897   0.297  1.00  0.00     0.019 A 
ENDROOT
BRANCH   1   7
ATOM      7  C   UNL     1      51.920  66.047   2.506  1.00  0.00     0.163 C 
ATOM      8  C   UNL     1      50.615  66.746   2.274  1.00  0.00     0.093 C 
ATOM      9  O   UNL     1      52.624  66.409   3.489  1.00  0.00    -0.294 OA
ENDBRANCH   1   7
BRANCH   2  10
ATOM     10  O   UNL     1      53.863  64.024   3.352  1.00  0.00    -0.507 OA
ATOM     11  H   UNL     1      53.336  63.706   4.158  1.00  0.00     0.293 HD
ENDBRANCH   2  10
BRANCH   4  12
ATOM     12  O   UNL     1      53.652  61.908  -1.035  1.00  0.00    -0.497 OA
ATOM     13  C   UNL     1      53.757  60.525  -0.711  1.00  0.00     0.278 C 
ENDBRANCH   4  12
TORSDOF 3
ENDMDL
MODEL 9
REMARK VINA RESULT:    -4.685      7.111      8.962
REMARK INTER + INTRA:          -5.704
REMARK INTER:                  -5.372
REMARK INTRA:                  -0.332
REMARK UNBOUND:                -0.334
REMARK SMILES COc1ccc(C(C)=O)c(O)c1
REMARK SMILES IDX 6 1 10 2 12 3 3 4 4 5 5 6 7 7 8 8 9 9 11 10 2 12 1 13
REMARK H PARENT 11 11
REMARK Flexibility Score: inf
ROOT
ATOM      1  C   UNL     1      45.331  67.051   3.712  1.00  0.00     0.059 A 
ATOM      2  C   UNL     1      45.466  65.643   3.713  1.00  0.00     0.130 A 
ATOM      3  C   UNL     1      46.684  65.055   3.337  1.00  0.00     0.093 A 
ATOM      4  C   UNL     1      47.784  65.851   2.972  1.00  0.00     0.122 A 
ATOM      5  C   UNL     1      47.652  67.241   2.990  1.00  0.00     0.047 A 
ATOM      6  C   UNL     1      46.443  67.836   3.357  1.00  0.00     0.019 A 
ENDROOT
BRANCH   1   7
ATOM      7  C   UNL     1      44.062  67.732   4.083  1.00  0.00     0.163 C 
ATOM      8  C   UNL     1      44.035  69.044   4.807  1.00  0.00     0.093 C 
ATOM      9  O   UNL     1      42.961  67.194   3.784  1.00  0.00    -0.294 OA
ENDBRANCH   1   7
BRANCH   2  10
ATOM     10  O   UNL     1      44.409  64.824   4.107  1.00  0.00    -0.507 OA
ATOM     11  H   UNL     1      44.009  64.130   3.485  1.00  0.00     0.293 HD
ENDBRANCH   2  10
BRANCH   4  12
ATOM     12  O   UNL     1      49.018  65.305   2.591  1.00  0.00    -0.497 OA
ATOM     13  C   UNL     1      50.164  66.075   2.242  1.00  0.00     0.278 C 
ENDBRANCH   4  12
TORSDOF 3
ENDMDL
