MODEL 1
REMARK VINA RESULT:    -8.260      0.000      0.000
REMARK INTER + INTRA:         -13.880
REMARK INTER:                 -12.364
REMARK INTRA:                  -1.516
REMARK UNBOUND:                -1.516
REMARK SMILES C=C(CC[C@@H](C(=O)[O-])[C@@H]1[C@H](O)C[C@@]2(C)C3=C(CC[C@@]12C)[C@@]1(C)CC[C@H](OC(C)=O)C(C)(C)[C@@H]1CC3)C(C)C
REMARK SMILES IDX 4 1 5 2 6 3 7 4 8 5 9 6 10 7 19 8 12 9 13 10 18 11 20 12
REMARK SMILES IDX 14 13 15 14 17 15 16 16 35 17 21 18 34 19 33 20 23 21 22 22
REMARK SMILES IDX 30 23 24 24 25 25 31 26 32 27 11 28 26 30 27 31 29 32 28 33
REMARK SMILES IDX 3 34 2 35 1 36 36 37 37 38 38 39
REMARK H PARENT 11 29
REMARK Flexibility Score: inf
ROOT
ATOM      1  C   UNL     1      26.806 -28.403  36.408  1.00  0.00     0.014 C 
ENDROOT
BRANCH   1   2
ATOM      2  C   UNL     1      25.839 -28.538  35.190  1.00  0.00     0.042 C 
BRANCH   2   3
ATOM      3  C   UNL     1      24.427 -28.854  35.648  1.00  0.00     0.045 C 
ATOM      4  O   UNL     1      23.986 -28.415  36.735  1.00  0.00    -0.550 OA
ATOM      5  O   UNL     1      23.650 -29.756  34.929  1.00  0.00    -0.550 OA
ENDBRANCH   2   3
BRANCH   2   6
ATOM      6  C   UNL     1      26.031 -27.334  34.188  1.00  0.00     0.033 C 
ATOM      7  C   UNL     1      25.490 -25.936  34.591  1.00  0.00     0.119 C 
ATOM      8  C   UNL     1      25.672 -27.495  32.656  1.00  0.00    -0.017 C 
ATOM      9  C   UNL     1      24.832 -25.323  33.345  1.00  0.00     0.043 C 
ATOM     10  C   UNL     1      24.500 -26.486  32.396  1.00  0.00    -0.003 C 
ATOM     11  C   UNL     1      26.922 -27.045  31.845  1.00  0.00     0.012 C 
ATOM     12  C   UNL     1      25.318 -28.942  32.227  1.00  0.00     0.013 C 
ATOM     13  C   UNL     1      23.131 -27.095  32.822  1.00  0.00     0.017 C 
ATOM     14  C   UNL     1      24.409 -25.939  30.938  1.00  0.00    -0.064 C 
ATOM     15  C   UNL     1      26.663 -26.874  30.367  1.00  0.00     0.032 C 
ATOM     16  C   UNL     1      25.471 -25.986  30.067  1.00  0.00    -0.064 C 
ATOM     17  C   UNL     1      23.032 -25.390  30.491  1.00  0.00     0.032 C 
ATOM     18  C   UNL     1      25.433 -25.170  28.754  1.00  0.00    -0.008 C 
ATOM     19  C   UNL     1      22.977 -24.684  29.133  1.00  0.00     0.009 C 
ATOM     20  C   UNL     1      23.979 -25.304  28.152  1.00  0.00     0.009 C 
ATOM     21  C   UNL     1      26.472 -25.684  27.715  1.00  0.00     0.015 C 
ATOM     22  C   UNL     1      25.842 -23.720  29.162  1.00  0.00     0.016 C 
ATOM     23  C   UNL     1      23.741 -24.882  26.646  1.00  0.00     0.005 C 
ATOM     24  C   UNL     1      26.282 -25.062  26.325  1.00  0.00     0.047 C 
ATOM     25  C   UNL     1      24.906 -25.429  25.758  1.00  0.00     0.182 C 
ATOM     26  C   UNL     1      22.438 -25.568  26.132  1.00  0.00     0.015 C 
ATOM     27  C   UNL     1      23.548 -23.355  26.453  1.00  0.00     0.015 C 
BRANCH   7  28
ATOM     28  O   UNL     1      24.555 -25.999  35.633  1.00  0.00    -0.393 OA
ATOM     29  H   UNL     1      24.936 -25.492  36.392  1.00  0.00     0.210 HD
ENDBRANCH   7  28
BRANCH  25  30
ATOM     30  O   UNL     1      24.794 -24.930  24.426  1.00  0.00    -0.462 OA
BRANCH  30  31
ATOM     31  C   UNL     1      24.652 -25.746  23.299  1.00  0.00     0.302 C 
ATOM     32  O   UNL     1      25.077 -25.376  22.173  1.00  0.00    -0.253 OA
ATOM     33  C   UNL     1      23.958 -27.057  23.435  1.00  0.00     0.139 C 
ENDBRANCH  30  31
ENDBRANCH  25  30
ENDBRANCH   2   6
ENDBRANCH   1   2
BRANCH   1  34
ATOM     34  C   UNL     1      28.294 -28.305  35.993  1.00  0.00     0.031 C 
BRANCH  34  35
ATOM     35  C   UNL     1      28.777 -26.873  35.896  1.00  0.00    -0.075 C 
ATOM     36  C   UNL     1      28.385 -25.998  36.834  1.00  0.00     0.008 C 
BRANCH  35  37
ATOM     37  C   UNL     1      29.654 -26.415  34.733  1.00  0.00     0.008 C 
ATOM     38  C   UNL     1      29.759 -27.500  33.656  1.00  0.00     0.012 C 
ATOM     39  C   UNL     1      29.163 -25.093  34.131  1.00  0.00     0.012 C 
ENDBRANCH  35  37
ENDBRANCH  34  35
ENDBRANCH   1  34
TORSDOF 9
ENDMDL
MODEL 2
REMARK VINA RESULT:    -8.106      2.260      3.982
REMARK INTER + INTRA:         -13.649
REMARK INTER:                 -12.608
REMARK INTRA:                  -1.041
REMARK UNBOUND:                -1.516
REMARK SMILES C=C(CC[C@@H](C(=O)[O-])[C@@H]1[C@H](O)C[C@@]2(C)C3=C(CC[C@@]12C)[C@@]1(C)CC[C@H](OC(C)=O)C(C)(C)[C@@H]1CC3)C(C)C
REMARK SMILES IDX 4 1 5 2 6 3 7 4 8 5 9 6 10 7 19 8 12 9 13 10 18 11 20 12
REMARK SMILES IDX 14 13 15 14 17 15 16 16 35 17 21 18 34 19 33 20 23 21 22 22
REMARK SMILES IDX 30 23 24 24 25 25 31 26 32 27 11 28 26 30 27 31 29 32 28 33
REMARK SMILES IDX 3 34 2 35 1 36 36 37 37 38 38 39
REMARK H PARENT 11 29
REMARK Flexibility Score: inf
ROOT
ATOM      1  C   UNL     1      26.591 -28.175  37.014  1.00  0.00     0.014 C 
ENDROOT
BRANCH   1   2
ATOM      2  C   UNL     1      27.337 -27.608  35.766  1.00  0.00     0.042 C 
BRANCH   2   3
ATOM      3  C   UNL     1      28.753 -28.147  35.686  1.00  0.00     0.045 C 
ATOM      4  O   UNL     1      29.046 -29.271  36.156  1.00  0.00    -0.550 OA
ATOM      5  O   UNL     1      29.779 -27.335  35.215  1.00  0.00    -0.550 OA
ENDBRANCH   2   3
BRANCH   2   6
ATOM      6  C   UNL     1      26.435 -27.727  34.476  1.00  0.00     0.033 C 
ATOM      7  C   UNL     1      26.410 -29.074  33.706  1.00  0.00     0.119 C 
ATOM      8  C   UNL     1      26.477 -26.607  33.358  1.00  0.00    -0.017 C 
ATOM      9  C   UNL     1      26.450 -28.745  32.205  1.00  0.00     0.043 C 
ATOM     10  C   UNL     1      27.022 -27.324  32.074  1.00  0.00    -0.003 C 
ATOM     11  C   UNL     1      25.008 -26.159  33.107  1.00  0.00     0.012 C 
ATOM     12  C   UNL     1      27.304 -25.353  33.735  1.00  0.00     0.013 C 
ATOM     13  C   UNL     1      28.577 -27.414  32.099  1.00  0.00     0.017 C 
ATOM     14  C   UNL     1      26.545 -26.711  30.720  1.00  0.00    -0.064 C 
ATOM     15  C   UNL     1      24.834 -25.294  31.881  1.00  0.00     0.032 C 
ATOM     16  C   UNL     1      25.438 -25.901  30.629  1.00  0.00    -0.064 C 
ATOM     17  C   UNL     1      27.423 -27.008  29.481  1.00  0.00     0.032 C 
ATOM     18  C   UNL     1      24.834 -25.569  29.246  1.00  0.00    -0.008 C 
ATOM     19  C   UNL     1      26.869 -26.570  28.122  1.00  0.00     0.009 C 
ATOM     20  C   UNL     1      26.034 -25.292  28.256  1.00  0.00     0.009 C 
ATOM     21  C   UNL     1      23.907 -24.319  29.297  1.00  0.00     0.015 C 
ATOM     22  C   UNL     1      23.952 -26.803  28.877  1.00  0.00     0.016 C 
ATOM     23  C   UNL     1      25.728 -24.581  26.876  1.00  0.00     0.005 C 
ATOM     24  C   UNL     1      23.501 -23.821  27.903  1.00  0.00     0.047 C 
ATOM     25  C   UNL     1      24.739 -23.393  27.107  1.00  0.00     0.182 C 
ATOM     26  C   UNL     1      27.048 -23.954  26.332  1.00  0.00     0.015 C 
ATOM     27  C   UNL     1      25.209 -25.550  25.782  1.00  0.00     0.015 C 
BRANCH   7  28
ATOM     28  O   UNL     1      27.489 -29.904  34.035  1.00  0.00    -0.393 OA
ATOM     29  H   UNL     1      27.114 -30.793  34.251  1.00  0.00     0.210 HD
ENDBRANCH   7  28
BRANCH  25  30
ATOM     30  O   UNL     1      24.329 -22.836  25.858  1.00  0.00    -0.462 OA
BRANCH  30  31
ATOM     31  C   UNL     1      24.567 -21.510  25.482  1.00  0.00     0.302 C 
ATOM     32  O   UNL     1      25.440 -21.229  24.619  1.00  0.00    -0.253 OA
ATOM     33  C   UNL     1      23.797 -20.419  26.139  1.00  0.00     0.139 C 
ENDBRANCH  30  31
ENDBRANCH  25  30
ENDBRANCH   2   6
ENDBRANCH   1   2
BRANCH   1  34
ATOM     34  C   UNL     1      25.710 -27.120  37.725  1.00  0.00     0.031 C 
BRANCH  34  35
ATOM     35  C   UNL     1      26.358 -26.570  38.978  1.00  0.00    -0.075 C 
ATOM     36  C   UNL     1      26.550 -27.396  40.017  1.00  0.00     0.008 C 
BRANCH  35  37
ATOM     37  C   UNL     1      26.745 -25.097  39.084  1.00  0.00     0.008 C 
ATOM     38  C   UNL     1      27.347 -24.778  40.457  1.00  0.00     0.012 C 
ATOM     39  C   UNL     1      27.696 -24.672  37.959  1.00  0.00     0.012 C 
ENDBRANCH  35  37
ENDBRANCH  34  35
ENDBRANCH   1  34
TORSDOF 9
ENDMDL
MODEL 3
REMARK VINA RESULT:    -8.022      2.401      4.146
REMARK INTER + INTRA:         -13.524
REMARK INTER:                 -12.563
REMARK INTRA:                  -0.960
REMARK UNBOUND:                -1.516
REMARK SMILES C=C(CC[C@@H](C(=O)[O-])[C@@H]1[C@H](O)C[C@@]2(C)C3=C(CC[C@@]12C)[C@@]1(C)CC[C@H](OC(C)=O)C(C)(C)[C@@H]1CC3)C(C)C
REMARK SMILES IDX 4 1 5 2 6 3 7 4 8 5 9 6 10 7 19 8 12 9 13 10 18 11 20 12
REMARK SMILES IDX 14 13 15 14 17 15 16 16 35 17 21 18 34 19 33 20 23 21 22 22
REMARK SMILES IDX 30 23 24 24 25 25 31 26 32 27 11 28 26 30 27 31 29 32 28 33
REMARK SMILES IDX 3 34 2 35 1 36 36 37 37 38 38 39
REMARK H PARENT 11 29
REMARK Flexibility Score: inf
ROOT
ATOM      1  C   UNL     1      26.969 -27.542  37.295  1.00  0.00     0.014 C 
ENDROOT
BRANCH   1   2
ATOM      2  C   UNL     1      27.692 -27.191  35.957  1.00  0.00     0.042 C 
BRANCH   2   3
ATOM      3  C   UNL     1      29.014 -27.927  35.843  1.00  0.00     0.045 C 
ATOM      4  O   UNL     1      29.936 -27.493  35.115  1.00  0.00    -0.550 OA
ATOM      5  O   UNL     1      29.167 -29.175  36.439  1.00  0.00    -0.550 OA
ENDBRANCH   2   3
BRANCH   2   6
ATOM      6  C   UNL     1      26.692 -27.291  34.739  1.00  0.00     0.033 C 
ATOM      7  C   UNL     1      26.429 -28.682  34.104  1.00  0.00     0.119 C 
ATOM      8  C   UNL     1      26.805 -26.290  33.520  1.00  0.00    -0.017 C 
ATOM      9  C   UNL     1      26.406 -28.493  32.579  1.00  0.00     0.043 C 
ATOM     10  C   UNL     1      27.154 -27.184  32.280  1.00  0.00    -0.003 C 
ATOM     11  C   UNL     1      25.397 -25.660  33.315  1.00  0.00     0.012 C 
ATOM     12  C   UNL     1      27.820 -25.137  33.727  1.00  0.00     0.013 C 
ATOM     13  C   UNL     1      28.681 -27.491  32.221  1.00  0.00     0.017 C 
ATOM     14  C   UNL     1      26.670 -26.628  30.905  1.00  0.00    -0.064 C 
ATOM     15  C   UNL     1      25.254 -24.889  32.025  1.00  0.00     0.032 C 
ATOM     16  C   UNL     1      25.679 -25.680  30.803  1.00  0.00    -0.064 C 
ATOM     17  C   UNL     1      27.408 -27.151  29.649  1.00  0.00     0.032 C 
ATOM     18  C   UNL     1      25.027 -25.385  29.432  1.00  0.00    -0.008 C 
ATOM     19  C   UNL     1      26.823 -26.758  28.290  1.00  0.00     0.009 C 
ATOM     20  C   UNL     1      26.180 -25.367  28.351  1.00  0.00     0.009 C 
ATOM     21  C   UNL     1      24.285 -24.017  29.419  1.00  0.00     0.015 C 
ATOM     22  C   UNL     1      23.962 -26.509  29.235  1.00  0.00     0.016 C 
ATOM     23  C   UNL     1      25.876 -24.741  26.931  1.00  0.00     0.005 C 
ATOM     24  C   UNL     1      23.851 -23.588  28.011  1.00  0.00     0.047 C 
ATOM     25  C   UNL     1      25.075 -23.409  27.105  1.00  0.00     0.182 C 
ATOM     26  C   UNL     1      27.226 -24.356  26.252  1.00  0.00     0.015 C 
ATOM     27  C   UNL     1      25.152 -25.717  25.966  1.00  0.00     0.015 C 
BRANCH   7  28
ATOM     28  O   UNL     1      27.407 -29.626  34.446  1.00  0.00    -0.393 OA
ATOM     29  H   UNL     1      28.151 -29.516  33.804  1.00  0.00     0.210 HD
ENDBRANCH   7  28
BRANCH  25  30
ATOM     30  O   UNL     1      24.656 -22.910  25.836  1.00  0.00    -0.462 OA
BRANCH  30  31
ATOM     31  C   UNL     1      24.901 -21.605  25.394  1.00  0.00     0.302 C 
ATOM     32  O   UNL     1      25.807 -21.366  24.553  1.00  0.00    -0.253 OA
ATOM     33  C   UNL     1      24.097 -20.485  25.956  1.00  0.00     0.139 C 
ENDBRANCH  30  31
ENDBRANCH  25  30
ENDBRANCH   2   6
ENDBRANCH   1   2
BRANCH   1  34
ATOM     34  C   UNL     1      25.944 -26.467  37.730  1.00  0.00     0.031 C 
BRANCH  34  35
ATOM     35  C   UNL     1      26.548 -25.429  38.652  1.00  0.00    -0.075 C 
ATOM     36  C   UNL     1      26.801 -24.205  38.162  1.00  0.00     0.008 C 
BRANCH  35  37
ATOM     37  C   UNL     1      26.908 -25.770  40.096  1.00  0.00     0.008 C 
ATOM     38  C   UNL     1      27.297 -24.513  40.883  1.00  0.00     0.012 C 
ATOM     39  C   UNL     1      25.780 -26.530  40.804  1.00  0.00     0.012 C 
ENDBRANCH  35  37
ENDBRANCH  34  35
ENDBRANCH   1  34
TORSDOF 9
ENDMDL
MODEL 4
REMARK VINA RESULT:    -7.829      2.083      9.237
REMARK INTER + INTRA:         -13.236
REMARK INTER:                 -12.019
REMARK INTRA:                  -1.217
REMARK UNBOUND:                -1.516
REMARK SMILES C=C(CC[C@@H](C(=O)[O-])[C@@H]1[C@H](O)C[C@@]2(C)C3=C(CC[C@@]12C)[C@@]1(C)CC[C@H](OC(C)=O)C(C)(C)[C@@H]1CC3)C(C)C
REMARK SMILES IDX 4 1 5 2 6 3 7 4 8 5 9 6 10 7 19 8 12 9 13 10 18 11 20 12
REMARK SMILES IDX 14 13 15 14 17 15 16 16 35 17 21 18 34 19 33 20 23 21 22 22
REMARK SMILES IDX 30 23 24 24 25 25 31 26 32 27 11 28 26 30 27 31 29 32 28 33
REMARK SMILES IDX 3 34 2 35 1 36 36 37 37 38 38 39
REMARK H PARENT 11 29
REMARK Flexibility Score: inf
ROOT
ATOM      1  C   UNL     1      23.934 -23.547  24.060  1.00  0.00     0.014 C 
ENDROOT
BRANCH   1   2
ATOM      2  C   UNL     1      23.897 -23.276  25.597  1.00  0.00     0.042 C 
BRANCH   2   3
ATOM      3  C   UNL     1      22.687 -22.441  25.974  1.00  0.00     0.045 C 
ATOM      4  O   UNL     1      21.609 -22.543  25.346  1.00  0.00    -0.550 OA
ATOM      5  O   UNL     1      22.806 -21.444  26.937  1.00  0.00    -0.550 OA
ENDBRANCH   2   3
BRANCH   2   6
ATOM      6  C   UNL     1      24.146 -24.610  26.404  1.00  0.00     0.033 C 
ATOM      7  C   UNL     1      23.000 -25.653  26.491  1.00  0.00     0.119 C 
ATOM      8  C   UNL     1      24.784 -24.568  27.851  1.00  0.00    -0.017 C 
ATOM      9  C   UNL     1      22.969 -26.180  27.934  1.00  0.00     0.043 C 
ATOM     10  C   UNL     1      23.677 -25.133  28.808  1.00  0.00    -0.003 C 
ATOM     11  C   UNL     1      25.997 -25.543  27.843  1.00  0.00     0.012 C 
ATOM     12  C   UNL     1      25.293 -23.172  28.290  1.00  0.00     0.013 C 
ATOM     13  C   UNL     1      22.645 -24.028  29.187  1.00  0.00     0.017 C 
ATOM     14  C   UNL     1      24.210 -25.829  30.099  1.00  0.00    -0.064 C 
ATOM     15  C   UNL     1      26.556 -25.835  29.215  1.00  0.00     0.032 C 
ATOM     16  C   UNL     1      25.501 -26.287  30.208  1.00  0.00    -0.064 C 
ATOM     17  C   UNL     1      23.225 -25.925  31.289  1.00  0.00     0.032 C 
ATOM     18  C   UNL     1      25.895 -27.228  31.369  1.00  0.00    -0.008 C 
ATOM     19  C   UNL     1      23.671 -26.766  32.489  1.00  0.00     0.009 C 
ATOM     20  C   UNL     1      25.190 -26.690  32.677  1.00  0.00     0.009 C 
ATOM     21  C   UNL     1      27.434 -27.272  31.592  1.00  0.00     0.015 C 
ATOM     22  C   UNL     1      25.436 -28.650  30.917  1.00  0.00     0.016 C 
ATOM     23  C   UNL     1      25.687 -27.226  34.080  1.00  0.00     0.005 C 
ATOM     24  C   UNL     1      27.828 -27.992  32.889  1.00  0.00     0.047 C 
ATOM     25  C   UNL     1      27.250 -27.260  34.105  1.00  0.00     0.182 C 
ATOM     26  C   UNL     1      25.253 -26.215  35.186  1.00  0.00     0.015 C 
ATOM     27  C   UNL     1      25.082 -28.601  34.468  1.00  0.00     0.015 C 
BRANCH   7  28
ATOM     28  O   UNL     1      21.751 -25.111  26.160  1.00  0.00    -0.393 OA
ATOM     29  H   UNL     1      21.885 -24.539  25.365  1.00  0.00     0.210 HD
ENDBRANCH   7  28
BRANCH  25  30
ATOM     30  O   UNL     1      27.716 -27.885  35.300  1.00  0.00    -0.462 OA
BRANCH  30  31
ATOM     31  C   UNL     1      27.971 -27.195  36.490  1.00  0.00     0.302 C 
ATOM     32  O   UNL     1      27.494 -27.594  37.585  1.00  0.00    -0.253 OA
ATOM     33  C   UNL     1      28.793 -25.954  36.448  1.00  0.00     0.139 C 
ENDBRANCH  30  31
ENDBRANCH  25  30
ENDBRANCH   2   6
ENDBRANCH   1   2
BRANCH   1  34
ATOM     34  C   UNL     1      25.231 -23.038  23.386  1.00  0.00     0.031 C 
BRANCH  34  35
ATOM     35  C   UNL     1      26.481 -23.589  24.040  1.00  0.00    -0.075 C 
ATOM     36  C   UNL     1      26.699 -24.912  23.995  1.00  0.00     0.008 C 
BRANCH  35  37
ATOM     37  C   UNL     1      27.453 -22.673  24.778  1.00  0.00     0.008 C 
ATOM     38  C   UNL     1      27.961 -23.327  26.069  1.00  0.00     0.012 C 
ATOM     39  C   UNL     1      28.624 -22.242  23.887  1.00  0.00     0.012 C 
ENDBRANCH  35  37
ENDBRANCH  34  35
ENDBRANCH   1  34
TORSDOF 9
ENDMDL
MODEL 5
REMARK VINA RESULT:    -7.651      2.223      9.246
REMARK INTER + INTRA:         -12.969
REMARK INTER:                 -11.380
REMARK INTRA:                  -1.589
REMARK UNBOUND:                -1.516
REMARK SMILES C=C(CC[C@@H](C(=O)[O-])[C@@H]1[C@H](O)C[C@@]2(C)C3=C(CC[C@@]12C)[C@@]1(C)CC[C@H](OC(C)=O)C(C)(C)[C@@H]1CC3)C(C)C
REMARK SMILES IDX 4 1 5 2 6 3 7 4 8 5 9 6 10 7 19 8 12 9 13 10 18 11 20 12
REMARK SMILES IDX 14 13 15 14 17 15 16 16 35 17 21 18 34 19 33 20 23 21 22 22
REMARK SMILES IDX 30 23 24 24 25 25 31 26 32 27 11 28 26 30 27 31 29 32 28 33
REMARK SMILES IDX 3 34 2 35 1 36 36 37 37 38 38 39
REMARK H PARENT 11 29
REMARK Flexibility Score: inf
ROOT
ATOM      1  C   UNL     1      23.724 -21.503  26.079  1.00  0.00     0.014 C 
ENDROOT
BRANCH   1   2
ATOM      2  C   UNL     1      23.345 -22.941  26.553  1.00  0.00     0.042 C 
BRANCH   2   3
ATOM      3  C   UNL     1      22.721 -23.740  25.424  1.00  0.00     0.045 C 
ATOM      4  O   UNL     1      21.968 -24.713  25.658  1.00  0.00    -0.550 OA
ATOM      5  O   UNL     1      23.094 -23.488  24.107  1.00  0.00    -0.550 OA
ENDBRANCH   2   3
BRANCH   2   6
ATOM      6  C   UNL     1      24.542 -23.601  27.342  1.00  0.00     0.033 C 
ATOM      7  C   UNL     1      25.466 -24.599  26.595  1.00  0.00     0.119 C 
ATOM      8  C   UNL     1      24.311 -24.237  28.772  1.00  0.00    -0.017 C 
ATOM      9  C   UNL     1      25.744 -25.770  27.551  1.00  0.00     0.043 C 
ATOM     10  C   UNL     1      24.624 -25.764  28.603  1.00  0.00    -0.003 C 
ATOM     11  C   UNL     1      25.363 -23.603  29.728  1.00  0.00     0.012 C 
ATOM     12  C   UNL     1      22.904 -23.981  29.370  1.00  0.00     0.013 C 
ATOM     13  C   UNL     1      23.397 -26.528  28.021  1.00  0.00     0.017 C 
ATOM     14  C   UNL     1      25.136 -26.482  29.890  1.00  0.00    -0.064 C 
ATOM     15  C   UNL     1      25.466 -24.294  31.068  1.00  0.00     0.032 C 
ATOM     16  C   UNL     1      25.667 -25.793  30.955  1.00  0.00    -0.064 C 
ATOM     17  C   UNL     1      24.960 -28.019  29.941  1.00  0.00     0.032 C 
ATOM     18  C   UNL     1      26.431 -26.550  32.065  1.00  0.00    -0.008 C 
ATOM     19  C   UNL     1      25.622 -28.752  31.111  1.00  0.00     0.009 C 
ATOM     20  C   UNL     1      25.632 -27.879  32.371  1.00  0.00     0.009 C 
ATOM     21  C   UNL     1      26.553 -25.710  33.369  1.00  0.00     0.015 C 
ATOM     22  C   UNL     1      27.869 -26.767  31.498  1.00  0.00     0.016 C 
ATOM     23  C   UNL     1      25.965 -28.675  33.697  1.00  0.00     0.005 C 
ATOM     24  C   UNL     1      27.078 -26.527  34.558  1.00  0.00     0.047 C 
ATOM     25  C   UNL     1      26.113 -27.672  34.887  1.00  0.00     0.182 C 
ATOM     26  C   UNL     1      24.756 -29.596  34.046  1.00  0.00     0.015 C 
ATOM     27  C   UNL     1      27.207 -29.596  33.571  1.00  0.00     0.015 C 
BRANCH   7  28
ATOM     28  O   UNL     1      24.893 -25.083  25.412  1.00  0.00    -0.393 OA
ATOM     29  H   UNL     1      24.870 -24.329  24.773  1.00  0.00     0.210 HD
ENDBRANCH   7  28
BRANCH  25  30
ATOM     30  O   UNL     1      26.566 -28.351  36.057  1.00  0.00    -0.462 OA
BRANCH  30  31
ATOM     31  C   UNL     1      25.921 -28.280  37.296  1.00  0.00     0.302 C 
ATOM     32  O   UNL     1      25.387 -27.209  37.688  1.00  0.00    -0.253 OA
ATOM     33  C   UNL     1      25.896 -29.484  38.173  1.00  0.00     0.139 C 
ENDBRANCH  30  31
ENDBRANCH  25  30
ENDBRANCH   2   6
ENDBRANCH   1   2
BRANCH   1  34
ATOM     34  C   UNL     1      22.833 -20.403  26.707  1.00  0.00     0.031 C 
BRANCH  34  35
ATOM     35  C   UNL     1      23.267 -20.036  28.111  1.00  0.00    -0.075 C 
ATOM     36  C   UNL     1      22.399 -20.216  29.118  1.00  0.00     0.008 C 
BRANCH  35  37
ATOM     37  C   UNL     1      24.642 -19.430  28.378  1.00  0.00     0.008 C 
ATOM     38  C   UNL     1      24.566 -17.902  28.478  1.00  0.00     0.012 C 
ATOM     39  C   UNL     1      25.299 -20.027  29.628  1.00  0.00     0.012 C 
ENDBRANCH  35  37
ENDBRANCH  34  35
ENDBRANCH   1  34
TORSDOF 9
ENDMDL
MODEL 6
REMARK VINA RESULT:    -7.602      2.141      9.360
REMARK INTER + INTRA:         -12.895
REMARK INTER:                 -11.160
REMARK INTRA:                  -1.735
REMARK UNBOUND:                -1.516
REMARK SMILES C=C(CC[C@@H](C(=O)[O-])[C@@H]1[C@H](O)C[C@@]2(C)C3=C(CC[C@@]12C)[C@@]1(C)CC[C@H](OC(C)=O)C(C)(C)[C@@H]1CC3)C(C)C
REMARK SMILES IDX 4 1 5 2 6 3 7 4 8 5 9 6 10 7 19 8 12 9 13 10 18 11 20 12
REMARK SMILES IDX 14 13 15 14 17 15 16 16 35 17 21 18 34 19 33 20 23 21 22 22
REMARK SMILES IDX 30 23 24 24 25 25 31 26 32 27 11 28 26 30 27 31 29 32 28 33
REMARK SMILES IDX 3 34 2 35 1 36 36 37 37 38 38 39
REMARK H PARENT 11 29
REMARK Flexibility Score: inf
ROOT
ATOM      1  C   UNL     1      24.360 -23.447  26.472  1.00  0.00     0.014 C 
ENDROOT
BRANCH   1   2
ATOM      2  C   UNL     1      24.018 -24.516  27.557  1.00  0.00     0.042 C 
BRANCH   2   3
ATOM      3  C   UNL     1      23.435 -25.766  26.924  1.00  0.00     0.045 C 
ATOM      4  O   UNL     1      22.814 -26.610  27.610  1.00  0.00    -0.550 OA
ATOM      5  O   UNL     1      23.710 -26.063  25.593  1.00  0.00    -0.550 OA
ENDBRANCH   2   3
BRANCH   2   6
ATOM      6  C   UNL     1      25.222 -24.697  28.561  1.00  0.00     0.033 C 
ATOM      7  C   UNL     1      26.413 -25.599  28.141  1.00  0.00     0.119 C 
ATOM      8  C   UNL     1      24.957 -25.037  30.083  1.00  0.00    -0.017 C 
ATOM      9  C   UNL     1      26.809 -26.436  29.367  1.00  0.00     0.043 C 
ATOM     10  C   UNL     1      25.594 -26.452  30.309  1.00  0.00    -0.003 C 
ATOM     11  C   UNL     1      25.736 -23.986  30.927  1.00  0.00     0.012 C 
ATOM     12  C   UNL     1      23.467 -24.981  30.505  1.00  0.00     0.013 C 
ATOM     13  C   UNL     1      24.627 -27.583  29.847  1.00  0.00     0.017 C 
ATOM     14  C   UNL     1      26.085 -26.733  31.763  1.00  0.00    -0.064 C 
ATOM     15  C   UNL     1      25.819 -24.322  32.397  1.00  0.00     0.032 C 
ATOM     16  C   UNL     1      26.333 -25.724  32.663  1.00  0.00    -0.064 C 
ATOM     17  C   UNL     1      26.222 -28.219  32.171  1.00  0.00     0.032 C 
ATOM     18  C   UNL     1      27.098 -26.024  33.973  1.00  0.00    -0.008 C 
ATOM     19  C   UNL     1      26.877 -28.507  33.525  1.00  0.00     0.009 C 
ATOM     20  C   UNL     1      26.557 -27.398  34.535  1.00  0.00     0.009 C 
ATOM     21  C   UNL     1      26.891 -24.911  35.040  1.00  0.00     0.015 C 
ATOM     22  C   UNL     1      28.607 -26.029  33.573  1.00  0.00     0.016 C 
ATOM     23  C   UNL     1      26.886 -27.785  36.033  1.00  0.00     0.005 C 
ATOM     24  C   UNL     1      27.426 -25.305  36.424  1.00  0.00     0.047 C 
ATOM     25  C   UNL     1      26.684 -26.538  36.953  1.00  0.00     0.182 C 
ATOM     26  C   UNL     1      25.858 -28.856  36.512  1.00  0.00     0.015 C 
ATOM     27  C   UNL     1      28.297 -28.405  36.218  1.00  0.00     0.015 C 
BRANCH   7  28
ATOM     28  O   UNL     1      26.096 -26.449  27.073  1.00  0.00    -0.393 OA
ATOM     29  H   UNL     1      26.562 -26.097  26.276  1.00  0.00     0.210 HD
ENDBRANCH   7  28
BRANCH  25  30
ATOM     30  O   UNL     1      27.124 -26.821  38.281  1.00  0.00    -0.462 OA
BRANCH  30  31
ATOM     31  C   UNL     1      26.438 -26.415  39.431  1.00  0.00     0.302 C 
ATOM     32  O   UNL     1      25.384 -26.999  39.797  1.00  0.00    -0.253 OA
ATOM     33  C   UNL     1      26.950 -25.254  40.210  1.00  0.00     0.139 C 
ENDBRANCH  30  31
ENDBRANCH  25  30
ENDBRANCH   2   6
ENDBRANCH   1   2
BRANCH   1  34
ATOM     34  C   UNL     1      25.261 -22.308  27.006  1.00  0.00     0.031 C 
BRANCH  34  35
ATOM     35  C   UNL     1      24.473 -21.068  27.377  1.00  0.00    -0.075 C 
ATOM     36  C   UNL     1      23.878 -20.369  26.398  1.00  0.00     0.008 C 
BRANCH  35  37
ATOM     37  C   UNL     1      24.390 -20.591  28.824  1.00  0.00     0.008 C 
ATOM     38  C   UNL     1      23.288 -21.330  29.590  1.00  0.00     0.012 C 
ATOM     39  C   UNL     1      25.736 -20.716  29.547  1.00  0.00     0.012 C 
ENDBRANCH  35  37
ENDBRANCH  34  35
ENDBRANCH   1  34
TORSDOF 9
ENDMDL
MODEL 7
REMARK VINA RESULT:    -7.600      1.688      3.086
REMARK INTER + INTRA:         -12.892
REMARK INTER:                 -12.492
REMARK INTRA:                  -0.400
REMARK UNBOUND:                -1.516
REMARK SMILES C=C(CC[C@@H](C(=O)[O-])[C@@H]1[C@H](O)C[C@@]2(C)C3=C(CC[C@@]12C)[C@@]1(C)CC[C@H](OC(C)=O)C(C)(C)[C@@H]1CC3)C(C)C
REMARK SMILES IDX 4 1 5 2 6 3 7 4 8 5 9 6 10 7 19 8 12 9 13 10 18 11 20 12
REMARK SMILES IDX 14 13 15 14 17 15 16 16 35 17 21 18 34 19 33 20 23 21 22 22
REMARK SMILES IDX 30 23 24 24 25 25 31 26 32 27 11 28 26 30 27 31 29 32 28 33
REMARK SMILES IDX 3 34 2 35 1 36 36 37 37 38 38 39
REMARK H PARENT 11 29
REMARK Flexibility Score: inf
ROOT
ATOM      1  C   UNL     1      26.021 -26.639  35.798  1.00  0.00     0.014 C 
ENDROOT
BRANCH   1   2
ATOM      2  C   UNL     1      25.511 -28.007  35.247  1.00  0.00     0.042 C 
BRANCH   2   3
ATOM      3  C   UNL     1      24.654 -28.723  36.275  1.00  0.00     0.045 C 
ATOM      4  O   UNL     1      25.166 -29.483  37.128  1.00  0.00    -0.550 OA
ATOM      5  O   UNL     1      23.267 -28.655  36.191  1.00  0.00    -0.550 OA
ENDBRANCH   2   3
BRANCH   2   6
ATOM      6  C   UNL     1      24.920 -27.838  33.793  1.00  0.00     0.033 C 
ATOM      7  C   UNL     1      24.665 -29.108  32.940  1.00  0.00     0.119 C 
ATOM      8  C   UNL     1      25.537 -26.779  32.792  1.00  0.00    -0.017 C 
ATOM      9  C   UNL     1      25.130 -28.799  31.508  1.00  0.00     0.043 C 
ATOM     10  C   UNL     1      26.112 -27.620  31.600  1.00  0.00    -0.003 C 
ATOM     11  C   UNL     1      24.359 -25.901  32.275  1.00  0.00     0.012 C 
ATOM     12  C   UNL     1      26.596 -25.839  33.422  1.00  0.00     0.013 C 
ATOM     13  C   UNL     1      27.525 -28.182  31.940  1.00  0.00     0.017 C 
ATOM     14  C   UNL     1      26.148 -26.884  30.225  1.00  0.00    -0.064 C 
ATOM     15  C   UNL     1      24.723 -25.018  31.105  1.00  0.00     0.032 C 
ATOM     16  C   UNL     1      25.379 -25.774  29.965  1.00  0.00    -0.064 C 
ATOM     17  C   UNL     1      27.146 -27.428  29.176  1.00  0.00     0.032 C 
ATOM     18  C   UNL     1      25.219 -25.265  28.515  1.00  0.00    -0.008 C 
ATOM     19  C   UNL     1      27.060 -26.834  27.767  1.00  0.00     0.009 C 
ATOM     20  C   UNL     1      26.633 -25.363  27.817  1.00  0.00     0.009 C 
ATOM     21  C   UNL     1      24.718 -23.792  28.463  1.00  0.00     0.015 C 
ATOM     22  C   UNL     1      24.114 -26.169  27.883  1.00  0.00     0.016 C 
ATOM     23  C   UNL     1      26.863 -24.585  26.459  1.00  0.00     0.005 C 
ATOM     24  C   UNL     1      24.794 -23.187  27.054  1.00  0.00     0.047 C 
ATOM     25  C   UNL     1      26.246 -23.152  26.564  1.00  0.00     0.182 C 
ATOM     26  C   UNL     1      28.396 -24.388  26.246  1.00  0.00     0.015 C 
ATOM     27  C   UNL     1      26.333 -25.342  25.214  1.00  0.00     0.015 C 
BRANCH   7  28
ATOM     28  O   UNL     1      25.350 -30.231  33.425  1.00  0.00    -0.393 OA
ATOM     29  H   UNL     1      26.034 -30.464  32.751  1.00  0.00     0.210 HD
ENDBRANCH   7  28
BRANCH  25  30
ATOM     30  O   UNL     1      26.304 -22.490  25.301  1.00  0.00    -0.462 OA
BRANCH  30  31
ATOM     31  C   UNL     1      25.194 -21.912  24.675  1.00  0.00     0.302 C 
ATOM     32  O   UNL     1      24.816 -20.749  24.974  1.00  0.00    -0.253 OA
ATOM     33  C   UNL     1      24.437 -22.701  23.665  1.00  0.00     0.139 C 
ENDBRANCH  30  31
ENDBRANCH  25  30
ENDBRANCH   2   6
ENDBRANCH   1   2
BRANCH   1  34
ATOM     34  C   UNL     1      27.159 -26.790  36.836  1.00  0.00     0.031 C 
BRANCH  34  35
ATOM     35  C   UNL     1      28.498 -26.329  36.301  1.00  0.00    -0.075 C 
ATOM     36  C   UNL     1      28.770 -25.015  36.295  1.00  0.00     0.008 C 
BRANCH  35  37
ATOM     37  C   UNL     1      29.506 -27.326  35.734  1.00  0.00     0.008 C 
ATOM     38  C   UNL     1      28.923 -28.743  35.696  1.00  0.00     0.012 C 
ATOM     39  C   UNL     1      30.012 -26.906  34.349  1.00  0.00     0.012 C 
ENDBRANCH  35  37
ENDBRANCH  34  35
ENDBRANCH   1  34
TORSDOF 9
ENDMDL
MODEL 8
REMARK VINA RESULT:    -7.501      2.616      9.307
REMARK INTER + INTRA:         -12.745
REMARK INTER:                 -11.263
REMARK INTRA:                  -1.482
REMARK UNBOUND:                -1.516
REMARK SMILES C=C(CC[C@@H](C(=O)[O-])[C@@H]1[C@H](O)C[C@@]2(C)C3=C(CC[C@@]12C)[C@@]1(C)CC[C@H](OC(C)=O)C(C)(C)[C@@H]1CC3)C(C)C
REMARK SMILES IDX 4 1 5 2 6 3 7 4 8 5 9 6 10 7 19 8 12 9 13 10 18 11 20 12
REMARK SMILES IDX 14 13 15 14 17 15 16 16 35 17 21 18 34 19 33 20 23 21 22 22
REMARK SMILES IDX 30 23 24 24 25 25 31 26 32 27 11 28 26 30 27 31 29 32 28 33
REMARK SMILES IDX 3 34 2 35 1 36 36 37 37 38 38 39
REMARK H PARENT 11 29
REMARK Flexibility Score: inf
ROOT
ATOM      1  C   UNL     1      22.463 -22.538  25.697  1.00  0.00     0.014 C 
ENDROOT
BRANCH   1   2
ATOM      2  C   UNL     1      23.502 -22.080  26.768  1.00  0.00     0.042 C 
BRANCH   2   3
ATOM      3  C   UNL     1      23.504 -20.569  26.913  1.00  0.00     0.045 C 
ATOM      4  O   UNL     1      24.461 -19.971  27.455  1.00  0.00    -0.550 OA
ATOM      5  O   UNL     1      22.370 -19.838  26.572  1.00  0.00    -0.550 OA
ENDBRANCH   2   3
BRANCH   2   6
ATOM      6  C   UNL     1      23.364 -22.940  28.084  1.00  0.00     0.033 C 
ATOM      7  C   UNL     1      22.365 -22.476  29.176  1.00  0.00     0.119 C 
ATOM      8  C   UNL     1      24.650 -23.421  28.871  1.00  0.00    -0.017 C 
ATOM      9  C   UNL     1      23.053 -22.667  30.537  1.00  0.00     0.043 C 
ATOM     10  C   UNL     1      24.565 -22.719  30.271  1.00  0.00    -0.003 C 
ATOM     11  C   UNL     1      24.519 -24.960  29.062  1.00  0.00     0.012 C 
ATOM     12  C   UNL     1      25.990 -23.140  28.145  1.00  0.00     0.013 C 
ATOM     13  C   UNL     1      25.104 -21.259  30.201  1.00  0.00     0.017 C 
ATOM     14  C   UNL     1      25.258 -23.487  31.439  1.00  0.00    -0.064 C 
ATOM     15  C   UNL     1      25.522 -25.543  30.029  1.00  0.00     0.032 C 
ATOM     16  C   UNL     1      25.549 -24.829  31.367  1.00  0.00    -0.064 C 
ATOM     17  C   UNL     1      25.665 -22.646  32.673  1.00  0.00     0.032 C 
ATOM     18  C   UNL     1      25.952 -25.604  32.642  1.00  0.00    -0.008 C 
ATOM     19  C   UNL     1      26.174 -23.415  33.896  1.00  0.00     0.009 C 
ATOM     20  C   UNL     1      26.929 -24.681  33.472  1.00  0.00     0.009 C 
ATOM     21  C   UNL     1      26.666 -26.946  32.311  1.00  0.00     0.015 C 
ATOM     22  C   UNL     1      24.606 -25.942  33.357  1.00  0.00     0.016 C 
ATOM     23  C   UNL     1      27.783 -25.333  34.633  1.00  0.00     0.005 C 
ATOM     24  C   UNL     1      27.296 -27.607  33.545  1.00  0.00     0.047 C 
ATOM     25  C   UNL     1      28.373 -26.697  34.147  1.00  0.00     0.182 C 
ATOM     26  C   UNL     1      29.004 -24.410  34.937  1.00  0.00     0.015 C 
ATOM     27  C   UNL     1      27.001 -25.492  35.963  1.00  0.00     0.015 C 
BRANCH   7  28
ATOM     28  O   UNL     1      21.984 -21.136  29.025  1.00  0.00    -0.393 OA
ATOM     29  H   UNL     1      22.786 -20.640  28.729  1.00  0.00     0.210 HD
ENDBRANCH   7  28
BRANCH  25  30
ATOM     30  O   UNL     1      29.016 -27.374  35.226  1.00  0.00    -0.462 OA
BRANCH  30  31
ATOM     31  C   UNL     1      28.644 -28.645  35.678  1.00  0.00     0.302 C 
ATOM     32  O   UNL     1      29.032 -29.684  35.082  1.00  0.00    -0.253 OA
ATOM     33  C   UNL     1      27.750 -28.761  36.864  1.00  0.00     0.139 C 
ENDBRANCH  30  31
ENDBRANCH  25  30
ENDBRANCH   2   6
ENDBRANCH   1   2
BRANCH   1  34
ATOM     34  C   UNL     1      23.092 -23.389  24.568  1.00  0.00     0.031 C 
BRANCH  34  35
ATOM     35  C   UNL     1      23.176 -24.859  24.925  1.00  0.00    -0.075 C 
ATOM     36  C   UNL     1      22.061 -25.486  25.328  1.00  0.00     0.008 C 
BRANCH  35  37
ATOM     37  C   UNL     1      24.506 -25.607  24.876  1.00  0.00     0.008 C 
ATOM     38  C   UNL     1      25.685 -24.635  24.761  1.00  0.00     0.012 C 
ATOM     39  C   UNL     1      24.683 -26.540  26.079  1.00  0.00     0.012 C 
ENDBRANCH  35  37
ENDBRANCH  34  35
ENDBRANCH   1  34
TORSDOF 9
ENDMDL
MODEL 9
REMARK VINA RESULT:    -7.467      2.228      9.410
REMARK INTER + INTRA:         -12.693
REMARK INTER:                 -12.050
REMARK INTRA:                  -0.643
REMARK UNBOUND:                -1.516
REMARK SMILES C=C(CC[C@@H](C(=O)[O-])[C@@H]1[C@H](O)C[C@@]2(C)C3=C(CC[C@@]12C)[C@@]1(C)CC[C@H](OC(C)=O)C(C)(C)[C@@H]1CC3)C(C)C
REMARK SMILES IDX 4 1 5 2 6 3 7 4 8 5 9 6 10 7 19 8 12 9 13 10 18 11 20 12
REMARK SMILES IDX 14 13 15 14 17 15 16 16 35 17 21 18 34 19 33 20 23 21 22 22
REMARK SMILES IDX 30 23 24 24 25 25 31 26 32 27 11 28 26 30 27 31 29 32 28 33
REMARK SMILES IDX 3 34 2 35 1 36 36 37 37 38 38 39
REMARK H PARENT 11 29
REMARK Flexibility Score: inf
ROOT
ATOM      1  C   UNL     1      24.150 -22.264  25.857  1.00  0.00     0.014 C 
ENDROOT
BRANCH   1   2
ATOM      2  C   UNL     1      24.172 -23.579  25.016  1.00  0.00     0.042 C 
BRANCH   2   3
ATOM      3  C   UNL     1      25.132 -23.460  23.846  1.00  0.00     0.045 C 
ATOM      4  O   UNL     1      24.911 -24.050  22.764  1.00  0.00    -0.550 OA
ATOM      5  O   UNL     1      26.349 -22.805  24.010  1.00  0.00    -0.550 OA
ENDBRANCH   2   3
BRANCH   2   6
ATOM      6  C   UNL     1      24.316 -24.840  25.954  1.00  0.00     0.033 C 
ATOM      7  C   UNL     1      23.077 -25.748  26.175  1.00  0.00     0.119 C 
ATOM      8  C   UNL     1      25.000 -24.713  27.375  1.00  0.00    -0.017 C 
ATOM      9  C   UNL     1      23.040 -26.118  27.666  1.00  0.00     0.043 C 
ATOM     10  C   UNL     1      23.874 -25.062  28.409  1.00  0.00    -0.003 C 
ATOM     11  C   UNL     1      26.112 -25.799  27.445  1.00  0.00     0.012 C 
ATOM     12  C   UNL     1      25.656 -23.336  27.652  1.00  0.00     0.013 C 
ATOM     13  C   UNL     1      22.967 -23.827  28.691  1.00  0.00     0.017 C 
ATOM     14  C   UNL     1      24.377 -25.671  29.755  1.00  0.00    -0.064 C 
ATOM     15  C   UNL     1      26.682 -26.003  28.828  1.00  0.00     0.032 C 
ATOM     16  C   UNL     1      25.621 -26.242  29.885  1.00  0.00    -0.064 C 
ATOM     17  C   UNL     1      23.426 -25.545  30.969  1.00  0.00     0.032 C 
ATOM     18  C   UNL     1      25.957 -27.093  31.131  1.00  0.00    -0.008 C 
ATOM     19  C   UNL     1      23.825 -26.297  32.242  1.00  0.00     0.009 C 
ATOM     20  C   UNL     1      25.350 -26.354  32.389  1.00  0.00     0.009 C 
ATOM     21  C   UNL     1      27.491 -27.266  31.324  1.00  0.00     0.015 C 
ATOM     22  C   UNL     1      25.348 -28.501  30.842  1.00  0.00     0.016 C 
ATOM     23  C   UNL     1      25.836 -26.789  33.830  1.00  0.00     0.005 C 
ATOM     24  C   UNL     1      27.854 -27.885  32.682  1.00  0.00     0.047 C 
ATOM     25  C   UNL     1      27.388 -26.977  33.825  1.00  0.00     0.182 C 
ATOM     26  C   UNL     1      25.537 -25.632  34.831  1.00  0.00     0.015 C 
ATOM     27  C   UNL     1      25.113 -28.049  34.374  1.00  0.00     0.015 C 
BRANCH   7  28
ATOM     28  O   UNL     1      21.877 -25.122  25.816  1.00  0.00    -0.393 OA
ATOM     29  H   UNL     1      21.277 -25.177  26.600  1.00  0.00     0.210 HD
ENDBRANCH   7  28
BRANCH  25  30
ATOM     30  O   UNL     1      27.829 -27.518  35.070  1.00  0.00    -0.462 OA
BRANCH  30  31
ATOM     31  C   UNL     1      28.907 -27.009  35.801  1.00  0.00     0.302 C 
ATOM     32  O   UNL     1      29.998 -27.635  35.868  1.00  0.00    -0.253 OA
ATOM     33  C   UNL     1      28.744 -25.723  36.535  1.00  0.00     0.139 C 
ENDBRANCH  30  31
ENDBRANCH  25  30
ENDBRANCH   2   6
ENDBRANCH   1   2
BRANCH   1  34
ATOM     34  C   UNL     1      22.735 -21.649  25.983  1.00  0.00     0.031 C 
BRANCH  34  35
ATOM     35  C   UNL     1      22.737 -20.337  26.739  1.00  0.00    -0.075 C 
ATOM     36  C   UNL     1      23.146 -19.230  26.101  1.00  0.00     0.008 C 
BRANCH  35  37
ATOM     37  C   UNL     1      22.329 -20.274  28.208  1.00  0.00     0.008 C 
ATOM     38  C   UNL     1      23.555 -20.156  29.121  1.00  0.00     0.012 C 
ATOM     39  C   UNL     1      21.336 -19.137  28.479  1.00  0.00     0.012 C 
ENDBRANCH  35  37
ENDBRANCH  34  35
ENDBRANCH   1  34
TORSDOF 9
ENDMDL
