MODEL 1
REMARK VINA RESULT:    -4.840      0.000      0.000
REMARK INTER + INTRA:          -5.215
REMARK INTER:                  -5.123
REMARK INTRA:                  -0.092
REMARK UNBOUND:                -0.092
REMARK SMILES C=C(C)[C@@H]1CC=C(C)C(=O)C1
REMARK SMILES IDX 8 1 7 2 6 3 5 4 4 5 11 6 9 7 10 8 2 9 1 10 3 11
REMARK H PARENT
REMARK Flexibility Score: inf
ROOT
ATOM      1  C   UNL     1      -1.010   0.002  26.613  1.00  0.00     0.048 C 
ATOM      2  C   UNL     1      -1.817  -0.056  27.881  1.00  0.00    -0.012 C 
ATOM      3  C   UNL     1      -3.115  -0.404  27.833  1.00  0.00    -0.019 C 
ATOM      4  C   UNL     1      -3.963  -0.495  29.074  1.00  0.00     0.036 C 
ATOM      5  C   UNL     1      -3.518   0.538  30.126  1.00  0.00     0.025 C 
ATOM      6  C   UNL     1      -2.018   0.378  30.433  1.00  0.00     0.089 C 
ATOM      7  C   UNL     1      -1.215   0.391  29.162  1.00  0.00     0.158 C 
ATOM      8  O   UNL     1      -0.008   0.753  29.203  1.00  0.00    -0.295 OA
ENDROOT
BRANCH   5   9
ATOM      9  C   UNL     1      -4.358   0.441  31.392  1.00  0.00    -0.077 C 
ATOM     10  C   UNL     1      -4.391   1.464  32.260  1.00  0.00     0.008 C 
ATOM     11  C   UNL     1      -5.169  -0.793  31.705  1.00  0.00     0.039 C 
ENDBRANCH   5   9
TORSDOF 1
ENDMDL
MODEL 2
REMARK VINA RESULT:    -4.543      2.050      4.695
REMARK INTER + INTRA:          -4.901
REMARK INTER:                  -4.803
REMARK INTRA:                  -0.098
REMARK UNBOUND:                -0.092
REMARK SMILES C=C(C)[C@@H]1CC=C(C)C(=O)C1
REMARK SMILES IDX 8 1 7 2 6 3 5 4 4 5 11 6 9 7 10 8 2 9 1 10 3 11
REMARK H PARENT
REMARK Flexibility Score: inf
ROOT
ATOM      1  C   UNL     1      -4.599   1.141  32.218  1.00  0.00     0.048 C 
ATOM      2  C   UNL     1      -3.895   0.736  30.953  1.00  0.00    -0.012 C 
ATOM      3  C   UNL     1      -2.853   1.459  30.507  1.00  0.00    -0.019 C 
ATOM      4  C   UNL     1      -2.101   1.087  29.256  1.00  0.00     0.036 C 
ATOM      5  C   UNL     1      -3.035   0.428  28.223  1.00  0.00     0.025 C 
ATOM      6  C   UNL     1      -3.758  -0.778  28.848  1.00  0.00     0.089 C 
ATOM      7  C   UNL     1      -4.426  -0.384  30.136  1.00  0.00     0.158 C 
ATOM      8  O   UNL     1      -5.426  -1.040  30.536  1.00  0.00    -0.295 OA
ENDROOT
BRANCH   5   9
ATOM      9  C   UNL     1      -2.279   0.032  26.963  1.00  0.00    -0.077 C 
ATOM     10  C   UNL     1      -0.984  -0.315  27.033  1.00  0.00     0.008 C 
ATOM     11  C   UNL     1      -2.954   0.019  25.613  1.00  0.00     0.039 C 
ENDBRANCH   5   9
TORSDOF 1
ENDMDL
MODEL 3
REMARK VINA RESULT:    -4.498      1.813      4.335
REMARK INTER + INTRA:          -4.854
REMARK INTER:                  -4.757
REMARK INTRA:                  -0.096
REMARK UNBOUND:                -0.092
REMARK SMILES C=C(C)[C@@H]1CC=C(C)C(=O)C1
REMARK SMILES IDX 8 1 7 2 6 3 5 4 4 5 11 6 9 7 10 8 2 9 1 10 3 11
REMARK H PARENT
REMARK Flexibility Score: inf
ROOT
ATOM      1  C   UNL     1      -5.883  -0.220  32.208  1.00  0.00     0.048 C 
ATOM      2  C   UNL     1      -4.776   0.039  31.223  1.00  0.00    -0.012 C 
ATOM      3  C   UNL     1      -4.594  -0.798  30.186  1.00  0.00    -0.019 C 
ATOM      4  C   UNL     1      -3.514  -0.576  29.161  1.00  0.00     0.036 C 
ATOM      5  C   UNL     1      -2.277   0.088  29.795  1.00  0.00     0.025 C 
ATOM      6  C   UNL     1      -2.677   1.390  30.512  1.00  0.00     0.089 C 
ATOM      7  C   UNL     1      -3.813   1.142  31.465  1.00  0.00     0.158 C 
ATOM      8  O   UNL     1      -3.960   1.906  32.457  1.00  0.00    -0.295 OA
ENDROOT
BRANCH   5   9
ATOM      9  C   UNL     1      -1.186   0.333  28.762  1.00  0.00    -0.077 C 
ATOM     10  C   UNL     1      -0.066   0.988  29.107  1.00  0.00     0.008 C 
ATOM     11  C   UNL     1      -1.330  -0.144  27.338  1.00  0.00     0.039 C 
ENDBRANCH   5   9
TORSDOF 1
ENDMDL
MODEL 4
REMARK VINA RESULT:    -4.420      2.096      4.471
REMARK INTER + INTRA:          -4.771
REMARK INTER:                  -4.673
REMARK INTRA:                  -0.098
REMARK UNBOUND:                -0.092
REMARK SMILES C=C(C)[C@@H]1CC=C(C)C(=O)C1
REMARK SMILES IDX 8 1 7 2 6 3 5 4 4 5 11 6 9 7 10 8 2 9 1 10 3 11
REMARK H PARENT
REMARK Flexibility Score: inf
ROOT
ATOM      1  C   UNL     1      -1.148   2.615  32.061  1.00  0.00     0.048 C 
ATOM      2  C   UNL     1      -1.360   1.804  30.812  1.00  0.00    -0.012 C 
ATOM      3  C   UNL     1      -0.401   1.765  29.869  1.00  0.00    -0.019 C 
ATOM      4  C   UNL     1      -0.554   0.955  28.609  1.00  0.00     0.036 C 
ATOM      5  C   UNL     1      -2.027   0.899  28.162  1.00  0.00     0.025 C 
ATOM      6  C   UNL     1      -2.914   0.371  29.305  1.00  0.00     0.089 C 
ATOM      7  C   UNL     1      -2.670   1.152  30.566  1.00  0.00     0.158 C 
ATOM      8  O   UNL     1      -3.583   1.219  31.433  1.00  0.00    -0.295 OA
ENDROOT
BRANCH   5   9
ATOM      9  C   UNL     1      -2.194   0.067  26.898  1.00  0.00    -0.077 C 
ATOM     10  C   UNL     1      -1.342  -0.937  26.634  1.00  0.00     0.008 C 
ATOM     11  C   UNL     1      -3.307   0.342  25.917  1.00  0.00     0.039 C 
ENDBRANCH   5   9
TORSDOF 1
ENDMDL
MODEL 5
REMARK VINA RESULT:    -4.321     16.922     17.757
REMARK INTER + INTRA:          -4.666
REMARK INTER:                  -4.568
REMARK INTRA:                  -0.098
REMARK UNBOUND:                -0.092
REMARK SMILES C=C(C)[C@@H]1CC=C(C)C(=O)C1
REMARK SMILES IDX 8 1 7 2 6 3 5 4 4 5 11 6 9 7 10 8 2 9 1 10 3 11
REMARK H PARENT
REMARK Flexibility Score: inf
ROOT
ATOM      1  C   UNL     1      -9.124  12.333  19.310  1.00  0.00     0.048 C 
ATOM      2  C   UNL     1     -10.185  11.451  18.712  1.00  0.00    -0.012 C 
ATOM      3  C   UNL     1     -11.186  11.997  18.000  1.00  0.00    -0.019 C 
ATOM      4  C   UNL     1     -12.264  11.158  17.364  1.00  0.00     0.036 C 
ATOM      5  C   UNL     1     -12.561   9.905  18.210  1.00  0.00     0.025 C 
ATOM      6  C   UNL     1     -11.269   9.105  18.455  1.00  0.00     0.089 C 
ATOM      7  C   UNL     1     -10.193   9.997  19.011  1.00  0.00     0.158 C 
ATOM      8  O   UNL     1      -9.275   9.489  19.709  1.00  0.00    -0.295 OA
ENDROOT
BRANCH   5   9
ATOM      9  C   UNL     1     -13.636   9.041  17.565  1.00  0.00    -0.077 C 
ATOM     10  C   UNL     1     -13.294   7.941  16.875  1.00  0.00     0.008 C 
ATOM     11  C   UNL     1     -15.100   9.391  17.680  1.00  0.00     0.039 C 
ENDBRANCH   5   9
TORSDOF 1
ENDMDL
MODEL 6
REMARK VINA RESULT:    -4.320      3.346      4.020
REMARK INTER + INTRA:          -4.665
REMARK INTER:                  -4.566
REMARK INTRA:                  -0.099
REMARK UNBOUND:                -0.092
REMARK SMILES C=C(C)[C@@H]1CC=C(C)C(=O)C1
REMARK SMILES IDX 8 1 7 2 6 3 5 4 4 5 11 6 9 7 10 8 2 9 1 10 3 11
REMARK H PARENT
REMARK Flexibility Score: inf
ROOT
ATOM      1  C   UNL     1      -2.012  -0.326  26.335  1.00  0.00     0.048 C 
ATOM      2  C   UNL     1      -1.417   0.659  27.303  1.00  0.00    -0.012 C 
ATOM      3  C   UNL     1      -0.738   0.217  28.376  1.00  0.00    -0.019 C 
ATOM      4  C   UNL     1      -0.107   1.160  29.366  1.00  0.00     0.036 C 
ATOM      5  C   UNL     1      -0.931   2.455  29.500  1.00  0.00     0.025 C 
ATOM      6  C   UNL     1      -1.132   3.107  28.121  1.00  0.00     0.089 C 
ATOM      7  C   UNL     1      -1.686   2.110  27.141  1.00  0.00     0.158 C 
ATOM      8  O   UNL     1      -2.354   2.524  26.155  1.00  0.00    -0.295 OA
ENDROOT
BRANCH   5   9
ATOM      9  C   UNL     1      -0.290   3.422  30.485  1.00  0.00    -0.077 C 
ATOM     10  C   UNL     1       0.125   4.630  30.072  1.00  0.00     0.008 C 
ATOM     11  C   UNL     1      -0.103   3.057  31.938  1.00  0.00     0.039 C 
ENDBRANCH   5   9
TORSDOF 1
ENDMDL
MODEL 7
REMARK VINA RESULT:    -4.157      9.607     11.509
REMARK INTER + INTRA:          -4.492
REMARK INTER:                  -4.395
REMARK INTRA:                  -0.097
REMARK UNBOUND:                -0.092
REMARK SMILES C=C(C)[C@@H]1CC=C(C)C(=O)C1
REMARK SMILES IDX 8 1 7 2 6 3 5 4 4 5 11 6 9 7 10 8 2 9 1 10 3 11
REMARK H PARENT
REMARK Flexibility Score: inf
ROOT
ATOM      1  C   UNL     1     -13.611   1.812  34.788  1.00  0.00     0.048 C 
ATOM      2  C   UNL     1     -13.533   1.595  33.302  1.00  0.00    -0.012 C 
ATOM      3  C   UNL     1     -13.229   0.378  32.818  1.00  0.00    -0.019 C 
ATOM      4  C   UNL     1     -13.156   0.102  31.340  1.00  0.00     0.036 C 
ATOM      5  C   UNL     1     -12.665   1.342  30.568  1.00  0.00     0.025 C 
ATOM      6  C   UNL     1     -13.553   2.558  30.890  1.00  0.00     0.089 C 
ATOM      7  C   UNL     1     -13.668   2.749  32.377  1.00  0.00     0.158 C 
ATOM      8  O   UNL     1     -13.916   3.898  32.831  1.00  0.00    -0.295 OA
ENDROOT
BRANCH   5   9
ATOM      9  C   UNL     1     -12.605   1.078  29.070  1.00  0.00    -0.077 C 
ATOM     10  C   UNL     1     -13.591   0.396  28.466  1.00  0.00     0.008 C 
ATOM     11  C   UNL     1     -11.450   1.567  28.232  1.00  0.00     0.039 C 
ENDBRANCH   5   9
TORSDOF 1
ENDMDL
MODEL 8
REMARK VINA RESULT:    -4.115     10.067     11.760
REMARK INTER + INTRA:          -4.448
REMARK INTER:                  -4.361
REMARK INTRA:                  -0.087
REMARK UNBOUND:                -0.092
REMARK SMILES C=C(C)[C@@H]1CC=C(C)C(=O)C1
REMARK SMILES IDX 8 1 7 2 6 3 5 4 4 5 11 6 9 7 10 8 2 9 1 10 3 11
REMARK H PARENT
REMARK Flexibility Score: inf
ROOT
ATOM      1  C   UNL     1     -11.888   0.740  32.521  1.00  0.00     0.048 C 
ATOM      2  C   UNL     1     -12.821   1.200  31.434  1.00  0.00    -0.012 C 
ATOM      3  C   UNL     1     -13.196   0.343  30.468  1.00  0.00    -0.019 C 
ATOM      4  C   UNL     1     -14.140   0.746  29.367  1.00  0.00     0.036 C 
ATOM      5  C   UNL     1     -13.967   2.233  29.004  1.00  0.00     0.025 C 
ATOM      6  C   UNL     1     -14.125   3.112  30.257  1.00  0.00     0.089 C 
ATOM      7  C   UNL     1     -13.225   2.626  31.360  1.00  0.00     0.158 C 
ATOM      8  O   UNL     1     -12.845   3.439  32.245  1.00  0.00    -0.295 OA
ENDROOT
BRANCH   5   9
ATOM      9  C   UNL     1     -14.931   2.653  27.904  1.00  0.00    -0.077 C 
ATOM     10  C   UNL     1     -14.464   3.013  26.698  1.00  0.00     0.008 C 
ATOM     11  C   UNL     1     -16.423   2.680  28.134  1.00  0.00     0.039 C 
ENDBRANCH   5   9
TORSDOF 1
ENDMDL
MODEL 9
REMARK VINA RESULT:    -4.041      2.136      3.068
REMARK INTER + INTRA:          -4.370
REMARK INTER:                  -4.278
REMARK INTRA:                  -0.092
REMARK UNBOUND:                -0.092
REMARK SMILES C=C(C)[C@@H]1CC=C(C)C(=O)C1
REMARK SMILES IDX 8 1 7 2 6 3 5 4 4 5 11 6 9 7 10 8 2 9 1 10 3 11
REMARK H PARENT
REMARK Flexibility Score: inf
ROOT
ATOM      1  C   UNL     1      -1.879  -0.673  26.614  1.00  0.00     0.048 C 
ATOM      2  C   UNL     1      -1.860   0.230  27.817  1.00  0.00    -0.012 C 
ATOM      3  C   UNL     1      -0.955   1.222  27.894  1.00  0.00    -0.019 C 
ATOM      4  C   UNL     1      -0.904   2.166  29.066  1.00  0.00     0.036 C 
ATOM      5  C   UNL     1      -1.331   1.458  30.366  1.00  0.00     0.025 C 
ATOM      6  C   UNL     1      -2.719   0.816  30.195  1.00  0.00     0.089 C 
ATOM      7  C   UNL     1      -2.753  -0.052  28.968  1.00  0.00     0.158 C 
ATOM      8  O   UNL     1      -3.577  -1.005  28.912  1.00  0.00    -0.295 OA
ENDROOT
BRANCH   5   9
ATOM      9  C   UNL     1      -1.300   2.409  31.554  1.00  0.00    -0.077 C 
ATOM     10  C   UNL     1      -0.136   2.939  31.964  1.00  0.00     0.008 C 
ATOM     11  C   UNL     1      -2.560   2.780  32.298  1.00  0.00     0.039 C 
ENDBRANCH   5   9
TORSDOF 1
ENDMDL
