MODEL 1
REMARK VINA RESULT:    -3.507      0.000      0.000
REMARK INTER + INTRA:          -4.538
REMARK INTER:                  -4.327
REMARK INTRA:                  -0.211
REMARK UNBOUND:                -0.211
REMARK SMILES CCCCCC(=O)[O-]
REMARK SMILES IDX 4 1 5 2 6 3 7 4 8 5 3 6 2 7 1 8
REMARK H PARENT
REMARK Flexibility Score: inf
ROOT
ATOM      1  C   UNL     1      98.658  90.960  85.412  1.00  0.00     0.006 C 
ENDROOT
BRANCH   1   2
ATOM      2  C   UNL     1      99.506  91.951  86.220  1.00  0.00     0.053 C 
BRANCH   2   3
ATOM      3  C   UNL     1      99.006  92.094  87.625  1.00  0.00     0.041 C 
ATOM      4  O   UNL     1      99.618  91.538  88.576  1.00  0.00    -0.550 OA
ATOM      5  O   UNL     1      97.849  92.818  87.881  1.00  0.00    -0.550 OA
ENDBRANCH   2   3
ENDBRANCH   1   2
BRANCH   1   6
ATOM      6  C   UNL     1      99.493  89.784  84.877  1.00  0.00     0.000 C 
BRANCH   6   7
ATOM      7  C   UNL     1     100.183  88.992  85.999  1.00  0.00    -0.003 C 
ATOM      8  C   UNL     1      99.191  88.365  86.978  1.00  0.00     0.004 C 
ENDBRANCH   6   7
ENDBRANCH   1   6
TORSDOF 4
ENDMDL
MODEL 2
REMARK VINA RESULT:    -3.447      1.860      3.487
REMARK INTER + INTRA:          -4.464
REMARK INTER:                  -4.210
REMARK INTRA:                  -0.254
REMARK UNBOUND:                -0.211
REMARK SMILES CCCCCC(=O)[O-]
REMARK SMILES IDX 4 1 5 2 6 3 7 4 8 5 3 6 2 7 1 8
REMARK H PARENT
REMARK Flexibility Score: inf
ROOT
ATOM      1  C   UNL     1     100.378  88.758  85.965  1.00  0.00     0.006 C 
ENDROOT
BRANCH   1   2
ATOM      2  C   UNL     1      99.575  88.131  87.114  1.00  0.00     0.053 C 
BRANCH   2   3
ATOM      3  C   UNL     1     100.056  88.606  88.451  1.00  0.00     0.041 C 
ATOM      4  O   UNL     1      99.775  89.768  88.850  1.00  0.00    -0.550 OA
ATOM      5  O   UNL     1     100.837  87.776  89.245  1.00  0.00    -0.550 OA
ENDBRANCH   2   3
ENDBRANCH   1   2
BRANCH   1   6
ATOM      6  C   UNL     1      99.563  89.811  85.195  1.00  0.00     0.000 C 
BRANCH   6   7
ATOM      7  C   UNL     1      99.928  91.249  85.598  1.00  0.00    -0.003 C 
ATOM      8  C   UNL     1     101.392  91.395  86.011  1.00  0.00     0.004 C 
ENDBRANCH   6   7
ENDBRANCH   1   6
TORSDOF 4
ENDMDL
MODEL 3
REMARK VINA RESULT:    -3.404      2.664      3.427
REMARK INTER + INTRA:          -4.412
REMARK INTER:                  -4.176
REMARK INTRA:                  -0.235
REMARK UNBOUND:                -0.211
REMARK SMILES CCCCCC(=O)[O-]
REMARK SMILES IDX 4 1 5 2 6 3 7 4 8 5 3 6 2 7 1 8
REMARK H PARENT
REMARK Flexibility Score: inf
ROOT
ATOM      1  C   UNL     1      98.939  91.750  87.153  1.00  0.00     0.006 C 
ENDROOT
BRANCH   1   2
ATOM      2  C   UNL     1      99.880  92.093  85.990  1.00  0.00     0.053 C 
BRANCH   2   3
ATOM      3  C   UNL     1     101.151  91.301  86.051  1.00  0.00     0.041 C 
ATOM      4  O   UNL     1     102.266  91.885  85.998  1.00  0.00    -0.550 OA
ATOM      5  O   UNL     1     101.104  89.915  86.137  1.00  0.00    -0.550 OA
ENDBRANCH   2   3
ENDBRANCH   1   2
BRANCH   1   6
ATOM      6  C   UNL     1      99.461  92.284  88.498  1.00  0.00     0.000 C 
BRANCH   6   7
ATOM      7  C   UNL     1      99.233  91.297  89.653  1.00  0.00    -0.003 C 
ATOM      8  C   UNL     1      99.532  89.849  89.264  1.00  0.00     0.004 C 
ENDBRANCH   6   7
ENDBRANCH   1   6
TORSDOF 4
ENDMDL
MODEL 4
REMARK VINA RESULT:    -3.386      2.135      3.437
REMARK INTER + INTRA:          -4.388
REMARK INTER:                  -4.136
REMARK INTRA:                  -0.252
REMARK UNBOUND:                -0.211
REMARK SMILES CCCCCC(=O)[O-]
REMARK SMILES IDX 4 1 5 2 6 3 7 4 8 5 3 6 2 7 1 8
REMARK H PARENT
REMARK Flexibility Score: inf
ROOT
ATOM      1  C   UNL     1      98.659  90.718  85.368  1.00  0.00     0.006 C 
ENDROOT
BRANCH   1   2
ATOM      2  C   UNL     1      99.630  89.579  85.028  1.00  0.00     0.053 C 
BRANCH   2   3
ATOM      3  C   UNL     1      99.930  88.729  86.224  1.00  0.00     0.041 C 
ATOM      4  O   UNL     1     101.107  88.336  86.445  1.00  0.00    -0.550 OA
ATOM      5  O   UNL     1      98.905  88.346  87.080  1.00  0.00    -0.550 OA
ENDBRANCH   2   3
ENDBRANCH   1   2
BRANCH   1   6
ATOM      6  C   UNL     1      99.355  91.869  86.115  1.00  0.00     0.000 C 
BRANCH   6   7
ATOM      7  C   UNL     1      98.687  92.187  87.462  1.00  0.00    -0.003 C 
ATOM      8  C   UNL     1      99.500  91.692  88.658  1.00  0.00     0.004 C 
ENDBRANCH   6   7
ENDBRANCH   1   6
TORSDOF 4
ENDMDL
MODEL 5
REMARK VINA RESULT:    -3.374      1.637      2.239
REMARK INTER + INTRA:          -4.375
REMARK INTER:                  -4.139
REMARK INTRA:                  -0.236
REMARK UNBOUND:                -0.211
REMARK SMILES CCCCCC(=O)[O-]
REMARK SMILES IDX 4 1 5 2 6 3 7 4 8 5 3 6 2 7 1 8
REMARK H PARENT
REMARK Flexibility Score: inf
ROOT
ATOM      1  C   UNL     1      98.972  89.843  85.621  1.00  0.00     0.006 C 
ENDROOT
BRANCH   1   2
ATOM      2  C   UNL     1      99.643  91.173  85.254  1.00  0.00     0.053 C 
BRANCH   2   3
ATOM      3  C   UNL     1     100.610  91.618  86.307  1.00  0.00     0.041 C 
ATOM      4  O   UNL     1     100.203  91.898  87.466  1.00  0.00    -0.550 OA
ATOM      5  O   UNL     1     101.959  91.750  86.002  1.00  0.00    -0.550 OA
ENDBRANCH   2   3
ENDBRANCH   1   2
BRANCH   1   6
ATOM      6  C   UNL     1      99.999  88.758  85.988  1.00  0.00     0.000 C 
BRANCH   6   7
ATOM      7  C   UNL     1      99.617  87.990  87.263  1.00  0.00    -0.003 C 
ATOM      8  C   UNL     1     100.483  88.368  88.464  1.00  0.00     0.004 C 
ENDBRANCH   6   7
ENDBRANCH   1   6
TORSDOF 4
ENDMDL
MODEL 6
REMARK VINA RESULT:    -3.345      1.996      2.929
REMARK INTER + INTRA:          -4.338
REMARK INTER:                  -4.096
REMARK INTRA:                  -0.242
REMARK UNBOUND:                -0.211
REMARK SMILES CCCCCC(=O)[O-]
REMARK SMILES IDX 4 1 5 2 6 3 7 4 8 5 3 6 2 7 1 8
REMARK H PARENT
REMARK Flexibility Score: inf
ROOT
ATOM      1  C   UNL     1      98.518  92.471  87.975  1.00  0.00     0.006 C 
ENDROOT
BRANCH   1   2
ATOM      2  C   UNL     1      99.578  92.050  89.002  1.00  0.00     0.053 C 
BRANCH   2   3
ATOM      3  C   UNL     1      99.216  90.763  89.679  1.00  0.00     0.041 C 
ATOM      4  O   UNL     1      98.319  90.741  90.563  1.00  0.00    -0.550 OA
ATOM      5  O   UNL     1      99.889  89.592  89.353  1.00  0.00    -0.550 OA
ENDBRANCH   2   3
ENDBRANCH   1   2
BRANCH   1   6
ATOM      6  C   UNL     1      98.762  91.834  86.596  1.00  0.00     0.000 C 
BRANCH   6   7
ATOM      7  C   UNL     1     100.254  91.764  86.234  1.00  0.00    -0.003 C 
ATOM      8  C   UNL     1     100.707  90.353  85.860  1.00  0.00     0.004 C 
ENDBRANCH   6   7
ENDBRANCH   1   6
TORSDOF 4
ENDMDL
MODEL 7
REMARK VINA RESULT:    -3.223     12.750     13.500
REMARK INTER + INTRA:          -4.187
REMARK INTER:                  -4.096
REMARK INTRA:                  -0.091
REMARK UNBOUND:                -0.211
REMARK SMILES CCCCCC(=O)[O-]
REMARK SMILES IDX 4 1 5 2 6 3 7 4 8 5 3 6 2 7 1 8
REMARK H PARENT
REMARK Flexibility Score: inf
ROOT
ATOM      1  C   UNL     1     104.271  96.938  97.466  1.00  0.00     0.006 C 
ENDROOT
BRANCH   1   2
ATOM      2  C   UNL     1     105.563  96.998  96.640  1.00  0.00     0.053 C 
BRANCH   2   3
ATOM      3  C   UNL     1     105.386  97.805  95.390  1.00  0.00     0.041 C 
ATOM      4  O   UNL     1     106.392  98.212  94.750  1.00  0.00    -0.550 OA
ATOM      5  O   UNL     1     104.111  98.131  94.947  1.00  0.00    -0.550 OA
ENDBRANCH   2   3
ENDBRANCH   1   2
BRANCH   1   6
ATOM      6  C   UNL     1     104.037  95.545  98.077  1.00  0.00     0.000 C 
BRANCH   6   7
ATOM      7  C   UNL     1     102.868  95.527  99.074  1.00  0.00    -0.003 C 
ATOM      8  C   UNL     1     102.603  96.896  99.702  1.00  0.00     0.004 C 
ENDBRANCH   6   7
ENDBRANCH   1   6
TORSDOF 4
ENDMDL
MODEL 8
REMARK VINA RESULT:    -3.163      2.669      4.227
REMARK INTER + INTRA:          -4.114
REMARK INTER:                  -4.003
REMARK INTRA:                  -0.111
REMARK UNBOUND:                -0.211
REMARK SMILES CCCCCC(=O)[O-]
REMARK SMILES IDX 4 1 5 2 6 3 7 4 8 5 3 6 2 7 1 8
REMARK H PARENT
REMARK Flexibility Score: inf
ROOT
ATOM      1  C   UNL     1      99.674  89.872  88.303  1.00  0.00     0.006 C 
ENDROOT
BRANCH   1   2
ATOM      2  C   UNL     1     100.398  90.268  87.009  1.00  0.00     0.053 C 
BRANCH   2   3
ATOM      3  C   UNL     1     100.236  89.230  85.941  1.00  0.00     0.041 C 
ATOM      4  O   UNL     1      99.622  89.507  84.876  1.00  0.00    -0.550 OA
ATOM      5  O   UNL     1     100.737  87.949  86.133  1.00  0.00    -0.550 OA
ENDBRANCH   2   3
ENDBRANCH   1   2
BRANCH   1   6
ATOM      6  C   UNL     1      99.483  91.068  89.250  1.00  0.00     0.000 C 
BRANCH   6   7
ATOM      7  C   UNL     1      99.439  92.411  88.503  1.00  0.00    -0.003 C 
ATOM      8  C   UNL     1      98.014  92.886  88.222  1.00  0.00     0.004 C 
ENDBRANCH   6   7
ENDBRANCH   1   6
TORSDOF 4
ENDMDL
MODEL 9
REMARK VINA RESULT:    -3.151      1.420      2.581
REMARK INTER + INTRA:          -4.099
REMARK INTER:                  -3.833
REMARK INTRA:                  -0.266
REMARK UNBOUND:                -0.211
REMARK SMILES CCCCCC(=O)[O-]
REMARK SMILES IDX 4 1 5 2 6 3 7 4 8 5 3 6 2 7 1 8
REMARK H PARENT
REMARK Flexibility Score: inf
ROOT
ATOM      1  C   UNL     1      99.908  89.488  88.671  1.00  0.00     0.006 C 
ENDROOT
BRANCH   1   2
ATOM      2  C   UNL     1      99.107  90.527  89.468  1.00  0.00     0.053 C 
BRANCH   2   3
ATOM      3  C   UNL     1      99.073  91.854  88.774  1.00  0.00     0.041 C 
ATOM      4  O   UNL     1      97.970  92.379  88.462  1.00  0.00    -0.550 OA
ATOM      5  O   UNL     1     100.258  92.500  88.447  1.00  0.00    -0.550 OA
ENDBRANCH   2   3
ENDBRANCH   1   2
BRANCH   1   6
ATOM      6  C   UNL     1      99.324  89.260  87.266  1.00  0.00     0.000 C 
BRANCH   6   7
ATOM      7  C   UNL     1     100.371  89.441  86.155  1.00  0.00    -0.003 C 
ATOM      8  C   UNL     1     100.068  90.629  85.243  1.00  0.00     0.004 C 
ENDBRANCH   6   7
ENDBRANCH   1   6
TORSDOF 4
ENDMDL
