MODEL 1
REMARK VINA RESULT:     8.608      0.000      0.000
REMARK INTER + INTRA:          10.649
REMARK INTER:                  10.370
REMARK INTRA:                   0.279
REMARK UNBOUND:                 0.279
REMARK SMILES O=c1c(O)c(-c2ccc(O)c(O)c2)oc2cc(O)cc(O)c12
REMARK SMILES IDX 5 1 3 2 2 3 1 4 22 5 20 6 19 7 17 8 16 9 15 10 14 11 6 12
REMARK SMILES IDX 7 13 8 14 9 15 13 16 11 17 10 18 12 20 4 22 21 24 18 26
REMARK H PARENT 10 19 12 21 4 23 21 25 18 27
REMARK Flexibility Score: inf
ROOT
ATOM      1  C   UNL     1      20.009  11.593  11.725  1.00  0.00     0.180 A 
ATOM      2  C   UNL     1      18.770  11.201  12.266  1.00  0.00     0.208 A 
ATOM      3  C   UNL     1      18.498   9.831  12.410  1.00  0.00     0.238 A 
ATOM      4  O   UNL     1      17.387   9.466  12.884  1.00  0.00    -0.285 OA
ATOM      5  C   UNL     1      19.470   8.883  12.032  1.00  0.00     0.111 A 
ATOM      6  C   UNL     1      19.276   7.485  12.148  1.00  0.00     0.134 A 
ATOM      7  C   UNL     1      20.296   6.606  11.758  1.00  0.00     0.093 A 
ATOM      8  C   UNL     1      21.505   7.095  11.256  1.00  0.00     0.123 A 
ATOM      9  C   UNL     1      21.702   8.474  11.138  1.00  0.00     0.094 A 
ATOM     10  C   UNL     1      20.696   9.367  11.520  1.00  0.00     0.146 A 
ATOM     11  O   UNL     1      20.908  10.672  11.393  1.00  0.00    -0.452 OA
ENDROOT
BRANCH   1  12
ATOM     12  C   UNL     1      20.363  13.017  11.524  1.00  0.00     0.025 A 
ATOM     13  C   UNL     1      21.715  13.395  11.490  1.00  0.00     0.016 A 
ATOM     14  C   UNL     1      22.074  14.729  11.281  1.00  0.00     0.051 A 
ATOM     15  C   UNL     1      21.085  15.703  11.088  1.00  0.00     0.157 A 
ATOM     16  C   UNL     1      19.375  13.995  11.310  1.00  0.00     0.062 A 
ATOM     17  C   UNL     1      19.734  15.334  11.098  1.00  0.00     0.158 A 
BRANCH  15  18
ATOM     18  O   UNL     1      21.438  17.035  10.881  1.00  0.00    -0.504 OA
ATOM     19  H   UNL     1      22.403  17.313  10.743  1.00  0.00     0.293 HD
ENDBRANCH  15  18
BRANCH  17  20
ATOM     20  O   UNL     1      18.754  16.303  10.892  1.00  0.00    -0.504 OA
ATOM     21  H   UNL     1      18.976  17.292  10.895  1.00  0.00     0.293 HD
ENDBRANCH  17  20
ENDBRANCH   1  12
BRANCH   2  22
ATOM     22  O   UNL     1      17.843  12.161  12.680  1.00  0.00    -0.502 OA
ATOM     23  H   UNL     1      18.123  13.049  13.078  1.00  0.00     0.293 HD
ENDBRANCH   2  22
BRANCH   6  24
ATOM     24  O   UNL     1      18.081   6.965  12.646  1.00  0.00    -0.507 OA
ATOM     25  H   UNL     1      18.021   6.022  13.013  1.00  0.00     0.293 HD
ENDBRANCH   6  24
BRANCH   8  26
ATOM     26  O   UNL     1      22.502   6.200  10.876  1.00  0.00    -0.508 OA
ATOM     27  H   UNL     1      22.961   6.269   9.975  1.00  0.00     0.293 HD
ENDBRANCH   8  26
TORSDOF 6
ENDMDL
