MODEL 1
REMARK VINA RESULT:    -6.393      0.000      0.000
REMARK INTER + INTRA:         -10.926
REMARK INTER:                  -9.570
REMARK INTRA:                  -1.356
REMARK UNBOUND:                -1.356
REMARK SMILES COC(=O)C1=CO[C@H](O[C@@H]2O[C@H](CO)[C@@H](O)[C@H](O)[C@H]2O)[C@@H]2C(CO)=CC[C@@H]12
REMARK SMILES IDX 9 1 8 2 5 3 6 4 27 5 7 6 21 7 26 8 22 9 25 10 3 11 4 12 2 13
REMARK SMILES IDX 1 14 23 15 24 16 10 18 19 19 11 20 17 21 12 22 15 23 20 24
REMARK SMILES IDX 18 26 13 28 14 29 16 31
REMARK H PARENT 24 17 20 25 18 27 14 30 16 32
REMARK Flexibility Score: inf
ROOT
ATOM      1  O   UNL     1       4.760  16.406  17.188  1.00  0.00    -0.310 OA
ENDROOT
BRANCH   1   2
ATOM      2  C   UNL     1       3.628  17.217  16.916  1.00  0.00     0.316 C 
ATOM      3  C   UNL     1       3.846  18.095  14.126  1.00  0.00     0.076 C 
ATOM      4  C   UNL     1       4.077  18.960  15.137  1.00  0.00     0.202 C 
ATOM      5  C   UNL     1       3.666  16.651  14.505  1.00  0.00     0.047 C 
ATOM      6  O   UNL     1       4.004  18.548  16.489  1.00  0.00    -0.471 OA
ATOM      7  C   UNL     1       2.831  16.576  15.777  1.00  0.00     0.094 C 
ATOM      8  C   UNL     1       2.941  15.675  13.579  1.00  0.00     0.037 C 
ATOM      9  C   UNL     1       2.463  15.134  15.822  1.00  0.00    -0.039 C 
ATOM     10  C   UNL     1       2.440  14.659  14.568  1.00  0.00    -0.024 C 
BRANCH   3  11
ATOM     11  C   UNL     1       3.980  18.523  12.723  1.00  0.00     0.337 C 
ATOM     12  O   UNL     1       3.158  19.354  12.240  1.00  0.00    -0.246 OA
BRANCH  11  13
ATOM     13  O   UNL     1       5.049  18.054  11.948  1.00  0.00    -0.466 OA
ATOM     14  C   UNL     1       4.940  17.842  10.542  1.00  0.00     0.282 C 
ENDBRANCH  11  13
ENDBRANCH   3  11
BRANCH   9  15
ATOM     15  C   UNL     1       1.876  14.447  17.027  1.00  0.00     0.187 C 
BRANCH  15  16
ATOM     16  O   UNL     1       2.881  13.964  17.879  1.00  0.00    -0.392 OA
ATOM     17  H   UNL     1       2.531  14.032  18.808  1.00  0.00     0.211 HD
ENDBRANCH  15  16
ENDBRANCH   9  15
ENDBRANCH   1   2
BRANCH   1  18
ATOM     18  C   UNL     1       5.493  16.819  18.329  1.00  0.00     0.286 C 
ATOM     19  C   UNL     1       4.789  16.446  19.672  1.00  0.00     0.202 C 
ATOM     20  O   UNL     1       6.821  16.311  18.222  1.00  0.00    -0.341 OA
ATOM     21  C   UNL     1       5.845  16.063  20.723  1.00  0.00     0.179 C 
ATOM     22  C   UNL     1       7.000  14.981  18.710  1.00  0.00     0.178 C 
ATOM     23  C   UNL     1       6.617  14.833  20.217  1.00  0.00     0.177 C 
BRANCH  19  24
ATOM     24  O   UNL     1       3.977  17.497  20.132  1.00  0.00    -0.385 OA
ATOM     25  H   UNL     1       3.079  17.126  20.332  1.00  0.00     0.211 HD
ENDBRANCH  19  24
BRANCH  21  26
ATOM     26  O   UNL     1       5.258  15.813  21.977  1.00  0.00    -0.387 OA
ATOM     27  H   UNL     1       5.092  16.690  22.414  1.00  0.00     0.211 HD
ENDBRANCH  21  26
BRANCH  22  28
ATOM     28  C   UNL     1       6.309  13.922  17.819  1.00  0.00     0.191 C 
BRANCH  28  29
ATOM     29  O   UNL     1       5.652  12.955  18.601  1.00  0.00    -0.394 OA
ATOM     30  H   UNL     1       6.017  12.072  18.334  1.00  0.00     0.210 HD
ENDBRANCH  28  29
ENDBRANCH  22  28
BRANCH  23  31
ATOM     31  O   UNL     1       7.750  14.600  21.016  1.00  0.00    -0.387 OA
ATOM     32  H   UNL     1       7.495  14.807  21.957  1.00  0.00     0.211 HD
ENDBRANCH  23  31
ENDBRANCH   1  18
TORSDOF 11
ENDMDL
MODEL 2
REMARK VINA RESULT:    -6.034      2.055      6.911
REMARK INTER + INTRA:         -10.389
REMARK INTER:                  -9.172
REMARK INTRA:                  -1.217
REMARK UNBOUND:                -1.356
REMARK SMILES COC(=O)C1=CO[C@H](O[C@@H]2O[C@H](CO)[C@@H](O)[C@H](O)[C@H]2O)[C@@H]2C(CO)=CC[C@@H]12
REMARK SMILES IDX 9 1 8 2 5 3 6 4 27 5 7 6 21 7 26 8 22 9 25 10 3 11 4 12 2 13
REMARK SMILES IDX 1 14 23 15 24 16 10 18 19 19 11 20 17 21 12 22 15 23 20 24
REMARK SMILES IDX 18 26 13 28 14 29 16 31
REMARK H PARENT 24 17 20 25 18 27 14 30 16 32
REMARK Flexibility Score: inf
ROOT
ATOM      1  O   UNL     1       4.938  15.013  17.174  1.00  0.00    -0.310 OA
ENDROOT
BRANCH   1   2
ATOM      2  C   UNL     1       6.057  14.310  17.690  1.00  0.00     0.316 C 
ATOM      3  C   UNL     1       6.141  14.820  20.577  1.00  0.00     0.076 C 
ATOM      4  C   UNL     1       7.037  15.403  19.751  1.00  0.00     0.202 C 
ATOM      5  C   UNL     1       5.014  14.070  19.924  1.00  0.00     0.047 C 
ATOM      6  O   UNL     1       6.994  15.191  18.352  1.00  0.00    -0.471 OA
ATOM      7  C   UNL     1       5.561  13.300  18.729  1.00  0.00     0.094 C 
ATOM      8  C   UNL     1       4.238  12.993  20.680  1.00  0.00     0.037 C 
ATOM      9  C   UNL     1       4.438  12.374  18.416  1.00  0.00    -0.039 C 
ATOM     10  C   UNL     1       3.753  12.135  19.544  1.00  0.00    -0.024 C 
BRANCH   3  11
ATOM     11  C   UNL     1       6.162  15.094  22.024  1.00  0.00     0.337 C 
ATOM     12  O   UNL     1       5.161  14.787  22.734  1.00  0.00    -0.246 OA
BRANCH  11  13
ATOM     13  O   UNL     1       7.309  15.639  22.615  1.00  0.00    -0.466 OA
ATOM     14  C   UNL     1       8.308  14.832  23.234  1.00  0.00     0.282 C 
ENDBRANCH  11  13
ENDBRANCH   3  11
BRANCH   9  15
ATOM     15  C   UNL     1       4.328  11.577  17.143  1.00  0.00     0.187 C 
BRANCH  15  16
ATOM     16  O   UNL     1       3.741  12.334  16.117  1.00  0.00    -0.392 OA
ATOM     17  H   UNL     1       4.307  13.143  15.994  1.00  0.00     0.211 HD
ENDBRANCH  15  16
ENDBRANCH   9  15
ENDBRANCH   1   2
BRANCH   1  18
ATOM     18  C   UNL     1       5.214  15.717  15.974  1.00  0.00     0.286 C 
ATOM     19  C   UNL     1       4.095  15.547  14.899  1.00  0.00     0.202 C 
ATOM     20  O   UNL     1       5.488  17.077  16.301  1.00  0.00    -0.341 OA
ATOM     21  C   UNL     1       3.924  16.860  14.116  1.00  0.00     0.179 C 
ATOM     22  C   UNL     1       4.338  17.915  16.413  1.00  0.00     0.178 C 
ATOM     23  C   UNL     1       3.495  17.964  15.098  1.00  0.00     0.177 C 
BRANCH  19  24
ATOM     24  O   UNL     1       4.377  14.477  14.032  1.00  0.00    -0.385 OA
ATOM     25  H   UNL     1       3.695  13.773  14.182  1.00  0.00     0.211 HD
ENDBRANCH  19  24
BRANCH  21  26
ATOM     26  O   UNL     1       2.992  16.722  13.072  1.00  0.00    -0.387 OA
ATOM     27  H   UNL     1       3.154  15.843  12.636  1.00  0.00     0.211 HD
ENDBRANCH  21  26
BRANCH  22  28
ATOM     28  C   UNL     1       3.477  17.582  17.653  1.00  0.00     0.191 C 
BRANCH  28  29
ATOM     29  O   UNL     1       4.274  17.466  18.806  1.00  0.00    -0.394 OA
ATOM     30  H   UNL     1       3.910  18.103  19.474  1.00  0.00     0.210 HD
ENDBRANCH  28  29
ENDBRANCH  22  28
BRANCH  23  31
ATOM     31  O   UNL     1       3.572  19.226  14.483  1.00  0.00    -0.387 OA
ATOM     32  H   UNL     1       3.595  19.073  13.499  1.00  0.00     0.211 HD
ENDBRANCH  23  31
ENDBRANCH   1  18
TORSDOF 11
ENDMDL
MODEL 3
REMARK VINA RESULT:    -5.985      1.778      2.434
REMARK INTER + INTRA:         -10.316
REMARK INTER:                  -8.848
REMARK INTRA:                  -1.468
REMARK UNBOUND:                -1.356
REMARK SMILES COC(=O)C1=CO[C@H](O[C@@H]2O[C@H](CO)[C@@H](O)[C@H](O)[C@H]2O)[C@@H]2C(CO)=CC[C@@H]12
REMARK SMILES IDX 9 1 8 2 5 3 6 4 27 5 7 6 21 7 26 8 22 9 25 10 3 11 4 12 2 13
REMARK SMILES IDX 1 14 23 15 24 16 10 18 19 19 11 20 17 21 12 22 15 23 20 24
REMARK SMILES IDX 18 26 13 28 14 29 16 31
REMARK H PARENT 24 17 20 25 18 27 14 30 16 32
REMARK Flexibility Score: inf
ROOT
ATOM      1  O   UNL     1       4.577  15.168  18.153  1.00  0.00    -0.310 OA
ENDROOT
BRANCH   1   2
ATOM      2  C   UNL     1       3.291  15.249  17.558  1.00  0.00     0.316 C 
ATOM      3  C   UNL     1       3.603  16.692  15.023  1.00  0.00     0.076 C 
ATOM      4  C   UNL     1       3.020  17.290  16.085  1.00  0.00     0.202 C 
ATOM      5  C   UNL     1       4.237  15.352  15.270  1.00  0.00     0.047 C 
ATOM      6  O   UNL     1       2.887  16.619  17.325  1.00  0.00    -0.471 OA
ATOM      7  C   UNL     1       3.338  14.545  16.198  1.00  0.00     0.094 C 
ATOM      8  C   UNL     1       4.488  14.372  14.125  1.00  0.00     0.037 C 
ATOM      9  C   UNL     1       3.907  13.175  16.070  1.00  0.00    -0.039 C 
ATOM     10  C   UNL     1       4.473  13.060  14.859  1.00  0.00    -0.024 C 
BRANCH   3  11
ATOM     11  C   UNL     1       3.787  17.421  13.756  1.00  0.00     0.337 C 
ATOM     12  O   UNL     1       4.429  18.511  13.749  1.00  0.00    -0.246 OA
BRANCH  11  13
ATOM     13  O   UNL     1       3.302  16.877  12.560  1.00  0.00    -0.466 OA
ATOM     14  C   UNL     1       3.531  17.489  11.292  1.00  0.00     0.282 C 
ENDBRANCH  11  13
ENDBRANCH   3  11
BRANCH   9  15
ATOM     15  C   UNL     1       3.578  12.031  16.993  1.00  0.00     0.187 C 
BRANCH  15  16
ATOM     16  O   UNL     1       4.335  12.095  18.173  1.00  0.00    -0.392 OA
ATOM     17  H   UNL     1       4.489  13.059  18.366  1.00  0.00     0.211 HD
ENDBRANCH  15  16
ENDBRANCH   9  15
ENDBRANCH   1   2
BRANCH   1  18
ATOM     18  C   UNL     1       4.590  15.524  19.525  1.00  0.00     0.286 C 
ATOM     19  C   UNL     1       5.475  14.574  20.391  1.00  0.00     0.202 C 
ATOM     20  O   UNL     1       4.956  16.898  19.632  1.00  0.00    -0.341 OA
ATOM     21  C   UNL     1       6.175  15.381  21.498  1.00  0.00     0.179 C 
ATOM     22  C   UNL     1       6.361  17.149  19.654  1.00  0.00     0.178 C 
ATOM     23  C   UNL     1       7.085  16.431  20.838  1.00  0.00     0.177 C 
BRANCH  19  24
ATOM     24  O   UNL     1       4.716  13.524  20.936  1.00  0.00    -0.385 OA
ATOM     25  H   UNL     1       3.771  13.822  20.986  1.00  0.00     0.211 HD
ENDBRANCH  19  24
BRANCH  21  26
ATOM     26  O   UNL     1       6.908  14.547  22.361  1.00  0.00    -0.387 OA
ATOM     27  H   UNL     1       7.215  13.761  21.835  1.00  0.00     0.211 HD
ENDBRANCH  21  26
BRANCH  22  28
ATOM     28  C   UNL     1       7.038  16.868  18.292  1.00  0.00     0.191 C 
BRANCH  28  29
ATOM     29  O   UNL     1       6.347  17.504  17.244  1.00  0.00    -0.394 OA
ATOM     30  H   UNL     1       5.386  17.291  17.362  1.00  0.00     0.210 HD
ENDBRANCH  28  29
ENDBRANCH  22  28
BRANCH  23  31
ATOM     31  O   UNL     1       7.547  17.352  21.794  1.00  0.00    -0.387 OA
ATOM     32  H   UNL     1       8.396  16.988  22.168  1.00  0.00     0.211 HD
ENDBRANCH  23  31
ENDBRANCH   1  18
TORSDOF 11
ENDMDL
MODEL 4
REMARK VINA RESULT:    -5.840      4.172      7.299
REMARK INTER + INTRA:         -10.099
REMARK INTER:                  -8.750
REMARK INTRA:                  -1.349
REMARK UNBOUND:                -1.356
REMARK SMILES COC(=O)C1=CO[C@H](O[C@@H]2O[C@H](CO)[C@@H](O)[C@H](O)[C@H]2O)[C@@H]2C(CO)=CC[C@@H]12
REMARK SMILES IDX 9 1 8 2 5 3 6 4 27 5 7 6 21 7 26 8 22 9 25 10 3 11 4 12 2 13
REMARK SMILES IDX 1 14 23 15 24 16 10 18 19 19 11 20 17 21 12 22 15 23 20 24
REMARK SMILES IDX 18 26 13 28 14 29 16 31
REMARK H PARENT 24 17 20 25 18 27 14 30 16 32
REMARK Flexibility Score: inf
ROOT
ATOM      1  O   UNL     1       4.606  13.282  20.000  1.00  0.00    -0.310 OA
ENDROOT
BRANCH   1   2
ATOM      2  C   UNL     1       3.399  12.830  19.407  1.00  0.00     0.316 C 
ATOM      3  C   UNL     1       3.348   9.909  19.670  1.00  0.00     0.076 C 
ATOM      4  C   UNL     1       3.584  10.486  18.471  1.00  0.00     0.202 C 
ATOM      5  C   UNL     1       3.307  10.826  20.860  1.00  0.00     0.047 C 
ATOM      6  O   UNL     1       3.641  11.894  18.330  1.00  0.00    -0.471 OA
ATOM      7  C   UNL     1       2.573  12.104  20.473  1.00  0.00     0.094 C 
ATOM      8  C   UNL     1       2.594  10.418  22.148  1.00  0.00     0.037 C 
ATOM      9  C   UNL     1       2.321  12.732  21.799  1.00  0.00    -0.039 C 
ATOM     10  C   UNL     1       2.244  11.763  22.723  1.00  0.00    -0.024 C 
BRANCH   3  11
ATOM     11  C   UNL     1       3.348   8.444  19.813  1.00  0.00     0.337 C 
ATOM     12  O   UNL     1       4.249   7.882  20.501  1.00  0.00    -0.246 OA
BRANCH  11  13
ATOM     13  O   UNL     1       2.321   7.685  19.237  1.00  0.00    -0.466 OA
ATOM     14  C   UNL     1       2.551   6.404  18.652  1.00  0.00     0.282 C 
ENDBRANCH  11  13
ENDBRANCH   3  11
BRANCH   9  15
ATOM     15  C   UNL     1       1.876  14.158  21.990  1.00  0.00     0.187 C 
BRANCH  15  16
ATOM     16  O   UNL     1       2.791  14.877  22.773  1.00  0.00    -0.392 OA
ATOM     17  H   UNL     1       2.329  15.102  23.626  1.00  0.00     0.211 HD
ENDBRANCH  15  16
ENDBRANCH   9  15
ENDBRANCH   1   2
BRANCH   1  18
ATOM     18  C   UNL     1       4.714  14.694  20.063  1.00  0.00     0.286 C 
ATOM     19  C   UNL     1       5.873  15.175  20.991  1.00  0.00     0.202 C 
ATOM     20  O   UNL     1       4.802  15.201  18.732  1.00  0.00    -0.341 OA
ATOM     21  C   UNL     1       6.523  16.438  20.399  1.00  0.00     0.179 C 
ATOM     22  C   UNL     1       6.118  15.223  18.181  1.00  0.00     0.178 C 
ATOM     23  C   UNL     1       7.112  16.086  19.022  1.00  0.00     0.177 C 
BRANCH  19  24
ATOM     24  O   UNL     1       5.416  15.409  22.299  1.00  0.00    -0.385 OA
ATOM     25  H   UNL     1       6.182  15.735  22.838  1.00  0.00     0.211 HD
ENDBRANCH  19  24
BRANCH  21  26
ATOM     26  O   UNL     1       7.510  16.959  21.254  1.00  0.00    -0.387 OA
ATOM     27  H   UNL     1       7.132  17.764  21.698  1.00  0.00     0.211 HD
ENDBRANCH  21  26
BRANCH  22  28
ATOM     28  C   UNL     1       6.666  13.806  17.891  1.00  0.00     0.191 C 
BRANCH  28  29
ATOM     29  O   UNL     1       5.989  13.214  16.810  1.00  0.00    -0.394 OA
ATOM     30  H   UNL     1       6.288  13.685  15.989  1.00  0.00     0.210 HD
ENDBRANCH  28  29
ENDBRANCH  22  28
BRANCH  23  31
ATOM     31  O   UNL     1       7.490  17.254  18.336  1.00  0.00    -0.387 OA
ATOM     32  H   UNL     1       7.652  17.958  19.021  1.00  0.00     0.211 HD
ENDBRANCH  23  31
ENDBRANCH   1  18
TORSDOF 11
ENDMDL
MODEL 5
REMARK VINA RESULT:    -5.776      2.873      4.617
REMARK INTER + INTRA:         -10.003
REMARK INTER:                  -8.390
REMARK INTRA:                  -1.613
REMARK UNBOUND:                -1.356
REMARK SMILES COC(=O)C1=CO[C@H](O[C@@H]2O[C@H](CO)[C@@H](O)[C@H](O)[C@H]2O)[C@@H]2C(CO)=CC[C@@H]12
REMARK SMILES IDX 9 1 8 2 5 3 6 4 27 5 7 6 21 7 26 8 22 9 25 10 3 11 4 12 2 13
REMARK SMILES IDX 1 14 23 15 24 16 10 18 19 19 11 20 17 21 12 22 15 23 20 24
REMARK SMILES IDX 18 26 13 28 14 29 16 31
REMARK H PARENT 24 17 20 25 18 27 14 30 16 32
REMARK Flexibility Score: inf
ROOT
ATOM      1  O   UNL     1       4.094  13.554  18.457  1.00  0.00    -0.310 OA
ENDROOT
BRANCH   1   2
ATOM      2  C   UNL     1       5.262  13.870  17.715  1.00  0.00     0.316 C 
ATOM      3  C   UNL     1       4.416  15.500  15.428  1.00  0.00     0.076 C 
ATOM      4  C   UNL     1       4.794  14.215  15.252  1.00  0.00     0.202 C 
ATOM      5  C   UNL     1       4.275  15.970  16.848  1.00  0.00     0.047 C 
ATOM      6  O   UNL     1       5.178  13.404  16.347  1.00  0.00    -0.471 OA
ATOM      7  C   UNL     1       5.417  15.393  17.675  1.00  0.00     0.094 C 
ATOM      8  C   UNL     1       4.336  17.456  17.199  1.00  0.00     0.037 C 
ATOM      9  C   UNL     1       5.336  16.199  18.923  1.00  0.00    -0.039 C 
ATOM     10  C   UNL     1       4.809  17.396  18.626  1.00  0.00    -0.024 C 
BRANCH   3  11
ATOM     11  C   UNL     1       3.965  16.315  14.287  1.00  0.00     0.337 C 
ATOM     12  O   UNL     1       3.018  15.901  13.557  1.00  0.00    -0.246 OA
BRANCH  11  13
ATOM     13  O   UNL     1       4.545  17.568  14.050  1.00  0.00    -0.466 OA
ATOM     14  C   UNL     1       3.823  18.646  13.458  1.00  0.00     0.282 C 
ENDBRANCH  11  13
ENDBRANCH   3  11
BRANCH   9  15
ATOM     15  C   UNL     1       6.054  15.855  20.202  1.00  0.00     0.187 C 
BRANCH  15  16
ATOM     16  O   UNL     1       5.205  15.982  21.313  1.00  0.00    -0.392 OA
ATOM     17  H   UNL     1       5.777  16.238  22.086  1.00  0.00     0.211 HD
ENDBRANCH  15  16
ENDBRANCH   9  15
ENDBRANCH   1   2
BRANCH   1  18
ATOM     18  C   UNL     1       4.311  12.586  19.470  1.00  0.00     0.286 C 
ATOM     19  C   UNL     1       3.302  12.711  20.655  1.00  0.00     0.202 C 
ATOM     20  O   UNL     1       4.324  11.294  18.867  1.00  0.00    -0.341 OA
ATOM     21  C   UNL     1       2.948  11.312  21.186  1.00  0.00     0.179 C 
ATOM     22  C   UNL     1       3.040  10.692  18.703  1.00  0.00     0.178 C 
ATOM     23  C   UNL     1       2.278  10.514  20.055  1.00  0.00     0.177 C 
BRANCH  19  24
ATOM     24  O   UNL     1       3.816  13.524  21.680  1.00  0.00    -0.385 OA
ATOM     25  H   UNL     1       4.625  13.981  21.333  1.00  0.00     0.211 HD
ENDBRANCH  19  24
BRANCH  21  26
ATOM     26  O   UNL     1       2.116  11.384  22.317  1.00  0.00    -0.387 OA
ATOM     27  H   UNL     1       1.535  10.577  22.318  1.00  0.00     0.211 HD
ENDBRANCH  21  26
BRANCH  22  28
ATOM     28  C   UNL     1       2.181  11.403  17.631  1.00  0.00     0.191 C 
BRANCH  28  29
ATOM     29  O   UNL     1       2.877  11.508  16.414  1.00  0.00    -0.394 OA
ATOM     30  H   UNL     1       2.816  12.457  16.128  1.00  0.00     0.210 HD
ENDBRANCH  28  29
ENDBRANCH  22  28
BRANCH  23  31
ATOM     31  O   UNL     1       2.167   9.157  20.409  1.00  0.00    -0.387 OA
ATOM     32  H   UNL     1       2.513   9.066  21.339  1.00  0.00     0.211 HD
ENDBRANCH  23  31
ENDBRANCH   1  18
TORSDOF 11
ENDMDL
MODEL 6
REMARK VINA RESULT:    -5.772      3.031      7.123
REMARK INTER + INTRA:          -9.996
REMARK INTER:                  -8.461
REMARK INTRA:                  -1.535
REMARK UNBOUND:                -1.356
REMARK SMILES COC(=O)C1=CO[C@H](O[C@@H]2O[C@H](CO)[C@@H](O)[C@H](O)[C@H]2O)[C@@H]2C(CO)=CC[C@@H]12
REMARK SMILES IDX 9 1 8 2 5 3 6 4 27 5 7 6 21 7 26 8 22 9 25 10 3 11 4 12 2 13
REMARK SMILES IDX 1 14 23 15 24 16 10 18 19 19 11 20 17 21 12 22 15 23 20 24
REMARK SMILES IDX 18 26 13 28 14 29 16 31
REMARK H PARENT 24 17 20 25 18 27 14 30 16 32
REMARK Flexibility Score: inf
ROOT
ATOM      1  O   UNL     1       4.690  14.727  18.079  1.00  0.00    -0.310 OA
ENDROOT
BRANCH   1   2
ATOM      2  C   UNL     1       5.545  14.004  18.950  1.00  0.00     0.316 C 
ATOM      3  C   UNL     1       3.861  12.865  21.065  1.00  0.00     0.076 C 
ATOM      4  C   UNL     1       4.675  13.912  21.325  1.00  0.00     0.202 C 
ATOM      5  C   UNL     1       3.732  12.457  19.624  1.00  0.00     0.047 C 
ATOM      6  O   UNL     1       5.474  14.493  20.310  1.00  0.00    -0.471 OA
ATOM      7  C   UNL     1       5.102  12.538  18.964  1.00  0.00     0.094 C 
ATOM      8  C   UNL     1       3.265  11.054  19.239  1.00  0.00     0.037 C 
ATOM      9  C   UNL     1       4.877  11.799  17.691  1.00  0.00    -0.039 C 
ATOM     10  C   UNL     1       3.901  10.901  17.884  1.00  0.00    -0.024 C 
BRANCH   3  11
ATOM     11  C   UNL     1       2.994  12.307  22.116  1.00  0.00     0.337 C 
ATOM     12  O   UNL     1       1.875  12.846  22.356  1.00  0.00    -0.246 OA
BRANCH  11  13
ATOM     13  O   UNL     1       3.384  11.151  22.803  1.00  0.00    -0.466 OA
ATOM     14  C   UNL     1       2.600   9.959  22.804  1.00  0.00     0.282 C 
ENDBRANCH  11  13
ENDBRANCH   3  11
BRANCH   9  15
ATOM     15  C   UNL     1       5.827  11.818  16.522  1.00  0.00     0.187 C 
BRANCH  15  16
ATOM     16  O   UNL     1       7.072  11.270  16.867  1.00  0.00    -0.392 OA
ATOM     17  H   UNL     1       7.047  11.090  17.846  1.00  0.00     0.211 HD
ENDBRANCH  15  16
ENDBRANCH   9  15
ENDBRANCH   1   2
BRANCH   1  18
ATOM     18  C   UNL     1       5.381  15.440  17.067  1.00  0.00     0.286 C 
ATOM     19  C   UNL     1       4.474  15.800  15.849  1.00  0.00     0.202 C 
ATOM     20  O   UNL     1       6.013  16.571  17.662  1.00  0.00    -0.341 OA
ATOM     21  C   UNL     1       4.870  17.180  15.297  1.00  0.00     0.179 C 
ATOM     22  C   UNL     1       5.189  17.730  17.778  1.00  0.00     0.178 C 
ATOM     23  C   UNL     1       4.649  18.230  16.399  1.00  0.00     0.177 C 
BRANCH  19  24
ATOM     24  O   UNL     1       4.549  14.816  14.848  1.00  0.00    -0.385 OA
ATOM     25  H   UNL     1       3.790  14.190  14.976  1.00  0.00     0.211 HD
ENDBRANCH  19  24
BRANCH  21  26
ATOM     26  O   UNL     1       4.140  17.501  14.139  1.00  0.00    -0.387 OA
ATOM     27  H   UNL     1       4.615  18.244  13.678  1.00  0.00     0.211 HD
ENDBRANCH  21  26
BRANCH  22  28
ATOM     28  C   UNL     1       4.062  17.559  18.824  1.00  0.00     0.191 C 
BRANCH  28  29
ATOM     29  O   UNL     1       4.589  17.216  20.083  1.00  0.00    -0.394 OA
ATOM     30  H   UNL     1       5.304  16.547  19.923  1.00  0.00     0.210 HD
ENDBRANCH  28  29
ENDBRANCH  22  28
BRANCH  23  31
ATOM     31  O   UNL     1       5.230  19.458  16.033  1.00  0.00    -0.387 OA
ATOM     32  H   UNL     1       5.611  19.341  15.120  1.00  0.00     0.211 HD
ENDBRANCH  23  31
ENDBRANCH   1  18
TORSDOF 11
ENDMDL
MODEL 7
REMARK VINA RESULT:    -5.767      2.299      7.019
REMARK INTER + INTRA:          -9.988
REMARK INTER:                  -8.601
REMARK INTRA:                  -1.387
REMARK UNBOUND:                -1.356
REMARK SMILES COC(=O)C1=CO[C@H](O[C@@H]2O[C@H](CO)[C@@H](O)[C@H](O)[C@H]2O)[C@@H]2C(CO)=CC[C@@H]12
REMARK SMILES IDX 9 1 8 2 5 3 6 4 27 5 7 6 21 7 26 8 22 9 25 10 3 11 4 12 2 13
REMARK SMILES IDX 1 14 23 15 24 16 10 18 19 19 11 20 17 21 12 22 15 23 20 24
REMARK SMILES IDX 18 26 13 28 14 29 16 31
REMARK H PARENT 24 17 20 25 18 27 14 30 16 32
REMARK Flexibility Score: inf
ROOT
ATOM      1  O   UNL     1       4.156  16.358  17.168  1.00  0.00    -0.310 OA
ENDROOT
BRANCH   1   2
ATOM      2  C   UNL     1       3.842  16.708  18.507  1.00  0.00     0.316 C 
ATOM      3  C   UNL     1       2.964  14.255  19.856  1.00  0.00     0.076 C 
ATOM      4  C   UNL     1       2.070  15.211  19.520  1.00  0.00     0.202 C 
ATOM      5  C   UNL     1       4.364  14.433  19.339  1.00  0.00     0.047 C 
ATOM      6  O   UNL     1       2.471  16.389  18.844  1.00  0.00    -0.471 OA
ATOM      7  C   UNL     1       4.746  15.904  19.446  1.00  0.00     0.094 C 
ATOM      8  C   UNL     1       5.548  13.738  20.008  1.00  0.00     0.037 C 
ATOM      9  C   UNL     1       6.219  15.859  19.232  1.00  0.00    -0.039 C 
ATOM     10  C   UNL     1       6.674  14.664  19.638  1.00  0.00    -0.024 C 
BRANCH   3  11
ATOM     11  C   UNL     1       2.525  13.010  20.508  1.00  0.00     0.337 C 
ATOM     12  O   UNL     1       2.368  11.963  19.817  1.00  0.00    -0.246 OA
BRANCH  11  13
ATOM     13  O   UNL     1       2.339  12.977  21.897  1.00  0.00    -0.466 OA
ATOM     14  C   UNL     1       2.868  11.935  22.715  1.00  0.00     0.282 C 
ENDBRANCH  11  13
ENDBRANCH   3  11
BRANCH   9  15
ATOM     15  C   UNL     1       7.071  17.069  18.952  1.00  0.00     0.187 C 
BRANCH  15  16
ATOM     16  O   UNL     1       7.201  17.293  17.573  1.00  0.00    -0.392 OA
ATOM     17  H   UNL     1       7.235  18.279  17.441  1.00  0.00     0.211 HD
ENDBRANCH  15  16
ENDBRANCH   9  15
ENDBRANCH   1   2
BRANCH   1  18
ATOM     18  C   UNL     1       3.628  17.258  16.208  1.00  0.00     0.286 C 
ATOM     19  C   UNL     1       4.700  17.756  15.188  1.00  0.00     0.202 C 
ATOM     20  O   UNL     1       2.496  16.648  15.592  1.00  0.00    -0.341 OA
ATOM     21  C   UNL     1       4.060  17.916  13.798  1.00  0.00     0.179 C 
ATOM     22  C   UNL     1       2.795  15.797  14.486  1.00  0.00     0.178 C 
ATOM     23  C   UNL     1       3.546  16.542  13.335  1.00  0.00     0.177 C 
BRANCH  19  24
ATOM     24  O   UNL     1       5.288  18.960  15.613  1.00  0.00    -0.385 OA
ATOM     25  H   UNL     1       4.656  19.410  16.231  1.00  0.00     0.211 HD
ENDBRANCH  19  24
BRANCH  21  26
ATOM     26  O   UNL     1       4.968  18.455  12.870  1.00  0.00    -0.387 OA
ATOM     27  H   UNL     1       4.857  19.443  12.877  1.00  0.00     0.211 HD
ENDBRANCH  21  26
BRANCH  22  28
ATOM     28  C   UNL     1       3.514  14.496  14.913  1.00  0.00     0.191 C 
BRANCH  28  29
ATOM     29  O   UNL     1       4.562  14.184  14.029  1.00  0.00    -0.394 OA
ATOM     30  H   UNL     1       5.406  14.456  14.475  1.00  0.00     0.210 HD
ENDBRANCH  28  29
ENDBRANCH  22  28
BRANCH  23  31
ATOM     31  O   UNL     1       2.734  16.679  12.195  1.00  0.00    -0.387 OA
ATOM     32  H   UNL     1       2.982  17.540  11.759  1.00  0.00     0.211 HD
ENDBRANCH  23  31
ENDBRANCH   1  18
TORSDOF 11
ENDMDL
MODEL 8
REMARK VINA RESULT:    -5.690      2.247      6.932
REMARK INTER + INTRA:          -9.874
REMARK INTER:                  -8.395
REMARK INTRA:                  -1.478
REMARK UNBOUND:                -1.356
REMARK SMILES COC(=O)C1=CO[C@H](O[C@@H]2O[C@H](CO)[C@@H](O)[C@H](O)[C@H]2O)[C@@H]2C(CO)=CC[C@@H]12
REMARK SMILES IDX 9 1 8 2 5 3 6 4 27 5 7 6 21 7 26 8 22 9 25 10 3 11 4 12 2 13
REMARK SMILES IDX 1 14 23 15 24 16 10 18 19 19 11 20 17 21 12 22 15 23 20 24
REMARK SMILES IDX 18 26 13 28 14 29 16 31
REMARK H PARENT 24 17 20 25 18 27 14 30 16 32
REMARK Flexibility Score: inf
ROOT
ATOM      1  O   UNL     1       4.243  14.060  17.909  1.00  0.00    -0.310 OA
ENDROOT
BRANCH   1   2
ATOM      2  C   UNL     1       5.184  13.215  18.554  1.00  0.00     0.316 C 
ATOM      3  C   UNL     1       6.622  14.858  20.511  1.00  0.00     0.076 C 
ATOM      4  C   UNL     1       7.227  14.465  19.369  1.00  0.00     0.202 C 
ATOM      5  C   UNL     1       5.151  14.574  20.624  1.00  0.00     0.047 C 
ATOM      6  O   UNL     1       6.540  13.695  18.400  1.00  0.00    -0.471 OA
ATOM      7  C   UNL     1       4.870  13.190  20.053  1.00  0.00     0.094 C 
ATOM      8  C   UNL     1       4.460  14.512  21.986  1.00  0.00     0.037 C 
ATOM      9  C   UNL     1       3.487  12.928  20.538  1.00  0.00    -0.039 C 
ATOM     10  C   UNL     1       3.298  13.607  21.678  1.00  0.00    -0.024 C 
BRANCH   3  11
ATOM     11  C   UNL     1       7.331  15.706  21.485  1.00  0.00     0.337 C 
ATOM     12  O   UNL     1       7.529  16.928  21.224  1.00  0.00    -0.246 OA
BRANCH  11  13
ATOM     13  O   UNL     1       7.730  15.172  22.717  1.00  0.00    -0.466 OA
ATOM     14  C   UNL     1       9.101  15.004  23.070  1.00  0.00     0.282 C 
ENDBRANCH  11  13
ENDBRANCH   3  11
BRANCH   9  15
ATOM     15  C   UNL     1       2.607  11.818  20.026  1.00  0.00     0.187 C 
BRANCH  15  16
ATOM     16  O   UNL     1       1.944  12.196  18.848  1.00  0.00    -0.392 OA
ATOM     17  H   UNL     1       2.638  12.538  18.222  1.00  0.00     0.211 HD
ENDBRANCH  15  16
ENDBRANCH   9  15
ENDBRANCH   1   2
BRANCH   1  18
ATOM     18  C   UNL     1       4.823  14.924  16.947  1.00  0.00     0.286 C 
ATOM     19  C   UNL     1       4.281  14.678  15.504  1.00  0.00     0.202 C 
ATOM     20  O   UNL     1       4.665  16.269  17.393  1.00  0.00    -0.341 OA
ATOM     21  C   UNL     1       4.172  16.017  14.754  1.00  0.00     0.179 C 
ATOM     22  C   UNL     1       3.422  16.877  17.046  1.00  0.00     0.178 C 
ATOM     23  C   UNL     1       3.177  16.918  15.504  1.00  0.00     0.177 C 
BRANCH  19  24
ATOM     24  O   UNL     1       5.092  13.771  14.801  1.00  0.00    -0.385 OA
ATOM     25  H   UNL     1       5.890  13.577  15.357  1.00  0.00     0.211 HD
ENDBRANCH  19  24
BRANCH  21  26
ATOM     26  O   UNL     1       3.778  15.829  13.417  1.00  0.00    -0.387 OA
ATOM     27  H   UNL     1       3.526  16.718  13.049  1.00  0.00     0.211 HD
ENDBRANCH  21  26
BRANCH  22  28
ATOM     28  C   UNL     1       2.226  16.271  17.817  1.00  0.00     0.191 C 
BRANCH  28  29
ATOM     29  O   UNL     1       2.490  16.216  19.198  1.00  0.00    -0.394 OA
ATOM     30  H   UNL     1       2.994  15.377  19.362  1.00  0.00     0.210 HD
ENDBRANCH  28  29
ENDBRANCH  22  28
BRANCH  23  31
ATOM     31  O   UNL     1       3.234  18.233  15.007  1.00  0.00    -0.387 OA
ATOM     32  H   UNL     1       2.991  18.194  14.042  1.00  0.00     0.211 HD
ENDBRANCH  23  31
ENDBRANCH   1  18
TORSDOF 11
ENDMDL
MODEL 9
REMARK VINA RESULT:    -5.658      2.423      4.396
REMARK INTER + INTRA:          -9.826
REMARK INTER:                  -8.685
REMARK INTRA:                  -1.141
REMARK UNBOUND:                -1.356
REMARK SMILES COC(=O)C1=CO[C@H](O[C@@H]2O[C@H](CO)[C@@H](O)[C@H](O)[C@H]2O)[C@@H]2C(CO)=CC[C@@H]12
REMARK SMILES IDX 9 1 8 2 5 3 6 4 27 5 7 6 21 7 26 8 22 9 25 10 3 11 4 12 2 13
REMARK SMILES IDX 1 14 23 15 24 16 10 18 19 19 11 20 17 21 12 22 15 23 20 24
REMARK SMILES IDX 18 26 13 28 14 29 16 31
REMARK H PARENT 24 17 20 25 18 27 14 30 16 32
REMARK Flexibility Score: inf
ROOT
ATOM      1  O   UNL     1       3.504  14.987  18.705  1.00  0.00    -0.310 OA
ENDROOT
BRANCH   1   2
ATOM      2  C   UNL     1       3.970  14.648  17.408  1.00  0.00     0.316 C 
ATOM      3  C   UNL     1       3.906  17.099  15.799  1.00  0.00     0.076 C 
ATOM      4  C   UNL     1       2.993  16.123  15.599  1.00  0.00     0.202 C 
ATOM      5  C   UNL     1       4.808  16.941  16.990  1.00  0.00     0.047 C 
ATOM      6  O   UNL     1       2.991  14.945  16.385  1.00  0.00    -0.471 OA
ATOM      7  C   UNL     1       5.220  15.479  17.106  1.00  0.00     0.094 C 
ATOM      8  C   UNL     1       6.151  17.666  17.067  1.00  0.00     0.037 C 
ATOM      9  C   UNL     1       6.343  15.549  18.082  1.00  0.00    -0.039 C 
ATOM     10  C   UNL     1       6.918  16.756  17.986  1.00  0.00    -0.024 C 
BRANCH   3  11
ATOM     11  C   UNL     1       3.862  18.343  15.012  1.00  0.00     0.337 C 
ATOM     12  O   UNL     1       3.375  19.392  15.526  1.00  0.00    -0.246 OA
BRANCH  11  13
ATOM     13  O   UNL     1       4.410  18.376  13.724  1.00  0.00    -0.466 OA
ATOM     14  C   UNL     1       3.639  18.714  12.572  1.00  0.00     0.282 C 
ENDBRANCH  11  13
ENDBRANCH   3  11
BRANCH   9  15
ATOM     15  C   UNL     1       6.935  14.351  18.778  1.00  0.00     0.187 C 
BRANCH  15  16
ATOM     16  O   UNL     1       7.220  13.322  17.867  1.00  0.00    -0.392 OA
ATOM     17  H   UNL     1       6.350  13.014  17.496  1.00  0.00     0.211 HD
ENDBRANCH  15  16
ENDBRANCH   9  15
ENDBRANCH   1   2
BRANCH   1  18
ATOM     18  C   UNL     1       2.388  14.220  19.126  1.00  0.00     0.286 C 
ATOM     19  C   UNL     1       2.573  12.690  18.878  1.00  0.00     0.202 C 
ATOM     20  O   UNL     1       2.102  14.547  20.484  1.00  0.00    -0.341 OA
ATOM     21  C   UNL     1       1.924  11.896  20.024  1.00  0.00     0.179 C 
ATOM     22  C   UNL     1       2.848  13.811  21.452  1.00  0.00     0.178 C 
ATOM     23  C   UNL     1       2.630  12.268  21.339  1.00  0.00     0.177 C 
BRANCH  19  24
ATOM     24  O   UNL     1       2.042  12.306  17.634  1.00  0.00    -0.385 OA
ATOM     25  H   UNL     1       2.794  12.215  16.994  1.00  0.00     0.211 HD
ENDBRANCH  19  24
BRANCH  21  26
ATOM     26  O   UNL     1       1.984  10.511  19.791  1.00  0.00    -0.387 OA
ATOM     27  H   UNL     1       2.102  10.060  20.670  1.00  0.00     0.211 HD
ENDBRANCH  21  26
BRANCH  22  28
ATOM     28  C   UNL     1       4.347  14.195  21.467  1.00  0.00     0.191 C 
BRANCH  28  29
ATOM     29  O   UNL     1       4.511  15.590  21.399  1.00  0.00    -0.394 OA
ATOM     30  H   UNL     1       5.074  15.775  20.603  1.00  0.00     0.210 HD
ENDBRANCH  28  29
ENDBRANCH  22  28
BRANCH  23  31
ATOM     31  O   UNL     1       1.915  11.766  22.441  1.00  0.00    -0.387 OA
ATOM     32  H   UNL     1       1.016  12.196  22.428  1.00  0.00     0.211 HD
ENDBRANCH  23  31
ENDBRANCH   1  18
TORSDOF 11
ENDMDL
