MODEL 1
REMARK VINA RESULT:    -1.622      0.000      0.000
REMARK INTER + INTRA:          -2.411
REMARK INTER:                  -2.191
REMARK INTRA:                  -0.220
REMARK UNBOUND:                -0.220
REMARK SMILES CCCCCCCC(=O)[O-]
REMARK SMILES IDX 5 1 6 2 7 3 8 4 9 5 10 6 4 7 3 8 2 9 1 10
REMARK H PARENT
REMARK Flexibility Score: inf
ROOT
ATOM      1  C   UNL     1     -15.903  23.895 -20.555  1.00  0.00     0.000 C 
ENDROOT
BRANCH   1   2
ATOM      2  C   UNL     1     -14.824  22.905 -21.021  1.00  0.00     0.006 C 
BRANCH   2   3
ATOM      3  C   UNL     1     -14.661  22.880 -22.546  1.00  0.00     0.053 C 
BRANCH   3   4
ATOM      4  C   UNL     1     -13.449  23.656 -22.954  1.00  0.00     0.041 C 
ATOM      5  O   UNL     1     -12.342  23.073 -23.100  1.00  0.00    -0.550 OA
ATOM      6  O   UNL     1     -13.529  25.033 -23.124  1.00  0.00    -0.550 OA
ENDBRANCH   3   4
ENDBRANCH   2   3
ENDBRANCH   1   2
BRANCH   1   7
ATOM      7  C   UNL     1     -16.205  23.776 -19.052  1.00  0.00     0.000 C 
BRANCH   7   8
ATOM      8  C   UNL     1     -16.466  25.140 -18.392  1.00  0.00    -0.000 C 
BRANCH   8   9
ATOM      9  C   UNL     1     -16.793  26.239 -19.413  1.00  0.00    -0.003 C 
ATOM     10  C   UNL     1     -17.531  27.399 -18.752  1.00  0.00     0.004 C 
ENDBRANCH   8   9
ENDBRANCH   7   8
ENDBRANCH   1   7
TORSDOF 6
ENDMDL
MODEL 2
REMARK VINA RESULT:     0.686     13.092     14.034
REMARK INTER + INTRA:           0.706
REMARK INTER:                   0.045
REMARK INTRA:                   0.661
REMARK UNBOUND:                -0.220
REMARK SMILES CCCCCCCC(=O)[O-]
REMARK SMILES IDX 5 1 6 2 7 3 8 4 9 5 10 6 4 7 3 8 2 9 1 10
REMARK H PARENT
REMARK Flexibility Score: inf
ROOT
ATOM      1  C   UNL     1      -7.289  34.193 -15.879  1.00  0.00     0.000 C 
ENDROOT
BRANCH   1   2
ATOM      2  C   UNL     1      -5.875  34.512 -16.390  1.00  0.00     0.006 C 
BRANCH   2   3
ATOM      3  C   UNL     1      -5.883  35.204 -17.760  1.00  0.00     0.053 C 
BRANCH   3   4
ATOM      4  C   UNL     1      -6.109  36.674 -17.601  1.00  0.00     0.041 C 
ATOM      5  O   UNL     1      -6.218  37.178 -16.452  1.00  0.00    -0.550 OA
ATOM      6  O   UNL     1      -6.249  37.482 -18.723  1.00  0.00    -0.550 OA
ENDBRANCH   3   4
ENDBRANCH   2   3
ENDBRANCH   1   2
BRANCH   1   7
ATOM      7  C   UNL     1      -8.199  33.620 -16.978  1.00  0.00     0.000 C 
BRANCH   7   8
ATOM      8  C   UNL     1      -8.245  32.083 -16.965  1.00  0.00    -0.000 C 
BRANCH   8   9
ATOM      9  C   UNL     1      -8.097  31.498 -15.553  1.00  0.00    -0.003 C 
ATOM     10  C   UNL     1      -8.834  32.351 -14.525  1.00  0.00     0.004 C 
ENDBRANCH   8   9
ENDBRANCH   7   8
ENDBRANCH   1   7
TORSDOF 6
ENDMDL
MODEL 3
REMARK VINA RESULT:     0.867     12.753     13.822
REMARK INTER + INTRA:           0.951
REMARK INTER:                   0.417
REMARK INTRA:                   0.535
REMARK UNBOUND:                -0.220
REMARK SMILES CCCCCCCC(=O)[O-]
REMARK SMILES IDX 5 1 6 2 7 3 8 4 9 5 10 6 4 7 3 8 2 9 1 10
REMARK H PARENT
REMARK Flexibility Score: inf
ROOT
ATOM      1  C   UNL     1      -7.328  34.015 -16.899  1.00  0.00     0.000 C 
ENDROOT
BRANCH   1   2
ATOM      2  C   UNL     1      -8.344  34.200 -15.761  1.00  0.00     0.006 C 
BRANCH   2   3
ATOM      3  C   UNL     1      -8.276  33.076 -14.718  1.00  0.00     0.053 C 
BRANCH   3   4
ATOM      4  C   UNL     1      -8.193  31.743 -15.391  1.00  0.00     0.041 C 
ATOM      5  O   UNL     1      -8.844  31.526 -16.448  1.00  0.00    -0.550 OA
ATOM      6  O   UNL     1      -7.438  30.723 -14.825  1.00  0.00    -0.550 OA
ENDBRANCH   3   4
ENDBRANCH   2   3
ENDBRANCH   1   2
BRANCH   1   7
ATOM      7  C   UNL     1      -5.926  34.529 -16.530  1.00  0.00     0.000 C 
BRANCH   7   8
ATOM      8  C   UNL     1      -5.875  36.059 -16.393  1.00  0.00    -0.000 C 
BRANCH   8   9
ATOM      9  C   UNL     1      -5.878  36.776 -17.751  1.00  0.00    -0.003 C 
ATOM     10  C   UNL     1      -5.904  35.773 -18.900  1.00  0.00     0.004 C 
ENDBRANCH   8   9
ENDBRANCH   7   8
ENDBRANCH   1   7
TORSDOF 6
ENDMDL
