MODEL 1
REMARK VINA RESULT:    -4.553      0.000      0.000
REMARK INTER + INTRA:          -6.260
REMARK INTER:                  -6.151
REMARK INTRA:                  -0.110
REMARK UNBOUND:                -0.110
REMARK SMILES [NH3+]CCCC[C@@H]([NH3+])C(=O)[O-]
REMARK SMILES IDX 4 1 3 2 2 3 1 4 5 8 6 9 7 10 8 14 9 15 10 16
REMARK H PARENT 1 5 1 6 1 7 7 11 7 12 7 13
REMARK Flexibility Score: inf
ROOT
ATOM      1  C   UNL     1      39.579  33.302  -9.153  1.00  0.00     0.012 C 
ENDROOT
BRANCH   1   2
ATOM      2  C   UNL     1      39.323  34.793  -8.878  1.00  0.00     0.061 C 
BRANCH   2   3
ATOM      3  C   UNL     1      40.284  35.377  -7.832  1.00  0.00     0.258 C 
BRANCH   3   4
ATOM      4  N   UNL     1      40.605  36.770  -8.140  1.00  0.00    -0.358 N 
ATOM      5  H   UNL     1      40.071  37.085  -8.981  1.00  0.00     0.344 HD
ATOM      6  H   UNL     1      41.629  36.849  -8.340  1.00  0.00     0.344 HD
ATOM      7  H   UNL     1      40.373  37.382  -7.324  1.00  0.00     0.344 HD
ENDBRANCH   3   4
ENDBRANCH   2   3
ENDBRANCH   1   2
BRANCH   1   8
ATOM      8  C   UNL     1      38.557  32.700 -10.138  1.00  0.00     0.072 C 
BRANCH   8   9
ATOM      9  C   UNL     1      37.349  33.618 -10.436  1.00  0.00     0.227 C 
BRANCH   9  10
ATOM     10  N   UNL     1      37.410  34.189 -11.790  1.00  0.00    -0.350 N 
ATOM     11  H   UNL     1      38.404  34.417 -12.027  1.00  0.00     0.345 HD
ATOM     12  H   UNL     1      36.840  35.061 -11.862  1.00  0.00     0.345 HD
ATOM     13  H   UNL     1      37.061  33.491 -12.485  1.00  0.00     0.345 HD
ENDBRANCH   9  10
BRANCH   9  14
ATOM     14  C   UNL     1      36.040  32.910 -10.189  1.00  0.00     0.099 C 
ATOM     15  O   UNL     1      35.698  31.918 -10.887  1.00  0.00    -0.544 OA
ATOM     16  O   UNL     1      35.220  33.326  -9.148  1.00  0.00    -0.544 OA
ENDBRANCH   9  14
ENDBRANCH   8   9
ENDBRANCH   1   8
TORSDOF 7
ENDMDL
MODEL 2
REMARK VINA RESULT:    -4.471      2.069      2.418
REMARK INTER + INTRA:          -6.150
REMARK INTER:                  -6.032
REMARK INTRA:                  -0.117
REMARK UNBOUND:                -0.110
REMARK SMILES [NH3+]CCCC[C@@H]([NH3+])C(=O)[O-]
REMARK SMILES IDX 4 1 3 2 2 3 1 4 5 8 6 9 7 10 8 14 9 15 10 16
REMARK H PARENT 1 5 1 6 1 7 7 11 7 12 7 13
REMARK Flexibility Score: inf
ROOT
ATOM      1  C   UNL     1      39.986  33.741  -8.644  1.00  0.00     0.012 C 
ENDROOT
BRANCH   1   2
ATOM      2  C   UNL     1      41.037  34.553  -7.871  1.00  0.00     0.061 C 
BRANCH   2   3
ATOM      3  C   UNL     1      41.125  34.153  -6.390  1.00  0.00     0.258 C 
BRANCH   3   4
ATOM      4  N   UNL     1      40.002  34.707  -5.633  1.00  0.00    -0.358 N 
ATOM      5  H   UNL     1      39.196  34.041  -5.647  1.00  0.00     0.344 HD
ATOM      6  H   UNL     1      39.705  35.608  -6.073  1.00  0.00     0.344 HD
ATOM      7  H   UNL     1      40.291  34.892  -4.645  1.00  0.00     0.344 HD
ENDBRANCH   3   4
ENDBRANCH   2   3
ENDBRANCH   1   2
BRANCH   1   8
ATOM      8  C   UNL     1      38.927  34.637  -9.319  1.00  0.00     0.072 C 
BRANCH   8   9
ATOM      9  C   UNL     1      37.661  33.879  -9.782  1.00  0.00     0.227 C 
BRANCH   9  10
ATOM     10  N   UNL     1      36.433  34.643  -9.515  1.00  0.00    -0.350 N 
ATOM     11  H   UNL     1      35.921  34.803 -10.414  1.00  0.00     0.345 HD
ATOM     12  H   UNL     1      36.647  35.570  -9.083  1.00  0.00     0.345 HD
ATOM     13  H   UNL     1      35.809  34.101  -8.876  1.00  0.00     0.345 HD
ENDBRANCH   9  10
BRANCH   9  14
ATOM     14  C   UNL     1      37.758  33.470 -11.230  1.00  0.00     0.099 C 
ATOM     15  O   UNL     1      37.369  32.334 -11.611  1.00  0.00    -0.544 OA
ATOM     16  O   UNL     1      38.240  34.375 -12.169  1.00  0.00    -0.544 OA
ENDBRANCH   9  14
ENDBRANCH   8   9
ENDBRANCH   1   8
TORSDOF 7
ENDMDL
MODEL 3
REMARK VINA RESULT:    -4.371      3.147      4.894
REMARK INTER + INTRA:          -6.015
REMARK INTER:                  -5.911
REMARK INTRA:                  -0.103
REMARK UNBOUND:                -0.110
REMARK SMILES [NH3+]CCCC[C@@H]([NH3+])C(=O)[O-]
REMARK SMILES IDX 4 1 3 2 2 3 1 4 5 8 6 9 7 10 8 14 9 15 10 16
REMARK H PARENT 1 5 1 6 1 7 7 11 7 12 7 13
REMARK Flexibility Score: inf
ROOT
ATOM      1  C   UNL     1      37.400  34.119  -9.752  1.00  0.00     0.012 C 
ENDROOT
BRANCH   1   2
ATOM      2  C   UNL     1      36.715  32.964 -10.500  1.00  0.00     0.061 C 
BRANCH   2   3
ATOM      3  C   UNL     1      35.468  32.441  -9.771  1.00  0.00     0.258 C 
BRANCH   3   4
ATOM      4  N   UNL     1      35.098  33.329  -8.669  1.00  0.00    -0.358 N 
ATOM      5  H   UNL     1      35.844  33.323  -7.936  1.00  0.00     0.344 HD
ATOM      6  H   UNL     1      34.203  32.993  -8.244  1.00  0.00     0.344 HD
ATOM      7  H   UNL     1      34.958  34.303  -9.023  1.00  0.00     0.344 HD
ENDBRANCH   3   4
ENDBRANCH   2   3
ENDBRANCH   1   2
BRANCH   1   8
ATOM      8  C   UNL     1      38.930  33.948  -9.676  1.00  0.00     0.072 C 
BRANCH   8   9
ATOM      9  C   UNL     1      39.612  34.826  -8.601  1.00  0.00     0.227 C 
BRANCH   9  10
ATOM     10  N   UNL     1      38.639  35.637  -7.854  1.00  0.00    -0.350 N 
ATOM     11  H   UNL     1      37.917  35.009  -7.428  1.00  0.00     0.345 HD
ATOM     12  H   UNL     1      38.159  36.326  -8.476  1.00  0.00     0.345 HD
ATOM     13  H   UNL     1      39.122  36.149  -7.081  1.00  0.00     0.345 HD
ENDBRANCH   9  10
BRANCH   9  14
ATOM     14  C   UNL     1      40.476  34.004  -7.679  1.00  0.00     0.099 C 
ATOM     15  O   UNL     1      40.787  34.426  -6.533  1.00  0.00    -0.544 OA
ATOM     16  O   UNL     1      40.896  32.740  -8.076  1.00  0.00    -0.544 OA
ENDBRANCH   9  14
ENDBRANCH   8   9
ENDBRANCH   1   8
TORSDOF 7
ENDMDL
MODEL 4
REMARK VINA RESULT:    -4.363      2.967      4.856
REMARK INTER + INTRA:          -6.003
REMARK INTER:                  -5.864
REMARK INTRA:                  -0.140
REMARK UNBOUND:                -0.110
REMARK SMILES [NH3+]CCCC[C@@H]([NH3+])C(=O)[O-]
REMARK SMILES IDX 4 1 3 2 2 3 1 4 5 8 6 9 7 10 8 14 9 15 10 16
REMARK H PARENT 1 5 1 6 1 7 7 11 7 12 7 13
REMARK Flexibility Score: inf
ROOT
ATOM      1  C   UNL     1      37.691  34.507  -9.247  1.00  0.00     0.012 C 
ENDROOT
BRANCH   1   2
ATOM      2  C   UNL     1      37.087  33.761 -10.447  1.00  0.00     0.061 C 
BRANCH   2   3
ATOM      3  C   UNL     1      38.057  33.659 -11.633  1.00  0.00     0.258 C 
BRANCH   3   4
ATOM      4  N   UNL     1      37.655  34.558 -12.714  1.00  0.00    -0.358 N 
ATOM      5  H   UNL     1      37.579  34.029 -13.613  1.00  0.00     0.344 HD
ATOM      6  H   UNL     1      38.377  35.307 -12.823  1.00  0.00     0.344 HD
ATOM      7  H   UNL     1      36.737  35.005 -12.487  1.00  0.00     0.344 HD
ENDBRANCH   3   4
ENDBRANCH   2   3
ENDBRANCH   1   2
BRANCH   1   8
ATOM      8  C   UNL     1      39.216  34.694  -9.375  1.00  0.00     0.072 C 
BRANCH   8   9
ATOM      9  C   UNL     1      39.895  35.240  -8.097  1.00  0.00     0.227 C 
BRANCH   9  10
ATOM     10  N   UNL     1      38.951  35.971  -7.239  1.00  0.00    -0.350 N 
ATOM     11  H   UNL     1      39.324  36.006  -6.262  1.00  0.00     0.345 HD
ATOM     12  H   UNL     1      38.014  35.508  -7.223  1.00  0.00     0.345 HD
ATOM     13  H   UNL     1      38.844  36.952  -7.584  1.00  0.00     0.345 HD
ENDBRANCH   9  10
BRANCH   9  14
ATOM     14  C   UNL     1      40.606  34.148  -7.338  1.00  0.00     0.099 C 
ATOM     15  O   UNL     1      40.977  34.322  -6.146  1.00  0.00    -0.544 OA
ATOM     16  O   UNL     1      40.813  32.914  -7.942  1.00  0.00    -0.544 OA
ENDBRANCH   9  14
ENDBRANCH   8   9
ENDBRANCH   1   8
TORSDOF 7
ENDMDL
MODEL 5
REMARK VINA RESULT:    -3.205     16.034     16.755
REMARK INTER + INTRA:          -4.438
REMARK INTER:                  -4.341
REMARK INTRA:                  -0.097
REMARK UNBOUND:                -0.110
REMARK SMILES [NH3+]CCCC[C@@H]([NH3+])C(=O)[O-]
REMARK SMILES IDX 4 1 3 2 2 3 1 4 5 8 6 9 7 10 8 14 9 15 10 16
REMARK H PARENT 1 5 1 6 1 7 7 11 7 12 7 13
REMARK Flexibility Score: inf
ROOT
ATOM      1  C   UNL     1      40.943  43.950   1.716  1.00  0.00     0.012 C 
ENDROOT
BRANCH   1   2
ATOM      2  C   UNL     1      40.199  45.217   1.264  1.00  0.00     0.061 C 
BRANCH   2   3
ATOM      3  C   UNL     1      41.118  46.445   1.176  1.00  0.00     0.258 C 
BRANCH   3   4
ATOM      4  N   UNL     1      41.125  46.994  -0.180  1.00  0.00    -0.358 N 
ATOM      5  H   UNL     1      41.908  47.679  -0.286  1.00  0.00     0.344 HD
ATOM      6  H   UNL     1      40.218  47.486  -0.355  1.00  0.00     0.344 HD
ATOM      7  H   UNL     1      41.231  46.224  -0.879  1.00  0.00     0.344 HD
ENDBRANCH   3   4
ENDBRANCH   2   3
ENDBRANCH   1   2
BRANCH   1   8
ATOM      8  C   UNL     1      40.020  42.953   2.446  1.00  0.00     0.072 C 
BRANCH   8   9
ATOM      9  C   UNL     1      39.951  43.161   3.977  1.00  0.00     0.227 C 
BRANCH   9  10
ATOM     10  N   UNL     1      41.118  43.895   4.488  1.00  0.00    -0.350 N 
ATOM     11  H   UNL     1      40.968  44.128   5.497  1.00  0.00     0.345 HD
ATOM     12  H   UNL     1      41.272  44.782   3.958  1.00  0.00     0.345 HD
ATOM     13  H   UNL     1      41.973  43.297   4.415  1.00  0.00     0.345 HD
ENDBRANCH   9  10
BRANCH   9  14
ATOM     14  C   UNL     1      38.657  43.818   4.389  1.00  0.00     0.099 C 
ATOM     15  O   UNL     1      38.326  44.944   3.931  1.00  0.00    -0.544 OA
ATOM     16  O   UNL     1      37.793  43.153   5.251  1.00  0.00    -0.544 OA
ENDBRANCH   9  14
ENDBRANCH   8   9
ENDBRANCH   1   8
TORSDOF 7
ENDMDL
MODEL 6
REMARK VINA RESULT:    -2.552      2.652      4.059
REMARK INTER + INTRA:          -3.557
REMARK INTER:                  -3.153
REMARK INTRA:                  -0.403
REMARK UNBOUND:                -0.110
REMARK SMILES [NH3+]CCCC[C@@H]([NH3+])C(=O)[O-]
REMARK SMILES IDX 4 1 3 2 2 3 1 4 5 8 6 9 7 10 8 14 9 15 10 16
REMARK H PARENT 1 5 1 6 1 7 7 11 7 12 7 13
REMARK Flexibility Score: inf
ROOT
ATOM      1  C   UNL     1      36.614  31.881 -10.726  1.00  0.00     0.012 C 
ENDROOT
BRANCH   1   2
ATOM      2  C   UNL     1      35.138  31.967 -10.305  1.00  0.00     0.061 C 
BRANCH   2   3
ATOM      3  C   UNL     1      34.781  33.317  -9.663  1.00  0.00     0.258 C 
BRANCH   3   4
ATOM      4  N   UNL     1      35.118  33.322  -8.240  1.00  0.00    -0.358 N 
ATOM      5  H   UNL     1      35.307  32.347  -7.912  1.00  0.00     0.344 HD
ATOM      6  H   UNL     1      34.311  33.711  -7.699  1.00  0.00     0.344 HD
ATOM      7  H   UNL     1      35.958  33.921  -8.071  1.00  0.00     0.344 HD
ENDBRANCH   3   4
ENDBRANCH   2   3
ENDBRANCH   1   2
BRANCH   1   8
ATOM      8  C   UNL     1      37.012  32.997 -11.714  1.00  0.00     0.072 C 
BRANCH   8   9
ATOM      9  C   UNL     1      38.387  33.639 -11.420  1.00  0.00     0.227 C 
BRANCH   9  10
ATOM     10  N   UNL     1      38.596  34.873 -12.193  1.00  0.00    -0.350 N 
ATOM     11  H   UNL     1      38.484  34.668 -13.213  1.00  0.00     0.345 HD
ATOM     12  H   UNL     1      39.550  35.267 -12.032  1.00  0.00     0.345 HD
ATOM     13  H   UNL     1      37.880  35.586 -11.923  1.00  0.00     0.345 HD
ENDBRANCH   9  10
BRANCH   9  14
ATOM     14  C   UNL     1      38.590  33.866  -9.944  1.00  0.00     0.099 C 
ATOM     15  O   UNL     1      39.438  33.198  -9.294  1.00  0.00    -0.544 OA
ATOM     16  O   UNL     1      37.866  34.860  -9.296  1.00  0.00    -0.544 OA
ENDBRANCH   9  14
ENDBRANCH   8   9
ENDBRANCH   1   8
TORSDOF 7
ENDMDL
MODEL 7
REMARK VINA RESULT:    -1.859     15.565     16.444
REMARK INTER + INTRA:          -2.621
REMARK INTER:                  -2.465
REMARK INTRA:                  -0.156
REMARK UNBOUND:                -0.110
REMARK SMILES [NH3+]CCCC[C@@H]([NH3+])C(=O)[O-]
REMARK SMILES IDX 4 1 3 2 2 3 1 4 5 8 6 9 7 10 8 14 9 15 10 16
REMARK H PARENT 1 5 1 6 1 7 7 11 7 12 7 13
REMARK Flexibility Score: inf
ROOT
ATOM      1  C   UNL     1      38.795  45.444   2.540  1.00  0.00     0.012 C 
ENDROOT
BRANCH   1   2
ATOM      2  C   UNL     1      39.267  45.853   1.136  1.00  0.00     0.061 C 
BRANCH   2   3
ATOM      3  C   UNL     1      40.781  46.099   1.066  1.00  0.00     0.258 C 
BRANCH   3   4
ATOM      4  N   UNL     1      41.125  46.905  -0.106  1.00  0.00    -0.358 N 
ATOM      5  H   UNL     1      40.688  46.496  -0.963  1.00  0.00     0.344 HD
ATOM      6  H   UNL     1      42.164  46.910  -0.224  1.00  0.00     0.344 HD
ATOM      7  H   UNL     1      40.795  47.888   0.025  1.00  0.00     0.344 HD
ENDBRANCH   3   4
ENDBRANCH   2   3
ENDBRANCH   1   2
BRANCH   1   8
ATOM      8  C   UNL     1      39.966  45.054   3.466  1.00  0.00     0.072 C 
BRANCH   8   9
ATOM      9  C   UNL     1      39.907  43.596   3.979  1.00  0.00     0.227 C 
BRANCH   9  10
ATOM     10  N   UNL     1      38.627  43.295   4.638  1.00  0.00    -0.350 N 
ATOM     11  H   UNL     1      38.740  43.388   5.675  1.00  0.00     0.345 HD
ATOM     12  H   UNL     1      38.306  42.325   4.421  1.00  0.00     0.345 HD
ATOM     13  H   UNL     1      37.898  43.977   4.327  1.00  0.00     0.345 HD
ENDBRANCH   9  10
BRANCH   9  14
ATOM     14  C   UNL     1      40.213  42.608   2.882  1.00  0.00     0.099 C 
ATOM     15  O   UNL     1      39.625  41.496   2.828  1.00  0.00    -0.544 OA
ATOM     16  O   UNL     1      41.123  42.946   1.888  1.00  0.00    -0.544 OA
ENDBRANCH   9  14
ENDBRANCH   8   9
ENDBRANCH   1   8
TORSDOF 7
ENDMDL
