MODEL 1
REMARK VINA RESULT:    -4.247      0.000      0.000
REMARK INTER + INTRA:          -9.081
REMARK INTER:                  -7.227
REMARK INTRA:                  -1.854
REMARK UNBOUND:                -1.854
REMARK SMILES CCCCCCCCCCCCCC(=O)[O-]
REMARK SMILES IDX 8 1 9 2 10 3 11 4 12 5 13 6 14 7 15 8 16 9 7 10 6 11 5 12
REMARK SMILES IDX 4 13 3 14 2 15 1 16
REMARK H PARENT
REMARK Flexibility Score: inf
ROOT
ATOM      1  C   UNL     1      57.430  13.803  91.601  1.00  0.00     0.000 C 
ENDROOT
BRANCH   1   2
ATOM      2  C   UNL     1      57.644  12.497  92.385  1.00  0.00     0.000 C 
BRANCH   2   3
ATOM      3  C   UNL     1      56.376  12.031  93.120  1.00  0.00     0.000 C 
BRANCH   3   4
ATOM      4  C   UNL     1      55.345  11.394  92.173  1.00  0.00     0.000 C 
BRANCH   4   5
ATOM      5  C   UNL     1      55.409   9.859  92.178  1.00  0.00     0.006 C 
BRANCH   5   6
ATOM      6  C   UNL     1      54.129   9.215  92.728  1.00  0.00     0.053 C 
BRANCH   6   7
ATOM      7  C   UNL     1      54.332   8.777  94.144  1.00  0.00     0.041 C 
ATOM      8  O   UNL     1      54.387   7.551  94.426  1.00  0.00    -0.550 OA
ATOM      9  O   UNL     1      54.512   9.722  95.146  1.00  0.00    -0.550 OA
ENDBRANCH   6   7
ENDBRANCH   5   6
ENDBRANCH   4   5
ENDBRANCH   3   4
ENDBRANCH   2   3
ENDBRANCH   1   2
BRANCH   1  10
ATOM     10  C   UNL     1      57.823  13.680  90.119  1.00  0.00     0.000 C 
BRANCH  10  11
ATOM     11  C   UNL     1      56.641  13.313  89.196  1.00  0.00    -0.000 C 
BRANCH  11  12
ATOM     12  C   UNL     1      56.706  11.850  88.724  1.00  0.00    -0.000 C 
BRANCH  12  13
ATOM     13  C   UNL     1      58.100  11.229  88.908  1.00  0.00    -0.000 C 
BRANCH  13  14
ATOM     14  C   UNL     1      58.085  10.001  89.829  1.00  0.00    -0.000 C 
BRANCH  14  15
ATOM     15  C   UNL     1      59.453   9.796  90.491  1.00  0.00    -0.003 C 
ATOM     16  C   UNL     1      60.459  10.839  90.012  1.00  0.00     0.004 C 
ENDBRANCH  14  15
ENDBRANCH  13  14
ENDBRANCH  12  13
ENDBRANCH  11  12
ENDBRANCH  10  11
ENDBRANCH   1  10
TORSDOF 12
ENDMDL
MODEL 2
REMARK VINA RESULT:    -4.079      2.312      3.008
REMARK INTER + INTRA:          -8.794
REMARK INTER:                  -6.538
REMARK INTRA:                  -2.256
REMARK UNBOUND:                -1.854
REMARK SMILES CCCCCCCCCCCCCC(=O)[O-]
REMARK SMILES IDX 8 1 9 2 10 3 11 4 12 5 13 6 14 7 15 8 16 9 7 10 6 11 5 12
REMARK SMILES IDX 4 13 3 14 2 15 1 16
REMARK H PARENT
REMARK Flexibility Score: inf
ROOT
ATOM      1  C   UNL     1      57.871  14.992  91.820  1.00  0.00     0.000 C 
ENDROOT
BRANCH   1   2
ATOM      2  C   UNL     1      59.001  13.950  91.769  1.00  0.00     0.000 C 
BRANCH   2   3
ATOM      3  C   UNL     1      58.727  12.732  92.667  1.00  0.00     0.000 C 
BRANCH   3   4
ATOM      4  C   UNL     1      57.476  12.914  93.543  1.00  0.00     0.000 C 
BRANCH   4   5
ATOM      5  C   UNL     1      56.399  11.854  93.262  1.00  0.00     0.006 C 
BRANCH   5   6
ATOM      6  C   UNL     1      55.195  12.422  92.501  1.00  0.00     0.053 C 
BRANCH   6   7
ATOM      7  C   UNL     1      54.466  13.419  93.347  1.00  0.00     0.041 C 
ATOM      8  O   UNL     1      53.899  13.054  94.410  1.00  0.00    -0.550 OA
ATOM      9  O   UNL     1      54.457  14.761  92.989  1.00  0.00    -0.550 OA
ENDBRANCH   6   7
ENDBRANCH   5   6
ENDBRANCH   4   5
ENDBRANCH   3   4
ENDBRANCH   2   3
ENDBRANCH   1   2
BRANCH   1  10
ATOM     10  C   UNL     1      57.034  15.027  90.530  1.00  0.00     0.000 C 
BRANCH  10  11
ATOM     11  C   UNL     1      57.507  14.019  89.461  1.00  0.00    -0.000 C 
BRANCH  11  12
ATOM     12  C   UNL     1      56.387  13.051  89.039  1.00  0.00    -0.000 C 
BRANCH  12  13
ATOM     13  C   UNL     1      56.919  11.663  88.649  1.00  0.00    -0.000 C 
BRANCH  13  14
ATOM     14  C   UNL     1      58.391  11.462  89.037  1.00  0.00    -0.000 C 
BRANCH  14  15
ATOM     15  C   UNL     1      58.548  10.267  89.985  1.00  0.00    -0.003 C 
ATOM     16  C   UNL     1      57.189   9.723  90.417  1.00  0.00     0.004 C 
ENDBRANCH  14  15
ENDBRANCH  13  14
ENDBRANCH  12  13
ENDBRANCH  11  12
ENDBRANCH  10  11
ENDBRANCH   1  10
TORSDOF 12
ENDMDL
MODEL 3
REMARK VINA RESULT:    -4.058      2.997      5.405
REMARK INTER + INTRA:          -8.759
REMARK INTER:                  -6.567
REMARK INTRA:                  -2.192
REMARK UNBOUND:                -1.854
REMARK SMILES CCCCCCCCCCCCCC(=O)[O-]
REMARK SMILES IDX 8 1 9 2 10 3 11 4 12 5 13 6 14 7 15 8 16 9 7 10 6 11 5 12
REMARK SMILES IDX 4 13 3 14 2 15 1 16
REMARK H PARENT
REMARK Flexibility Score: inf
ROOT
ATOM      1  C   UNL     1      56.770  11.729  88.503  1.00  0.00     0.000 C 
ENDROOT
BRANCH   1   2
ATOM      2  C   UNL     1      56.028  13.020  88.888  1.00  0.00     0.000 C 
BRANCH   2   3
ATOM      3  C   UNL     1      56.978  14.135  89.353  1.00  0.00     0.000 C 
BRANCH   3   4
ATOM      4  C   UNL     1      56.388  14.973  90.500  1.00  0.00     0.000 C 
BRANCH   4   5
ATOM      5  C   UNL     1      57.378  15.168  91.659  1.00  0.00     0.006 C 
BRANCH   5   6
ATOM      6  C   UNL     1      58.788  14.663  91.323  1.00  0.00     0.053 C 
BRANCH   6   7
ATOM      7  C   UNL     1      59.522  14.297  92.574  1.00  0.00     0.041 C 
ATOM      8  O   UNL     1      59.762  15.171  93.448  1.00  0.00    -0.550 OA
ATOM      9  O   UNL     1      59.899  12.979  92.799  1.00  0.00    -0.550 OA
ENDBRANCH   6   7
ENDBRANCH   5   6
ENDBRANCH   4   5
ENDBRANCH   3   4
ENDBRANCH   2   3
ENDBRANCH   1   2
BRANCH   1  10
ATOM     10  C   UNL     1      58.184  11.653  89.103  1.00  0.00     0.000 C 
BRANCH  10  11
ATOM     11  C   UNL     1      58.244  10.890  90.444  1.00  0.00    -0.000 C 
BRANCH  11  12
ATOM     12  C   UNL     1      57.056   9.926  90.616  1.00  0.00    -0.000 C 
BRANCH  12  13
ATOM     13  C   UNL     1      56.068  10.390  91.697  1.00  0.00    -0.000 C 
BRANCH  13  14
ATOM     14  C   UNL     1      56.566  11.623  92.466  1.00  0.00    -0.000 C 
BRANCH  14  15
ATOM     15  C   UNL     1      55.402  12.349  93.150  1.00  0.00    -0.003 C 
ATOM     16  C   UNL     1      54.222  12.521  92.197  1.00  0.00     0.004 C 
ENDBRANCH  14  15
ENDBRANCH  13  14
ENDBRANCH  12  13
ENDBRANCH  11  12
ENDBRANCH  10  11
ENDBRANCH   1  10
TORSDOF 12
ENDMDL
MODEL 4
REMARK VINA RESULT:    -4.048      2.221      2.889
REMARK INTER + INTRA:          -8.742
REMARK INTER:                  -6.947
REMARK INTRA:                  -1.795
REMARK UNBOUND:                -1.854
REMARK SMILES CCCCCCCCCCCCCC(=O)[O-]
REMARK SMILES IDX 8 1 9 2 10 3 11 4 12 5 13 6 14 7 15 8 16 9 7 10 6 11 5 12
REMARK SMILES IDX 4 13 3 14 2 15 1 16
REMARK H PARENT
REMARK Flexibility Score: inf
ROOT
ATOM      1  C   UNL     1      58.241  15.738  90.373  1.00  0.00     0.000 C 
ENDROOT
BRANCH   1   2
ATOM      2  C   UNL     1      57.241  16.251  91.422  1.00  0.00     0.000 C 
BRANCH   2   3
ATOM      3  C   UNL     1      57.180  15.357  92.672  1.00  0.00     0.000 C 
BRANCH   3   4
ATOM      4  C   UNL     1      55.753  14.875  92.983  1.00  0.00     0.000 C 
BRANCH   4   5
ATOM      5  C   UNL     1      55.567  13.372  92.720  1.00  0.00     0.006 C 
BRANCH   5   6
ATOM      6  C   UNL     1      56.812  12.551  93.082  1.00  0.00     0.053 C 
BRANCH   6   7
ATOM      7  C   UNL     1      56.719  12.056  94.491  1.00  0.00     0.041 C 
ATOM      8  O   UNL     1      56.014  11.049  94.764  1.00  0.00    -0.550 OA
ATOM      9  O   UNL     1      57.451  12.675  95.496  1.00  0.00    -0.550 OA
ENDBRANCH   6   7
ENDBRANCH   5   6
ENDBRANCH   4   5
ENDBRANCH   3   4
ENDBRANCH   2   3
ENDBRANCH   1   2
BRANCH   1  10
ATOM     10  C   UNL     1      57.950  14.295  89.928  1.00  0.00     0.000 C 
BRANCH  10  11
ATOM     11  C   UNL     1      56.657  14.156  89.096  1.00  0.00    -0.000 C 
BRANCH  11  12
ATOM     12  C   UNL     1      56.077  12.732  89.159  1.00  0.00    -0.000 C 
BRANCH  12  13
ATOM     13  C   UNL     1      57.062  11.668  88.650  1.00  0.00    -0.000 C 
BRANCH  13  14
ATOM     14  C   UNL     1      57.292  10.539  89.666  1.00  0.00    -0.000 C 
BRANCH  14  15
ATOM     15  C   UNL     1      58.728  10.572  90.204  1.00  0.00    -0.003 C 
ATOM     16  C   UNL     1      59.683  11.195  89.190  1.00  0.00     0.004 C 
ENDBRANCH  14  15
ENDBRANCH  13  14
ENDBRANCH  12  13
ENDBRANCH  11  12
ENDBRANCH  10  11
ENDBRANCH   1  10
TORSDOF 12
ENDMDL
MODEL 5
REMARK VINA RESULT:    -4.042      2.461      3.866
REMARK INTER + INTRA:          -8.732
REMARK INTER:                  -7.165
REMARK INTRA:                  -1.566
REMARK UNBOUND:                -1.854
REMARK SMILES CCCCCCCCCCCCCC(=O)[O-]
REMARK SMILES IDX 8 1 9 2 10 3 11 4 12 5 13 6 14 7 15 8 16 9 7 10 6 11 5 12
REMARK SMILES IDX 4 13 3 14 2 15 1 16
REMARK H PARENT
REMARK Flexibility Score: inf
ROOT
ATOM      1  C   UNL     1      58.825  12.928  92.424  1.00  0.00     0.000 C 
ENDROOT
BRANCH   1   2
ATOM      2  C   UNL     1      58.683  14.333  91.817  1.00  0.00     0.000 C 
BRANCH   2   3
ATOM      3  C   UNL     1      57.853  15.281  92.699  1.00  0.00     0.000 C 
BRANCH   3   4
ATOM      4  C   UNL     1      58.411  15.398  94.127  1.00  0.00     0.000 C 
BRANCH   4   5
ATOM      5  C   UNL     1      57.378  15.013  95.198  1.00  0.00     0.006 C 
BRANCH   5   6
ATOM      6  C   UNL     1      57.859  13.868  96.098  1.00  0.00     0.053 C 
BRANCH   6   7
ATOM      7  C   UNL     1      56.848  12.765  96.125  1.00  0.00     0.041 C 
ATOM      8  O   UNL     1      55.719  12.928  95.593  1.00  0.00    -0.550 OA
ATOM      9  O   UNL     1      57.170  11.539  96.692  1.00  0.00    -0.550 OA
ENDBRANCH   6   7
ENDBRANCH   5   6
ENDBRANCH   4   5
ENDBRANCH   3   4
ENDBRANCH   2   3
ENDBRANCH   1   2
BRANCH   1  10
ATOM     10  C   UNL     1      57.472  12.221  92.613  1.00  0.00     0.000 C 
BRANCH  10  11
ATOM     11  C   UNL     1      56.773  11.863  91.284  1.00  0.00    -0.000 C 
BRANCH  11  12
ATOM     12  C   UNL     1      56.788  10.349  91.010  1.00  0.00    -0.000 C 
BRANCH  12  13
ATOM     13  C   UNL     1      57.928   9.929  90.068  1.00  0.00    -0.000 C 
BRANCH  13  14
ATOM     14  C   UNL     1      58.412  11.079  89.173  1.00  0.00    -0.000 C 
BRANCH  14  15
ATOM     15  C   UNL     1      59.940  11.192  89.204  1.00  0.00    -0.003 C 
ATOM     16  C   UNL     1      60.519  10.505  90.439  1.00  0.00     0.004 C 
ENDBRANCH  14  15
ENDBRANCH  13  14
ENDBRANCH  12  13
ENDBRANCH  11  12
ENDBRANCH  10  11
ENDBRANCH   1  10
TORSDOF 12
ENDMDL
MODEL 6
REMARK VINA RESULT:    -4.018      2.446      5.245
REMARK INTER + INTRA:          -8.690
REMARK INTER:                  -7.468
REMARK INTRA:                  -1.222
REMARK UNBOUND:                -1.854
REMARK SMILES CCCCCCCCCCCCCC(=O)[O-]
REMARK SMILES IDX 8 1 9 2 10 3 11 4 12 5 13 6 14 7 15 8 16 9 7 10 6 11 5 12
REMARK SMILES IDX 4 13 3 14 2 15 1 16
REMARK H PARENT
REMARK Flexibility Score: inf
ROOT
ATOM      1  C   UNL     1      57.294  12.457  92.606  1.00  0.00     0.000 C 
ENDROOT
BRANCH   1   2
ATOM      2  C   UNL     1      57.858  13.753  92.002  1.00  0.00     0.000 C 
BRANCH   2   3
ATOM      3  C   UNL     1      58.451  13.546  90.598  1.00  0.00     0.000 C 
BRANCH   3   4
ATOM      4  C   UNL     1      57.381  13.189  89.553  1.00  0.00     0.000 C 
BRANCH   4   5
ATOM      5  C   UNL     1      57.494  11.735  89.065  1.00  0.00     0.006 C 
BRANCH   5   6
ATOM      6  C   UNL     1      58.934  11.208  89.107  1.00  0.00     0.053 C 
BRANCH   6   7
ATOM      7  C   UNL     1      59.076  10.165  90.170  1.00  0.00     0.041 C 
ATOM      8  O   UNL     1      58.164   9.317  90.353  1.00  0.00    -0.550 OA
ATOM      9  O   UNL     1      60.239  10.096  90.927  1.00  0.00    -0.550 OA
ENDBRANCH   6   7
ENDBRANCH   5   6
ENDBRANCH   4   5
ENDBRANCH   3   4
ENDBRANCH   2   3
ENDBRANCH   1   2
BRANCH   1  10
ATOM     10  C   UNL     1      55.808  12.574  92.984  1.00  0.00     0.000 C 
BRANCH  10  11
ATOM     11  C   UNL     1      54.891  11.624  92.182  1.00  0.00    -0.000 C 
BRANCH  11  12
ATOM     12  C   UNL     1      55.340  10.156  92.291  1.00  0.00    -0.000 C 
BRANCH  12  13
ATOM     13  C   UNL     1      54.165   9.194  92.531  1.00  0.00    -0.000 C 
BRANCH  13  14
ATOM     14  C   UNL     1      54.280   8.439  93.863  1.00  0.00    -0.000 C 
BRANCH  14  15
ATOM     15  C   UNL     1      54.478   9.414  95.030  1.00  0.00    -0.003 C 
ATOM     16  C   UNL     1      55.300   8.776  96.147  1.00  0.00     0.004 C 
ENDBRANCH  14  15
ENDBRANCH  13  14
ENDBRANCH  12  13
ENDBRANCH  11  12
ENDBRANCH  10  11
ENDBRANCH   1  10
TORSDOF 12
ENDMDL
MODEL 7
REMARK VINA RESULT:    -3.977      3.010      5.553
REMARK INTER + INTRA:          -8.621
REMARK INTER:                  -7.032
REMARK INTRA:                  -1.589
REMARK UNBOUND:                -1.854
REMARK SMILES CCCCCCCCCCCCCC(=O)[O-]
REMARK SMILES IDX 8 1 9 2 10 3 11 4 12 5 13 6 14 7 15 8 16 9 7 10 6 11 5 12
REMARK SMILES IDX 4 13 3 14 2 15 1 16
REMARK H PARENT
REMARK Flexibility Score: inf
ROOT
ATOM      1  C   UNL     1      55.463  12.080  92.205  1.00  0.00     0.000 C 
ENDROOT
BRANCH   1   2
ATOM      2  C   UNL     1      55.606  12.409  90.710  1.00  0.00     0.000 C 
BRANCH   2   3
ATOM      3  C   UNL     1      56.473  13.653  90.456  1.00  0.00     0.000 C 
BRANCH   3   4
ATOM      4  C   UNL     1      57.707  13.346  89.591  1.00  0.00     0.000 C 
BRANCH   4   5
ATOM      5  C   UNL     1      57.710  11.905  89.057  1.00  0.00     0.006 C 
BRANCH   5   6
ATOM      6  C   UNL     1      59.099  11.257  89.113  1.00  0.00     0.053 C 
BRANCH   6   7
ATOM      7  C   UNL     1      59.160  10.248  90.217  1.00  0.00     0.041 C 
ATOM      8  O   UNL     1      58.158   9.531  90.476  1.00  0.00    -0.550 OA
ATOM      9  O   UNL     1      60.339  10.063  90.927  1.00  0.00    -0.550 OA
ENDBRANCH   6   7
ENDBRANCH   5   6
ENDBRANCH   4   5
ENDBRANCH   3   4
ENDBRANCH   2   3
ENDBRANCH   1   2
BRANCH   1  10
ATOM     10  C   UNL     1      56.811  12.076  92.946  1.00  0.00     0.000 C 
BRANCH  10  11
ATOM     11  C   UNL     1      56.689  12.408  94.449  1.00  0.00    -0.000 C 
BRANCH  11  12
ATOM     12  C   UNL     1      55.742  13.593  94.706  1.00  0.00    -0.000 C 
BRANCH  12  13
ATOM     13  C   UNL     1      56.445  14.953  94.571  1.00  0.00    -0.000 C 
BRANCH  13  14
ATOM     14  C   UNL     1      57.791  15.000  95.310  1.00  0.00    -0.000 C 
BRANCH  14  15
ATOM     15  C   UNL     1      58.922  15.412  94.360  1.00  0.00    -0.003 C 
ATOM     16  C   UNL     1      58.406  15.593  92.935  1.00  0.00     0.004 C 
ENDBRANCH  14  15
ENDBRANCH  13  14
ENDBRANCH  12  13
ENDBRANCH  11  12
ENDBRANCH  10  11
ENDBRANCH   1  10
TORSDOF 12
ENDMDL
MODEL 8
REMARK VINA RESULT:    -3.936      1.533      2.489
REMARK INTER + INTRA:          -8.551
REMARK INTER:                  -6.815
REMARK INTRA:                  -1.736
REMARK UNBOUND:                -1.854
REMARK SMILES CCCCCCCCCCCCCC(=O)[O-]
REMARK SMILES IDX 8 1 9 2 10 3 11 4 12 5 13 6 14 7 15 8 16 9 7 10 6 11 5 12
REMARK SMILES IDX 4 13 3 14 2 15 1 16
REMARK H PARENT
REMARK Flexibility Score: inf
ROOT
ATOM      1  C   UNL     1      57.019  15.167  92.231  1.00  0.00     0.000 C 
ENDROOT
BRANCH   1   2
ATOM      2  C   UNL     1      55.516  14.980  92.495  1.00  0.00     0.000 C 
BRANCH   2   3
ATOM      3  C   UNL     1      55.050  13.531  92.276  1.00  0.00     0.000 C 
BRANCH   3   4
ATOM      4  C   UNL     1      54.216  12.995  93.452  1.00  0.00     0.000 C 
BRANCH   4   5
ATOM      5  C   UNL     1      55.068  12.710  94.698  1.00  0.00     0.006 C 
BRANCH   5   6
ATOM      6  C   UNL     1      55.751  11.337  94.645  1.00  0.00     0.053 C 
BRANCH   6   7
ATOM      7  C   UNL     1      54.737  10.244  94.776  1.00  0.00     0.041 C 
ATOM      8  O   UNL     1      54.072  10.120  95.837  1.00  0.00    -0.550 OA
ATOM      9  O   UNL     1      54.490   9.393  93.706  1.00  0.00    -0.550 OA
ENDBRANCH   6   7
ENDBRANCH   5   6
ENDBRANCH   4   5
ENDBRANCH   3   4
ENDBRANCH   2   3
ENDBRANCH   1   2
BRANCH   1  10
ATOM     10  C   UNL     1      57.767  13.832  92.077  1.00  0.00     0.000 C 
BRANCH  10  11
ATOM     11  C   UNL     1      58.531  13.704  90.741  1.00  0.00    -0.000 C 
BRANCH  11  12
ATOM     12  C   UNL     1      57.581  13.659  89.531  1.00  0.00    -0.000 C 
BRANCH  12  13
ATOM     13  C   UNL     1      57.062  12.242  89.239  1.00  0.00    -0.000 C 
BRANCH  13  14
ATOM     14  C   UNL     1      58.184  11.194  89.209  1.00  0.00    -0.000 C 
BRANCH  14  15
ATOM     15  C   UNL     1      57.846  10.003  90.114  1.00  0.00    -0.003 C 
ATOM     16  C   UNL     1      56.727  10.353  91.090  1.00  0.00     0.004 C 
ENDBRANCH  14  15
ENDBRANCH  13  14
ENDBRANCH  12  13
ENDBRANCH  11  12
ENDBRANCH  10  11
ENDBRANCH   1  10
TORSDOF 12
ENDMDL
MODEL 9
REMARK VINA RESULT:    -3.923      3.534      6.000
REMARK INTER + INTRA:          -8.529
REMARK INTER:                  -6.532
REMARK INTRA:                  -1.997
REMARK UNBOUND:                -1.854
REMARK SMILES CCCCCCCCCCCCCC(=O)[O-]
REMARK SMILES IDX 8 1 9 2 10 3 11 4 12 5 13 6 14 7 15 8 16 9 7 10 6 11 5 12
REMARK SMILES IDX 4 13 3 14 2 15 1 16
REMARK H PARENT
REMARK Flexibility Score: inf
ROOT
ATOM      1  C   UNL     1      57.389  15.021  95.029  1.00  0.00     0.000 C 
ENDROOT
BRANCH   1   2
ATOM      2  C   UNL     1      57.698  14.813  93.537  1.00  0.00     0.000 C 
BRANCH   2   3
ATOM      3  C   UNL     1      58.740  13.709  93.295  1.00  0.00     0.000 C 
BRANCH   3   4
ATOM      4  C   UNL     1      58.239  12.627  92.324  1.00  0.00     0.000 C 
BRANCH   4   5
ATOM      5  C   UNL     1      58.169  13.124  90.871  1.00  0.00     0.006 C 
BRANCH   5   6
ATOM      6  C   UNL     1      56.895  12.665  90.150  1.00  0.00     0.053 C 
BRANCH   6   7
ATOM      7  C   UNL     1      57.242  11.834  88.956  1.00  0.00     0.041 C 
ATOM      8  O   UNL     1      56.420  11.706  88.011  1.00  0.00    -0.550 OA
ATOM      9  O   UNL     1      58.495  11.240  88.861  1.00  0.00    -0.550 OA
ENDBRANCH   6   7
ENDBRANCH   5   6
ENDBRANCH   4   5
ENDBRANCH   3   4
ENDBRANCH   2   3
ENDBRANCH   1   2
BRANCH   1  10
ATOM     10  C   UNL     1      57.898  13.866  95.910  1.00  0.00     0.000 C 
BRANCH  10  11
ATOM     11  C   UNL     1      56.768  13.081  96.610  1.00  0.00    -0.000 C 
BRANCH  11  12
ATOM     12  C   UNL     1      56.767  11.593  96.217  1.00  0.00    -0.000 C 
BRANCH  12  13
ATOM     13  C   UNL     1      56.001  11.325  94.912  1.00  0.00    -0.000 C 
BRANCH  13  14
ATOM     14  C   UNL     1      54.775  12.236  94.747  1.00  0.00    -0.000 C 
BRANCH  14  15
ATOM     15  C   UNL     1      54.610  12.673  93.287  1.00  0.00    -0.003 C 
ATOM     16  C   UNL     1      54.058  14.093  93.196  1.00  0.00     0.004 C 
ENDBRANCH  14  15
ENDBRANCH  13  14
ENDBRANCH  12  13
ENDBRANCH  11  12
ENDBRANCH  10  11
ENDBRANCH   1  10
TORSDOF 12
ENDMDL
