MODEL 1
REMARK VINA RESULT:    -5.002      0.000      0.000
REMARK INTER + INTRA:          -5.905
REMARK INTER:                  -5.733
REMARK INTRA:                  -0.172
REMARK UNBOUND:                -0.172
REMARK SMILES CC=Cc1ccc(O)c(OC)c1
REMARK SMILES IDX 4 1 12 2 9 3 7 4 6 5 5 6 3 7 1 8 2 9 10 10 11 11 8 12
REMARK H PARENT 8 13
REMARK Flexibility Score: inf
ROOT
ATOM      1  C   UNL     1       7.172  -9.765  41.667  1.00  0.00    -0.022 A 
ATOM      2  C   UNL     1       7.579  -8.432  41.494  1.00  0.00     0.058 A 
ATOM      3  C   UNL     1       8.008  -7.658  42.591  1.00  0.00     0.161 A 
ATOM      4  C   UNL     1       8.017  -8.228  43.871  1.00  0.00     0.157 A 
ATOM      5  C   UNL     1       7.598  -9.552  44.053  1.00  0.00     0.051 A 
ATOM      6  C   UNL     1       7.175 -10.315  42.963  1.00  0.00     0.012 A 
ENDROOT
BRANCH   1   7
ATOM      7  C   UNL     1       6.720 -10.530  40.478  1.00  0.00     0.003 C 
ATOM      8  C   UNL     1       6.752 -12.397  38.871  1.00  0.00     0.035 C 
ATOM      9  C   UNL     1       7.254 -11.694  40.091  1.00  0.00    -0.030 C 
ENDBRANCH   1   7
BRANCH   3  10
ATOM     10  O   UNL     1       8.430  -6.327  42.450  1.00  0.00    -0.493 OA
ATOM     11  C   UNL     1       7.571  -5.237  42.132  1.00  0.00     0.278 C 
ENDBRANCH   3  10
BRANCH   4  12
ATOM     12  O   UNL     1       8.442  -7.469  44.961  1.00  0.00    -0.504 OA
ATOM     13  H   UNL     1       7.785  -7.095  45.634  1.00  0.00     0.293 HD
ENDBRANCH   4  12
TORSDOF 3
ENDMDL
MODEL 2
REMARK VINA RESULT:    -4.807      2.095      4.637
REMARK INTER + INTRA:          -5.681
REMARK INTER:                  -5.505
REMARK INTRA:                  -0.176
REMARK UNBOUND:                -0.172
REMARK SMILES CC=Cc1ccc(O)c(OC)c1
REMARK SMILES IDX 4 1 12 2 9 3 7 4 6 5 5 6 3 7 1 8 2 9 10 10 11 11 8 12
REMARK H PARENT 8 13
REMARK Flexibility Score: inf
ROOT
ATOM      1  C   UNL     1       7.924  -6.725  41.991  1.00  0.00    -0.022 A 
ATOM      2  C   UNL     1       7.641  -8.043  41.593  1.00  0.00     0.058 A 
ATOM      3  C   UNL     1       7.595  -9.089  42.537  1.00  0.00     0.161 A 
ATOM      4  C   UNL     1       7.845  -8.807  43.887  1.00  0.00     0.157 A 
ATOM      5  C   UNL     1       8.142  -7.499  44.288  1.00  0.00     0.051 A 
ATOM      6  C   UNL     1       8.186  -6.465  43.350  1.00  0.00     0.012 A 
ENDROOT
BRANCH   1   7
ATOM      7  C   UNL     1       7.969  -5.665  40.954  1.00  0.00     0.003 C 
ATOM      8  C   UNL     1       7.934  -3.348  40.115  1.00  0.00     0.035 C 
ATOM      9  C   UNL     1       7.896  -4.355  41.219  1.00  0.00    -0.030 C 
ENDBRANCH   1   7
BRANCH   3  10
ATOM     10  O   UNL     1       7.306 -10.413  42.174  1.00  0.00    -0.493 OA
ATOM     11  C   UNL     1       5.993 -10.932  41.990  1.00  0.00     0.278 C 
ENDBRANCH   3  10
BRANCH   4  12
ATOM     12  O   UNL     1       7.799  -9.837  44.826  1.00  0.00    -0.504 OA
ATOM     13  H   UNL     1       8.405  -9.842  45.637  1.00  0.00     0.293 HD
ENDBRANCH   4  12
TORSDOF 3
ENDMDL
MODEL 3
REMARK VINA RESULT:    -4.633      2.392      4.701
REMARK INTER + INTRA:          -5.483
REMARK INTER:                  -5.307
REMARK INTRA:                  -0.175
REMARK UNBOUND:                -0.172
REMARK SMILES CC=Cc1ccc(O)c(OC)c1
REMARK SMILES IDX 4 1 12 2 9 3 7 4 6 5 5 6 3 7 1 8 2 9 10 10 11 11 8 12
REMARK H PARENT 8 13
REMARK Flexibility Score: inf
ROOT
ATOM      1  C   UNL     1       8.148  -8.271  42.471  1.00  0.00    -0.022 A 
ATOM      2  C   UNL     1       7.358  -8.953  41.530  1.00  0.00     0.058 A 
ATOM      3  C   UNL     1       6.608 -10.087  41.902  1.00  0.00     0.161 A 
ATOM      4  C   UNL     1       6.663 -10.542  43.225  1.00  0.00     0.157 A 
ATOM      5  C   UNL     1       7.460  -9.877  44.164  1.00  0.00     0.051 A 
ATOM      6  C   UNL     1       8.200  -8.753  43.793  1.00  0.00     0.012 A 
ENDROOT
BRANCH   1   7
ATOM      7  C   UNL     1       8.924  -7.088  42.022  1.00  0.00     0.003 C 
ATOM      8  C   UNL     1       9.940  -4.856  42.256  1.00  0.00     0.035 C 
ATOM      9  C   UNL     1       9.160  -6.015  42.786  1.00  0.00    -0.030 C 
ENDBRANCH   1   7
BRANCH   3  10
ATOM     10  O   UNL     1       5.802 -10.784  40.988  1.00  0.00    -0.493 OA
ATOM     11  C   UNL     1       6.286 -11.433  39.817  1.00  0.00     0.278 C 
ENDBRANCH   3  10
BRANCH   4  12
ATOM     12  O   UNL     1       5.922 -11.663  43.600  1.00  0.00    -0.504 OA
ATOM     13  H   UNL     1       5.137 -11.591  44.236  1.00  0.00     0.293 HD
ENDBRANCH   4  12
TORSDOF 3
ENDMDL
MODEL 4
REMARK VINA RESULT:    -4.621      7.520      9.822
REMARK INTER + INTRA:          -5.468
REMARK INTER:                  -5.308
REMARK INTRA:                  -0.160
REMARK UNBOUND:                -0.172
REMARK SMILES CC=Cc1ccc(O)c(OC)c1
REMARK SMILES IDX 4 1 12 2 9 3 7 4 6 5 5 6 3 7 1 8 2 9 10 10 11 11 8 12
REMARK H PARENT 8 13
REMARK Flexibility Score: inf
ROOT
ATOM      1  C   UNL     1       6.303  -1.590  36.219  1.00  0.00    -0.022 A 
ATOM      2  C   UNL     1       6.971  -2.610  35.522  1.00  0.00     0.058 A 
ATOM      3  C   UNL     1       7.792  -3.533  36.202  1.00  0.00     0.161 A 
ATOM      4  C   UNL     1       7.948  -3.420  37.589  1.00  0.00     0.157 A 
ATOM      5  C   UNL     1       7.297  -2.396  38.288  1.00  0.00     0.051 A 
ATOM      6  C   UNL     1       6.484  -1.485  37.612  1.00  0.00     0.012 A 
ENDROOT
BRANCH   1   7
ATOM      7  C   UNL     1       5.459  -0.640  35.451  1.00  0.00     0.003 C 
ATOM      8  C   UNL     1       5.005   1.080  33.747  1.00  0.00     0.035 C 
ATOM      9  C   UNL     1       5.917   0.138  34.464  1.00  0.00    -0.030 C 
ENDBRANCH   1   7
BRANCH   3  10
ATOM     10  O   UNL     1       8.465  -4.569  35.535  1.00  0.00    -0.493 OA
ATOM     11  C   UNL     1       9.298  -4.388  34.396  1.00  0.00     0.278 C 
ENDBRANCH   3  10
BRANCH   4  12
ATOM     12  O   UNL     1       8.756  -4.330  38.268  1.00  0.00    -0.504 OA
ATOM     13  H   UNL     1       9.344  -4.990  37.772  1.00  0.00     0.293 HD
ENDBRANCH   4  12
TORSDOF 3
ENDMDL
MODEL 5
REMARK VINA RESULT:    -4.599      7.731      9.503
REMARK INTER + INTRA:          -5.443
REMARK INTER:                  -5.271
REMARK INTRA:                  -0.172
REMARK UNBOUND:                -0.172
REMARK SMILES CC=Cc1ccc(O)c(OC)c1
REMARK SMILES IDX 4 1 12 2 9 3 7 4 6 5 5 6 3 7 1 8 2 9 10 10 11 11 8 12
REMARK H PARENT 8 13
REMARK Flexibility Score: inf
ROOT
ATOM      1  C   UNL     1       7.170  -2.808  38.045  1.00  0.00    -0.022 A 
ATOM      2  C   UNL     1       6.418  -1.647  37.799  1.00  0.00     0.058 A 
ATOM      3  C   UNL     1       5.971  -1.338  36.498  1.00  0.00     0.161 A 
ATOM      4  C   UNL     1       6.292  -2.197  35.440  1.00  0.00     0.157 A 
ATOM      5  C   UNL     1       7.054  -3.348  35.676  1.00  0.00     0.051 A 
ATOM      6  C   UNL     1       7.494  -3.652  36.966  1.00  0.00     0.012 A 
ENDROOT
BRANCH   1   7
ATOM      7  C   UNL     1       7.623  -3.079  39.433  1.00  0.00     0.003 C 
ATOM      8  C   UNL     1       8.453  -2.485  41.675  1.00  0.00     0.035 C 
ATOM      9  C   UNL     1       7.996  -2.128  40.297  1.00  0.00    -0.030 C 
ENDBRANCH   1   7
BRANCH   3  10
ATOM     10  O   UNL     1       5.211  -0.191  36.221  1.00  0.00    -0.493 OA
ATOM     11  C   UNL     1       5.745   1.123  36.105  1.00  0.00     0.278 C 
ENDBRANCH   3  10
BRANCH   4  12
ATOM     12  O   UNL     1       5.852  -1.898  34.151  1.00  0.00    -0.504 OA
ATOM     13  H   UNL     1       5.460  -0.993  33.922  1.00  0.00     0.293 HD
ENDBRANCH   4  12
TORSDOF 3
ENDMDL
MODEL 6
REMARK VINA RESULT:    -4.530      4.189      8.320
REMARK INTER + INTRA:          -5.364
REMARK INTER:                  -5.216
REMARK INTRA:                  -0.149
REMARK UNBOUND:                -0.172
REMARK SMILES CC=Cc1ccc(O)c(OC)c1
REMARK SMILES IDX 4 1 12 2 9 3 7 4 6 5 5 6 3 7 1 8 2 9 10 10 11 11 8 12
REMARK H PARENT 8 13
REMARK Flexibility Score: inf
ROOT
ATOM      1  C   UNL     1       8.914  -1.777  42.685  1.00  0.00    -0.022 A 
ATOM      2  C   UNL     1       8.559  -3.135  42.764  1.00  0.00     0.058 A 
ATOM      3  C   UNL     1       8.027  -3.808  41.646  1.00  0.00     0.161 A 
ATOM      4  C   UNL     1       7.842  -3.109  40.447  1.00  0.00     0.157 A 
ATOM      5  C   UNL     1       8.179  -1.752  40.366  1.00  0.00     0.051 A 
ATOM      6  C   UNL     1       8.708  -1.088  41.475  1.00  0.00     0.012 A 
ENDROOT
BRANCH   1   7
ATOM      7  C   UNL     1       9.461  -1.115  43.896  1.00  0.00     0.003 C 
ATOM      8  C   UNL     1       9.349  -0.098  46.137  1.00  0.00     0.035 C 
ATOM      9  C   UNL     1       8.725  -0.776  44.960  1.00  0.00    -0.030 C 
ENDBRANCH   1   7
BRANCH   3  10
ATOM     10  O   UNL     1       7.672  -5.166  41.690  1.00  0.00    -0.493 OA
ATOM     11  C   UNL     1       7.858  -6.013  42.819  1.00  0.00     0.278 C 
ENDBRANCH   3  10
BRANCH   4  12
ATOM     12  O   UNL     1       7.318  -3.770  39.337  1.00  0.00    -0.504 OA
ATOM     13  H   UNL     1       7.371  -4.777  39.246  1.00  0.00     0.293 HD
ENDBRANCH   4  12
TORSDOF 3
ENDMDL
MODEL 7
REMARK VINA RESULT:    -4.474      7.298      9.297
REMARK INTER + INTRA:          -5.300
REMARK INTER:                  -5.129
REMARK INTRA:                  -0.171
REMARK UNBOUND:                -0.172
REMARK SMILES CC=Cc1ccc(O)c(OC)c1
REMARK SMILES IDX 4 1 12 2 9 3 7 4 6 5 5 6 3 7 1 8 2 9 10 10 11 11 8 12
REMARK H PARENT 8 13
REMARK Flexibility Score: inf
ROOT
ATOM      1  C   UNL     1       6.537  -1.889  36.210  1.00  0.00    -0.022 A 
ATOM      2  C   UNL     1       6.583  -1.762  37.609  1.00  0.00     0.058 A 
ATOM      3  C   UNL     1       7.412  -2.599  38.383  1.00  0.00     0.161 A 
ATOM      4  C   UNL     1       8.190  -3.574  37.746  1.00  0.00     0.157 A 
ATOM      5  C   UNL     1       8.137  -3.716  36.355  1.00  0.00     0.051 A 
ATOM      6  C   UNL     1       7.316  -2.884  35.590  1.00  0.00     0.012 A 
ENDROOT
BRANCH   1   7
ATOM      7  C   UNL     1       5.640  -0.987  35.445  1.00  0.00     0.003 C 
ATOM      8  C   UNL     1       5.102   0.812  33.850  1.00  0.00     0.035 C 
ATOM      9  C   UNL     1       6.070  -0.069  34.572  1.00  0.00    -0.030 C 
ENDBRANCH   1   7
BRANCH   3  10
ATOM     10  O   UNL     1       7.487  -2.491  39.781  1.00  0.00    -0.493 OA
ATOM     11  C   UNL     1       8.229  -1.493  40.474  1.00  0.00     0.278 C 
ENDBRANCH   3  10
BRANCH   4  12
ATOM     12  O   UNL     1       9.013  -4.404  38.507  1.00  0.00    -0.504 OA
ATOM     13  H   UNL     1       9.379  -5.272  38.135  1.00  0.00     0.293 HD
ENDBRANCH   4  12
TORSDOF 3
ENDMDL
MODEL 8
REMARK VINA RESULT:    -4.458     13.841     14.630
REMARK INTER + INTRA:          -5.282
REMARK INTER:                  -5.118
REMARK INTRA:                  -0.164
REMARK UNBOUND:                -0.172
REMARK SMILES CC=Cc1ccc(O)c(OC)c1
REMARK SMILES IDX 4 1 12 2 9 3 7 4 6 5 5 6 3 7 1 8 2 9 10 10 11 11 8 12
REMARK H PARENT 8 13
REMARK Flexibility Score: inf
ROOT
ATOM      1  C   UNL     1      20.289 -12.022  45.006  1.00  0.00    -0.022 A 
ATOM      2  C   UNL     1      21.484 -11.746  45.691  1.00  0.00     0.058 A 
ATOM      3  C   UNL     1      22.139 -12.750  46.434  1.00  0.00     0.161 A 
ATOM      4  C   UNL     1      21.582 -14.034  46.494  1.00  0.00     0.157 A 
ATOM      5  C   UNL     1      20.384 -14.311  45.825  1.00  0.00     0.051 A 
ATOM      6  C   UNL     1      19.738 -13.315  45.090  1.00  0.00     0.012 A 
ENDROOT
BRANCH   1   7
ATOM      7  C   UNL     1      19.637 -10.926  44.247  1.00  0.00     0.003 C 
ATOM      8  C   UNL     1      17.771  -9.795  43.101  1.00  0.00     0.035 C 
ATOM      9  C   UNL     1      18.351 -10.934  43.877  1.00  0.00    -0.030 C 
ENDBRANCH   1   7
BRANCH   3  10
ATOM     10  O   UNL     1      23.339 -12.509  47.122  1.00  0.00    -0.493 OA
ATOM     11  C   UNL     1      24.048 -11.274  47.100  1.00  0.00     0.278 C 
ENDBRANCH   3  10
BRANCH   4  12
ATOM     12  O   UNL     1      22.226 -15.031  47.225  1.00  0.00    -0.504 OA
ATOM     13  H   UNL     1      21.727 -15.843  47.567  1.00  0.00     0.293 HD
ENDBRANCH   4  12
TORSDOF 3
ENDMDL
MODEL 9
REMARK VINA RESULT:    -4.456      7.165      9.026
REMARK INTER + INTRA:          -5.280
REMARK INTER:                  -5.101
REMARK INTRA:                  -0.178
REMARK UNBOUND:                -0.172
REMARK SMILES CC=Cc1ccc(O)c(OC)c1
REMARK SMILES IDX 4 1 12 2 9 3 7 4 6 5 5 6 3 7 1 8 2 9 10 10 11 11 8 12
REMARK H PARENT 8 13
REMARK Flexibility Score: inf
ROOT
ATOM      1  C   UNL     1       7.471  -2.844  38.625  1.00  0.00    -0.022 A 
ATOM      2  C   UNL     1       7.817  -3.751  37.609  1.00  0.00     0.058 A 
ATOM      3  C   UNL     1       7.501  -3.481  36.262  1.00  0.00     0.161 A 
ATOM      4  C   UNL     1       6.823  -2.298  35.940  1.00  0.00     0.157 A 
ATOM      5  C   UNL     1       6.462  -1.398  36.949  1.00  0.00     0.051 A 
ATOM      6  C   UNL     1       6.778  -1.667  38.282  1.00  0.00     0.012 A 
ENDROOT
BRANCH   1   7
ATOM      7  C   UNL     1       7.821  -3.183  40.028  1.00  0.00     0.003 C 
ATOM      8  C   UNL     1       8.565  -2.708  42.328  1.00  0.00     0.035 C 
ATOM      9  C   UNL     1       8.217  -2.285  40.937  1.00  0.00    -0.030 C 
ENDBRANCH   1   7
BRANCH   3  10
ATOM     10  O   UNL     1       7.841  -4.362  35.223  1.00  0.00    -0.493 OA
ATOM     11  C   UNL     1       9.131  -4.448  34.628  1.00  0.00     0.278 C 
ENDBRANCH   3  10
BRANCH   4  12
ATOM     12  O   UNL     1       6.508  -2.025  34.609  1.00  0.00    -0.504 OA
ATOM     13  H   UNL     1       6.379  -1.077  34.279  1.00  0.00     0.293 HD
ENDBRANCH   4  12
TORSDOF 3
ENDMDL
