MODEL 1
REMARK VINA RESULT:    -3.802      0.000      0.000
REMARK INTER + INTRA:          -4.656
REMARK INTER:                  -4.469
REMARK INTRA:                  -0.187
REMARK UNBOUND:                -0.187
REMARK SMILES O=c1c(O)c(-c2ccc(O)cc2)oc2cc(O)cc(O)c12
REMARK SMILES IDX 5 1 3 2 2 3 1 4 21 5 19 6 18 7 16 8 15 9 14 10 13 11 6 12
REMARK SMILES IDX 7 13 8 14 9 15 12 16 11 17 10 18 4 20 20 22 17 24
REMARK H PARENT 10 19 4 21 20 23 17 25
REMARK Flexibility Score: inf
ROOT
ATOM      1  C   UNL     1      16.287  -0.530  26.988  1.00  0.00     0.180 A 
ATOM      2  C   UNL     1      15.649  -0.973  28.159  1.00  0.00     0.208 A 
ATOM      3  C   UNL     1      16.317  -1.880  28.998  1.00  0.00     0.238 A 
ATOM      4  O   UNL     1      15.764  -2.232  30.072  1.00  0.00    -0.285 OA
ATOM      5  C   UNL     1      17.606  -2.346  28.645  1.00  0.00     0.111 A 
ATOM      6  C   UNL     1      18.359  -3.297  29.399  1.00  0.00     0.134 A 
ATOM      7  C   UNL     1      19.677  -3.586  29.026  1.00  0.00     0.093 A 
ATOM      8  C   UNL     1      20.248  -3.010  27.892  1.00  0.00     0.123 A 
ATOM      9  C   UNL     1      19.501  -2.125  27.114  1.00  0.00     0.094 A 
ATOM     10  C   UNL     1      18.196  -1.789  27.481  1.00  0.00     0.146 A 
ATOM     11  O   UNL     1      17.523  -0.935  26.719  1.00  0.00    -0.452 OA
ENDROOT
BRANCH   1  12
ATOM     12  C   UNL     1      15.637   0.406  26.043  1.00  0.00     0.021 A 
ATOM     13  C   UNL     1      15.487   1.757  26.399  1.00  0.00     0.016 A 
ATOM     14  C   UNL     1      14.896   2.662  25.513  1.00  0.00     0.047 A 
ATOM     15  C   UNL     1      14.461   2.231  24.252  1.00  0.00     0.115 A 
ATOM     16  C   UNL     1      15.215  -0.014  24.768  1.00  0.00     0.016 A 
ATOM     17  C   UNL     1      14.625   0.894  23.883  1.00  0.00     0.047 A 
BRANCH  15  18
ATOM     18  O   UNL     1      13.871   3.125  23.362  1.00  0.00    -0.508 OA
ATOM     19  H   UNL     1      13.158   2.827  22.706  1.00  0.00     0.293 HD
ENDBRANCH  15  18
ENDBRANCH   1  12
BRANCH   2  20
ATOM     20  O   UNL     1      14.385  -0.484  28.500  1.00  0.00    -0.502 OA
ATOM     21  H   UNL     1      13.569  -1.081  28.565  1.00  0.00     0.293 HD
ENDBRANCH   2  20
BRANCH   6  22
ATOM     22  O   UNL     1      17.852  -4.000  30.496  1.00  0.00    -0.507 OA
ATOM     23  H   UNL     1      18.179  -4.904  30.800  1.00  0.00     0.293 HD
ENDBRANCH   6  22
BRANCH   8  24
ATOM     24  O   UNL     1      21.558  -3.333  27.542  1.00  0.00    -0.508 OA
ATOM     25  H   UNL     1      22.297  -2.642  27.565  1.00  0.00     0.293 HD
ENDBRANCH   8  24
TORSDOF 5
ENDMDL
MODEL 2
REMARK VINA RESULT:    -3.086     10.980     13.670
REMARK INTER + INTRA:          -3.814
REMARK INTER:                  -3.599
REMARK INTRA:                  -0.216
REMARK UNBOUND:                -0.187
REMARK SMILES O=c1c(O)c(-c2ccc(O)cc2)oc2cc(O)cc(O)c12
REMARK SMILES IDX 5 1 3 2 2 3 1 4 21 5 19 6 18 7 16 8 15 9 14 10 13 11 6 12
REMARK SMILES IDX 7 13 8 14 9 15 12 16 11 17 10 18 4 20 20 22 17 24
REMARK H PARENT 10 19 4 21 20 23 17 25
REMARK Flexibility Score: inf
ROOT
ATOM      1  C   UNL     1      13.266 -13.068  28.396  1.00  0.00     0.180 A 
ATOM      2  C   UNL     1      11.985 -12.928  27.833  1.00  0.00     0.208 A 
ATOM      3  C   UNL     1      11.148 -11.900  28.294  1.00  0.00     0.238 A 
ATOM      4  O   UNL     1      10.024 -11.745  27.749  1.00  0.00    -0.285 OA
ATOM      5  C   UNL     1      11.593 -11.037  29.324  1.00  0.00     0.111 A 
ATOM      6  C   UNL     1      10.813  -9.987  29.897  1.00  0.00     0.134 A 
ATOM      7  C   UNL     1      11.402  -9.112  30.818  1.00  0.00     0.093 A 
ATOM      8  C   UNL     1      12.720  -9.287  31.236  1.00  0.00     0.123 A 
ATOM      9  C   UNL     1      13.474 -10.346  30.728  1.00  0.00     0.094 A 
ATOM     10  C   UNL     1      12.926 -11.213  29.780  1.00  0.00     0.146 A 
ATOM     11  O   UNL     1      13.679 -12.202  29.313  1.00  0.00    -0.452 OA
ENDROOT
BRANCH   1  12
ATOM     12  C   UNL     1      14.196 -14.142  27.979  1.00  0.00     0.021 A 
ATOM     13  C   UNL     1      14.866 -14.038  26.748  1.00  0.00     0.016 A 
ATOM     14  C   UNL     1      15.765 -15.030  26.346  1.00  0.00     0.047 A 
ATOM     15  C   UNL     1      16.018 -16.131  27.175  1.00  0.00     0.115 A 
ATOM     16  C   UNL     1      14.469 -15.240  28.815  1.00  0.00     0.016 A 
ATOM     17  C   UNL     1      15.370 -16.230  28.409  1.00  0.00     0.047 A 
BRANCH  15  18
ATOM     18  O   UNL     1      16.911 -17.125  26.783  1.00  0.00    -0.508 OA
ATOM     19  H   UNL     1      17.815 -16.898  26.384  1.00  0.00     0.293 HD
ENDBRANCH  15  18
ENDBRANCH   1  12
BRANCH   2  20
ATOM     20  O   UNL     1      11.573 -13.777  26.802  1.00  0.00    -0.502 OA
ATOM     21  H   UNL     1      10.597 -13.962  26.607  1.00  0.00     0.293 HD
ENDBRANCH   2  20
BRANCH   6  22
ATOM     22  O   UNL     1       9.459  -9.780  29.617  1.00  0.00    -0.507 OA
ATOM     23  H   UNL     1       8.976  -8.901  29.729  1.00  0.00     0.293 HD
ENDBRANCH   6  22
BRANCH   8  24
ATOM     24  O   UNL     1      13.269  -8.407  32.166  1.00  0.00    -0.508 OA
ATOM     25  H   UNL     1      12.843  -8.263  33.074  1.00  0.00     0.293 HD
ENDBRANCH   8  24
TORSDOF 5
ENDMDL
MODEL 3
REMARK VINA RESULT:    -2.774     11.066     13.693
REMARK INTER + INTRA:          -3.448
REMARK INTER:                  -3.222
REMARK INTRA:                  -0.225
REMARK UNBOUND:                -0.187
REMARK SMILES O=c1c(O)c(-c2ccc(O)cc2)oc2cc(O)cc(O)c12
REMARK SMILES IDX 5 1 3 2 2 3 1 4 21 5 19 6 18 7 16 8 15 9 14 10 13 11 6 12
REMARK SMILES IDX 7 13 8 14 9 15 12 16 11 17 10 18 4 20 20 22 17 24
REMARK H PARENT 10 19 4 21 20 23 17 25
REMARK Flexibility Score: inf
ROOT
ATOM      1  C   UNL     1      13.940 -12.953  28.893  1.00  0.00     0.180 A 
ATOM      2  C   UNL     1      14.573 -12.232  29.919  1.00  0.00     0.208 A 
ATOM      3  C   UNL     1      13.877 -11.184  30.544  1.00  0.00     0.238 A 
ATOM      4  O   UNL     1      14.428 -10.576  31.499  1.00  0.00    -0.285 OA
ATOM      5  C   UNL     1      12.566 -10.858  30.121  1.00  0.00     0.111 A 
ATOM      6  C   UNL     1      11.784  -9.790  30.655  1.00  0.00     0.134 A 
ATOM      7  C   UNL     1      10.450  -9.642  30.253  1.00  0.00     0.093 A 
ATOM      8  C   UNL     1       9.891 -10.482  29.291  1.00  0.00     0.123 A 
ATOM      9  C   UNL     1      10.665 -11.492  28.719  1.00  0.00     0.094 A 
ATOM     10  C   UNL     1      11.987 -11.688  29.126  1.00  0.00     0.146 A 
ATOM     11  O   UNL     1      12.686 -12.667  28.564  1.00  0.00    -0.452 OA
ENDROOT
BRANCH   1  12
ATOM     12  C   UNL     1      14.617 -14.054  28.171  1.00  0.00     0.021 A 
ATOM     13  C   UNL     1      15.138 -13.823  26.886  1.00  0.00     0.016 A 
ATOM     14  C   UNL     1      15.800 -14.842  26.196  1.00  0.00     0.047 A 
ATOM     15  C   UNL     1      15.964 -16.101  26.787  1.00  0.00     0.115 A 
ATOM     16  C   UNL     1      14.803 -15.316  28.765  1.00  0.00     0.016 A 
ATOM     17  C   UNL     1      15.467 -16.333  28.072  1.00  0.00     0.047 A 
BRANCH  15  18
ATOM     18  O   UNL     1      16.622 -17.124  26.108  1.00  0.00    -0.508 OA
ATOM     19  H   UNL     1      16.931 -17.964  26.583  1.00  0.00     0.293 HD
ENDBRANCH  15  18
ENDBRANCH   1  12
BRANCH   2  20
ATOM     20  O   UNL     1      15.860 -12.583  30.336  1.00  0.00    -0.502 OA
ATOM     21  H   UNL     1      16.089 -12.754  31.308  1.00  0.00     0.293 HD
ENDBRANCH   2  20
BRANCH   6  22
ATOM     22  O   UNL     1      12.274  -8.838  31.554  1.00  0.00    -0.507 OA
ATOM     23  H   UNL     1      13.238  -8.758  31.838  1.00  0.00     0.293 HD
ENDBRANCH   6  22
BRANCH   8  24
ATOM     24  O   UNL     1       8.565 -10.297  28.904  1.00  0.00    -0.508 OA
ATOM     25  H   UNL     1       8.211  -9.382  28.650  1.00  0.00     0.293 HD
ENDBRANCH   8  24
TORSDOF 5
ENDMDL
MODEL 4
REMARK VINA RESULT:    -2.688      1.159      2.909
REMARK INTER + INTRA:          -3.346
REMARK INTER:                  -3.224
REMARK INTRA:                  -0.122
REMARK UNBOUND:                -0.187
REMARK SMILES O=c1c(O)c(-c2ccc(O)cc2)oc2cc(O)cc(O)c12
REMARK SMILES IDX 5 1 3 2 2 3 1 4 21 5 19 6 18 7 16 8 15 9 14 10 13 11 6 12
REMARK SMILES IDX 7 13 8 14 9 15 12 16 11 17 10 18 4 20 20 22 17 24
REMARK H PARENT 10 19 4 21 20 23 17 25
REMARK Flexibility Score: inf
ROOT
ATOM      1  C   UNL     1      16.994  -0.624  26.402  1.00  0.00     0.180 A 
ATOM      2  C   UNL     1      18.237  -0.950  25.834  1.00  0.00     0.208 A 
ATOM      3  C   UNL     1      19.079  -1.848  26.510  1.00  0.00     0.238 A 
ATOM      4  O   UNL     1      20.167  -2.180  25.971  1.00  0.00    -0.285 OA
ATOM      5  C   UNL     1      18.676  -2.393  27.753  1.00  0.00     0.111 A 
ATOM      6  C   UNL     1      19.466  -3.280  28.544  1.00  0.00     0.134 A 
ATOM      7  C   UNL     1      18.913  -3.860  29.693  1.00  0.00     0.093 A 
ATOM      8  C   UNL     1      17.624  -3.536  30.114  1.00  0.00     0.123 A 
ATOM      9  C   UNL     1      16.864  -2.624  29.381  1.00  0.00     0.094 A 
ATOM     10  C   UNL     1      17.375  -2.057  28.211  1.00  0.00     0.146 A 
ATOM     11  O   UNL     1      16.616  -1.201  27.536  1.00  0.00    -0.452 OA
ENDROOT
BRANCH   1  12
ATOM     12  C   UNL     1      16.063   0.333  25.762  1.00  0.00     0.021 A 
ATOM     13  C   UNL     1      15.795   1.563  26.388  1.00  0.00     0.016 A 
ATOM     14  C   UNL     1      14.937   2.490  25.791  1.00  0.00     0.047 A 
ATOM     15  C   UNL     1      14.347   2.207  24.552  1.00  0.00     0.115 A 
ATOM     16  C   UNL     1      15.481   0.065  24.509  1.00  0.00     0.016 A 
ATOM     17  C   UNL     1      14.624   0.995  23.914  1.00  0.00     0.047 A 
BRANCH  15  18
ATOM     18  O   UNL     1      13.490   3.124  23.948  1.00  0.00    -0.508 OA
ATOM     19  H   UNL     1      12.928   3.765  24.496  1.00  0.00     0.293 HD
ENDBRANCH  15  18
ENDBRANCH   1  12
BRANCH   2  20
ATOM     20  O   UNL     1      18.607  -0.419  24.596  1.00  0.00    -0.502 OA
ATOM     21  H   UNL     1      17.976   0.139  24.033  1.00  0.00     0.293 HD
ENDBRANCH   2  20
BRANCH   6  22
ATOM     22  O   UNL     1      20.798  -3.599  28.263  1.00  0.00    -0.507 OA
ATOM     23  H   UNL     1      21.319  -3.249  27.475  1.00  0.00     0.293 HD
ENDBRANCH   6  22
BRANCH   8  24
ATOM     24  O   UNL     1      17.112  -4.120  31.270  1.00  0.00    -0.508 OA
ATOM     25  H   UNL     1      17.671  -4.743  31.842  1.00  0.00     0.293 HD
ENDBRANCH   8  24
TORSDOF 5
ENDMDL
MODEL 5
REMARK VINA RESULT:    -2.031     11.507     13.586
REMARK INTER + INTRA:          -2.574
REMARK INTER:                  -2.466
REMARK INTRA:                  -0.108
REMARK UNBOUND:                -0.187
REMARK SMILES O=c1c(O)c(-c2ccc(O)cc2)oc2cc(O)cc(O)c12
REMARK SMILES IDX 5 1 3 2 2 3 1 4 21 5 19 6 18 7 16 8 15 9 14 10 13 11 6 12
REMARK SMILES IDX 7 13 8 14 9 15 12 16 11 17 10 18 4 20 20 22 17 24
REMARK H PARENT 10 19 4 21 20 23 17 25
REMARK Flexibility Score: inf
ROOT
ATOM      1  C   UNL     1      13.359 -12.942  29.507  1.00  0.00     0.180 A 
ATOM      2  C   UNL     1      13.553 -13.459  28.215  1.00  0.00     0.208 A 
ATOM      3  C   UNL     1      14.308 -14.633  28.057  1.00  0.00     0.238 A 
ATOM      4  O   UNL     1      14.433 -15.122  26.905  1.00  0.00    -0.285 OA
ATOM      5  C   UNL     1      14.875 -15.263  29.191  1.00  0.00     0.111 A 
ATOM      6  C   UNL     1      15.691 -16.433  29.145  1.00  0.00     0.134 A 
ATOM      7  C   UNL     1      16.089 -17.046  30.340  1.00  0.00     0.093 A 
ATOM      8  C   UNL     1      15.755 -16.496  31.577  1.00  0.00     0.123 A 
ATOM      9  C   UNL     1      15.008 -15.319  31.633  1.00  0.00     0.094 A 
ATOM     10  C   UNL     1      14.565 -14.705  30.459  1.00  0.00     0.146 A 
ATOM     11  O   UNL     1      13.848 -13.592  30.556  1.00  0.00    -0.452 OA
ENDROOT
BRANCH   1  12
ATOM     12  C   UNL     1      12.596 -11.696  29.750  1.00  0.00     0.021 A 
ATOM     13  C   UNL     1      11.222 -11.658  29.457  1.00  0.00     0.016 A 
ATOM     14  C   UNL     1      10.478 -10.499  29.699  1.00  0.00     0.047 A 
ATOM     15  C   UNL     1      11.095  -9.369  30.253  1.00  0.00     0.115 A 
ATOM     16  C   UNL     1      13.204 -10.564  30.324  1.00  0.00     0.016 A 
ATOM     17  C   UNL     1      12.457  -9.407  30.565  1.00  0.00     0.047 A 
BRANCH  15  18
ATOM     18  O   UNL     1      10.363  -8.210  30.498  1.00  0.00    -0.508 OA
ATOM     19  H   UNL     1       9.391  -8.129  30.225  1.00  0.00     0.293 HD
ENDBRANCH  15  18
ENDBRANCH   1  12
BRANCH   2  20
ATOM     20  O   UNL     1      12.967 -12.834  27.111  1.00  0.00    -0.502 OA
ATOM     21  H   UNL     1      12.035 -13.063  26.787  1.00  0.00     0.293 HD
ENDBRANCH   2  20
BRANCH   6  22
ATOM     22  O   UNL     1      16.158 -17.012  27.961  1.00  0.00    -0.507 OA
ATOM     23  H   UNL     1      15.742 -17.811  27.509  1.00  0.00     0.293 HD
ENDBRANCH   6  22
BRANCH   8  24
ATOM     24  O   UNL     1      16.181 -17.123  32.746  1.00  0.00    -0.508 OA
ATOM     25  H   UNL     1      16.949 -17.784  32.742  1.00  0.00     0.293 HD
ENDBRANCH   8  24
TORSDOF 5
ENDMDL
MODEL 6
REMARK VINA RESULT:    -1.064      2.644      6.384
REMARK INTER + INTRA:          -1.438
REMARK INTER:                  -1.200
REMARK INTRA:                  -0.238
REMARK UNBOUND:                -0.187
REMARK SMILES O=c1c(O)c(-c2ccc(O)cc2)oc2cc(O)cc(O)c12
REMARK SMILES IDX 5 1 3 2 2 3 1 4 21 5 19 6 18 7 16 8 15 9 14 10 13 11 6 12
REMARK SMILES IDX 7 13 8 14 9 15 12 16 11 17 10 18 4 20 20 22 17 24
REMARK H PARENT 10 19 4 21 20 23 17 25
REMARK Flexibility Score: inf
ROOT
ATOM      1  C   UNL     1      15.728  -1.862  26.908  1.00  0.00     0.180 A 
ATOM      2  C   UNL     1      15.806  -1.260  28.176  1.00  0.00     0.208 A 
ATOM      3  C   UNL     1      15.585   0.122  28.289  1.00  0.00     0.238 A 
ATOM      4  O   UNL     1      15.603   0.646  29.433  1.00  0.00    -0.285 OA
ATOM      5  C   UNL     1      15.308   0.888  27.131  1.00  0.00     0.111 A 
ATOM      6  C   UNL     1      15.109   2.301  27.122  1.00  0.00     0.134 A 
ATOM      7  C   UNL     1      14.711   2.936  25.939  1.00  0.00     0.093 A 
ATOM      8  C   UNL     1      14.569   2.220  24.751  1.00  0.00     0.123 A 
ATOM      9  C   UNL     1      14.819   0.848  24.735  1.00  0.00     0.094 A 
ATOM     10  C   UNL     1      15.182   0.180  25.907  1.00  0.00     0.146 A 
ATOM     11  O   UNL     1      15.401  -1.128  25.851  1.00  0.00    -0.452 OA
ENDROOT
BRANCH   1  12
ATOM     12  C   UNL     1      15.972  -3.308  26.706  1.00  0.00     0.021 A 
ATOM     13  C   UNL     1      14.895  -4.154  26.390  1.00  0.00     0.016 A 
ATOM     14  C   UNL     1      15.106  -5.519  26.173  1.00  0.00     0.047 A 
ATOM     15  C   UNL     1      16.399  -6.053  26.255  1.00  0.00     0.115 A 
ATOM     16  C   UNL     1      17.269  -3.849  26.767  1.00  0.00     0.016 A 
ATOM     17  C   UNL     1      17.477  -5.214  26.549  1.00  0.00     0.047 A 
BRANCH  15  18
ATOM     18  O   UNL     1      16.621  -7.411  26.041  1.00  0.00    -0.508 OA
ATOM     19  H   UNL     1      15.956  -8.112  26.349  1.00  0.00     0.293 HD
ENDBRANCH  15  18
ENDBRANCH   1  12
BRANCH   2  20
ATOM     20  O   UNL     1      16.059  -2.038  29.309  1.00  0.00    -0.502 OA
ATOM     21  H   UNL     1      16.985  -2.379  29.540  1.00  0.00     0.293 HD
ENDBRANCH   2  20
BRANCH   6  22
ATOM     22  O   UNL     1      15.314   3.125  28.234  1.00  0.00    -0.507 OA
ATOM     23  H   UNL     1      15.021   4.088  28.298  1.00  0.00     0.293 HD
ENDBRANCH   6  22
BRANCH   8  24
ATOM     24  O   UNL     1      14.186   2.887  23.589  1.00  0.00    -0.508 OA
ATOM     25  H   UNL     1      14.863   3.365  23.006  1.00  0.00     0.293 HD
ENDBRANCH   8  24
TORSDOF 5
ENDMDL
