MODEL 1
REMARK VINA RESULT:    -2.457      0.000      0.000
REMARK INTER + INTRA:          -3.533
REMARK INTER:                  -3.248
REMARK INTRA:                  -0.285
REMARK UNBOUND:                -0.285
REMARK SMILES C=C[C@H](O)CCCCC
REMARK SMILES IDX 6 1 7 2 8 3 9 4 5 5 3 6 2 7 1 8 4 9
REMARK H PARENT 4 10
REMARK Flexibility Score: inf
ROOT
ATOM      1  C   UNL     1      95.458   8.009  61.882  1.00  0.00     0.003 C 
ENDROOT
BRANCH   1   2
ATOM      2  C   UNL     1      95.022   7.529  63.274  1.00  0.00    -0.000 C 
BRANCH   2   3
ATOM      3  C   UNL     1      93.542   7.841  63.523  1.00  0.00    -0.003 C 
ATOM      4  C   UNL     1      92.741   7.784  62.226  1.00  0.00     0.004 C 
ENDBRANCH   2   3
ENDBRANCH   1   2
BRANCH   1   5
ATOM      5  C   UNL     1      96.776   8.805  61.901  1.00  0.00     0.036 C 
BRANCH   5   6
ATOM      6  C   UNL     1      96.575  10.326  62.047  1.00  0.00     0.136 C 
BRANCH   6   7
ATOM      7  C   UNL     1      97.125  10.805  63.370  1.00  0.00    -0.004 C 
ATOM      8  C   UNL     1      97.046  10.048  64.469  1.00  0.00     0.007 C 
ENDBRANCH   6   7
BRANCH   6   9
ATOM      9  O   UNL     1      95.205  10.628  61.985  1.00  0.00    -0.389 OA
ATOM     10  H   UNL     1      95.057  11.146  61.151  1.00  0.00     0.211 HD
ENDBRANCH   6   9
ENDBRANCH   5   6
ENDBRANCH   1   5
TORSDOF 6
ENDMDL
MODEL 2
REMARK VINA RESULT:    -2.266      1.540      4.077
REMARK INTER + INTRA:          -3.280
REMARK INTER:                  -2.864
REMARK INTRA:                  -0.417
REMARK UNBOUND:                -0.285
REMARK SMILES C=C[C@H](O)CCCCC
REMARK SMILES IDX 6 1 7 2 8 3 9 4 5 5 3 6 2 7 1 8 4 9
REMARK H PARENT 4 10
REMARK Flexibility Score: inf
ROOT
ATOM      1  C   UNL     1      95.704   8.221  63.157  1.00  0.00     0.003 C 
ENDROOT
BRANCH   1   2
ATOM      2  C   UNL     1      96.610   8.788  62.054  1.00  0.00    -0.000 C 
BRANCH   2   3
ATOM      3  C   UNL     1      96.379  10.293  61.875  1.00  0.00    -0.003 C 
ATOM      4  C   UNL     1      96.746  11.061  63.141  1.00  0.00     0.004 C 
ENDBRANCH   2   3
ENDBRANCH   1   2
BRANCH   1   5
ATOM      5  C   UNL     1      94.701   7.173  62.641  1.00  0.00     0.036 C 
BRANCH   5   6
ATOM      6  C   UNL     1      93.234   7.510  62.972  1.00  0.00     0.136 C 
BRANCH   6   7
ATOM      7  C   UNL     1      92.627   8.353  61.875  1.00  0.00    -0.004 C 
ATOM      8  C   UNL     1      92.455   9.670  62.028  1.00  0.00     0.007 C 
ENDBRANCH   6   7
BRANCH   6   9
ATOM      9  O   UNL     1      93.175   8.221  64.181  1.00  0.00    -0.389 OA
ATOM     10  H   UNL     1      92.300   8.012  64.601  1.00  0.00     0.211 HD
ENDBRANCH   6   9
ENDBRANCH   5   6
ENDBRANCH   1   5
TORSDOF 6
ENDMDL
MODEL 3
REMARK VINA RESULT:    -2.084      1.674      3.853
REMARK INTER + INTRA:          -3.040
REMARK INTER:                  -2.586
REMARK INTRA:                  -0.454
REMARK UNBOUND:                -0.285
REMARK SMILES C=C[C@H](O)CCCCC
REMARK SMILES IDX 6 1 7 2 8 3 9 4 5 5 3 6 2 7 1 8 4 9
REMARK H PARENT 4 10
REMARK Flexibility Score: inf
ROOT
ATOM      1  C   UNL     1      96.018   8.482  62.174  1.00  0.00     0.003 C 
ENDROOT
BRANCH   1   2
ATOM      2  C   UNL     1      96.984   9.655  61.955  1.00  0.00    -0.000 C 
BRANCH   2   3
ATOM      3  C   UNL     1      96.915  10.647  63.121  1.00  0.00    -0.003 C 
ATOM      4  C   UNL     1      97.096   9.938  64.460  1.00  0.00     0.004 C 
ENDBRANCH   2   3
ENDBRANCH   1   2
BRANCH   1   5
ATOM      5  C   UNL     1      94.550   8.840  61.876  1.00  0.00     0.036 C 
BRANCH   5   6
ATOM      6  C   UNL     1      93.539   8.064  62.743  1.00  0.00     0.136 C 
BRANCH   6   7
ATOM      7  C   UNL     1      94.210   7.537  63.989  1.00  0.00    -0.004 C 
ATOM      8  C   UNL     1      93.663   7.709  65.197  1.00  0.00     0.007 C 
ENDBRANCH   6   7
BRANCH   6   9
ATOM      9  O   UNL     1      93.023   6.983  62.009  1.00  0.00    -0.389 OA
ATOM     10  H   UNL     1      92.128   7.256  61.677  1.00  0.00     0.211 HD
ENDBRANCH   6   9
ENDBRANCH   5   6
ENDBRANCH   1   5
TORSDOF 6
ENDMDL
