MODEL 1
REMARK VINA RESULT:     1.168      0.000      0.000
REMARK INTER + INTRA:           1.382
REMARK INTER:                   1.441
REMARK INTRA:                  -0.058
REMARK UNBOUND:                -0.058
REMARK SMILES CCCCCC(=O)[O-]
REMARK SMILES IDX 4 1 5 2 6 3 7 4 8 5 3 6 2 7 1 8
REMARK H PARENT
REMARK Flexibility Score: inf
ROOT
ATOM      1  C   UNL     1     -34.445  14.501  17.999  1.00  0.00     0.006 C 
ENDROOT
BRANCH   1   2
ATOM      2  C   UNL     1     -35.112  15.583  17.128  1.00  0.00     0.053 C 
BRANCH   2   3
ATOM      3  C   UNL     1     -35.690  16.708  17.934  1.00  0.00     0.041 C 
ATOM      4  O   UNL     1     -34.967  17.677  18.287  1.00  0.00    -0.550 OA
ATOM      5  O   UNL     1     -37.045  16.720  18.238  1.00  0.00    -0.550 OA
ENDBRANCH   2   3
ENDBRANCH   1   2
BRANCH   1   6
ATOM      6  C   UNL     1     -34.049  13.230  17.225  1.00  0.00     0.000 C 
BRANCH   6   7
ATOM      7  C   UNL     1     -32.919  12.418  17.891  1.00  0.00    -0.003 C 
ATOM      8  C   UNL     1     -33.284  11.981  19.309  1.00  0.00     0.004 C 
ENDBRANCH   6   7
ENDBRANCH   1   6
TORSDOF 4
ENDMDL
MODEL 2
REMARK VINA RESULT:     1.703      3.105      4.745
REMARK INTER + INTRA:           2.042
REMARK INTER:                   2.094
REMARK INTRA:                  -0.051
REMARK UNBOUND:                -0.058
REMARK SMILES CCCCCC(=O)[O-]
REMARK SMILES IDX 4 1 5 2 6 3 7 4 8 5 3 6 2 7 1 8
REMARK H PARENT
REMARK Flexibility Score: inf
ROOT
ATOM      1  C   UNL     1     -34.566  14.571  18.083  1.00  0.00     0.006 C 
ENDROOT
BRANCH   1   2
ATOM      2  C   UNL     1     -34.158  13.325  17.274  1.00  0.00     0.053 C 
BRANCH   2   3
ATOM      3  C   UNL     1     -33.046  12.549  17.917  1.00  0.00     0.041 C 
ATOM      4  O   UNL     1     -31.913  12.489  17.370  1.00  0.00    -0.550 OA
ATOM      5  O   UNL     1     -33.241  11.949  19.154  1.00  0.00    -0.550 OA
ENDBRANCH   2   3
ENDBRANCH   1   2
BRANCH   1   6
ATOM      6  C   UNL     1     -35.327  15.629  17.263  1.00  0.00     0.000 C 
BRANCH   6   7
ATOM      7  C   UNL     1     -35.855  16.810  18.102  1.00  0.00    -0.003 C 
ATOM      8  C   UNL     1     -34.841  17.949  18.196  1.00  0.00     0.004 C 
ENDBRANCH   6   7
ENDBRANCH   1   6
TORSDOF 4
ENDMDL
MODEL 3
REMARK VINA RESULT:     1.749      3.085      4.817
REMARK INTER + INTRA:           2.100
REMARK INTER:                   2.157
REMARK INTRA:                  -0.058
REMARK UNBOUND:                -0.058
REMARK SMILES CCCCCC(=O)[O-]
REMARK SMILES IDX 4 1 5 2 6 3 7 4 8 5 3 6 2 7 1 8
REMARK H PARENT
REMARK Flexibility Score: inf
ROOT
ATOM      1  C   UNL     1     -34.547  14.631  18.058  1.00  0.00     0.006 C 
ENDROOT
BRANCH   1   2
ATOM      2  C   UNL     1     -34.147  13.341  17.319  1.00  0.00     0.053 C 
BRANCH   2   3
ATOM      3  C   UNL     1     -33.065  12.575  18.022  1.00  0.00     0.041 C 
ATOM      4  O   UNL     1     -33.310  11.969  19.098  1.00  0.00    -0.550 OA
ATOM      5  O   UNL     1     -31.802  12.475  17.453  1.00  0.00    -0.550 OA
ENDBRANCH   2   3
ENDBRANCH   1   2
BRANCH   1   6
ATOM      6  C   UNL     1     -35.497  15.543  17.259  1.00  0.00     0.000 C 
BRANCH   6   7
ATOM      7  C   UNL     1     -35.971  16.787  18.036  1.00  0.00    -0.003 C 
ATOM      8  C   UNL     1     -34.854  17.814  18.215  1.00  0.00     0.004 C 
ENDBRANCH   6   7
ENDBRANCH   1   6
TORSDOF 4
ENDMDL
MODEL 4
REMARK VINA RESULT:     2.682      3.382      5.090
REMARK INTER + INTRA:           3.250
REMARK INTER:                   3.325
REMARK INTRA:                  -0.074
REMARK UNBOUND:                -0.058
REMARK SMILES CCCCCC(=O)[O-]
REMARK SMILES IDX 4 1 5 2 6 3 7 4 8 5 3 6 2 7 1 8
REMARK H PARENT
REMARK Flexibility Score: inf
ROOT
ATOM      1  C   UNL     1     -37.643  15.751  18.102  1.00  0.00     0.006 C 
ENDROOT
BRANCH   1   2
ATOM      2  C   UNL     1     -36.899  17.098  18.176  1.00  0.00     0.053 C 
BRANCH   2   3
ATOM      3  C   UNL     1     -35.444  16.983  17.828  1.00  0.00     0.041 C 
ATOM      4  O   UNL     1     -35.059  16.142  16.973  1.00  0.00    -0.550 OA
ATOM      5  O   UNL     1     -34.521  17.850  18.398  1.00  0.00    -0.550 OA
ENDBRANCH   2   3
ENDBRANCH   1   2
BRANCH   1   6
ATOM      6  C   UNL     1     -38.929  15.699  18.947  1.00  0.00     0.000 C 
BRANCH   6   7
ATOM      7  C   UNL     1     -40.226  15.674  18.113  1.00  0.00    -0.003 C 
ATOM      8  C   UNL     1     -40.441  16.978  17.346  1.00  0.00     0.004 C 
ENDBRANCH   6   7
ENDBRANCH   1   6
TORSDOF 4
ENDMDL
MODEL 5
REMARK VINA RESULT:     2.760      3.483      4.265
REMARK INTER + INTRA:           3.347
REMARK INTER:                   3.453
REMARK INTRA:                  -0.106
REMARK UNBOUND:                -0.058
REMARK SMILES CCCCCC(=O)[O-]
REMARK SMILES IDX 4 1 5 2 6 3 7 4 8 5 3 6 2 7 1 8
REMARK H PARENT
REMARK Flexibility Score: inf
ROOT
ATOM      1  C   UNL     1     -36.582  15.610  17.655  1.00  0.00     0.006 C 
ENDROOT
BRANCH   1   2
ATOM      2  C   UNL     1     -37.652  16.562  18.223  1.00  0.00     0.053 C 
BRANCH   2   3
ATOM      3  C   UNL     1     -38.940  15.865  18.549  1.00  0.00     0.041 C 
ATOM      4  O   UNL     1     -40.005  16.183  17.955  1.00  0.00    -0.550 OA
ATOM      5  O   UNL     1     -38.952  14.816  19.460  1.00  0.00    -0.550 OA
ENDBRANCH   2   3
ENDBRANCH   1   2
BRANCH   1   6
ATOM      6  C   UNL     1     -35.227  16.287  17.374  1.00  0.00     0.000 C 
BRANCH   6   7
ATOM      7  C   UNL     1     -35.182  17.779  17.763  1.00  0.00    -0.003 C 
ATOM      8  C   UNL     1     -34.030  18.089  18.718  1.00  0.00     0.004 C 
ENDBRANCH   6   7
ENDBRANCH   1   6
TORSDOF 4
ENDMDL
