MODEL 1
REMARK VINA RESULT:    -7.502      0.000      0.000
REMARK INTER + INTRA:          -9.132
REMARK INTER:                  -8.818
REMARK INTRA:                  -0.314
REMARK UNBOUND:                -0.314
REMARK SMILES O=c1cc(-c2ccc(O)c(O)c2)oc2cc(O)cc(O)c12
REMARK SMILES IDX 4 1 3 2 2 3 1 4 21 5 19 6 18 7 16 8 15 9 14 10 13 11 5 12
REMARK SMILES IDX 6 13 7 14 8 15 12 16 10 17 9 18 11 20 20 22 17 24
REMARK H PARENT 9 19 11 21 20 23 17 25
REMARK Flexibility Score: inf
ROOT
ATOM      1  C   UNL     1       6.506   3.957   3.991  1.00  0.00     0.138 A 
ATOM      2  C   UNL     1       7.737   3.643   3.399  1.00  0.00     0.100 A 
ATOM      3  C   UNL     1       8.130   4.301   2.232  1.00  0.00     0.197 A 
ATOM      4  O   UNL     1       9.267   4.042   1.759  1.00  0.00    -0.289 OA
ATOM      5  C   UNL     1       7.270   5.256   1.640  1.00  0.00     0.107 A 
ATOM      6  C   UNL     1       7.549   5.959   0.430  1.00  0.00     0.134 A 
ATOM      7  C   UNL     1       6.676   6.967   0.002  1.00  0.00     0.093 A 
ATOM      8  C   UNL     1       5.505   7.255   0.707  1.00  0.00     0.123 A 
ATOM      9  C   UNL     1       5.198   6.538   1.860  1.00  0.00     0.094 A 
ATOM     10  C   UNL     1       6.066   5.549   2.333  1.00  0.00     0.146 A 
ATOM     11  O   UNL     1       5.742   4.898   3.445  1.00  0.00    -0.456 OA
ENDROOT
BRANCH   1  12
ATOM     12  C   UNL     1       6.039   3.287   5.231  1.00  0.00     0.021 A 
ATOM     13  C   UNL     1       6.651   2.090   5.642  1.00  0.00     0.016 A 
ATOM     14  C   UNL     1       6.234   1.444   6.809  1.00  0.00     0.051 A 
ATOM     15  C   UNL     1       5.209   1.985   7.589  1.00  0.00     0.157 A 
ATOM     16  C   UNL     1       5.015   3.835   6.028  1.00  0.00     0.062 A 
ATOM     17  C   UNL     1       4.598   3.187   7.199  1.00  0.00     0.158 A 
BRANCH  15  18
ATOM     18  O   UNL     1       4.814   1.316   8.747  1.00  0.00    -0.504 OA
ATOM     19  H   UNL     1       5.448   0.721   9.269  1.00  0.00     0.293 HD
ENDBRANCH  15  18
BRANCH  17  20
ATOM     20  O   UNL     1       3.582   3.737   7.981  1.00  0.00    -0.504 OA
ATOM     21  H   UNL     1       3.782   4.393   8.726  1.00  0.00     0.293 HD
ENDBRANCH  17  20
ENDBRANCH   1  12
BRANCH   6  22
ATOM     22  O   UNL     1       8.646   5.691  -0.395  1.00  0.00    -0.507 OA
ATOM     23  H   UNL     1       8.889   6.217  -1.221  1.00  0.00     0.293 HD
ENDBRANCH   6  22
BRANCH   8  24
ATOM     24  O   UNL     1       4.636   8.249   0.265  1.00  0.00    -0.508 OA
ATOM     25  H   UNL     1       4.819   8.776  -0.582  1.00  0.00     0.293 HD
ENDBRANCH   8  24
TORSDOF 5
ENDMDL
MODEL 2
REMARK VINA RESULT:    -7.436      1.776      6.746
REMARK INTER + INTRA:          -9.054
REMARK INTER:                  -8.789
REMARK INTRA:                  -0.265
REMARK UNBOUND:                -0.314
REMARK SMILES O=c1cc(-c2ccc(O)c(O)c2)oc2cc(O)cc(O)c12
REMARK SMILES IDX 4 1 3 2 2 3 1 4 21 5 19 6 18 7 16 8 15 9 14 10 13 11 5 12
REMARK SMILES IDX 6 13 7 14 8 15 12 16 10 17 9 18 11 20 20 22 17 24
REMARK H PARENT 9 19 11 21 20 23 17 25
REMARK Flexibility Score: inf
ROOT
ATOM      1  C   UNL     1       6.860   4.893   2.167  1.00  0.00     0.138 A 
ATOM      2  C   UNL     1       8.189   4.531   1.910  1.00  0.00     0.100 A 
ATOM      3  C   UNL     1       8.796   3.537   2.680  1.00  0.00     0.197 A 
ATOM      4  O   UNL     1       9.969   3.190   2.385  1.00  0.00    -0.289 OA
ATOM      5  C   UNL     1       8.075   2.926   3.733  1.00  0.00     0.107 A 
ATOM      6  C   UNL     1       8.605   1.931   4.609  1.00  0.00     0.134 A 
ATOM      7  C   UNL     1       7.761   1.313   5.541  1.00  0.00     0.093 A 
ATOM      8  C   UNL     1       6.424   1.699   5.670  1.00  0.00     0.123 A 
ATOM      9  C   UNL     1       5.913   2.706   4.856  1.00  0.00     0.094 A 
ATOM     10  C   UNL     1       6.719   3.317   3.892  1.00  0.00     0.146 A 
ATOM     11  O   UNL     1       6.188   4.265   3.127  1.00  0.00    -0.456 OA
ENDROOT
BRANCH   1  12
ATOM     12  C   UNL     1       6.167   5.944   1.380  1.00  0.00     0.021 A 
ATOM     13  C   UNL     1       5.827   7.160   1.999  1.00  0.00     0.016 A 
ATOM     14  C   UNL     1       5.181   8.167   1.279  1.00  0.00     0.051 A 
ATOM     15  C   UNL     1       4.874   7.985  -0.072  1.00  0.00     0.157 A 
ATOM     16  C   UNL     1       5.867   5.770   0.015  1.00  0.00     0.062 A 
ATOM     17  C   UNL     1       5.220   6.782  -0.708  1.00  0.00     0.158 A 
BRANCH  15  18
ATOM     18  O   UNL     1       4.227   9.008  -0.764  1.00  0.00    -0.504 OA
ATOM     19  H   UNL     1       4.539   9.322  -1.676  1.00  0.00     0.293 HD
ENDBRANCH  15  18
BRANCH  17  20
ATOM     20  O   UNL     1       4.925   6.599  -2.059  1.00  0.00    -0.504 OA
ATOM     21  H   UNL     1       4.058   6.932  -2.463  1.00  0.00     0.293 HD
ENDBRANCH  17  20
ENDBRANCH   1  12
BRANCH   6  22
ATOM     22  O   UNL     1       9.946   1.534   4.621  1.00  0.00    -0.507 OA
ATOM     23  H   UNL     1      10.525   1.487   5.445  1.00  0.00     0.293 HD
ENDBRANCH   6  22
BRANCH   8  24
ATOM     24  O   UNL     1       5.597   1.089   6.610  1.00  0.00    -0.508 OA
ATOM     25  H   UNL     1       4.956   0.347   6.350  1.00  0.00     0.293 HD
ENDBRANCH   8  24
TORSDOF 5
ENDMDL
MODEL 3
REMARK VINA RESULT:    -7.337      2.583      7.587
REMARK INTER + INTRA:          -8.938
REMARK INTER:                  -8.671
REMARK INTRA:                  -0.267
REMARK UNBOUND:                -0.314
REMARK SMILES O=c1cc(-c2ccc(O)c(O)c2)oc2cc(O)cc(O)c12
REMARK SMILES IDX 4 1 3 2 2 3 1 4 21 5 19 6 18 7 16 8 15 9 14 10 13 11 5 12
REMARK SMILES IDX 6 13 7 14 8 15 12 16 10 17 9 18 11 20 20 22 17 24
REMARK H PARENT 9 19 11 21 20 23 17 25
REMARK Flexibility Score: inf
ROOT
ATOM      1  C   UNL     1       6.718   6.038   1.166  1.00  0.00     0.138 A 
ATOM      2  C   UNL     1       6.123   6.528   2.336  1.00  0.00     0.100 A 
ATOM      3  C   UNL     1       6.415   5.930   3.563  1.00  0.00     0.197 A 
ATOM      4  O   UNL     1       5.914   6.431   4.603  1.00  0.00    -0.289 OA
ATOM      5  C   UNL     1       7.285   4.815   3.612  1.00  0.00     0.107 A 
ATOM      6  C   UNL     1       7.624   4.101   4.800  1.00  0.00     0.134 A 
ATOM      7  C   UNL     1       8.587   3.086   4.744  1.00  0.00     0.093 A 
ATOM      8  C   UNL     1       9.178   2.719   3.532  1.00  0.00     0.123 A 
ATOM      9  C   UNL     1       8.815   3.375   2.359  1.00  0.00     0.094 A 
ATOM     10  C   UNL     1       7.883   4.415   2.387  1.00  0.00     0.146 A 
ATOM     11  O   UNL     1       7.574   5.024   1.247  1.00  0.00    -0.456 OA
ENDROOT
BRANCH   1  12
ATOM     12  C   UNL     1       6.441   6.635  -0.164  1.00  0.00     0.021 A 
ATOM     13  C   UNL     1       7.099   7.820  -0.541  1.00  0.00     0.016 A 
ATOM     14  C   UNL     1       6.861   8.398  -1.790  1.00  0.00     0.051 A 
ATOM     15  C   UNL     1       5.974   7.801  -2.688  1.00  0.00     0.157 A 
ATOM     16  C   UNL     1       5.557   6.030  -1.079  1.00  0.00     0.062 A 
ATOM     17  C   UNL     1       5.320   6.610  -2.333  1.00  0.00     0.158 A 
BRANCH  15  18
ATOM     18  O   UNL     1       5.756   8.403  -3.927  1.00  0.00    -0.504 OA
ATOM     19  H   UNL     1       6.120   9.322  -4.151  1.00  0.00     0.293 HD
ENDBRANCH  15  18
BRANCH  17  20
ATOM     20  O   UNL     1       4.441   6.003  -3.230  1.00  0.00    -0.504 OA
ATOM     21  H   UNL     1       3.474   6.295  -3.305  1.00  0.00     0.293 HD
ENDBRANCH  17  20
ENDBRANCH   1  12
BRANCH   6  22
ATOM     22  O   UNL     1       7.030   4.329   6.046  1.00  0.00    -0.507 OA
ATOM     23  H   UNL     1       6.259   4.958   6.210  1.00  0.00     0.293 HD
ENDBRANCH   6  22
BRANCH   8  24
ATOM     24  O   UNL     1      10.125   1.698   3.484  1.00  0.00    -0.508 OA
ATOM     25  H   UNL     1      10.222   1.104   2.668  1.00  0.00     0.293 HD
ENDBRANCH   8  24
TORSDOF 5
ENDMDL
MODEL 4
REMARK VINA RESULT:    -7.281      1.827      7.204
REMARK INTER + INTRA:          -8.873
REMARK INTER:                  -8.577
REMARK INTRA:                  -0.295
REMARK UNBOUND:                -0.314
REMARK SMILES O=c1cc(-c2ccc(O)c(O)c2)oc2cc(O)cc(O)c12
REMARK SMILES IDX 4 1 3 2 2 3 1 4 21 5 19 6 18 7 16 8 15 9 14 10 13 11 5 12
REMARK SMILES IDX 6 13 7 14 8 15 12 16 10 17 9 18 11 20 20 22 17 24
REMARK H PARENT 9 19 11 21 20 23 17 25
REMARK Flexibility Score: inf
ROOT
ATOM      1  C   UNL     1       6.442   4.749   2.300  1.00  0.00     0.138 A 
ATOM      2  C   UNL     1       5.344   4.638   3.164  1.00  0.00     0.100 A 
ATOM      3  C   UNL     1       5.382   3.721   4.216  1.00  0.00     0.197 A 
ATOM      4  O   UNL     1       4.407   3.688   5.011  1.00  0.00    -0.289 OA
ATOM      5  C   UNL     1       6.514   2.888   4.381  1.00  0.00     0.107 A 
ATOM      6  C   UNL     1       6.646   1.890   5.392  1.00  0.00     0.134 A 
ATOM      7  C   UNL     1       7.861   1.207   5.532  1.00  0.00     0.093 A 
ATOM      8  C   UNL     1       8.926   1.443   4.659  1.00  0.00     0.123 A 
ATOM      9  C   UNL     1       8.788   2.378   3.636  1.00  0.00     0.094 A 
ATOM     10  C   UNL     1       7.600   3.101   3.492  1.00  0.00     0.146 A 
ATOM     11  O   UNL     1       7.515   3.993   2.511  1.00  0.00    -0.456 OA
ENDROOT
BRANCH   1  12
ATOM     12  C   UNL     1       6.453   5.707   1.166  1.00  0.00     0.021 A 
ATOM     13  C   UNL     1       7.466   5.616   0.195  1.00  0.00     0.016 A 
ATOM     14  C   UNL     1       7.496   6.500  -0.886  1.00  0.00     0.051 A 
ATOM     15  C   UNL     1       6.511   7.482  -1.023  1.00  0.00     0.157 A 
ATOM     16  C   UNL     1       5.456   6.690   1.016  1.00  0.00     0.062 A 
ATOM     17  C   UNL     1       5.485   7.577  -0.070  1.00  0.00     0.158 A 
BRANCH  15  18
ATOM     18  O   UNL     1       6.568   8.352  -2.112  1.00  0.00    -0.504 OA
ATOM     19  H   UNL     1       5.866   9.066  -2.268  1.00  0.00     0.293 HD
ENDBRANCH  15  18
BRANCH  17  20
ATOM     20  O   UNL     1       4.493   8.548  -0.207  1.00  0.00    -0.504 OA
ATOM     21  H   UNL     1       4.723   9.521  -0.372  1.00  0.00     0.293 HD
ENDBRANCH  17  20
ENDBRANCH   1  12
BRANCH   6  22
ATOM     22  O   UNL     1       5.616   1.516   6.261  1.00  0.00    -0.507 OA
ATOM     23  H   UNL     1       4.808   0.973   5.997  1.00  0.00     0.293 HD
ENDBRANCH   6  22
BRANCH   8  24
ATOM     24  O   UNL     1      10.125   0.748   4.797  1.00  0.00    -0.508 OA
ATOM     25  H   UNL     1      10.565   0.625   5.702  1.00  0.00     0.293 HD
ENDBRANCH   8  24
TORSDOF 5
ENDMDL
MODEL 5
REMARK VINA RESULT:    -7.270      1.665      6.995
REMARK INTER + INTRA:          -8.859
REMARK INTER:                  -8.563
REMARK INTRA:                  -0.295
REMARK UNBOUND:                -0.314
REMARK SMILES O=c1cc(-c2ccc(O)c(O)c2)oc2cc(O)cc(O)c12
REMARK SMILES IDX 4 1 3 2 2 3 1 4 21 5 19 6 18 7 16 8 15 9 14 10 13 11 5 12
REMARK SMILES IDX 6 13 7 14 8 15 12 16 10 17 9 18 11 20 20 22 17 24
REMARK H PARENT 9 19 11 21 20 23 17 25
REMARK Flexibility Score: inf
ROOT
ATOM      1  C   UNL     1       7.126   3.610   3.435  1.00  0.00     0.138 A 
ATOM      2  C   UNL     1       8.242   2.762   3.426  1.00  0.00     0.100 A 
ATOM      3  C   UNL     1       8.432   1.860   4.475  1.00  0.00     0.197 A 
ATOM      4  O   UNL     1       9.409   1.069   4.408  1.00  0.00    -0.289 OA
ATOM      5  C   UNL     1       7.515   1.831   5.552  1.00  0.00     0.107 A 
ATOM      6  C   UNL     1       7.630   0.981   6.693  1.00  0.00     0.134 A 
ATOM      7  C   UNL     1       6.599   0.956   7.641  1.00  0.00     0.093 A 
ATOM      8  C   UNL     1       5.488   1.793   7.519  1.00  0.00     0.123 A 
ATOM      9  C   UNL     1       5.392   2.664   6.437  1.00  0.00     0.094 A 
ATOM     10  C   UNL     1       6.387   2.688   5.456  1.00  0.00     0.146 A 
ATOM     11  O   UNL     1       6.251   3.524   4.432  1.00  0.00    -0.456 OA
ENDROOT
BRANCH   1  12
ATOM     12  C   UNL     1       6.876   4.589   2.347  1.00  0.00     0.021 A 
ATOM     13  C   UNL     1       5.633   5.242   2.277  1.00  0.00     0.016 A 
ATOM     14  C   UNL     1       5.375   6.173   1.268  1.00  0.00     0.051 A 
ATOM     15  C   UNL     1       6.355   6.475   0.318  1.00  0.00     0.157 A 
ATOM     16  C   UNL     1       7.864   4.907   1.396  1.00  0.00     0.062 A 
ATOM     17  C   UNL     1       7.606   5.842   0.383  1.00  0.00     0.158 A 
BRANCH  15  18
ATOM     18  O   UNL     1       6.068   7.407  -0.678  1.00  0.00    -0.504 OA
ATOM     19  H   UNL     1       5.341   7.253  -1.367  1.00  0.00     0.293 HD
ENDBRANCH  15  18
BRANCH  17  20
ATOM     20  O   UNL     1       8.592   6.148  -0.555  1.00  0.00    -0.504 OA
ATOM     21  H   UNL     1       9.575   5.994  -0.362  1.00  0.00     0.293 HD
ENDBRANCH  17  20
ENDBRANCH   1  12
BRANCH   6  22
ATOM     22  O   UNL     1       8.738   0.169   6.954  1.00  0.00    -0.507 OA
ATOM     23  H   UNL     1       9.595   0.173   6.422  1.00  0.00     0.293 HD
ENDBRANCH   6  22
BRANCH   8  24
ATOM     24  O   UNL     1       4.474   1.772   8.475  1.00  0.00    -0.508 OA
ATOM     25  H   UNL     1       3.521   2.030   8.242  1.00  0.00     0.293 HD
ENDBRANCH   8  24
TORSDOF 5
ENDMDL
MODEL 6
REMARK VINA RESULT:    -7.229      2.990      5.020
REMARK INTER + INTRA:          -8.811
REMARK INTER:                  -8.497
REMARK INTRA:                  -0.315
REMARK UNBOUND:                -0.314
REMARK SMILES O=c1cc(-c2ccc(O)c(O)c2)oc2cc(O)cc(O)c12
REMARK SMILES IDX 4 1 3 2 2 3 1 4 21 5 19 6 18 7 16 8 15 9 14 10 13 11 5 12
REMARK SMILES IDX 6 13 7 14 8 15 12 16 10 17 9 18 11 20 20 22 17 24
REMARK H PARENT 9 19 11 21 20 23 17 25
REMARK Flexibility Score: inf
ROOT
ATOM      1  C   UNL     1       6.171   6.860   0.418  1.00  0.00     0.138 A 
ATOM      2  C   UNL     1       6.860   8.073   0.293  1.00  0.00     0.100 A 
ATOM      3  C   UNL     1       7.078   8.616  -0.975  1.00  0.00     0.197 A 
ATOM      4  O   UNL     1       7.645   9.736  -1.052  1.00  0.00    -0.289 OA
ATOM      5  C   UNL     1       6.630   7.921  -2.123  1.00  0.00     0.107 A 
ATOM      6  C   UNL     1       6.832   8.358  -3.467  1.00  0.00     0.134 A 
ATOM      7  C   UNL     1       6.241   7.647  -4.519  1.00  0.00     0.093 A 
ATOM      8  C   UNL     1       5.507   6.483  -4.280  1.00  0.00     0.123 A 
ATOM      9  C   UNL     1       5.350   6.019  -2.977  1.00  0.00     0.094 A 
ATOM     10  C   UNL     1       5.898   6.724  -1.902  1.00  0.00     0.146 A 
ATOM     11  O   UNL     1       5.712   6.255  -0.673  1.00  0.00    -0.456 OA
ENDROOT
BRANCH   1  12
ATOM     12  C   UNL     1       5.913   6.238   1.741  1.00  0.00     0.021 A 
ATOM     13  C   UNL     1       6.064   7.008   2.908  1.00  0.00     0.016 A 
ATOM     14  C   UNL     1       5.821   6.449   4.165  1.00  0.00     0.051 A 
ATOM     15  C   UNL     1       5.412   5.118   4.279  1.00  0.00     0.157 A 
ATOM     16  C   UNL     1       5.488   4.900   1.862  1.00  0.00     0.062 A 
ATOM     17  C   UNL     1       5.242   4.340   3.123  1.00  0.00     0.158 A 
BRANCH  15  18
ATOM     18  O   UNL     1       5.178   4.587   5.548  1.00  0.00    -0.504 OA
ATOM     19  H   UNL     1       4.436   4.930   6.147  1.00  0.00     0.293 HD
ENDBRANCH  15  18
BRANCH  17  20
ATOM     20  O   UNL     1       4.824   3.013   3.231  1.00  0.00    -0.504 OA
ATOM     21  H   UNL     1       5.351   2.332   3.764  1.00  0.00     0.293 HD
ENDBRANCH  17  20
ENDBRANCH   1  12
BRANCH   6  22
ATOM     22  O   UNL     1       7.618   9.459  -3.821  1.00  0.00    -0.507 OA
ATOM     23  H   UNL     1       8.222   9.963  -3.190  1.00  0.00     0.293 HD
ENDBRANCH   6  22
BRANCH   8  24
ATOM     24  O   UNL     1       4.936   5.774  -5.335  1.00  0.00    -0.508 OA
ATOM     25  H   UNL     1       5.181   4.807  -5.519  1.00  0.00     0.293 HD
ENDBRANCH   8  24
TORSDOF 5
ENDMDL
MODEL 7
REMARK VINA RESULT:    -7.190      1.932      7.127
REMARK INTER + INTRA:          -8.765
REMARK INTER:                  -8.495
REMARK INTRA:                  -0.270
REMARK UNBOUND:                -0.314
REMARK SMILES O=c1cc(-c2ccc(O)c(O)c2)oc2cc(O)cc(O)c12
REMARK SMILES IDX 4 1 3 2 2 3 1 4 21 5 19 6 18 7 16 8 15 9 14 10 13 11 5 12
REMARK SMILES IDX 6 13 7 14 8 15 12 16 10 17 9 18 11 20 20 22 17 24
REMARK H PARENT 9 19 11 21 20 23 17 25
REMARK Flexibility Score: inf
ROOT
ATOM      1  C   UNL     1       6.955   5.262   1.091  1.00  0.00     0.138 A 
ATOM      2  C   UNL     1       8.234   4.698   1.188  1.00  0.00     0.100 A 
ATOM      3  C   UNL     1       8.558   3.906   2.291  1.00  0.00     0.197 A 
ATOM      4  O   UNL     1       9.693   3.362   2.319  1.00  0.00    -0.289 OA
ATOM      5  C   UNL     1       7.605   3.705   3.317  1.00  0.00     0.107 A 
ATOM      6  C   UNL     1       7.838   2.951   4.506  1.00  0.00     0.134 A 
ATOM      7  C   UNL     1       6.780   2.723   5.396  1.00  0.00     0.093 A 
ATOM      8  C   UNL     1       5.516   3.274   5.170  1.00  0.00     0.123 A 
ATOM      9  C   UNL     1       5.294   4.055   4.040  1.00  0.00     0.094 A 
ATOM     10  C   UNL     1       6.318   4.272   3.115  1.00  0.00     0.146 A 
ATOM     11  O   UNL     1       6.060   5.013   2.042  1.00  0.00    -0.456 OA
ENDROOT
BRANCH   1  12
ATOM     12  C   UNL     1       6.559   6.113  -0.059  1.00  0.00     0.021 A 
ATOM     13  C   UNL     1       7.098   7.406  -0.181  1.00  0.00     0.016 A 
ATOM     14  C   UNL     1       6.746   8.223  -1.257  1.00  0.00     0.051 A 
ATOM     15  C   UNL     1       5.861   7.763  -2.235  1.00  0.00     0.157 A 
ATOM     16  C   UNL     1       5.677   5.649  -1.054  1.00  0.00     0.062 A 
ATOM     17  C   UNL     1       5.325   6.469  -2.136  1.00  0.00     0.158 A 
BRANCH  15  18
ATOM     18  O   UNL     1       5.528   8.603  -3.298  1.00  0.00    -0.504 OA
ATOM     19  H   UNL     1       5.639   9.609  -3.244  1.00  0.00     0.293 HD
ENDBRANCH  15  18
BRANCH  17  20
ATOM     20  O   UNL     1       4.449   6.000  -3.115  1.00  0.00    -0.504 OA
ATOM     21  H   UNL     1       3.579   5.542  -2.873  1.00  0.00     0.293 HD
ENDBRANCH  17  20
ENDBRANCH   1  12
BRANCH   6  22
ATOM     22  O   UNL     1       9.083   2.429   4.869  1.00  0.00    -0.507 OA
ATOM     23  H   UNL     1       9.511   1.616   4.454  1.00  0.00     0.293 HD
ENDBRANCH   6  22
BRANCH   8  24
ATOM     24  O   UNL     1       4.475   3.054   6.069  1.00  0.00    -0.508 OA
ATOM     25  H   UNL     1       3.504   3.129   5.784  1.00  0.00     0.293 HD
ENDBRANCH   8  24
TORSDOF 5
ENDMDL
MODEL 8
REMARK VINA RESULT:    -7.159      2.029      3.166
REMARK INTER + INTRA:          -8.729
REMARK INTER:                  -8.449
REMARK INTRA:                  -0.280
REMARK UNBOUND:                -0.314
REMARK SMILES O=c1cc(-c2ccc(O)c(O)c2)oc2cc(O)cc(O)c12
REMARK SMILES IDX 4 1 3 2 2 3 1 4 21 5 19 6 18 7 16 8 15 9 14 10 13 11 5 12
REMARK SMILES IDX 6 13 7 14 8 15 12 16 10 17 9 18 11 20 20 22 17 24
REMARK H PARENT 9 19 11 21 20 23 17 25
REMARK Flexibility Score: inf
ROOT
ATOM      1  C   UNL     1       5.916   5.202   3.254  1.00  0.00     0.138 A 
ATOM      2  C   UNL     1       6.086   6.515   3.715  1.00  0.00     0.100 A 
ATOM      3  C   UNL     1       6.020   7.578   2.813  1.00  0.00     0.197 A 
ATOM      4  O   UNL     1       6.114   8.748   3.266  1.00  0.00    -0.289 OA
ATOM      5  C   UNL     1       5.813   7.320   1.437  1.00  0.00     0.107 A 
ATOM      6  C   UNL     1       5.768   8.322   0.421  1.00  0.00     0.134 A 
ATOM      7  C   UNL     1       5.440   7.958  -0.891  1.00  0.00     0.093 A 
ATOM      8  C   UNL     1       5.216   6.623  -1.235  1.00  0.00     0.123 A 
ATOM      9  C   UNL     1       5.310   5.632  -0.261  1.00  0.00     0.094 A 
ATOM     10  C   UNL     1       5.601   5.966   1.064  1.00  0.00     0.146 A 
ATOM     11  O   UNL     1       5.668   4.992   1.965  1.00  0.00    -0.456 OA
ENDROOT
BRANCH   1  12
ATOM     12  C   UNL     1       5.978   4.036   4.170  1.00  0.00     0.021 A 
ATOM     13  C   UNL     1       5.100   3.969   5.266  1.00  0.00     0.016 A 
ATOM     14  C   UNL     1       5.133   2.879   6.138  1.00  0.00     0.051 A 
ATOM     15  C   UNL     1       6.034   1.832   5.927  1.00  0.00     0.157 A 
ATOM     16  C   UNL     1       6.875   2.972   3.954  1.00  0.00     0.062 A 
ATOM     17  C   UNL     1       6.908   1.876   4.829  1.00  0.00     0.158 A 
BRANCH  15  18
ATOM     18  O   UNL     1       6.045   0.757   6.816  1.00  0.00    -0.504 OA
ATOM     19  H   UNL     1       6.433  -0.145   6.566  1.00  0.00     0.293 HD
ENDBRANCH  15  18
BRANCH  17  20
ATOM     20  O   UNL     1       7.802   0.829   4.607  1.00  0.00    -0.504 OA
ATOM     21  H   UNL     1       8.635   0.953   4.043  1.00  0.00     0.293 HD
ENDBRANCH  17  20
ENDBRANCH   1  12
BRANCH   6  22
ATOM     22  O   UNL     1       6.059   9.672   0.641  1.00  0.00    -0.507 OA
ATOM     23  H   UNL     1       6.967  10.033   0.888  1.00  0.00     0.293 HD
ENDBRANCH   6  22
BRANCH   8  24
ATOM     24  O   UNL     1       4.905   6.270  -2.546  1.00  0.00    -0.508 OA
ATOM     25  H   UNL     1       4.656   5.318  -2.794  1.00  0.00     0.293 HD
ENDBRANCH   8  24
TORSDOF 5
ENDMDL
MODEL 9
REMARK VINA RESULT:    -7.106      2.686      5.151
REMARK INTER + INTRA:          -8.666
REMARK INTER:                  -8.388
REMARK INTRA:                  -0.278
REMARK UNBOUND:                -0.314
REMARK SMILES O=c1cc(-c2ccc(O)c(O)c2)oc2cc(O)cc(O)c12
REMARK SMILES IDX 4 1 3 2 2 3 1 4 21 5 19 6 18 7 16 8 15 9 14 10 13 11 5 12
REMARK SMILES IDX 6 13 7 14 8 15 12 16 10 17 9 18 11 20 20 22 17 24
REMARK H PARENT 9 19 11 21 20 23 17 25
REMARK Flexibility Score: inf
ROOT
ATOM      1  C   UNL     1       6.086   6.179   0.736  1.00  0.00     0.138 A 
ATOM      2  C   UNL     1       5.636   7.458   1.094  1.00  0.00     0.100 A 
ATOM      3  C   UNL     1       5.189   8.335   0.104  1.00  0.00     0.197 A 
ATOM      4  O   UNL     1       4.734   9.452   0.462  1.00  0.00    -0.289 OA
ATOM      5  C   UNL     1       5.223   7.938  -1.254  1.00  0.00     0.107 A 
ATOM      6  C   UNL     1       4.830   8.763  -2.350  1.00  0.00     0.134 A 
ATOM      7  C   UNL     1       4.796   8.223  -3.642  1.00  0.00     0.093 A 
ATOM      8  C   UNL     1       5.198   6.907  -3.884  1.00  0.00     0.123 A 
ATOM      9  C   UNL     1       5.633   6.111  -2.828  1.00  0.00     0.094 A 
ATOM     10  C   UNL     1       5.646   6.609  -1.522  1.00  0.00     0.146 A 
ATOM     11  O   UNL     1       6.056   5.813  -0.541  1.00  0.00    -0.456 OA
ENDROOT
BRANCH   1  12
ATOM     12  C   UNL     1       6.573   5.208   1.748  1.00  0.00     0.021 A 
ATOM     13  C   UNL     1       5.712   4.793   2.779  1.00  0.00     0.016 A 
ATOM     14  C   UNL     1       6.143   3.875   3.739  1.00  0.00     0.051 A 
ATOM     15  C   UNL     1       7.435   3.347   3.681  1.00  0.00     0.157 A 
ATOM     16  C   UNL     1       7.870   4.662   1.686  1.00  0.00     0.062 A 
ATOM     17  C   UNL     1       8.303   3.740   2.649  1.00  0.00     0.158 A 
BRANCH  15  18
ATOM     18  O   UNL     1       7.838   2.433   4.655  1.00  0.00    -0.504 OA
ATOM     19  H   UNL     1       7.852   1.434   4.483  1.00  0.00     0.293 HD
ENDBRANCH  15  18
BRANCH  17  20
ATOM     20  O   UNL     1       9.590   3.207   2.580  1.00  0.00    -0.504 OA
ATOM     21  H   UNL     1      10.213   3.219   3.379  1.00  0.00     0.293 HD
ENDBRANCH  17  20
ENDBRANCH   1  12
BRANCH   6  22
ATOM     22  O   UNL     1       4.492  10.115  -2.230  1.00  0.00    -0.507 OA
ATOM     23  H   UNL     1       4.757  10.836  -2.883  1.00  0.00     0.293 HD
ENDBRANCH   6  22
BRANCH   8  24
ATOM     24  O   UNL     1       5.174   6.383  -5.174  1.00  0.00    -0.508 OA
ATOM     25  H   UNL     1       4.638   6.821  -5.915  1.00  0.00     0.293 HD
ENDBRANCH   8  24
TORSDOF 5
ENDMDL
