MODEL 1
REMARK VINA RESULT:    -4.213      0.000      0.000
REMARK INTER + INTRA:          -6.382
REMARK INTER:                  -5.937
REMARK INTRA:                  -0.445
REMARK UNBOUND:                -0.445
REMARK SMILES C=CCCCCCCC(=O)[O-]
REMARK SMILES IDX 6 1 7 2 8 3 9 4 10 5 11 6 5 7 4 8 3 9 2 10 1 11
REMARK H PARENT
REMARK Flexibility Score: inf
ROOT
ATOM      1  C   UNL     1      16.078  25.529  55.302  1.00  0.00     0.000 C 
ENDROOT
BRANCH   1   2
ATOM      2  C   UNL     1      16.577  24.849  54.013  1.00  0.00     0.006 C 
BRANCH   2   3
ATOM      3  C   UNL     1      17.484  23.631  54.248  1.00  0.00     0.053 C 
BRANCH   3   4
ATOM      4  C   UNL     1      18.860  23.841  53.696  1.00  0.00     0.041 C 
ATOM      5  O   UNL     1      19.274  25.004  53.448  1.00  0.00    -0.550 OA
ATOM      6  O   UNL     1      19.699  22.753  53.486  1.00  0.00    -0.550 OA
ENDBRANCH   3   4
ENDBRANCH   2   3
ENDBRANCH   1   2
BRANCH   1   7
ATOM      7  C   UNL     1      16.962  25.213  56.522  1.00  0.00     0.000 C 
BRANCH   7   8
ATOM      8  C   UNL     1      16.140  24.994  57.803  1.00  0.00     0.004 C 
BRANCH   8   9
ATOM      9  C   UNL     1      15.405  26.263  58.260  1.00  0.00     0.027 C 
BRANCH   9  10
ATOM     10  C   UNL     1      13.919  26.040  58.309  1.00  0.00    -0.035 C 
ATOM     11  C   UNL     1      13.109  26.475  57.339  1.00  0.00     0.004 C 
ENDBRANCH   9  10
ENDBRANCH   8   9
ENDBRANCH   7   8
ENDBRANCH   1   7
TORSDOF 7
ENDMDL
MODEL 2
REMARK VINA RESULT:    -4.078      1.441      2.541
REMARK INTER + INTRA:          -6.192
REMARK INTER:                  -5.778
REMARK INTRA:                  -0.414
REMARK UNBOUND:                -0.445
REMARK SMILES C=CCCCCCCC(=O)[O-]
REMARK SMILES IDX 6 1 7 2 8 3 9 4 10 5 11 6 5 7 4 8 3 9 2 10 1 11
REMARK H PARENT
REMARK Flexibility Score: inf
ROOT
ATOM      1  C   UNL     1      17.250  23.558  54.243  1.00  0.00     0.000 C 
ENDROOT
BRANCH   1   2
ATOM      2  C   UNL     1      18.432  23.285  53.293  1.00  0.00     0.006 C 
BRANCH   2   3
ATOM      3  C   UNL     1      19.599  24.276  53.431  1.00  0.00     0.053 C 
BRANCH   3   4
ATOM      4  C   UNL     1      20.899  23.579  53.689  1.00  0.00     0.041 C 
ATOM      5  O   UNL     1      21.944  24.246  53.910  1.00  0.00    -0.550 OA
ATOM      6  O   UNL     1      20.950  22.190  53.717  1.00  0.00    -0.550 OA
ENDBRANCH   3   4
ENDBRANCH   2   3
ENDBRANCH   1   2
BRANCH   1   7
ATOM      7  C   UNL     1      16.526  24.879  53.928  1.00  0.00     0.000 C 
BRANCH   7   8
ATOM      8  C   UNL     1      16.156  25.663  55.197  1.00  0.00     0.004 C 
BRANCH   8   9
ATOM      9  C   UNL     1      17.177  25.477  56.329  1.00  0.00     0.027 C 
BRANCH   9  10
ATOM     10  C   UNL     1      16.529  24.889  57.552  1.00  0.00    -0.035 C 
ATOM     11  C   UNL     1      15.644  25.577  58.280  1.00  0.00     0.004 C 
ENDBRANCH   9  10
ENDBRANCH   8   9
ENDBRANCH   7   8
ENDBRANCH   1   7
TORSDOF 7
ENDMDL
MODEL 3
REMARK VINA RESULT:    -4.063      1.446      2.272
REMARK INTER + INTRA:          -6.170
REMARK INTER:                  -5.552
REMARK INTRA:                  -0.618
REMARK UNBOUND:                -0.445
REMARK SMILES C=CCCCCCCC(=O)[O-]
REMARK SMILES IDX 6 1 7 2 8 3 9 4 10 5 11 6 5 7 4 8 3 9 2 10 1 11
REMARK H PARENT
REMARK Flexibility Score: inf
ROOT
ATOM      1  C   UNL     1      16.638  25.574  57.746  1.00  0.00     0.000 C 
ENDROOT
BRANCH   1   2
ATOM      2  C   UNL     1      16.986  24.691  56.533  1.00  0.00     0.006 C 
BRANCH   2   3
ATOM      3  C   UNL     1      17.078  25.450  55.200  1.00  0.00     0.053 C 
BRANCH   3   4
ATOM      4  C   UNL     1      17.521  24.562  54.078  1.00  0.00     0.041 C 
ATOM      5  O   UNL     1      18.232  25.023  53.146  1.00  0.00    -0.550 OA
ATOM      6  O   UNL     1      17.175  23.216  54.078  1.00  0.00    -0.550 OA
ENDBRANCH   3   4
ENDBRANCH   2   3
ENDBRANCH   1   2
BRANCH   1   7
ATOM      7  C   UNL     1      15.430  25.046  58.539  1.00  0.00     0.000 C 
BRANCH   7   8
ATOM      8  C   UNL     1      14.236  26.014  58.508  1.00  0.00     0.004 C 
BRANCH   8   9
ATOM      9  C   UNL     1      13.750  26.311  57.082  1.00  0.00     0.027 C 
BRANCH   9  10
ATOM     10  C   UNL     1      13.846  27.780  56.772  1.00  0.00    -0.035 C 
ATOM     11  C   UNL     1      14.681  28.249  55.840  1.00  0.00     0.004 C 
ENDBRANCH   9  10
ENDBRANCH   8   9
ENDBRANCH   7   8
ENDBRANCH   1   7
TORSDOF 7
ENDMDL
MODEL 4
REMARK VINA RESULT:    -4.016      2.035      2.714
REMARK INTER + INTRA:          -6.104
REMARK INTER:                  -5.506
REMARK INTRA:                  -0.597
REMARK UNBOUND:                -0.445
REMARK SMILES C=CCCCCCCC(=O)[O-]
REMARK SMILES IDX 6 1 7 2 8 3 9 4 10 5 11 6 5 7 4 8 3 9 2 10 1 11
REMARK H PARENT
REMARK Flexibility Score: inf
ROOT
ATOM      1  C   UNL     1      16.947  24.915  55.431  1.00  0.00     0.000 C 
ENDROOT
BRANCH   1   2
ATOM      2  C   UNL     1      16.902  26.384  54.968  1.00  0.00     0.006 C 
BRANCH   2   3
ATOM      3  C   UNL     1      15.666  26.749  54.130  1.00  0.00     0.053 C 
BRANCH   3   4
ATOM      4  C   UNL     1      15.939  26.659  52.661  1.00  0.00     0.041 C 
ATOM      5  O   UNL     1      15.180  27.235  51.838  1.00  0.00    -0.550 OA
ATOM      6  O   UNL     1      17.051  25.964  52.201  1.00  0.00    -0.550 OA
ENDBRANCH   3   4
ENDBRANCH   2   3
ENDBRANCH   1   2
BRANCH   1   7
ATOM      7  C   UNL     1      17.165  24.775  56.947  1.00  0.00     0.000 C 
BRANCH   7   8
ATOM      8  C   UNL     1      16.455  25.880  57.748  1.00  0.00     0.004 C 
BRANCH   8   9
ATOM      9  C   UNL     1      15.293  25.343  58.598  1.00  0.00     0.027 C 
BRANCH   9  10
ATOM     10  C   UNL     1      14.025  26.104  58.323  1.00  0.00    -0.035 C 
ATOM     11  C   UNL     1      13.530  26.225  57.088  1.00  0.00     0.004 C 
ENDBRANCH   9  10
ENDBRANCH   8   9
ENDBRANCH   7   8
ENDBRANCH   1   7
TORSDOF 7
ENDMDL
MODEL 5
REMARK VINA RESULT:    -4.004      7.990      9.639
REMARK INTER + INTRA:          -6.087
REMARK INTER:                  -5.643
REMARK INTRA:                  -0.444
REMARK UNBOUND:                -0.445
REMARK SMILES C=CCCCCCCC(=O)[O-]
REMARK SMILES IDX 6 1 7 2 8 3 9 4 10 5 11 6 5 7 4 8 3 9 2 10 1 11
REMARK H PARENT
REMARK Flexibility Score: inf
ROOT
ATOM      1  C   UNL     1      26.665  25.390  55.871  1.00  0.00     0.000 C 
ENDROOT
BRANCH   1   2
ATOM      2  C   UNL     1      25.859  24.695  56.985  1.00  0.00     0.006 C 
BRANCH   2   3
ATOM      3  C   UNL     1      26.653  23.652  57.787  1.00  0.00     0.053 C 
BRANCH   3   4
ATOM      4  C   UNL     1      27.471  22.765  56.899  1.00  0.00     0.041 C 
ATOM      5  O   UNL     1      26.907  21.973  56.100  1.00  0.00    -0.550 OA
ATOM      6  O   UNL     1      28.859  22.838  56.931  1.00  0.00    -0.550 OA
ENDBRANCH   3   4
ENDBRANCH   2   3
ENDBRANCH   1   2
BRANCH   1   7
ATOM      7  C   UNL     1      26.021  26.706  55.402  1.00  0.00     0.000 C 
BRANCH   7   8
ATOM      8  C   UNL     1      25.532  27.572  56.575  1.00  0.00     0.004 C 
BRANCH   8   9
ATOM      9  C   UNL     1      24.407  28.536  56.171  1.00  0.00     0.027 C 
BRANCH   9  10
ATOM     10  C   UNL     1      23.409  27.859  55.273  1.00  0.00    -0.035 C 
ATOM     11  C   UNL     1      22.267  27.351  55.748  1.00  0.00     0.004 C 
ENDBRANCH   9  10
ENDBRANCH   8   9
ENDBRANCH   7   8
ENDBRANCH   1   7
TORSDOF 7
ENDMDL
MODEL 6
REMARK VINA RESULT:    -3.997      7.523      9.159
REMARK INTER + INTRA:          -6.078
REMARK INTER:                  -5.695
REMARK INTRA:                  -0.382
REMARK UNBOUND:                -0.445
REMARK SMILES C=CCCCCCCC(=O)[O-]
REMARK SMILES IDX 6 1 7 2 8 3 9 4 10 5 11 6 5 7 4 8 3 9 2 10 1 11
REMARK H PARENT
REMARK Flexibility Score: inf
ROOT
ATOM      1  C   UNL     1      14.307  28.585  50.563  1.00  0.00     0.000 C 
ENDROOT
BRANCH   1   2
ATOM      2  C   UNL     1      15.200  29.820  50.781  1.00  0.00     0.006 C 
BRANCH   2   3
ATOM      3  C   UNL     1      15.336  30.731  49.550  1.00  0.00     0.053 C 
BRANCH   3   4
ATOM      4  C   UNL     1      16.675  31.400  49.493  1.00  0.00     0.041 C 
ATOM      5  O   UNL     1      16.868  32.486  50.099  1.00  0.00    -0.550 OA
ATOM      6  O   UNL     1      17.720  30.807  48.795  1.00  0.00    -0.550 OA
ENDBRANCH   3   4
ENDBRANCH   2   3
ENDBRANCH   1   2
BRANCH   1   7
ATOM      7  C   UNL     1      12.810  28.935  50.508  1.00  0.00     0.000 C 
BRANCH   7   8
ATOM      8  C   UNL     1      12.132  28.423  49.227  1.00  0.00     0.004 C 
BRANCH   8   9
ATOM      9  C   UNL     1      13.123  28.226  48.070  1.00  0.00     0.027 C 
BRANCH   9  10
ATOM     10  C   UNL     1      12.899  26.907  47.384  1.00  0.00    -0.035 C 
ATOM     11  C   UNL     1      12.801  26.812  46.054  1.00  0.00     0.004 C 
ENDBRANCH   9  10
ENDBRANCH   8   9
ENDBRANCH   7   8
ENDBRANCH   1   7
TORSDOF 7
ENDMDL
MODEL 7
REMARK VINA RESULT:    -3.958      1.249      2.035
REMARK INTER + INTRA:          -6.022
REMARK INTER:                  -5.477
REMARK INTRA:                  -0.545
REMARK UNBOUND:                -0.445
REMARK SMILES C=CCCCCCCC(=O)[O-]
REMARK SMILES IDX 6 1 7 2 8 3 9 4 10 5 11 6 5 7 4 8 3 9 2 10 1 11
REMARK H PARENT
REMARK Flexibility Score: inf
ROOT
ATOM      1  C   UNL     1      15.761  25.731  53.738  1.00  0.00     0.000 C 
ENDROOT
BRANCH   1   2
ATOM      2  C   UNL     1      16.718  26.129  52.599  1.00  0.00     0.006 C 
BRANCH   2   3
ATOM      3  C   UNL     1      17.574  24.973  52.055  1.00  0.00     0.053 C 
BRANCH   3   4
ATOM      4  C   UNL     1      18.460  24.387  53.110  1.00  0.00     0.041 C 
ATOM      5  O   UNL     1      19.449  25.037  53.542  1.00  0.00    -0.550 OA
ATOM      6  O   UNL     1      18.175  23.135  53.642  1.00  0.00    -0.550 OA
ENDBRANCH   3   4
ENDBRANCH   2   3
ENDBRANCH   1   2
BRANCH   1   7
ATOM      7  C   UNL     1      15.884  26.648  54.967  1.00  0.00     0.000 C 
BRANCH   7   8
ATOM      8  C   UNL     1      17.048  26.245  55.887  1.00  0.00     0.004 C 
BRANCH   8   9
ATOM      9  C   UNL     1      16.750  24.977  56.701  1.00  0.00     0.027 C 
BRANCH   9  10
ATOM     10  C   UNL     1      16.305  25.321  58.096  1.00  0.00    -0.035 C 
ATOM     11  C   UNL     1      15.032  25.620  58.374  1.00  0.00     0.004 C 
ENDBRANCH   9  10
ENDBRANCH   8   9
ENDBRANCH   7   8
ENDBRANCH   1   7
TORSDOF 7
ENDMDL
MODEL 8
REMARK VINA RESULT:    -3.950      3.183      5.975
REMARK INTER + INTRA:          -6.010
REMARK INTER:                  -5.684
REMARK INTRA:                  -0.327
REMARK UNBOUND:                -0.445
REMARK SMILES C=CCCCCCCC(=O)[O-]
REMARK SMILES IDX 6 1 7 2 8 3 9 4 10 5 11 6 5 7 4 8 3 9 2 10 1 11
REMARK H PARENT
REMARK Flexibility Score: inf
ROOT
ATOM      1  C   UNL     1      16.049  25.573  55.294  1.00  0.00     0.000 C 
ENDROOT
BRANCH   1   2
ATOM      2  C   UNL     1      16.936  25.405  56.542  1.00  0.00     0.006 C 
BRANCH   2   3
ATOM      3  C   UNL     1      16.163  25.090  57.833  1.00  0.00     0.053 C 
BRANCH   3   4
ATOM      4  C   UNL     1      15.143  26.141  58.145  1.00  0.00     0.041 C 
ATOM      5  O   UNL     1      13.966  25.812  58.451  1.00  0.00    -0.550 OA
ATOM      6  O   UNL     1      15.500  27.484  58.131  1.00  0.00    -0.550 OA
ENDBRANCH   3   4
ENDBRANCH   2   3
ENDBRANCH   1   2
BRANCH   1   7
ATOM      7  C   UNL     1      16.663  24.931  54.037  1.00  0.00     0.000 C 
BRANCH   7   8
ATOM      8  C   UNL     1      17.280  23.553  54.322  1.00  0.00     0.004 C 
BRANCH   8   9
ATOM      9  C   UNL     1      18.239  23.091  53.214  1.00  0.00     0.027 C 
BRANCH   9  10
ATOM     10  C   UNL     1      19.668  23.385  53.576  1.00  0.00    -0.035 C 
ATOM     11  C   UNL     1      20.610  22.437  53.553  1.00  0.00     0.004 C 
ENDBRANCH   9  10
ENDBRANCH   8   9
ENDBRANCH   7   8
ENDBRANCH   1   7
TORSDOF 7
ENDMDL
MODEL 9
REMARK VINA RESULT:    -3.935      8.765     10.533
REMARK INTER + INTRA:          -5.990
REMARK INTER:                  -5.504
REMARK INTRA:                  -0.487
REMARK UNBOUND:                -0.445
REMARK SMILES C=CCCCCCCC(=O)[O-]
REMARK SMILES IDX 6 1 7 2 8 3 9 4 10 5 11 6 5 7 4 8 3 9 2 10 1 11
REMARK H PARENT
REMARK Flexibility Score: inf
ROOT
ATOM      1  C   UNL     1      27.018  25.361  54.613  1.00  0.00     0.000 C 
ENDROOT
BRANCH   1   2
ATOM      2  C   UNL     1      26.750  26.869  54.780  1.00  0.00     0.006 C 
BRANCH   2   3
ATOM      3  C   UNL     1      25.335  27.312  54.377  1.00  0.00     0.053 C 
BRANCH   3   4
ATOM      4  C   UNL     1      24.550  27.816  55.548  1.00  0.00     0.041 C 
ATOM      5  O   UNL     1      25.140  28.170  56.603  1.00  0.00    -0.550 OA
ATOM      6  O   UNL     1      23.167  27.927  55.464  1.00  0.00    -0.550 OA
ENDBRANCH   3   4
ENDBRANCH   2   3
ENDBRANCH   1   2
BRANCH   1   7
ATOM      7  C   UNL     1      26.019  24.490  55.394  1.00  0.00     0.000 C 
BRANCH   7   8
ATOM      8  C   UNL     1      26.144  24.671  56.915  1.00  0.00     0.004 C 
BRANCH   8   9
ATOM      9  C   UNL     1      26.416  23.349  57.649  1.00  0.00     0.027 C 
BRANCH   9  10
ATOM     10  C   UNL     1      27.352  22.474  56.862  1.00  0.00    -0.035 C 
ATOM     11  C   UNL     1      28.676  22.524  57.038  1.00  0.00     0.004 C 
ENDBRANCH   9  10
ENDBRANCH   8   9
ENDBRANCH   7   8
ENDBRANCH   1   7
TORSDOF 7
ENDMDL
