MODEL 1
REMARK VINA RESULT:    -5.626      0.000      0.000
REMARK INTER + INTRA:          -5.626
REMARK INTER:                  -5.626
REMARK INTRA:                   0.000
REMARK UNBOUND:                 0.000
REMARK SMILES CC1=CC[C@@]2(C)CCCC(C)(C)[C@]23C[C@H]13
REMARK SMILES IDX 1 1 2 2 3 3 4 4 5 5 7 6 8 7 9 8 10 9 13 10 15 11 14 12 11 13
REMARK SMILES IDX 12 14 6 15
REMARK H PARENT
REMARK Flexibility Score: inf
ROOT
ATOM      1  C   UNL     1     162.028 168.526 199.569  1.00  0.00     0.039 C 
ATOM      2  C   UNL     1     163.330 168.369 200.300  1.00  0.00    -0.074 C 
ATOM      3  C   UNL     1     163.363 167.731 201.481  1.00  0.00    -0.027 C 
ATOM      4  C   UNL     1     164.636 167.647 202.282  1.00  0.00     0.034 C 
ATOM      5  C   UNL     1     165.434 168.975 202.192  1.00  0.00    -0.022 C 
ATOM      6  C   UNL     1     166.722 168.865 203.064  1.00  0.00     0.008 C 
ATOM      7  C   UNL     1     167.889 168.170 202.383  1.00  0.00     0.001 C 
ATOM      8  C   UNL     1     168.269 168.940 201.126  1.00  0.00     0.007 C 
ATOM      9  C   UNL     1     167.170 168.866 200.039  1.00  0.00    -0.029 C 
ATOM     10  C   UNL     1     165.754 169.280 200.653  1.00  0.00    -0.012 C 
ATOM     11  C   UNL     1     164.598 168.911 199.681  1.00  0.00     0.022 C 
ATOM     12  C   UNL     1     164.893 170.371 199.954  1.00  0.00     0.017 C 
ATOM     13  C   UNL     1     167.626 169.806 198.895  1.00  0.00     0.012 C 
ATOM     14  C   UNL     1     167.148 167.420 199.463  1.00  0.00     0.012 C 
ATOM     15  C   UNL     1     164.593 170.097 202.873  1.00  0.00     0.012 C 
ENDROOT
TORSDOF 0
ENDMDL
MODEL 2
REMARK VINA RESULT:    -5.617      4.806      6.933
REMARK INTER + INTRA:          -5.617
REMARK INTER:                  -5.617
REMARK INTRA:                   0.000
REMARK UNBOUND:                 0.000
REMARK SMILES CC1=CC[C@@]2(C)CCCC(C)(C)[C@]23C[C@H]13
REMARK SMILES IDX 1 1 2 2 3 3 4 4 5 5 7 6 8 7 9 8 10 9 13 10 15 11 14 12 11 13
REMARK SMILES IDX 12 14 6 15
REMARK H PARENT
REMARK Flexibility Score: inf
ROOT
ATOM      1  C   UNL     1     169.978 163.432 199.601  1.00  0.00     0.039 C 
ATOM      2  C   UNL     1     168.672 163.600 200.324  1.00  0.00    -0.074 C 
ATOM      3  C   UNL     1     168.637 164.240 201.504  1.00  0.00    -0.027 C 
ATOM      4  C   UNL     1     167.361 164.335 202.298  1.00  0.00     0.034 C 
ATOM      5  C   UNL     1     166.552 163.014 202.204  1.00  0.00    -0.022 C 
ATOM      6  C   UNL     1     165.260 163.135 203.068  1.00  0.00     0.008 C 
ATOM      7  C   UNL     1     164.103 163.840 202.380  1.00  0.00     0.001 C 
ATOM      8  C   UNL     1     163.724 163.072 201.122  1.00  0.00     0.007 C 
ATOM      9  C   UNL     1     164.830 163.135 200.040  1.00  0.00    -0.029 C 
ATOM     10  C   UNL     1     166.239 162.710 200.663  1.00  0.00    -0.012 C 
ATOM     11  C   UNL     1     167.403 163.068 199.698  1.00  0.00     0.022 C 
ATOM     12  C   UNL     1     167.095 161.611 199.970  1.00  0.00     0.017 C 
ATOM     13  C   UNL     1     164.373 162.198 198.896  1.00  0.00     0.012 C 
ATOM     14  C   UNL     1     164.868 164.580 199.464  1.00  0.00     0.012 C 
ATOM     15  C   UNL     1     167.379 161.886 202.892  1.00  0.00     0.012 C 
ENDROOT
TORSDOF 0
ENDMDL
MODEL 3
REMARK VINA RESULT:    -5.280      1.391      4.018
REMARK INTER + INTRA:          -5.280
REMARK INTER:                  -5.280
REMARK INTRA:                   0.000
REMARK UNBOUND:                 0.000
REMARK SMILES CC1=CC[C@@]2(C)CCCC(C)(C)[C@]23C[C@H]13
REMARK SMILES IDX 1 1 2 2 3 3 4 4 5 5 7 6 8 7 9 8 10 9 13 10 15 11 14 12 11 13
REMARK SMILES IDX 12 14 6 15
REMARK H PARENT
REMARK Flexibility Score: inf
ROOT
ATOM      1  C   UNL     1     166.664 169.848 195.978  1.00  0.00     0.039 C 
ATOM      2  C   UNL     1     166.815 169.674 197.462  1.00  0.00    -0.074 C 
ATOM      3  C   UNL     1     167.913 170.136 198.083  1.00  0.00    -0.027 C 
ATOM      4  C   UNL     1     168.136 169.886 199.551  1.00  0.00     0.034 C 
ATOM      5  C   UNL     1     167.666 168.461 199.948  1.00  0.00    -0.022 C 
ATOM      6  C   UNL     1     167.949 168.225 201.462  1.00  0.00     0.008 C 
ATOM      7  C   UNL     1     166.891 168.785 202.398  1.00  0.00     0.001 C 
ATOM      8  C   UNL     1     165.551 168.132 202.090  1.00  0.00     0.007 C 
ATOM      9  C   UNL     1     165.004 168.541 200.702  1.00  0.00    -0.029 C 
ATOM     10  C   UNL     1     166.115 168.309 199.578  1.00  0.00    -0.012 C 
ATOM     11  C   UNL     1     165.711 169.001 198.246  1.00  0.00     0.022 C 
ATOM     12  C   UNL     1     165.769 167.489 198.301  1.00  0.00     0.017 C 
ATOM     13  C   UNL     1     163.729 167.693 200.470  1.00  0.00     0.012 C 
ATOM     14  C   UNL     1     164.559 170.031 200.772  1.00  0.00     0.012 C 
ATOM     15  C   UNL     1     168.572 167.427 199.213  1.00  0.00     0.012 C 
ENDROOT
TORSDOF 0
ENDMDL
MODEL 4
REMARK VINA RESULT:    -5.249      4.467      6.885
REMARK INTER + INTRA:          -5.249
REMARK INTER:                  -5.249
REMARK INTRA:                   0.000
REMARK UNBOUND:                 0.000
REMARK SMILES CC1=CC[C@@]2(C)CCCC(C)(C)[C@]23C[C@H]13
REMARK SMILES IDX 1 1 2 2 3 3 4 4 5 5 7 6 8 7 9 8 10 9 13 10 15 11 14 12 11 13
REMARK SMILES IDX 12 14 6 15
REMARK H PARENT
REMARK Flexibility Score: inf
ROOT
ATOM      1  C   UNL     1     168.881 164.707 201.477  1.00  0.00     0.039 C 
ATOM      2  C   UNL     1     167.744 163.963 200.837  1.00  0.00    -0.074 C 
ATOM      3  C   UNL     1     167.871 162.655 200.561  1.00  0.00    -0.027 C 
ATOM      4  C   UNL     1     166.786 161.908 199.830  1.00  0.00     0.034 C 
ATOM      5  C   UNL     1     166.160 162.792 198.718  1.00  0.00    -0.022 C 
ATOM      6  C   UNL     1     165.072 161.974 197.958  1.00  0.00     0.008 C 
ATOM      7  C   UNL     1     163.713 161.944 198.638  1.00  0.00     0.001 C 
ATOM      8  C   UNL     1     163.187 163.367 198.770  1.00  0.00     0.007 C 
ATOM      9  C   UNL     1     164.025 164.213 199.759  1.00  0.00    -0.029 C 
ATOM     10  C   UNL     1     165.576 164.125 199.387  1.00  0.00    -0.012 C 
ATOM     11  C   UNL     1     166.456 164.694 200.536  1.00  0.00     0.022 C 
ATOM     12  C   UNL     1     166.408 165.428 199.212  1.00  0.00     0.017 C 
ATOM     13  C   UNL     1     163.469 165.656 199.676  1.00  0.00     0.012 C 
ATOM     14  C   UNL     1     163.748 163.696 201.201  1.00  0.00     0.012 C 
ATOM     15  C   UNL     1     167.256 163.078 197.646  1.00  0.00     0.012 C 
ENDROOT
TORSDOF 0
ENDMDL
MODEL 5
REMARK VINA RESULT:    -5.224      4.121      5.948
REMARK INTER + INTRA:          -5.224
REMARK INTER:                  -5.224
REMARK INTRA:                   0.000
REMARK UNBOUND:                 0.000
REMARK SMILES CC1=CC[C@@]2(C)CCCC(C)(C)[C@]23C[C@H]13
REMARK SMILES IDX 1 1 2 2 3 3 4 4 5 5 7 6 8 7 9 8 10 9 13 10 15 11 14 12 11 13
REMARK SMILES IDX 12 14 6 15
REMARK H PARENT
REMARK Flexibility Score: inf
ROOT
ATOM      1  C   UNL     1     162.406 167.920 199.610  1.00  0.00     0.039 C 
ATOM      2  C   UNL     1     163.152 166.671 199.238  1.00  0.00    -0.074 C 
ATOM      3  C   UNL     1     163.481 166.443 197.956  1.00  0.00    -0.027 C 
ATOM      4  C   UNL     1     164.139 165.154 197.541  1.00  0.00     0.034 C 
ATOM      5  C   UNL     1     163.547 163.953 198.326  1.00  0.00    -0.022 C 
ATOM      6  C   UNL     1     164.222 162.634 197.842  1.00  0.00     0.008 C 
ATOM      7  C   UNL     1     165.565 162.337 198.489  1.00  0.00     0.001 C 
ATOM      8  C   UNL     1     165.379 162.214 199.996  1.00  0.00     0.007 C 
ATOM      9  C   UNL     1     164.996 163.562 200.652  1.00  0.00    -0.029 C 
ATOM     10  C   UNL     1     163.748 164.212 199.893  1.00  0.00    -0.012 C 
ATOM     11  C   UNL     1     163.549 165.693 200.321  1.00  0.00     0.022 C 
ATOM     12  C   UNL     1     162.500 164.670 200.701  1.00  0.00     0.017 C 
ATOM     13  C   UNL     1     164.698 163.253 202.140  1.00  0.00     0.012 C 
ATOM     14  C   UNL     1     166.241 164.495 200.616  1.00  0.00     0.012 C 
ATOM     15  C   UNL     1     162.049 163.798 197.922  1.00  0.00     0.012 C 
ENDROOT
TORSDOF 0
ENDMDL
MODEL 6
REMARK VINA RESULT:    -5.203      2.760      4.845
REMARK INTER + INTRA:          -5.203
REMARK INTER:                  -5.203
REMARK INTRA:                   0.000
REMARK UNBOUND:                 0.000
REMARK SMILES CC1=CC[C@@]2(C)CCCC(C)(C)[C@]23C[C@H]13
REMARK SMILES IDX 1 1 2 2 3 3 4 4 5 5 7 6 8 7 9 8 10 9 13 10 15 11 14 12 11 13
REMARK SMILES IDX 12 14 6 15
REMARK H PARENT
REMARK Flexibility Score: inf
ROOT
ATOM      1  C   UNL     1     169.384 163.451 199.410  1.00  0.00     0.039 C 
ATOM      2  C   UNL     1     169.138 164.926 199.550  1.00  0.00    -0.074 C 
ATOM      3  C   UNL     1     169.338 165.530 200.733  1.00  0.00    -0.027 C 
ATOM      4  C   UNL     1     169.003 166.985 200.927  1.00  0.00     0.034 C 
ATOM      5  C   UNL     1     167.699 167.359 200.173  1.00  0.00    -0.022 C 
ATOM      6  C   UNL     1     167.363 168.859 200.430  1.00  0.00     0.008 C 
ATOM      7  C   UNL     1     168.107 169.836 199.534  1.00  0.00     0.001 C 
ATOM      8  C   UNL     1     167.761 169.546 198.080  1.00  0.00     0.007 C 
ATOM      9  C   UNL     1     168.319 168.183 197.605  1.00  0.00    -0.029 C 
ATOM     10  C   UNL     1     167.889 167.025 198.619  1.00  0.00    -0.012 C 
ATOM     11  C   UNL     1     168.691 165.721 198.345  1.00  0.00     0.022 C 
ATOM     12  C   UNL     1     167.200 165.738 198.081  1.00  0.00     0.017 C 
ATOM     13  C   UNL     1     167.767 167.962 196.174  1.00  0.00     0.012 C 
ATOM     14  C   UNL     1     169.866 168.301 197.488  1.00  0.00     0.012 C 
ATOM     15  C   UNL     1     166.518 166.575 200.824  1.00  0.00     0.012 C 
ENDROOT
TORSDOF 0
ENDMDL
MODEL 7
REMARK VINA RESULT:    -5.195      4.037      5.376
REMARK INTER + INTRA:          -5.195
REMARK INTER:                  -5.195
REMARK INTRA:                   0.000
REMARK UNBOUND:                 0.000
REMARK SMILES CC1=CC[C@@]2(C)CCCC(C)(C)[C@]23C[C@H]13
REMARK SMILES IDX 1 1 2 2 3 3 4 4 5 5 7 6 8 7 9 8 10 9 13 10 15 11 14 12 11 13
REMARK SMILES IDX 12 14 6 15
REMARK H PARENT
REMARK Flexibility Score: inf
ROOT
ATOM      1  C   UNL     1     162.635 168.561 199.371  1.00  0.00     0.039 C 
ATOM      2  C   UNL     1     162.871 167.086 199.527  1.00  0.00    -0.074 C 
ATOM      3  C   UNL     1     162.653 166.494 200.713  1.00  0.00    -0.027 C 
ATOM      4  C   UNL     1     162.977 165.039 200.924  1.00  0.00     0.034 C 
ATOM      5  C   UNL     1     164.288 164.651 200.189  1.00  0.00    -0.022 C 
ATOM      6  C   UNL     1     164.612 163.151 200.463  1.00  0.00     0.008 C 
ATOM      7  C   UNL     1     163.873 162.171 199.568  1.00  0.00     0.001 C 
ATOM      8  C   UNL     1     164.238 162.445 198.115  1.00  0.00     0.007 C 
ATOM      9  C   UNL     1     163.694 163.808 197.621  1.00  0.00    -0.029 C 
ATOM     10  C   UNL     1     164.118 164.972 198.629  1.00  0.00    -0.012 C 
ATOM     11  C   UNL     1     163.328 166.278 198.334  1.00  0.00     0.022 C 
ATOM     12  C   UNL     1     164.821 166.250 198.089  1.00  0.00     0.017 C 
ATOM     13  C   UNL     1     164.264 164.012 196.195  1.00  0.00     0.012 C 
ATOM     14  C   UNL     1     162.147 163.697 197.486  1.00  0.00     0.012 C 
ATOM     15  C   UNL     1     165.466 165.434 200.847  1.00  0.00     0.012 C 
ENDROOT
TORSDOF 0
ENDMDL
MODEL 8
REMARK VINA RESULT:    -5.189      2.126      5.229
REMARK INTER + INTRA:          -5.189
REMARK INTER:                  -5.189
REMARK INTRA:                   0.000
REMARK UNBOUND:                 0.000
REMARK SMILES CC1=CC[C@@]2(C)CCCC(C)(C)[C@]23C[C@H]13
REMARK SMILES IDX 1 1 2 2 3 3 4 4 5 5 7 6 8 7 9 8 10 9 13 10 15 11 14 12 11 13
REMARK SMILES IDX 12 14 6 15
REMARK H PARENT
REMARK Flexibility Score: inf
ROOT
ATOM      1  C   UNL     1     169.592 164.069 199.611  1.00  0.00     0.039 C 
ATOM      2  C   UNL     1     168.881 165.335 199.227  1.00  0.00    -0.074 C 
ATOM      3  C   UNL     1     168.639 165.603 197.933  1.00  0.00    -0.027 C 
ATOM      4  C   UNL     1     168.019 166.909 197.514  1.00  0.00     0.034 C 
ATOM      5  C   UNL     1     168.566 168.082 198.372  1.00  0.00    -0.022 C 
ATOM      6  C   UNL     1     167.932 169.420 197.884  1.00  0.00     0.008 C 
ATOM      7  C   UNL     1     166.552 169.710 198.449  1.00  0.00     0.001 C 
ATOM      8  C   UNL     1     166.638 169.787 199.968  1.00  0.00     0.007 C 
ATOM      9  C   UNL     1     166.968 168.417 200.607  1.00  0.00    -0.029 C 
ATOM     10  C   UNL     1     168.259 167.779 199.914  1.00  0.00    -0.012 C 
ATOM     11  C   UNL     1     168.420 166.284 200.310  1.00  0.00     0.022 C 
ATOM     12  C   UNL     1     169.447 167.287 200.789  1.00  0.00     0.017 C 
ATOM     13  C   UNL     1     167.168 168.681 202.120  1.00  0.00     0.012 C 
ATOM     14  C   UNL     1     165.722 167.496 200.462  1.00  0.00     0.012 C 
ATOM     15  C   UNL     1     170.088 168.236 198.073  1.00  0.00     0.012 C 
ENDROOT
TORSDOF 0
ENDMDL
MODEL 9
REMARK VINA RESULT:    -5.153      1.712      2.703
REMARK INTER + INTRA:          -5.153
REMARK INTER:                  -5.153
REMARK INTRA:                   0.000
REMARK UNBOUND:                 0.000
REMARK SMILES CC1=CC[C@@]2(C)CCCC(C)(C)[C@]23C[C@H]13
REMARK SMILES IDX 1 1 2 2 3 3 4 4 5 5 7 6 8 7 9 8 10 9 13 10 15 11 14 12 11 13
REMARK SMILES IDX 12 14 6 15
REMARK H PARENT
REMARK Flexibility Score: inf
ROOT
ATOM      1  C   UNL     1     164.518 170.124 199.981  1.00  0.00     0.039 C 
ATOM      2  C   UNL     1     165.505 169.022 200.243  1.00  0.00    -0.074 C 
ATOM      3  C   UNL     1     165.235 168.087 201.169  1.00  0.00    -0.027 C 
ATOM      4  C   UNL     1     166.248 167.030 201.523  1.00  0.00     0.034 C 
ATOM      5  C   UNL     1     167.683 167.623 201.536  1.00  0.00    -0.022 C 
ATOM      6  C   UNL     1     168.698 166.512 201.945  1.00  0.00     0.008 C 
ATOM      7  C   UNL     1     169.132 165.603 200.807  1.00  0.00     0.001 C 
ATOM      8  C   UNL     1     169.801 166.438 199.724  1.00  0.00     0.007 C 
ATOM      9  C   UNL     1     168.804 167.388 199.017  1.00  0.00    -0.029 C 
ATOM     10  C   UNL     1     167.996 168.246 200.095  1.00  0.00    -0.012 C 
ATOM     11  C   UNL     1     166.783 168.963 199.438  1.00  0.00     0.022 C 
ATOM     12  C   UNL     1     167.932 169.796 199.965  1.00  0.00     0.017 C 
ATOM     13  C   UNL     1     169.646 168.267 198.059  1.00  0.00     0.012 C 
ATOM     14  C   UNL     1     167.852 166.528 198.134  1.00  0.00     0.012 C 
ATOM     15  C   UNL     1     167.766 168.672 202.686  1.00  0.00     0.012 C 
ENDROOT
TORSDOF 0
ENDMDL
