MODEL 1
REMARK VINA RESULT:    -5.079      0.000      0.000
REMARK INTER + INTRA:          -5.343
REMARK INTER:                  -5.376
REMARK INTRA:                   0.032
REMARK UNBOUND:                 0.032
REMARK SMILES CC1=C[C@@H]2C(=C(C)CC[C@@H]2C(C)C)CC1
REMARK SMILES IDX 1 1 2 2 3 3 4 4 10 5 9 6 8 7 6 8 5 9 14 10 15 11 7 12 11 13
REMARK SMILES IDX 12 14 13 15
REMARK H PARENT
REMARK Flexibility Score: inf
ROOT
ATOM      1  C   UNL     1      10.875   8.341  16.447  1.00  0.00     0.039 C 
ATOM      2  C   UNL     1      11.544   7.014  16.677  1.00  0.00    -0.076 C 
ATOM      3  C   UNL     1      12.741   6.763  16.122  1.00  0.00    -0.020 C 
ATOM      4  C   UNL     1      13.446   5.444  16.350  1.00  0.00     0.041 C 
ATOM      5  C   UNL     1      14.962   5.500  16.016  1.00  0.00     0.003 C 
ATOM      6  C   UNL     1      15.529   4.085  16.227  1.00  0.00     0.009 C 
ATOM      7  C   UNL     1      15.363   3.612  17.674  1.00  0.00     0.031 C 
ATOM      8  C   UNL     1      14.019   3.956  18.300  1.00  0.00    -0.073 C 
ATOM      9  C   UNL     1      13.163   4.858  17.735  1.00  0.00    -0.064 C 
ATOM     10  C   UNL     1      11.874   5.261  18.443  1.00  0.00     0.036 C 
ATOM     11  C   UNL     1      10.875   5.945  17.503  1.00  0.00     0.035 C 
ATOM     12  C   UNL     1      13.743   3.362  19.661  1.00  0.00     0.039 C 
ENDROOT
BRANCH   5  13
ATOM     13  C   UNL     1      15.848   6.602  16.725  1.00  0.00    -0.013 C 
ATOM     14  C   UNL     1      17.349   6.277  16.644  1.00  0.00     0.007 C 
ATOM     15  C   UNL     1      15.609   8.056  16.279  1.00  0.00     0.007 C 
ENDBRANCH   5  13
TORSDOF 1
ENDMDL
MODEL 2
REMARK VINA RESULT:    -4.738      1.435      5.025
REMARK INTER + INTRA:          -4.982
REMARK INTER:                  -5.007
REMARK INTRA:                   0.024
REMARK UNBOUND:                 0.032
REMARK SMILES CC1=C[C@@H]2C(=C(C)CC[C@@H]2C(C)C)CC1
REMARK SMILES IDX 1 1 2 2 3 3 4 4 10 5 9 6 8 7 6 8 5 9 14 10 15 11 7 12 11 13
REMARK SMILES IDX 12 14 13 15
REMARK H PARENT
REMARK Flexibility Score: inf
ROOT
ATOM      1  C   UNL     1      14.613   2.424  21.393  1.00  0.00     0.039 C 
ATOM      2  C   UNL     1      14.232   2.983  20.050  1.00  0.00    -0.076 C 
ATOM      3  C   UNL     1      13.113   3.715  19.923  1.00  0.00    -0.020 C 
ATOM      4  C   UNL     1      12.714   4.305  18.588  1.00  0.00     0.041 C 
ATOM      5  C   UNL     1      11.675   5.453  18.718  1.00  0.00     0.003 C 
ATOM      6  C   UNL     1      11.314   5.906  17.292  1.00  0.00     0.009 C 
ATOM      7  C   UNL     1      12.536   6.432  16.532  1.00  0.00     0.031 C 
ATOM      8  C   UNL     1      13.804   5.618  16.736  1.00  0.00    -0.073 C 
ATOM      9  C   UNL     1      13.922   4.689  17.731  1.00  0.00    -0.064 C 
ATOM     10  C   UNL     1      15.243   3.969  17.975  1.00  0.00     0.036 C 
ATOM     11  C   UNL     1      15.077   2.709  18.832  1.00  0.00     0.035 C 
ATOM     12  C   UNL     1      14.987   5.996  15.875  1.00  0.00     0.039 C 
ENDROOT
BRANCH   5  13
ATOM     13  C   UNL     1      12.023   6.678  19.655  1.00  0.00    -0.013 C 
ATOM     14  C   UNL     1      11.259   7.951  19.249  1.00  0.00     0.007 C 
ATOM     15  C   UNL     1      11.865   6.442  21.169  1.00  0.00     0.007 C 
ENDBRANCH   5  13
TORSDOF 1
ENDMDL
MODEL 3
REMARK VINA RESULT:    -4.564      1.697      4.598
REMARK INTER + INTRA:          -4.798
REMARK INTER:                  -4.831
REMARK INTRA:                   0.032
REMARK UNBOUND:                 0.032
REMARK SMILES CC1=C[C@@H]2C(=C(C)CC[C@@H]2C(C)C)CC1
REMARK SMILES IDX 1 1 2 2 3 3 4 4 10 5 9 6 8 7 6 8 5 9 14 10 15 11 7 12 11 13
REMARK SMILES IDX 12 14 13 15
REMARK H PARENT
REMARK Flexibility Score: inf
ROOT
ATOM      1  C   UNL     1      13.066   5.485  22.397  1.00  0.00     0.039 C 
ATOM      2  C   UNL     1      12.895   5.250  20.922  1.00  0.00    -0.076 C 
ATOM      3  C   UNL     1      11.982   5.955  20.233  1.00  0.00    -0.020 C 
ATOM      4  C   UNL     1      11.801   5.752  18.744  1.00  0.00     0.041 C 
ATOM      5  C   UNL     1      11.046   6.925  18.060  1.00  0.00     0.003 C 
ATOM      6  C   UNL     1      10.875   6.554  16.576  1.00  0.00     0.009 C 
ATOM      7  C   UNL     1      12.224   6.362  15.875  1.00  0.00     0.031 C 
ATOM      8  C   UNL     1      13.260   5.610  16.697  1.00  0.00    -0.073 C 
ATOM      9  C   UNL     1      13.108   5.391  18.037  1.00  0.00    -0.064 C 
ATOM     10  C   UNL     1      14.215   4.730  18.851  1.00  0.00     0.036 C 
ATOM     11  C   UNL     1      13.720   4.211  20.205  1.00  0.00     0.035 C 
ATOM     12  C   UNL     1      14.542   5.246  15.986  1.00  0.00     0.039 C 
ENDROOT
BRANCH   5  13
ATOM     13  C   UNL     1      11.614   8.390  18.240  1.00  0.00    -0.013 C 
ATOM     14  C   UNL     1      11.240   9.303  17.059  1.00  0.00     0.007 C 
ATOM     15  C   UNL     1      11.269   9.094  19.566  1.00  0.00     0.007 C 
ENDBRANCH   5  13
TORSDOF 1
ENDMDL
MODEL 4
REMARK VINA RESULT:    -4.415      1.249      2.095
REMARK INTER + INTRA:          -4.641
REMARK INTER:                  -4.670
REMARK INTRA:                   0.029
REMARK UNBOUND:                 0.032
REMARK SMILES CC1=C[C@@H]2C(=C(C)CC[C@@H]2C(C)C)CC1
REMARK SMILES IDX 1 1 2 2 3 3 4 4 10 5 9 6 8 7 6 8 5 9 14 10 15 11 7 12 11 13
REMARK SMILES IDX 12 14 13 15
REMARK H PARENT
REMARK Flexibility Score: inf
ROOT
ATOM      1  C   UNL     1      12.330   6.993  15.875  1.00  0.00     0.039 C 
ATOM      2  C   UNL     1      12.591   5.787  16.733  1.00  0.00    -0.076 C 
ATOM      3  C   UNL     1      13.763   5.137  16.636  1.00  0.00    -0.020 C 
ATOM      4  C   UNL     1      14.060   3.931  17.500  1.00  0.00     0.041 C 
ATOM      5  C   UNL     1      15.575   3.595  17.571  1.00  0.00     0.003 C 
ATOM      6  C   UNL     1      15.720   2.318  18.419  1.00  0.00     0.009 C 
ATOM      7  C   UNL     1      15.193   2.514  19.844  1.00  0.00     0.031 C 
ATOM      8  C   UNL     1      13.894   3.301  19.933  1.00  0.00    -0.073 C 
ATOM      9  C   UNL     1      13.404   4.020  18.879  1.00  0.00    -0.064 C 
ATOM     10  C   UNL     1      12.158   4.884  19.036  1.00  0.00     0.036 C 
ATOM     11  C   UNL     1      11.541   5.277  17.688  1.00  0.00     0.035 C 
ATOM     12  C   UNL     1      13.247   3.372  21.296  1.00  0.00     0.039 C 
ENDROOT
BRANCH   5  13
ATOM     13  C   UNL     1      16.575   4.728  18.037  1.00  0.00    -0.013 C 
ATOM     14  C   UNL     1      17.913   4.151  18.530  1.00  0.00     0.007 C 
ATOM     15  C   UNL     1      16.843   5.856  17.023  1.00  0.00     0.007 C 
ENDBRANCH   5  13
TORSDOF 1
ENDMDL
MODEL 5
REMARK VINA RESULT:    -4.405      2.053      4.048
REMARK INTER + INTRA:          -4.630
REMARK INTER:                  -4.704
REMARK INTRA:                   0.074
REMARK UNBOUND:                 0.032
REMARK SMILES CC1=C[C@@H]2C(=C(C)CC[C@@H]2C(C)C)CC1
REMARK SMILES IDX 1 1 2 2 3 3 4 4 10 5 9 6 8 7 6 8 5 9 14 10 15 11 7 12 11 13
REMARK SMILES IDX 12 14 13 15
REMARK H PARENT
REMARK Flexibility Score: inf
ROOT
ATOM      1  C   UNL     1      11.634   6.709  22.452  1.00  0.00     0.039 C 
ATOM      2  C   UNL     1      12.069   6.958  21.034  1.00  0.00    -0.076 C 
ATOM      3  C   UNL     1      13.136   6.310  20.538  1.00  0.00    -0.020 C 
ATOM      4  C   UNL     1      13.585   6.527  19.109  1.00  0.00     0.041 C 
ATOM      5  C   UNL     1      14.523   5.402  18.591  1.00  0.00     0.003 C 
ATOM      6  C   UNL     1      14.952   5.786  17.164  1.00  0.00     0.009 C 
ATOM      7  C   UNL     1      13.753   5.901  16.217  1.00  0.00     0.031 C 
ATOM      8  C   UNL     1      12.537   6.590  16.820  1.00  0.00    -0.073 C 
ATOM      9  C   UNL     1      12.418   6.813  18.163  1.00  0.00    -0.064 C 
ATOM     10  C   UNL     1      11.140   7.406  18.745  1.00  0.00     0.036 C 
ATOM     11  C   UNL     1      11.338   7.950  20.165  1.00  0.00     0.035 C 
ATOM     12  C   UNL     1      11.395   6.880  15.875  1.00  0.00     0.039 C 
ENDROOT
BRANCH   5  13
ATOM     13  C   UNL     1      14.017   3.906  18.672  1.00  0.00    -0.013 C 
ATOM     14  C   UNL     1      14.963   2.936  17.943  1.00  0.00     0.007 C 
ATOM     15  C   UNL     1      13.712   3.366  20.082  1.00  0.00     0.007 C 
ENDBRANCH   5  13
TORSDOF 1
ENDMDL
MODEL 6
REMARK VINA RESULT:    -4.366      1.612      5.114
REMARK INTER + INTRA:          -4.589
REMARK INTER:                  -4.644
REMARK INTRA:                   0.055
REMARK UNBOUND:                 0.032
REMARK SMILES CC1=C[C@@H]2C(=C(C)CC[C@@H]2C(C)C)CC1
REMARK SMILES IDX 1 1 2 2 3 3 4 4 10 5 9 6 8 7 6 8 5 9 14 10 15 11 7 12 11 13
REMARK SMILES IDX 12 14 13 15
REMARK H PARENT
REMARK Flexibility Score: inf
ROOT
ATOM      1  C   UNL     1      15.308   2.583  18.722  1.00  0.00     0.039 C 
ATOM      2  C   UNL     1      14.545   3.669  18.016  1.00  0.00    -0.076 C 
ATOM      3  C   UNL     1      13.416   4.154  18.557  1.00  0.00    -0.020 C 
ATOM      4  C   UNL     1      12.637   5.260  17.878  1.00  0.00     0.041 C 
ATOM      5  C   UNL     1      11.645   5.978  18.833  1.00  0.00     0.003 C 
ATOM      6  C   UNL     1      10.881   7.021  17.998  1.00  0.00     0.009 C 
ATOM      7  C   UNL     1      11.821   8.067  17.389  1.00  0.00     0.031 C 
ATOM      8  C   UNL     1      13.118   7.500  16.833  1.00  0.00    -0.073 C 
ATOM      9  C   UNL     1      13.540   6.232  17.116  1.00  0.00    -0.064 C 
ATOM     10  C   UNL     1      14.897   5.734  16.631  1.00  0.00     0.036 C 
ATOM     11  C   UNL     1      15.018   4.207  16.688  1.00  0.00     0.035 C 
ATOM     12  C   UNL     1      13.996   8.465  16.071  1.00  0.00     0.039 C 
ENDROOT
BRANCH   5  13
ATOM     13  C   UNL     1      12.208   6.596  20.176  1.00  0.00    -0.013 C 
ATOM     14  C   UNL     1      11.491   7.903  20.556  1.00  0.00     0.007 C 
ATOM     15  C   UNL     1      12.245   5.654  21.394  1.00  0.00     0.007 C 
ENDBRANCH   5  13
TORSDOF 1
ENDMDL
MODEL 7
REMARK VINA RESULT:    -4.366      1.140      5.139
REMARK INTER + INTRA:          -4.588
REMARK INTER:                  -4.612
REMARK INTRA:                   0.024
REMARK UNBOUND:                 0.032
REMARK SMILES CC1=C[C@@H]2C(=C(C)CC[C@@H]2C(C)C)CC1
REMARK SMILES IDX 1 1 2 2 3 3 4 4 10 5 9 6 8 7 6 8 5 9 14 10 15 11 7 12 11 13
REMARK SMILES IDX 12 14 13 15
REMARK H PARENT
REMARK Flexibility Score: inf
ROOT
ATOM      1  C   UNL     1      17.419   3.512  18.002  1.00  0.00     0.039 C 
ATOM      2  C   UNL     1      16.617   4.543  17.257  1.00  0.00    -0.076 C 
ATOM      3  C   UNL     1      15.288   4.395  17.132  1.00  0.00    -0.020 C 
ATOM      4  C   UNL     1      14.454   5.426  16.403  1.00  0.00     0.041 C 
ATOM      5  C   UNL     1      12.939   5.325  16.734  1.00  0.00     0.003 C 
ATOM      6  C   UNL     1      12.213   6.378  15.878  1.00  0.00     0.009 C 
ATOM      7  C   UNL     1      12.691   7.799  16.192  1.00  0.00     0.031 C 
ATOM      8  C   UNL     1      14.194   7.931  16.384  1.00  0.00    -0.073 C 
ATOM      9  C   UNL     1      15.004   6.845  16.559  1.00  0.00    -0.064 C 
ATOM     10  C   UNL     1      16.489   7.018  16.857  1.00  0.00     0.036 C 
ATOM     11  C   UNL     1      17.291   5.733  16.621  1.00  0.00     0.035 C 
ATOM     12  C   UNL     1      14.730   9.337  16.523  1.00  0.00     0.039 C 
ENDROOT
BRANCH   5  13
ATOM     13  C   UNL     1      12.496   5.391  18.251  1.00  0.00    -0.013 C 
ATOM     14  C   UNL     1      11.027   5.823  18.405  1.00  0.00     0.007 C 
ATOM     15  C   UNL     1      12.752   4.125  19.090  1.00  0.00     0.007 C 
ENDBRANCH   5  13
TORSDOF 1
ENDMDL
MODEL 8
REMARK VINA RESULT:    -4.299      7.097      9.475
REMARK INTER + INTRA:          -4.518
REMARK INTER:                  -4.543
REMARK INTRA:                   0.025
REMARK UNBOUND:                 0.032
REMARK SMILES CC1=C[C@@H]2C(=C(C)CC[C@@H]2C(C)C)CC1
REMARK SMILES IDX 1 1 2 2 3 3 4 4 10 5 9 6 8 7 6 8 5 9 14 10 15 11 7 12 11 13
REMARK SMILES IDX 12 14 13 15
REMARK H PARENT
REMARK Flexibility Score: inf
ROOT
ATOM      1  C   UNL     1      21.827   4.058  16.163  1.00  0.00     0.039 C 
ATOM      2  C   UNL     1      21.229   2.738  16.565  1.00  0.00    -0.076 C 
ATOM      3  C   UNL     1      22.031   1.707  16.877  1.00  0.00    -0.020 C 
ATOM      4  C   UNL     1      21.457   0.373  17.303  1.00  0.00     0.041 C 
ATOM      5  C   UNL     1      22.492  -0.528  18.031  1.00  0.00     0.003 C 
ATOM      6  C   UNL     1      21.795  -1.865  18.341  1.00  0.00     0.009 C 
ATOM      7  C   UNL     1      20.578  -1.679  19.252  1.00  0.00     0.031 C 
ATOM      8  C   UNL     1      19.715  -0.473  18.913  1.00  0.00    -0.073 C 
ATOM      9  C   UNL     1      20.144   0.517  18.075  1.00  0.00    -0.064 C 
ATOM     10  C   UNL     1      19.299   1.765  17.842  1.00  0.00     0.036 C 
ATOM     11  C   UNL     1      19.733   2.546  16.597  1.00  0.00     0.035 C 
ATOM     12  C   UNL     1      18.415  -0.346  19.671  1.00  0.00     0.039 C 
ENDROOT
BRANCH   5  13
ATOM     13  C   UNL     1      23.235   0.056  19.299  1.00  0.00    -0.013 C 
ATOM     14  C   UNL     1      23.752  -1.055  20.228  1.00  0.00     0.007 C 
ATOM     15  C   UNL     1      24.367   1.063  19.018  1.00  0.00     0.007 C 
ENDBRANCH   5  13
TORSDOF 1
ENDMDL
MODEL 9
REMARK VINA RESULT:    -4.185      2.494      3.452
REMARK INTER + INTRA:          -4.397
REMARK INTER:                  -4.421
REMARK INTRA:                   0.023
REMARK UNBOUND:                 0.032
REMARK SMILES CC1=C[C@@H]2C(=C(C)CC[C@@H]2C(C)C)CC1
REMARK SMILES IDX 1 1 2 2 3 3 4 4 10 5 9 6 8 7 6 8 5 9 14 10 15 11 7 12 11 13
REMARK SMILES IDX 12 14 13 15
REMARK H PARENT
REMARK Flexibility Score: inf
ROOT
ATOM      1  C   UNL     1      11.451   8.660  22.236  1.00  0.00     0.039 C 
ATOM      2  C   UNL     1      11.627   7.346  21.528  1.00  0.00    -0.076 C 
ATOM      3  C   UNL     1      11.732   7.315  20.189  1.00  0.00    -0.020 C 
ATOM      4  C   UNL     1      11.929   6.009  19.452  1.00  0.00     0.041 C 
ATOM      5  C   UNL     1      12.460   6.203  18.005  1.00  0.00     0.003 C 
ATOM      6  C   UNL     1      12.545   4.809  17.358  1.00  0.00     0.009 C 
ATOM      7  C   UNL     1      13.505   3.885  18.115  1.00  0.00     0.031 C 
ATOM      8  C   UNL     1      13.406   3.977  19.630  1.00  0.00    -0.073 C 
ATOM      9  C   UNL     1      12.746   4.996  20.256  1.00  0.00    -0.064 C 
ATOM     10  C   UNL     1      12.759   5.118  21.776  1.00  0.00     0.036 C 
ATOM     11  C   UNL     1      11.662   6.051  22.301  1.00  0.00     0.035 C 
ATOM     12  C   UNL     1      14.207   2.965  20.416  1.00  0.00     0.039 C 
ENDROOT
BRANCH   5  13
ATOM     13  C   UNL     1      13.792   7.030  17.799  1.00  0.00    -0.013 C 
ATOM     14  C   UNL     1      14.485   6.689  16.469  1.00  0.00     0.007 C 
ATOM     15  C   UNL     1      13.672   8.559  17.941  1.00  0.00     0.007 C 
ENDBRANCH   5  13
TORSDOF 1
ENDMDL
