MODEL 1
REMARK VINA RESULT:    -1.226      0.000      0.000
REMARK INTER + INTRA:          -1.226
REMARK INTER:                  -1.226
REMARK INTRA:                   0.000
REMARK UNBOUND:                 0.000
REMARK SMILES CC(=O)[O-]
REMARK SMILES IDX 1 1 2 2 3 3 4 4
REMARK H PARENT
REMARK Flexibility Score: inf
ROOT
ATOM      1  C   UNL     1      53.938  56.004  24.572  1.00  0.00     0.063 C 
ATOM      2  C   UNL     1      55.408  56.251  24.562  1.00  0.00     0.038 C 
ATOM      3  O   UNL     1      56.088  55.977  23.539  1.00  0.00    -0.550 OA
ATOM      4  O   UNL     1      56.041  56.732  25.702  1.00  0.00    -0.550 OA
ENDROOT
TORSDOF 0
ENDMDL
MODEL 2
REMARK VINA RESULT:    -1.097      1.848      2.138
REMARK INTER + INTRA:          -1.097
REMARK INTER:                  -1.097
REMARK INTRA:                   0.000
REMARK UNBOUND:                 0.000
REMARK SMILES CC(=O)[O-]
REMARK SMILES IDX 1 1 2 2 3 3 4 4
REMARK H PARENT
REMARK Flexibility Score: inf
ROOT
ATOM      1  C   UNL     1      56.118  56.034  24.625  1.00  0.00     0.063 C 
ATOM      2  C   UNL     1      54.682  56.163  24.246  1.00  0.00     0.038 C 
ATOM      3  O   UNL     1      54.301  57.125  23.529  1.00  0.00    -0.550 OA
ATOM      4  O   UNL     1      53.750  55.253  24.729  1.00  0.00    -0.550 OA
ENDROOT
TORSDOF 0
ENDMDL
MODEL 3
REMARK VINA RESULT:    -1.009      1.879      2.279
REMARK INTER + INTRA:          -1.009
REMARK INTER:                  -1.009
REMARK INTRA:                   0.000
REMARK UNBOUND:                 0.000
REMARK SMILES CC(=O)[O-]
REMARK SMILES IDX 1 1 2 2 3 3 4 4
REMARK H PARENT
REMARK Flexibility Score: inf
ROOT
ATOM      1  C   UNL     1      56.008  56.003  24.826  1.00  0.00     0.063 C 
ATOM      2  C   UNL     1      54.600  56.104  24.346  1.00  0.00     0.038 C 
ATOM      3  O   UNL     1      53.751  55.240  24.687  1.00  0.00    -0.550 OA
ATOM      4  O   UNL     1      54.234  57.123  23.475  1.00  0.00    -0.550 OA
ENDROOT
TORSDOF 0
ENDMDL
MODEL 4
REMARK VINA RESULT:    -0.007      1.760      1.814
REMARK INTER + INTRA:          -0.007
REMARK INTER:                  -0.007
REMARK INTRA:                   0.000
REMARK UNBOUND:                 0.000
REMARK SMILES CC(=O)[O-]
REMARK SMILES IDX 1 1 2 2 3 3 4 4
REMARK H PARENT
REMARK Flexibility Score: inf
ROOT
ATOM      1  C   UNL     1      55.836  55.792  23.769  1.00  0.00     0.063 C 
ATOM      2  C   UNL     1      55.988  56.438  25.103  1.00  0.00     0.038 C 
ATOM      3  O   UNL     1      54.991  56.951  25.675  1.00  0.00    -0.550 OA
ATOM      4  O   UNL     1      57.242  56.525  25.696  1.00  0.00    -0.550 OA
ENDROOT
TORSDOF 0
ENDMDL
MODEL 5
REMARK VINA RESULT:     0.597     12.125     12.446
REMARK INTER + INTRA:           0.597
REMARK INTER:                   0.597
REMARK INTRA:                   0.000
REMARK UNBOUND:                 0.000
REMARK SMILES CC(=O)[O-]
REMARK SMILES IDX 1 1 2 2 3 3 4 4
REMARK H PARENT
REMARK Flexibility Score: inf
ROOT
ATOM      1  C   UNL     1      45.691  47.824  29.203  1.00  0.00     0.063 C 
ATOM      2  C   UNL     1      46.632  48.315  28.157  1.00  0.00     0.038 C 
ATOM      3  O   UNL     1      47.865  48.079  28.254  1.00  0.00    -0.550 OA
ATOM      4  O   UNL     1      46.160  49.082  27.099  1.00  0.00    -0.550 OA
ENDROOT
TORSDOF 0
ENDMDL
MODEL 6
REMARK VINA RESULT:     0.972     12.120     12.440
REMARK INTER + INTRA:           0.972
REMARK INTER:                   0.972
REMARK INTRA:                   0.000
REMARK UNBOUND:                 0.000
REMARK SMILES CC(=O)[O-]
REMARK SMILES IDX 1 1 2 2 3 3 4 4
REMARK H PARENT
REMARK Flexibility Score: inf
ROOT
ATOM      1  C   UNL     1      46.177  49.075  27.126  1.00  0.00     0.063 C 
ATOM      2  C   UNL     1      46.692  48.266  28.267  1.00  0.00     0.038 C 
ATOM      3  O   UNL     1      47.907  47.939  28.314  1.00  0.00    -0.550 OA
ATOM      4  O   UNL     1      45.821  47.823  29.255  1.00  0.00    -0.550 OA
ENDROOT
TORSDOF 0
ENDMDL
MODEL 7
REMARK VINA RESULT:     1.620     12.526     12.829
REMARK INTER + INTRA:           1.620
REMARK INTER:                   1.620
REMARK INTRA:                   0.000
REMARK UNBOUND:                 0.000
REMARK SMILES CC(=O)[O-]
REMARK SMILES IDX 1 1 2 2 3 3 4 4
REMARK H PARENT
REMARK Flexibility Score: inf
ROOT
ATOM      1  C   UNL     1      47.832  47.706  28.382  1.00  0.00     0.063 C 
ATOM      2  C   UNL     1      46.399  48.112  28.455  1.00  0.00     0.038 C 
ATOM      3  O   UNL     1      45.904  48.846  27.560  1.00  0.00    -0.550 OA
ATOM      4  O   UNL     1      45.621  47.727  29.539  1.00  0.00    -0.550 OA
ENDROOT
TORSDOF 0
ENDMDL
