MODEL 1
REMARK VINA RESULT:    -0.037      0.000      0.000
REMARK INTER + INTRA:          -2.169
REMARK INTER:                  -0.097
REMARK INTRA:                  -2.072
REMARK UNBOUND:                -2.072
REMARK SMILES CCCCCCCCCCCCCCCCCCCCCCCCCCCCCC(=O)[O-]
REMARK SMILES IDX 16 1 17 2 18 3 19 4 20 5 21 6 22 7 23 8 24 9 25 10 26 11
REMARK SMILES IDX 27 12 28 13 29 14 30 15 31 16 32 17 15 18 14 19 13 20 12 21
REMARK SMILES IDX 11 22 10 23 9 24 8 25 7 26 6 27 5 28 4 29 3 30 2 31 1 32
REMARK H PARENT
REMARK Flexibility Score: inf
ROOT
ATOM      1  C   UNL     1     -17.508  44.308  -7.618  1.00  0.00     0.000 C 
ENDROOT
BRANCH   1   2
ATOM      2  C   UNL     1     -18.960  44.801  -7.732  1.00  0.00     0.000 C 
BRANCH   2   3
ATOM      3  C   UNL     1     -19.705  44.205  -8.936  1.00  0.00     0.000 C 
BRANCH   3   4
ATOM      4  C   UNL     1     -18.748  43.395  -9.825  1.00  0.00     0.000 C 
BRANCH   4   5
ATOM      5  C   UNL     1     -18.274  44.195 -11.057  1.00  0.00     0.000 C 
BRANCH   5   6
ATOM      6  C   UNL     1     -18.370  45.718 -10.876  1.00  0.00     0.000 C 
BRANCH   6   7
ATOM      7  C   UNL     1     -17.034  46.353 -10.460  1.00  0.00     0.000 C 
BRANCH   7   8
ATOM      8  C   UNL     1     -15.827  45.674 -11.125  1.00  0.00     0.000 C 
BRANCH   8   9
ATOM      9  C   UNL     1     -14.538  45.804 -10.293  1.00  0.00     0.000 C 
BRANCH   9  10
ATOM     10  C   UNL     1     -14.766  45.515  -8.801  1.00  0.00     0.000 C 
BRANCH  10  11
ATOM     11  C   UNL     1     -13.953  46.445  -7.887  1.00  0.00     0.000 C 
BRANCH  11  12
ATOM     12  C   UNL     1     -14.807  47.628  -7.407  1.00  0.00     0.000 C 
BRANCH  12  13
ATOM     13  C   UNL     1     -14.698  48.852  -8.332  1.00  0.00     0.006 C 
BRANCH  13  14
ATOM     14  C   UNL     1     -14.435  50.154  -7.562  1.00  0.00     0.053 C 
BRANCH  14  15
ATOM     15  C   UNL     1     -14.414  51.320  -8.498  1.00  0.00     0.041 C 
ATOM     16  O   UNL     1     -14.458  51.134  -9.743  1.00  0.00    -0.550 OA
ATOM     17  O   UNL     1     -14.403  52.615  -7.995  1.00  0.00    -0.550 OA
ENDBRANCH  14  15
ENDBRANCH  13  14
ENDBRANCH  12  13
ENDBRANCH  11  12
ENDBRANCH  10  11
ENDBRANCH   9  10
ENDBRANCH   8   9
ENDBRANCH   7   8
ENDBRANCH   6   7
ENDBRANCH   5   6
ENDBRANCH   4   5
ENDBRANCH   3   4
ENDBRANCH   2   3
ENDBRANCH   1   2
BRANCH   1  18
ATOM     18  C   UNL     1     -17.262  43.473  -6.351  1.00  0.00     0.000 C 
BRANCH  18  19
ATOM     19  C   UNL     1     -18.424  43.557  -5.344  1.00  0.00     0.000 C 
BRANCH  19  20
ATOM     20  C   UNL     1     -18.031  43.357  -3.863  1.00  0.00     0.000 C 
BRANCH  20  21
ATOM     21  C   UNL     1     -19.181  43.489  -2.848  1.00  0.00     0.000 C 
BRANCH  21  22
ATOM     22  C   UNL     1     -20.073  42.237  -2.786  1.00  0.00     0.000 C 
BRANCH  22  23
ATOM     23  C   UNL     1     -19.824  41.387  -1.527  1.00  0.00     0.000 C 
BRANCH  23  24
ATOM     24  C   UNL     1     -20.566  41.853  -0.262  1.00  0.00    -0.000 C 
BRANCH  24  25
ATOM     25  C   UNL     1     -21.360  40.724   0.418  1.00  0.00    -0.000 C 
BRANCH  25  26
ATOM     26  C   UNL     1     -22.225  41.234   1.583  1.00  0.00    -0.000 C 
BRANCH  26  27
ATOM     27  C   UNL     1     -21.745  42.596   2.118  1.00  0.00    -0.000 C 
BRANCH  27  28
ATOM     28  C   UNL     1     -22.147  42.840   3.584  1.00  0.00    -0.000 C 
BRANCH  28  29
ATOM     29  C   UNL     1     -22.352  41.564   4.423  1.00  0.00    -0.000 C 
BRANCH  29  30
ATOM     30  C   UNL     1     -23.087  41.829   5.745  1.00  0.00    -0.000 C 
BRANCH  30  31
ATOM     31  C   UNL     1     -24.039  43.023   5.613  1.00  0.00    -0.003 C 
ATOM     32  C   UNL     1     -25.434  42.679   6.129  1.00  0.00     0.004 C 
ENDBRANCH  30  31
ENDBRANCH  29  30
ENDBRANCH  28  29
ENDBRANCH  27  28
ENDBRANCH  26  27
ENDBRANCH  25  26
ENDBRANCH  24  25
ENDBRANCH  23  24
ENDBRANCH  22  23
ENDBRANCH  21  22
ENDBRANCH  20  21
ENDBRANCH  19  20
ENDBRANCH  18  19
ENDBRANCH   1  18
TORSDOF 28
ENDMDL
MODEL 2
REMARK VINA RESULT:     0.453      2.335      3.847
REMARK INTER + INTRA:          -0.878
REMARK INTER:                   0.904
REMARK INTRA:                  -1.782
REMARK UNBOUND:                -2.072
REMARK SMILES CCCCCCCCCCCCCCCCCCCCCCCCCCCCCC(=O)[O-]
REMARK SMILES IDX 16 1 17 2 18 3 19 4 20 5 21 6 22 7 23 8 24 9 25 10 26 11
REMARK SMILES IDX 27 12 28 13 29 14 30 15 31 16 32 17 15 18 14 19 13 20 12 21
REMARK SMILES IDX 11 22 10 23 9 24 8 25 7 26 6 27 5 28 4 29 3 30 2 31 1 32
REMARK H PARENT
REMARK Flexibility Score: inf
ROOT
ATOM      1  C   UNL     1     -18.831  44.856  -7.639  1.00  0.00     0.000 C 
ENDROOT
BRANCH   1   2
ATOM      2  C   UNL     1     -20.107  44.435  -8.386  1.00  0.00     0.000 C 
BRANCH   2   3
ATOM      3  C   UNL     1     -19.819  43.618  -9.655  1.00  0.00     0.000 C 
BRANCH   3   4
ATOM      4  C   UNL     1     -18.600  42.705  -9.452  1.00  0.00     0.000 C 
BRANCH   4   5
ATOM      5  C   UNL     1     -17.434  43.065 -10.397  1.00  0.00     0.000 C 
BRANCH   5   6
ATOM      6  C   UNL     1     -17.620  44.410 -11.118  1.00  0.00     0.000 C 
BRANCH   6   7
ATOM      7  C   UNL     1     -16.886  45.565 -10.419  1.00  0.00     0.000 C 
BRANCH   7   8
ATOM      8  C   UNL     1     -15.438  45.726 -10.908  1.00  0.00     0.000 C 
BRANCH   8   9
ATOM      9  C   UNL     1     -14.421  45.771  -9.754  1.00  0.00     0.000 C 
BRANCH   9  10
ATOM     10  C   UNL     1     -15.076  46.089  -8.401  1.00  0.00     0.000 C 
BRANCH  10  11
ATOM     11  C   UNL     1     -14.750  47.507  -7.906  1.00  0.00     0.000 C 
BRANCH  11  12
ATOM     12  C   UNL     1     -14.079  48.335  -9.012  1.00  0.00     0.000 C 
BRANCH  12  13
ATOM     13  C   UNL     1     -14.572  49.791  -9.045  1.00  0.00     0.006 C 
BRANCH  13  14
ATOM     14  C   UNL     1     -14.305  50.536  -7.729  1.00  0.00     0.053 C 
BRANCH  14  15
ATOM     15  C   UNL     1     -14.391  52.015  -7.938  1.00  0.00     0.041 C 
ATOM     16  O   UNL     1     -14.299  52.496  -9.099  1.00  0.00    -0.550 OA
ATOM     17  O   UNL     1     -14.629  52.856  -6.860  1.00  0.00    -0.550 OA
ENDBRANCH  14  15
ENDBRANCH  13  14
ENDBRANCH  12  13
ENDBRANCH  11  12
ENDBRANCH  10  11
ENDBRANCH   9  10
ENDBRANCH   8   9
ENDBRANCH   7   8
ENDBRANCH   6   7
ENDBRANCH   5   6
ENDBRANCH   4   5
ENDBRANCH   3   4
ENDBRANCH   2   3
ENDBRANCH   1   2
BRANCH   1  18
ATOM     18  C   UNL     1     -18.486  43.911  -6.476  1.00  0.00     0.000 C 
BRANCH  18  19
ATOM     19  C   UNL     1     -19.126  44.343  -5.144  1.00  0.00     0.000 C 
BRANCH  19  20
ATOM     20  C   UNL     1     -18.473  43.754  -3.874  1.00  0.00     0.000 C 
BRANCH  20  21
ATOM     21  C   UNL     1     -19.449  43.309  -2.769  1.00  0.00     0.000 C 
BRANCH  21  22
ATOM     22  C   UNL     1     -19.997  41.889  -2.990  1.00  0.00     0.000 C 
BRANCH  22  23
ATOM     23  C   UNL     1     -20.136  41.092  -1.680  1.00  0.00     0.000 C 
BRANCH  23  24
ATOM     24  C   UNL     1     -20.733  41.873  -0.497  1.00  0.00    -0.000 C 
BRANCH  24  25
ATOM     25  C   UNL     1     -21.521  40.978   0.477  1.00  0.00    -0.000 C 
BRANCH  25  26
ATOM     26  C   UNL     1     -21.497  39.497   0.060  1.00  0.00    -0.000 C 
BRANCH  26  27
ATOM     27  C   UNL     1     -22.305  38.604   1.019  1.00  0.00    -0.000 C 
BRANCH  27  28
ATOM     28  C   UNL     1     -21.805  37.148   1.047  1.00  0.00    -0.000 C 
BRANCH  28  29
ATOM     29  C   UNL     1     -20.275  36.986   1.129  1.00  0.00    -0.000 C 
BRANCH  29  30
ATOM     30  C   UNL     1     -19.699  36.154  -0.025  1.00  0.00    -0.000 C 
BRANCH  30  31
ATOM     31  C   UNL     1     -20.225  34.716   0.020  1.00  0.00    -0.003 C 
ATOM     32  C   UNL     1     -20.302  34.111  -1.380  1.00  0.00     0.004 C 
ENDBRANCH  30  31
ENDBRANCH  29  30
ENDBRANCH  28  29
ENDBRANCH  27  28
ENDBRANCH  26  27
ENDBRANCH  25  26
ENDBRANCH  24  25
ENDBRANCH  23  24
ENDBRANCH  22  23
ENDBRANCH  21  22
ENDBRANCH  20  21
ENDBRANCH  19  20
ENDBRANCH  18  19
ENDBRANCH   1  18
TORSDOF 28
ENDMDL
MODEL 3
REMARK VINA RESULT:     0.487      6.083     11.731
REMARK INTER + INTRA:          -0.788
REMARK INTER:                  -0.041
REMARK INTRA:                  -0.747
REMARK UNBOUND:                -2.072
REMARK SMILES CCCCCCCCCCCCCCCCCCCCCCCCCCCCCC(=O)[O-]
REMARK SMILES IDX 16 1 17 2 18 3 19 4 20 5 21 6 22 7 23 8 24 9 25 10 26 11
REMARK SMILES IDX 27 12 28 13 29 14 30 15 31 16 32 17 15 18 14 19 13 20 12 21
REMARK SMILES IDX 11 22 10 23 9 24 8 25 7 26 6 27 5 28 4 29 3 30 2 31 1 32
REMARK H PARENT
REMARK Flexibility Score: inf
ROOT
ATOM      1  C   UNL     1     -19.829  45.286  -6.039  1.00  0.00     0.000 C 
ENDROOT
BRANCH   1   2
ATOM      2  C   UNL     1     -19.331  44.102  -5.194  1.00  0.00     0.000 C 
BRANCH   2   3
ATOM      3  C   UNL     1     -19.168  44.452  -3.707  1.00  0.00     0.000 C 
BRANCH   3   4
ATOM      4  C   UNL     1     -18.307  43.401  -2.989  1.00  0.00     0.000 C 
BRANCH   4   5
ATOM      5  C   UNL     1     -16.870  43.338  -3.549  1.00  0.00     0.000 C 
BRANCH   5   6
ATOM      6  C   UNL     1     -16.812  43.091  -5.066  1.00  0.00     0.000 C 
BRANCH   6   7
ATOM      7  C   UNL     1     -16.761  41.598  -5.424  1.00  0.00     0.000 C 
BRANCH   7   8
ATOM      8  C   UNL     1     -18.086  40.876  -5.132  1.00  0.00     0.000 C 
BRANCH   8   9
ATOM      9  C   UNL     1     -18.367  39.726  -6.115  1.00  0.00     0.000 C 
BRANCH   9  10
ATOM     10  C   UNL     1     -17.677  38.415  -5.704  1.00  0.00     0.000 C 
BRANCH  10  11
ATOM     11  C   UNL     1     -17.561  37.418  -6.867  1.00  0.00     0.000 C 
BRANCH  11  12
ATOM     12  C   UNL     1     -17.736  35.974  -6.372  1.00  0.00     0.000 C 
BRANCH  12  13
ATOM     13  C   UNL     1     -19.202  35.510  -6.406  1.00  0.00     0.006 C 
BRANCH  13  14
ATOM     14  C   UNL     1     -19.844  35.678  -7.790  1.00  0.00     0.053 C 
BRANCH  14  15
ATOM     15  C   UNL     1     -21.059  36.547  -7.702  1.00  0.00     0.041 C 
ATOM     16  O   UNL     1     -21.753  36.770  -8.729  1.00  0.00    -0.550 OA
ATOM     17  O   UNL     1     -21.455  37.064  -6.476  1.00  0.00    -0.550 OA
ENDBRANCH  14  15
ENDBRANCH  13  14
ENDBRANCH  12  13
ENDBRANCH  11  12
ENDBRANCH  10  11
ENDBRANCH   9  10
ENDBRANCH   8   9
ENDBRANCH   7   8
ENDBRANCH   6   7
ENDBRANCH   5   6
ENDBRANCH   4   5
ENDBRANCH   3   4
ENDBRANCH   2   3
ENDBRANCH   1   2
BRANCH   1  18
ATOM     18  C   UNL     1     -20.154  44.887  -7.487  1.00  0.00     0.000 C 
BRANCH  18  19
ATOM     19  C   UNL     1     -18.990  44.155  -8.181  1.00  0.00     0.000 C 
BRANCH  19  20
ATOM     20  C   UNL     1     -19.350  43.450  -9.509  1.00  0.00     0.000 C 
BRANCH  20  21
ATOM     21  C   UNL     1     -18.902  44.178 -10.789  1.00  0.00     0.000 C 
BRANCH  21  22
ATOM     22  C   UNL     1     -17.512  44.825 -10.656  1.00  0.00     0.000 C 
BRANCH  22  23
ATOM     23  C   UNL     1     -16.386  43.790 -10.473  1.00  0.00     0.000 C 
BRANCH  23  24
ATOM     24  C   UNL     1     -15.026  44.188 -11.072  1.00  0.00    -0.000 C 
BRANCH  24  25
ATOM     25  C   UNL     1     -14.221  45.130 -10.158  1.00  0.00    -0.000 C 
BRANCH  25  26
ATOM     26  C   UNL     1     -15.117  46.150  -9.434  1.00  0.00    -0.000 C 
BRANCH  26  27
ATOM     27  C   UNL     1     -15.120  45.949  -7.907  1.00  0.00    -0.000 C 
BRANCH  27  28
ATOM     28  C   UNL     1     -13.966  46.686  -7.203  1.00  0.00    -0.000 C 
BRANCH  28  29
ATOM     29  C   UNL     1     -14.269  48.145  -6.810  1.00  0.00    -0.000 C 
BRANCH  29  30
ATOM     30  C   UNL     1     -14.132  49.122  -7.986  1.00  0.00    -0.000 C 
BRANCH  30  31
ATOM     31  C   UNL     1     -15.020  50.354  -7.782  1.00  0.00    -0.003 C 
ATOM     32  C   UNL     1     -14.581  51.507  -8.681  1.00  0.00     0.004 C 
ENDBRANCH  30  31
ENDBRANCH  29  30
ENDBRANCH  28  29
ENDBRANCH  27  28
ENDBRANCH  26  27
ENDBRANCH  25  26
ENDBRANCH  24  25
ENDBRANCH  23  24
ENDBRANCH  22  23
ENDBRANCH  21  22
ENDBRANCH  20  21
ENDBRANCH  19  20
ENDBRANCH  18  19
ENDBRANCH   1  18
TORSDOF 28
ENDMDL
MODEL 4
REMARK VINA RESULT:     0.695      5.704     13.482
REMARK INTER + INTRA:          -0.239
REMARK INTER:                   1.410
REMARK INTRA:                  -1.650
REMARK UNBOUND:                -2.072
REMARK SMILES CCCCCCCCCCCCCCCCCCCCCCCCCCCCCC(=O)[O-]
REMARK SMILES IDX 16 1 17 2 18 3 19 4 20 5 21 6 22 7 23 8 24 9 25 10 26 11
REMARK SMILES IDX 27 12 28 13 29 14 30 15 31 16 32 17 15 18 14 19 13 20 12 21
REMARK SMILES IDX 11 22 10 23 9 24 8 25 7 26 6 27 5 28 4 29 3 30 2 31 1 32
REMARK H PARENT
REMARK Flexibility Score: inf
ROOT
ATOM      1  C   UNL     1     -19.178  44.926  -6.412  1.00  0.00     0.000 C 
ENDROOT
BRANCH   1   2
ATOM      2  C   UNL     1     -18.708  43.700  -5.611  1.00  0.00     0.000 C 
BRANCH   2   3
ATOM      3  C   UNL     1     -18.790  43.908  -4.092  1.00  0.00     0.000 C 
BRANCH   3   4
ATOM      4  C   UNL     1     -18.668  42.568  -3.349  1.00  0.00     0.000 C 
BRANCH   4   5
ATOM      5  C   UNL     1     -20.014  42.102  -2.755  1.00  0.00     0.000 C 
BRANCH   5   6
ATOM      6  C   UNL     1     -19.890  41.510  -1.342  1.00  0.00     0.000 C 
BRANCH   6   7
ATOM      7  C   UNL     1     -21.026  41.957  -0.408  1.00  0.00     0.000 C 
BRANCH   7   8
ATOM      8  C   UNL     1     -21.358  40.905   0.661  1.00  0.00     0.000 C 
BRANCH   8   9
ATOM      9  C   UNL     1     -21.585  39.503   0.067  1.00  0.00     0.000 C 
BRANCH   9  10
ATOM     10  C   UNL     1     -22.166  38.514   1.090  1.00  0.00     0.000 C 
BRANCH  10  11
ATOM     11  C   UNL     1     -21.787  37.057   0.785  1.00  0.00     0.000 C 
BRANCH  11  12
ATOM     12  C   UNL     1     -20.270  36.847   0.904  1.00  0.00     0.000 C 
BRANCH  12  13
ATOM     13  C   UNL     1     -19.833  35.432   0.492  1.00  0.00     0.006 C 
BRANCH  13  14
ATOM     14  C   UNL     1     -20.746  34.819  -0.579  1.00  0.00     0.053 C 
BRANCH  14  15
ATOM     15  C   UNL     1     -20.128  33.580  -1.147  1.00  0.00     0.041 C 
ATOM     16  O   UNL     1     -20.553  33.101  -2.232  1.00  0.00    -0.550 OA
ATOM     17  O   UNL     1     -19.048  32.987  -0.508  1.00  0.00    -0.550 OA
ENDBRANCH  14  15
ENDBRANCH  13  14
ENDBRANCH  12  13
ENDBRANCH  11  12
ENDBRANCH  10  11
ENDBRANCH   9  10
ENDBRANCH   8   9
ENDBRANCH   7   8
ENDBRANCH   6   7
ENDBRANCH   5   6
ENDBRANCH   4   5
ENDBRANCH   3   4
ENDBRANCH   2   3
ENDBRANCH   1   2
BRANCH   1  18
ATOM     18  C   UNL     1     -18.793  44.847  -7.899  1.00  0.00     0.000 C 
BRANCH  18  19
ATOM     19  C   UNL     1     -19.653  43.841  -8.686  1.00  0.00     0.000 C 
BRANCH  19  20
ATOM     20  C   UNL     1     -19.717  44.077 -10.212  1.00  0.00     0.000 C 
BRANCH  20  21
ATOM     21  C   UNL     1     -18.383  44.455 -10.882  1.00  0.00     0.000 C 
BRANCH  21  22
ATOM     22  C   UNL     1     -17.281  43.404 -10.659  1.00  0.00     0.000 C 
BRANCH  22  23
ATOM     23  C   UNL     1     -15.896  44.032 -10.420  1.00  0.00     0.000 C 
BRANCH  23  24
ATOM     24  C   UNL     1     -15.719  45.461 -10.963  1.00  0.00    -0.000 C 
BRANCH  24  25
ATOM     25  C   UNL     1     -15.419  46.489  -9.858  1.00  0.00    -0.000 C 
BRANCH  25  26
ATOM     26  C   UNL     1     -14.308  46.016  -8.905  1.00  0.00    -0.000 C 
BRANCH  26  27
ATOM     27  C   UNL     1     -14.711  46.142  -7.424  1.00  0.00    -0.000 C 
BRANCH  27  28
ATOM     28  C   UNL     1     -14.117  47.389  -6.745  1.00  0.00    -0.000 C 
BRANCH  28  29
ATOM     29  C   UNL     1     -14.005  48.632  -7.649  1.00  0.00    -0.000 C 
BRANCH  29  30
ATOM     30  C   UNL     1     -14.187  49.948  -6.881  1.00  0.00    -0.000 C 
BRANCH  30  31
ATOM     31  C   UNL     1     -14.850  51.011  -7.764  1.00  0.00    -0.003 C 
ATOM     32  C   UNL     1     -14.230  51.037  -9.158  1.00  0.00     0.004 C 
ENDBRANCH  30  31
ENDBRANCH  29  30
ENDBRANCH  28  29
ENDBRANCH  27  28
ENDBRANCH  26  27
ENDBRANCH  25  26
ENDBRANCH  24  25
ENDBRANCH  23  24
ENDBRANCH  22  23
ENDBRANCH  21  22
ENDBRANCH  20  21
ENDBRANCH  19  20
ENDBRANCH  18  19
ENDBRANCH   1  18
TORSDOF 28
ENDMDL
MODEL 5
REMARK VINA RESULT:     0.842      5.830     13.485
REMARK INTER + INTRA:           0.149
REMARK INTER:                   2.518
REMARK INTRA:                  -2.369
REMARK UNBOUND:                -2.072
REMARK SMILES CCCCCCCCCCCCCCCCCCCCCCCCCCCCCC(=O)[O-]
REMARK SMILES IDX 16 1 17 2 18 3 19 4 20 5 21 6 22 7 23 8 24 9 25 10 26 11
REMARK SMILES IDX 27 12 28 13 29 14 30 15 31 16 32 17 15 18 14 19 13 20 12 21
REMARK SMILES IDX 11 22 10 23 9 24 8 25 7 26 6 27 5 28 4 29 3 30 2 31 1 32
REMARK H PARENT
REMARK Flexibility Score: inf
ROOT
ATOM      1  C   UNL     1     -19.127  45.055  -6.380  1.00  0.00     0.000 C 
ENDROOT
BRANCH   1   2
ATOM      2  C   UNL     1     -18.753  43.697  -5.763  1.00  0.00     0.000 C 
BRANCH   2   3
ATOM      3  C   UNL     1     -18.989  43.641  -4.246  1.00  0.00     0.000 C 
BRANCH   3   4
ATOM      4  C   UNL     1     -18.665  42.244  -3.694  1.00  0.00     0.000 C 
BRANCH   4   5
ATOM      5  C   UNL     1     -19.851  41.629  -2.921  1.00  0.00     0.000 C 
BRANCH   5   6
ATOM      6  C   UNL     1     -19.782  41.862  -1.403  1.00  0.00     0.000 C 
BRANCH   6   7
ATOM      7  C   UNL     1     -21.171  41.903  -0.745  1.00  0.00     0.000 C 
BRANCH   7   8
ATOM      8  C   UNL     1     -21.233  41.080   0.551  1.00  0.00     0.000 C 
BRANCH   8   9
ATOM      9  C   UNL     1     -20.902  39.594   0.329  1.00  0.00     0.000 C 
BRANCH   9  10
ATOM     10  C   UNL     1     -22.156  38.705   0.317  1.00  0.00     0.000 C 
BRANCH  10  11
ATOM     11  C   UNL     1     -22.080  37.562   1.341  1.00  0.00     0.000 C 
BRANCH  11  12
ATOM     12  C   UNL     1     -20.791  36.747   1.161  1.00  0.00     0.000 C 
BRANCH  12  13
ATOM     13  C   UNL     1     -21.046  35.364   0.539  1.00  0.00     0.006 C 
BRANCH  13  14
ATOM     14  C   UNL     1     -20.161  35.093  -0.686  1.00  0.00     0.053 C 
BRANCH  14  15
ATOM     15  C   UNL     1     -20.203  33.643  -1.051  1.00  0.00     0.041 C 
ATOM     16  O   UNL     1     -19.264  32.876  -0.708  1.00  0.00    -0.550 OA
ATOM     17  O   UNL     1     -21.304  33.127  -1.722  1.00  0.00    -0.550 OA
ENDBRANCH  14  15
ENDBRANCH  13  14
ENDBRANCH  12  13
ENDBRANCH  11  12
ENDBRANCH  10  11
ENDBRANCH   9  10
ENDBRANCH   8   9
ENDBRANCH   7   8
ENDBRANCH   6   7
ENDBRANCH   5   6
ENDBRANCH   4   5
ENDBRANCH   3   4
ENDBRANCH   2   3
ENDBRANCH   1   2
BRANCH   1  18
ATOM     18  C   UNL     1     -18.936  45.087  -7.905  1.00  0.00     0.000 C 
BRANCH  18  19
ATOM     19  C   UNL     1     -19.810  44.053  -8.640  1.00  0.00     0.000 C 
BRANCH  19  20
ATOM     20  C   UNL     1     -19.898  44.231 -10.172  1.00  0.00     0.000 C 
BRANCH  20  21
ATOM     21  C   UNL     1     -18.762  45.050 -10.812  1.00  0.00     0.000 C 
BRANCH  21  22
ATOM     22  C   UNL     1     -17.516  44.204 -11.125  1.00  0.00     0.000 C 
BRANCH  22  23
ATOM     23  C   UNL     1     -16.203  44.996 -10.977  1.00  0.00     0.000 C 
BRANCH  23  24
ATOM     24  C   UNL     1     -16.361  46.526 -10.935  1.00  0.00    -0.000 C 
BRANCH  24  25
ATOM     25  C   UNL     1     -15.019  47.270 -11.052  1.00  0.00    -0.000 C 
BRANCH  25  26
ATOM     26  C   UNL     1     -15.193  48.799 -11.039  1.00  0.00    -0.000 C 
BRANCH  26  27
ATOM     27  C   UNL     1     -15.021  49.398  -9.631  1.00  0.00    -0.000 C 
BRANCH  27  28
ATOM     28  C   UNL     1     -14.184  48.505  -8.698  1.00  0.00    -0.000 C 
BRANCH  28  29
ATOM     29  C   UNL     1     -14.974  47.835  -7.557  1.00  0.00    -0.000 C 
BRANCH  29  30
ATOM     30  C   UNL     1     -14.319  46.539  -7.057  1.00  0.00    -0.000 C 
BRANCH  30  31
ATOM     31  C   UNL     1     -14.609  45.375  -8.011  1.00  0.00    -0.003 C 
ATOM     32  C   UNL     1     -15.465  44.307  -7.335  1.00  0.00     0.004 C 
ENDBRANCH  30  31
ENDBRANCH  29  30
ENDBRANCH  28  29
ENDBRANCH  27  28
ENDBRANCH  26  27
ENDBRANCH  25  26
ENDBRANCH  24  25
ENDBRANCH  23  24
ENDBRANCH  22  23
ENDBRANCH  21  22
ENDBRANCH  20  21
ENDBRANCH  19  20
ENDBRANCH  18  19
ENDBRANCH   1  18
TORSDOF 28
ENDMDL
MODEL 6
REMARK VINA RESULT:     1.682      2.976      4.777
REMARK INTER + INTRA:           2.364
REMARK INTER:                   4.211
REMARK INTRA:                  -1.847
REMARK UNBOUND:                -2.072
REMARK SMILES CCCCCCCCCCCCCCCCCCCCCCCCCCCCCC(=O)[O-]
REMARK SMILES IDX 16 1 17 2 18 3 19 4 20 5 21 6 22 7 23 8 24 9 25 10 26 11
REMARK SMILES IDX 27 12 28 13 29 14 30 15 31 16 32 17 15 18 14 19 13 20 12 21
REMARK SMILES IDX 11 22 10 23 9 24 8 25 7 26 6 27 5 28 4 29 3 30 2 31 1 32
REMARK H PARENT
REMARK Flexibility Score: inf
ROOT
ATOM      1  C   UNL     1     -18.254  42.881  -5.552  1.00  0.00     0.000 C 
ENDROOT
BRANCH   1   2
ATOM      2  C   UNL     1     -17.440  43.468  -6.717  1.00  0.00     0.000 C 
BRANCH   2   3
ATOM      3  C   UNL     1     -18.088  44.716  -7.334  1.00  0.00     0.000 C 
BRANCH   3   4
ATOM      4  C   UNL     1     -19.471  44.384  -7.916  1.00  0.00     0.000 C 
BRANCH   4   5
ATOM      5  C   UNL     1     -19.480  44.409  -9.459  1.00  0.00     0.000 C 
BRANCH   5   6
ATOM      6  C   UNL     1     -18.291  45.170 -10.068  1.00  0.00     0.000 C 
BRANCH   6   7
ATOM      7  C   UNL     1     -17.476  44.313 -11.049  1.00  0.00     0.000 C 
BRANCH   7   8
ATOM      8  C   UNL     1     -16.001  44.737 -11.119  1.00  0.00     0.000 C 
BRANCH   8   9
ATOM      9  C   UNL     1     -15.428  45.126  -9.744  1.00  0.00     0.000 C 
BRANCH   9  10
ATOM     10  C   UNL     1     -14.469  46.325  -9.820  1.00  0.00     0.000 C 
BRANCH  10  11
ATOM     11  C   UNL     1     -14.623  47.122 -11.125  1.00  0.00     0.000 C 
BRANCH  11  12
ATOM     12  C   UNL     1     -14.891  48.606 -10.834  1.00  0.00     0.000 C 
BRANCH  12  13
ATOM     13  C   UNL     1     -14.546  48.998  -9.388  1.00  0.00     0.006 C 
BRANCH  13  14
ATOM     14  C   UNL     1     -14.383  50.514  -9.208  1.00  0.00     0.053 C 
BRANCH  14  15
ATOM     15  C   UNL     1     -14.863  50.935  -7.855  1.00  0.00     0.041 C 
ATOM     16  O   UNL     1     -14.630  50.216  -6.848  1.00  0.00    -0.550 OA
ATOM     17  O   UNL     1     -15.520  52.149  -7.698  1.00  0.00    -0.550 OA
ENDBRANCH  14  15
ENDBRANCH  13  14
ENDBRANCH  12  13
ENDBRANCH  11  12
ENDBRANCH  10  11
ENDBRANCH   9  10
ENDBRANCH   8   9
ENDBRANCH   7   8
ENDBRANCH   6   7
ENDBRANCH   5   6
ENDBRANCH   4   5
ENDBRANCH   3   4
ENDBRANCH   2   3
ENDBRANCH   1   2
BRANCH   1  18
ATOM     18  C   UNL     1     -18.151  43.725  -4.271  1.00  0.00     0.000 C 
BRANCH  18  19
ATOM     19  C   UNL     1     -19.273  43.421  -3.262  1.00  0.00     0.000 C 
BRANCH  19  20
ATOM     20  C   UNL     1     -19.617  41.925  -3.085  1.00  0.00     0.000 C 
BRANCH  20  21
ATOM     21  C   UNL     1     -20.625  41.602  -1.967  1.00  0.00     0.000 C 
BRANCH  21  22
ATOM     22  C   UNL     1     -19.960  41.434  -0.590  1.00  0.00     0.000 C 
BRANCH  22  23
ATOM     23  C   UNL     1     -20.902  40.810   0.457  1.00  0.00     0.000 C 
BRANCH  23  24
ATOM     24  C   UNL     1     -21.515  39.455   0.063  1.00  0.00    -0.000 C 
BRANCH  24  25
ATOM     25  C   UNL     1     -22.376  38.840   1.181  1.00  0.00    -0.000 C 
BRANCH  25  26
ATOM     26  C   UNL     1     -22.702  37.359   0.921  1.00  0.00    -0.000 C 
BRANCH  26  27
ATOM     27  C   UNL     1     -21.594  36.416   1.424  1.00  0.00    -0.000 C 
BRANCH  27  28
ATOM     28  C   UNL     1     -20.256  36.618   0.691  1.00  0.00    -0.000 C 
BRANCH  28  29
ATOM     29  C   UNL     1     -19.724  35.375  -0.048  1.00  0.00    -0.000 C 
BRANCH  29  30
ATOM     30  C   UNL     1     -20.735  34.798  -1.050  1.00  0.00    -0.000 C 
BRANCH  30  31
ATOM     31  C   UNL     1     -20.374  33.357  -1.425  1.00  0.00    -0.003 C 
ATOM     32  C   UNL     1     -19.147  32.875  -0.654  1.00  0.00     0.004 C 
ENDBRANCH  30  31
ENDBRANCH  29  30
ENDBRANCH  28  29
ENDBRANCH  27  28
ENDBRANCH  26  27
ENDBRANCH  25  26
ENDBRANCH  24  25
ENDBRANCH  23  24
ENDBRANCH  22  23
ENDBRANCH  21  22
ENDBRANCH  20  21
ENDBRANCH  19  20
ENDBRANCH  18  19
ENDBRANCH   1  18
TORSDOF 28
ENDMDL
MODEL 7
REMARK VINA RESULT:     2.170      6.533     11.125
REMARK INTER + INTRA:           3.651
REMARK INTER:                   6.020
REMARK INTRA:                  -2.370
REMARK UNBOUND:                -2.072
REMARK SMILES CCCCCCCCCCCCCCCCCCCCCCCCCCCCCC(=O)[O-]
REMARK SMILES IDX 16 1 17 2 18 3 19 4 20 5 21 6 22 7 23 8 24 9 25 10 26 11
REMARK SMILES IDX 27 12 28 13 29 14 30 15 31 16 32 17 15 18 14 19 13 20 12 21
REMARK SMILES IDX 11 22 10 23 9 24 8 25 7 26 6 27 5 28 4 29 3 30 2 31 1 32
REMARK H PARENT
REMARK Flexibility Score: inf
ROOT
ATOM      1  C   UNL     1     -20.268  44.639  -6.757  1.00  0.00     0.000 C 
ENDROOT
BRANCH   1   2
ATOM      2  C   UNL     1     -20.016  44.864  -8.257  1.00  0.00     0.000 C 
BRANCH   2   3
ATOM      3  C   UNL     1     -18.599  45.377  -8.557  1.00  0.00     0.000 C 
BRANCH   3   4
ATOM      4  C   UNL     1     -18.375  45.510 -10.071  1.00  0.00     0.000 C 
BRANCH   4   5
ATOM      5  C   UNL     1     -17.803  44.220 -10.695  1.00  0.00     0.000 C 
BRANCH   5   6
ATOM      6  C   UNL     1     -17.619  43.077  -9.683  1.00  0.00     0.000 C 
BRANCH   6   7
ATOM      7  C   UNL     1     -18.781  42.071  -9.706  1.00  0.00     0.000 C 
BRANCH   7   8
ATOM      8  C   UNL     1     -18.745  41.103  -8.513  1.00  0.00     0.000 C 
BRANCH   8   9
ATOM      9  C   UNL     1     -18.249  41.771  -7.218  1.00  0.00     0.000 C 
BRANCH   9  10
ATOM     10  C   UNL     1     -18.321  40.832  -6.004  1.00  0.00     0.000 C 
BRANCH  10  11
ATOM     11  C   UNL     1     -18.557  39.367  -6.402  1.00  0.00     0.000 C 
BRANCH  11  12
ATOM     12  C   UNL     1     -17.519  38.445  -5.744  1.00  0.00     0.000 C 
BRANCH  12  13
ATOM     13  C   UNL     1     -17.609  36.996  -6.250  1.00  0.00     0.006 C 
BRANCH  13  14
ATOM     14  C   UNL     1     -18.193  36.898  -7.666  1.00  0.00     0.053 C 
BRANCH  14  15
ATOM     15  C   UNL     1     -19.529  36.226  -7.636  1.00  0.00     0.041 C 
ATOM     16  O   UNL     1     -19.951  35.703  -6.570  1.00  0.00    -0.550 OA
ATOM     17  O   UNL     1     -20.332  36.225  -8.769  1.00  0.00    -0.550 OA
ENDBRANCH  14  15
ENDBRANCH  13  14
ENDBRANCH  12  13
ENDBRANCH  11  12
ENDBRANCH  10  11
ENDBRANCH   9  10
ENDBRANCH   8   9
ENDBRANCH   7   8
ENDBRANCH   6   7
ENDBRANCH   5   6
ENDBRANCH   4   5
ENDBRANCH   3   4
ENDBRANCH   2   3
ENDBRANCH   1   2
BRANCH   1  18
ATOM     18  C   UNL     1     -18.994  44.789  -5.911  1.00  0.00     0.000 C 
BRANCH  18  19
ATOM     19  C   UNL     1     -19.128  44.161  -4.511  1.00  0.00     0.000 C 
BRANCH  19  20
ATOM     20  C   UNL     1     -17.800  43.732  -3.848  1.00  0.00     0.000 C 
BRANCH  20  21
ATOM     21  C   UNL     1     -16.812  42.985  -4.763  1.00  0.00     0.000 C 
BRANCH  21  22
ATOM     22  C   UNL     1     -15.734  43.906  -5.359  1.00  0.00     0.000 C 
BRANCH  22  23
ATOM     23  C   UNL     1     -15.718  43.890  -6.899  1.00  0.00     0.000 C 
BRANCH  23  24
ATOM     24  C   UNL     1     -14.672  44.809  -7.554  1.00  0.00    -0.000 C 
BRANCH  24  25
ATOM     25  C   UNL     1     -14.831  46.284  -7.146  1.00  0.00    -0.000 C 
BRANCH  25  26
ATOM     26  C   UNL     1     -15.587  47.106  -8.204  1.00  0.00    -0.000 C 
BRANCH  26  27
ATOM     27  C   UNL     1     -15.003  46.925  -9.617  1.00  0.00    -0.000 C 
BRANCH  27  28
ATOM     28  C   UNL     1     -15.132  48.190 -10.486  1.00  0.00    -0.000 C 
BRANCH  28  29
ATOM     29  C   UNL     1     -13.980  49.202 -10.336  1.00  0.00    -0.000 C 
BRANCH  29  30
ATOM     30  C   UNL     1     -13.875  49.783  -8.918  1.00  0.00    -0.000 C 
BRANCH  30  31
ATOM     31  C   UNL     1     -14.141  51.292  -8.923  1.00  0.00    -0.003 C 
ATOM     32  C   UNL     1     -15.013  51.704  -7.740  1.00  0.00     0.004 C 
ENDBRANCH  30  31
ENDBRANCH  29  30
ENDBRANCH  28  29
ENDBRANCH  27  28
ENDBRANCH  26  27
ENDBRANCH  25  26
ENDBRANCH  24  25
ENDBRANCH  23  24
ENDBRANCH  22  23
ENDBRANCH  21  22
ENDBRANCH  20  21
ENDBRANCH  19  20
ENDBRANCH  18  19
ENDBRANCH   1  18
TORSDOF 28
ENDMDL
