MODEL 1
REMARK VINA RESULT:    -4.809      0.000      0.000
REMARK INTER + INTRA:          -5.863
REMARK INTER:                  -5.512
REMARK INTRA:                  -0.350
REMARK UNBOUND:                -0.350
REMARK SMILES COC(=O)c1ccccc1O
REMARK SMILES IDX 5 1 6 2 7 3 8 4 9 5 10 6 3 7 4 8 2 9 1 10 11 11
REMARK H PARENT 11 12
REMARK Flexibility Score: inf
ROOT
ATOM      1  C   UNL     1      17.916  38.431  20.424  1.00  0.00     0.101 A 
ATOM      2  C   UNL     1      17.166  39.081  19.424  1.00  0.00     0.019 A 
ATOM      3  C   UNL     1      15.853  39.488  19.666  1.00  0.00     0.001 A 
ATOM      4  C   UNL     1      15.265  39.254  20.908  1.00  0.00     0.004 A 
ATOM      5  C   UNL     1      15.990  38.612  21.913  1.00  0.00     0.047 A 
ATOM      6  C   UNL     1      17.311  38.197  21.683  1.00  0.00     0.130 A 
ENDROOT
BRANCH   1   7
ATOM      7  C   UNL     1      19.312  38.008  20.137  1.00  0.00     0.341 C 
ATOM      8  O   UNL     1      20.083  38.778  19.501  1.00  0.00    -0.246 OA
BRANCH   7   9
ATOM      9  O   UNL     1      19.780  36.761  20.567  1.00  0.00    -0.465 OA
ATOM     10  C   UNL     1      19.423  35.543  19.925  1.00  0.00     0.282 C 
ENDBRANCH   7   9
ENDBRANCH   1   7
BRANCH   6  11
ATOM     11  O   UNL     1      18.012  37.557  22.706  1.00  0.00    -0.507 OA
ATOM     12  H   UNL     1      18.670  38.055  23.293  1.00  0.00     0.293 HD
ENDBRANCH   6  11
TORSDOF 3
ENDMDL
MODEL 2
REMARK VINA RESULT:    -4.756     10.877     12.482
REMARK INTER + INTRA:          -5.802
REMARK INTER:                  -5.470
REMARK INTRA:                  -0.332
REMARK UNBOUND:                -0.350
REMARK SMILES COC(=O)c1ccccc1O
REMARK SMILES IDX 5 1 6 2 7 3 8 4 9 5 10 6 3 7 4 8 2 9 1 10 11 11
REMARK H PARENT 11 12
REMARK Flexibility Score: inf
ROOT
ATOM      1  C   UNL     1      12.208  30.911  28.864  1.00  0.00     0.101 A 
ATOM      2  C   UNL     1      11.421  31.117  30.015  1.00  0.00     0.019 A 
ATOM      3  C   UNL     1      11.964  31.714  31.154  1.00  0.00     0.001 A 
ATOM      4  C   UNL     1      13.298  32.116  31.165  1.00  0.00     0.004 A 
ATOM      5  C   UNL     1      14.095  31.922  30.036  1.00  0.00     0.047 A 
ATOM      6  C   UNL     1      13.562  31.322  28.884  1.00  0.00     0.130 A 
ENDROOT
BRANCH   1   7
ATOM      7  C   UNL     1      11.602  30.272  27.666  1.00  0.00     0.341 C 
ATOM      8  O   UNL     1      10.810  29.300  27.805  1.00  0.00    -0.246 OA
BRANCH   7   9
ATOM      9  O   UNL     1      11.902  30.742  26.382  1.00  0.00    -0.465 OA
ATOM     10  C   UNL     1      11.140  31.754  25.736  1.00  0.00     0.282 C 
ENDBRANCH   7   9
ENDBRANCH   1   7
BRANCH   6  11
ATOM     11  O   UNL     1      14.382  31.141  27.770  1.00  0.00    -0.507 OA
ATOM     12  H   UNL     1      14.869  31.915  27.335  1.00  0.00     0.293 HD
ENDBRANCH   6  11
TORSDOF 3
ENDMDL
MODEL 3
REMARK VINA RESULT:    -4.570      9.847     10.863
REMARK INTER + INTRA:          -5.588
REMARK INTER:                  -5.241
REMARK INTRA:                  -0.348
REMARK UNBOUND:                -0.350
REMARK SMILES COC(=O)c1ccccc1O
REMARK SMILES IDX 5 1 6 2 7 3 8 4 9 5 10 6 3 7 4 8 2 9 1 10 11 11
REMARK H PARENT 11 12
REMARK Flexibility Score: inf
ROOT
ATOM      1  C   UNL     1      11.141  32.574  26.493  1.00  0.00     0.101 A 
ATOM      2  C   UNL     1      11.171  33.906  26.032  1.00  0.00     0.019 A 
ATOM      3  C   UNL     1      11.103  34.190  24.667  1.00  0.00     0.001 A 
ATOM      4  C   UNL     1      11.005  33.154  23.740  1.00  0.00     0.004 A 
ATOM      5  C   UNL     1      10.974  31.829  24.176  1.00  0.00     0.047 A 
ATOM      6  C   UNL     1      11.041  31.529  25.545  1.00  0.00     0.130 A 
ENDROOT
BRANCH   1   7
ATOM      7  C   UNL     1      11.215  32.303  27.953  1.00  0.00     0.341 C 
ATOM      8  O   UNL     1      10.549  33.010  28.758  1.00  0.00    -0.246 OA
BRANCH   7   9
ATOM      9  O   UNL     1      12.018  31.267  28.443  1.00  0.00    -0.465 OA
ATOM     10  C   UNL     1      13.438  31.293  28.368  1.00  0.00     0.282 C 
ENDBRANCH   7   9
ENDBRANCH   1   7
BRANCH   6  11
ATOM     11  O   UNL     1      11.008  30.194  25.952  1.00  0.00    -0.507 OA
ATOM     12  H   UNL     1      11.753  29.548  25.724  1.00  0.00     0.293 HD
ENDBRANCH   6  11
TORSDOF 3
ENDMDL
MODEL 4
REMARK VINA RESULT:    -4.534      9.994     11.604
REMARK INTER + INTRA:          -5.547
REMARK INTER:                  -5.194
REMARK INTRA:                  -0.353
REMARK UNBOUND:                -0.350
REMARK SMILES COC(=O)c1ccccc1O
REMARK SMILES IDX 5 1 6 2 7 3 8 4 9 5 10 6 3 7 4 8 2 9 1 10 11 11
REMARK H PARENT 11 12
REMARK Flexibility Score: inf
ROOT
ATOM      1  C   UNL     1      11.896  31.755  27.482  1.00  0.00     0.101 A 
ATOM      2  C   UNL     1      13.215  31.324  27.728  1.00  0.00     0.019 A 
ATOM      3  C   UNL     1      13.740  31.337  29.021  1.00  0.00     0.001 A 
ATOM      4  C   UNL     1      12.961  31.778  30.090  1.00  0.00     0.004 A 
ATOM      5  C   UNL     1      11.653  32.209  29.867  1.00  0.00     0.047 A 
ATOM      6  C   UNL     1      11.112  32.202  28.572  1.00  0.00     0.130 A 
ENDROOT
BRANCH   1   7
ATOM      7  C   UNL     1      11.364  31.731  26.094  1.00  0.00     0.341 C 
ATOM      8  O   UNL     1      11.582  30.732  25.355  1.00  0.00    -0.246 OA
BRANCH   7   9
ATOM      9  O   UNL     1      10.621  32.809  25.598  1.00  0.00    -0.465 OA
ATOM     10  C   UNL     1      11.197  34.083  25.335  1.00  0.00     0.282 C 
ENDBRANCH   7   9
ENDBRANCH   1   7
BRANCH   6  11
ATOM     11  O   UNL     1       9.800  32.638  28.380  1.00  0.00    -0.507 OA
ATOM     12  H   UNL     1       9.044  31.990  28.197  1.00  0.00     0.293 HD
ENDBRANCH   6  11
TORSDOF 3
ENDMDL
MODEL 5
REMARK VINA RESULT:    -4.294     10.374     12.057
REMARK INTER + INTRA:          -5.272
REMARK INTER:                  -5.001
REMARK INTRA:                  -0.271
REMARK UNBOUND:                -0.350
REMARK SMILES COC(=O)c1ccccc1O
REMARK SMILES IDX 5 1 6 2 7 3 8 4 9 5 10 6 3 7 4 8 2 9 1 10 11 11
REMARK H PARENT 11 12
REMARK Flexibility Score: inf
ROOT
ATOM      1  C   UNL     1      10.950  32.008  27.717  1.00  0.00     0.101 A 
ATOM      2  C   UNL     1      11.025  32.674  28.957  1.00  0.00     0.019 A 
ATOM      3  C   UNL     1      11.438  31.998  30.106  1.00  0.00     0.001 A 
ATOM      4  C   UNL     1      11.783  30.650  30.040  1.00  0.00     0.004 A 
ATOM      5  C   UNL     1      11.717  29.972  28.822  1.00  0.00     0.047 A 
ATOM      6  C   UNL     1      11.303  30.639  27.658  1.00  0.00     0.130 A 
ENDROOT
BRANCH   1   7
ATOM      7  C   UNL     1      10.506  32.754  26.510  1.00  0.00     0.341 C 
ATOM      8  O   UNL     1       9.522  32.338  25.840  1.00  0.00    -0.246 OA
BRANCH   7   9
ATOM      9  O   UNL     1      11.172  33.919  26.110  1.00  0.00    -0.465 OA
ATOM     10  C   UNL     1      11.157  34.391  24.768  1.00  0.00     0.282 C 
ENDBRANCH   7   9
ENDBRANCH   1   7
BRANCH   6  11
ATOM     11  O   UNL     1      11.246  29.936  26.454  1.00  0.00    -0.507 OA
ATOM     12  H   UNL     1      11.047  30.399  25.575  1.00  0.00     0.293 HD
ENDBRANCH   6  11
TORSDOF 3
ENDMDL
MODEL 6
REMARK VINA RESULT:    -4.272     11.066     11.704
REMARK INTER + INTRA:          -5.246
REMARK INTER:                  -5.045
REMARK INTRA:                  -0.201
REMARK UNBOUND:                -0.350
REMARK SMILES COC(=O)c1ccccc1O
REMARK SMILES IDX 5 1 6 2 7 3 8 4 9 5 10 6 3 7 4 8 2 9 1 10 11 11
REMARK H PARENT 11 12
REMARK Flexibility Score: inf
ROOT
ATOM      1  C   UNL     1      11.640  31.458  27.212  1.00  0.00     0.101 A 
ATOM      2  C   UNL     1      11.982  30.729  26.055  1.00  0.00     0.019 A 
ATOM      3  C   UNL     1      11.122  30.688  24.956  1.00  0.00     0.001 A 
ATOM      4  C   UNL     1       9.908  31.373  24.991  1.00  0.00     0.004 A 
ATOM      5  C   UNL     1       9.551  32.101  26.126  1.00  0.00     0.047 A 
ATOM      6  C   UNL     1      10.405  32.149  27.239  1.00  0.00     0.130 A 
ENDROOT
BRANCH   1   7
ATOM      7  C   UNL     1      12.576  31.482  28.366  1.00  0.00     0.341 C 
ATOM      8  O   UNL     1      13.767  31.094  28.218  1.00  0.00    -0.246 OA
BRANCH   7   9
ATOM      9  O   UNL     1      12.146  31.933  29.620  1.00  0.00    -0.465 OA
ATOM     10  C   UNL     1      13.040  32.164  30.702  1.00  0.00     0.282 C 
ENDBRANCH   7   9
ENDBRANCH   1   7
BRANCH   6  11
ATOM     11  O   UNL     1      10.022  32.886  28.360  1.00  0.00    -0.507 OA
ATOM     12  H   UNL     1       9.762  32.436  29.230  1.00  0.00     0.293 HD
ENDBRANCH   6  11
TORSDOF 3
ENDMDL
MODEL 7
REMARK VINA RESULT:    -4.178     13.984     15.054
REMARK INTER + INTRA:          -5.139
REMARK INTER:                  -4.878
REMARK INTRA:                  -0.261
REMARK UNBOUND:                -0.350
REMARK SMILES COC(=O)c1ccccc1O
REMARK SMILES IDX 5 1 6 2 7 3 8 4 9 5 10 6 3 7 4 8 2 9 1 10 11 11
REMARK H PARENT 11 12
REMARK Flexibility Score: inf
ROOT
ATOM      1  C   UNL     1       4.382  32.292  18.343  1.00  0.00     0.101 A 
ATOM      2  C   UNL     1       5.118  33.268  19.044  1.00  0.00     0.019 A 
ATOM      3  C   UNL     1       4.540  34.493  19.382  1.00  0.00     0.001 A 
ATOM      4  C   UNL     1       3.220  34.765  19.028  1.00  0.00     0.004 A 
ATOM      5  C   UNL     1       2.473  33.812  18.334  1.00  0.00     0.047 A 
ATOM      6  C   UNL     1       3.042  32.577  17.987  1.00  0.00     0.130 A 
ENDROOT
BRANCH   1   7
ATOM      7  C   UNL     1       5.025  30.997  17.996  1.00  0.00     0.341 C 
ATOM      8  O   UNL     1       4.648  30.362  16.974  1.00  0.00    -0.246 OA
BRANCH   7   9
ATOM      9  O   UNL     1       6.050  30.476  18.796  1.00  0.00    -0.465 OA
ATOM     10  C   UNL     1       7.237  29.911  18.253  1.00  0.00     0.282 C 
ENDBRANCH   7   9
ENDBRANCH   1   7
BRANCH   6  11
ATOM     11  O   UNL     1       2.272  31.643  17.294  1.00  0.00    -0.507 OA
ATOM     12  H   UNL     1       1.502  31.923  16.698  1.00  0.00     0.293 HD
ENDBRANCH   6  11
TORSDOF 3
ENDMDL
MODEL 8
REMARK VINA RESULT:    -4.076     11.030     12.063
REMARK INTER + INTRA:          -5.022
REMARK INTER:                  -4.732
REMARK INTRA:                  -0.290
REMARK UNBOUND:                -0.350
REMARK SMILES COC(=O)c1ccccc1O
REMARK SMILES IDX 5 1 6 2 7 3 8 4 9 5 10 6 3 7 4 8 2 9 1 10 11 11
REMARK H PARENT 11 12
REMARK Flexibility Score: inf
ROOT
ATOM      1  C   UNL     1      10.771  32.035  27.320  1.00  0.00     0.101 A 
ATOM      2  C   UNL     1       9.666  32.197  26.459  1.00  0.00     0.019 A 
ATOM      3  C   UNL     1       9.657  31.612  25.192  1.00  0.00     0.001 A 
ATOM      4  C   UNL     1      10.746  30.856  24.761  1.00  0.00     0.004 A 
ATOM      5  C   UNL     1      11.849  30.684  25.598  1.00  0.00     0.047 A 
ATOM      6  C   UNL     1      11.873  31.267  26.874  1.00  0.00     0.130 A 
ENDROOT
BRANCH   1   7
ATOM      7  C   UNL     1      10.752  32.671  28.663  1.00  0.00     0.341 C 
ATOM      8  O   UNL     1      10.411  33.880  28.782  1.00  0.00    -0.246 OA
BRANCH   7   9
ATOM      9  O   UNL     1      11.110  31.938  29.801  1.00  0.00    -0.465 OA
ATOM     10  C   UNL     1      10.247  31.790  30.923  1.00  0.00     0.282 C 
ENDBRANCH   7   9
ENDBRANCH   1   7
BRANCH   6  11
ATOM     11  O   UNL     1      12.989  31.077  27.689  1.00  0.00    -0.507 OA
ATOM     12  H   UNL     1      13.067  31.517  28.598  1.00  0.00     0.293 HD
ENDBRANCH   6  11
TORSDOF 3
ENDMDL
MODEL 9
REMARK VINA RESULT:    -4.051     14.931     16.052
REMARK INTER + INTRA:          -4.993
REMARK INTER:                  -4.727
REMARK INTRA:                  -0.267
REMARK UNBOUND:                -0.350
REMARK SMILES COC(=O)c1ccccc1O
REMARK SMILES IDX 5 1 6 2 7 3 8 4 9 5 10 6 3 7 4 8 2 9 1 10 11 11
REMARK H PARENT 11 12
REMARK Flexibility Score: inf
ROOT
ATOM      1  C   UNL     1       3.723  31.135  18.991  1.00  0.00     0.101 A 
ATOM      2  C   UNL     1       3.951  32.485  19.325  1.00  0.00     0.019 A 
ATOM      3  C   UNL     1       3.276  33.509  18.659  1.00  0.00     0.001 A 
ATOM      4  C   UNL     1       2.363  33.206  17.651  1.00  0.00     0.004 A 
ATOM      5  C   UNL     1       2.122  31.876  17.305  1.00  0.00     0.047 A 
ATOM      6  C   UNL     1       2.795  30.836  17.965  1.00  0.00     0.130 A 
ENDROOT
BRANCH   1   7
ATOM      7  C   UNL     1       4.458  30.066  19.717  1.00  0.00     0.341 C 
ATOM      8  O   UNL     1       4.313  29.938  20.964  1.00  0.00    -0.246 OA
BRANCH   7   9
ATOM      9  O   UNL     1       5.311  29.195  19.028  1.00  0.00    -0.465 OA
ATOM     10  C   UNL     1       6.728  29.265  19.132  1.00  0.00     0.282 C 
ENDBRANCH   7   9
ENDBRANCH   1   7
BRANCH   6  11
ATOM     11  O   UNL     1       2.534  29.515  17.598  1.00  0.00    -0.507 OA
ATOM     12  H   UNL     1       1.741  29.005  17.968  1.00  0.00     0.293 HD
ENDBRANCH   6  11
TORSDOF 3
ENDMDL
