MODEL 1
REMARK VINA RESULT:    -6.073      0.000      0.000
REMARK INTER + INTRA:         -10.451
REMARK INTER:                  -9.446
REMARK INTRA:                  -1.005
REMARK UNBOUND:                -1.005
REMARK SMILES COc1cc(CNC(=O)CCCCC=CC(C)C)ccc1O
REMARK SMILES IDX 11 1 12 2 13 3 14 4 15 5 16 6 17 7 18 8 10 9 8 10 9 11 7 12
REMARK SMILES IDX 6 14 5 15 4 16 19 17 3 18 20 19 21 20 2 21 1 22 22 23
REMARK H PARENT 7 13 22 24
REMARK Flexibility Score: inf
ROOT
ATOM      1  C   UNL     1      17.426   5.131  19.500  1.00  0.00     0.010 C 
ENDROOT
BRANCH   1   2
ATOM      2  C   UNL     1      15.934   5.134  19.123  1.00  0.00     0.005 C 
BRANCH   2   3
ATOM      3  C   UNL     1      15.144   6.199  19.898  1.00  0.00     0.027 C 
BRANCH   3   4
ATOM      4  C   UNL     1      13.831   5.645  20.395  1.00  0.00    -0.031 C 
ATOM      5  C   UNL     1      13.619   4.916  21.512  1.00  0.00    -0.028 C 
BRANCH   5   6
ATOM      6  C   UNL     1      14.630   4.456  22.550  1.00  0.00     0.005 C 
ATOM      7  C   UNL     1      15.193   3.058  22.259  1.00  0.00     0.012 C 
ATOM      8  C   UNL     1      14.135   4.611  23.993  1.00  0.00     0.012 C 
ENDBRANCH   5   6
ENDBRANCH   3   4
ENDBRANCH   2   3
ENDBRANCH   1   2
BRANCH   1   9
ATOM      9  C   UNL     1      18.222   6.213  18.758  1.00  0.00     0.100 C 
BRANCH   9  10
ATOM     10  C   UNL     1      19.516   6.519  19.455  1.00  0.00     0.220 C 
ATOM     11  O   UNL     1      20.153   7.560  19.145  1.00  0.00    -0.275 OA
ATOM     12  N   UNL     1      20.011   5.643  20.477  1.00  0.00    -0.352 N 
ATOM     13  H   UNL     1      19.506   4.747  20.657  1.00  0.00     0.163 HD
BRANCH  12  14
ATOM     14  C   UNL     1      21.008   6.065  21.456  1.00  0.00     0.151 C 
BRANCH  14  15
ATOM     15  C   UNL     1      21.265   4.944  22.426  1.00  0.00    -0.025 A 
ATOM     16  C   UNL     1      22.561   4.727  22.921  1.00  0.00     0.056 A 
ATOM     17  C   UNL     1      20.237   4.057  22.774  1.00  0.00     0.009 A 
ATOM     18  C   UNL     1      22.830   3.643  23.782  1.00  0.00     0.160 A 
ATOM     19  C   UNL     1      20.496   2.982  23.629  1.00  0.00     0.050 A 
ATOM     20  C   UNL     1      21.783   2.772  24.134  1.00  0.00     0.157 A 
BRANCH  18  21
ATOM     21  O   UNL     1      24.115   3.404  24.296  1.00  0.00    -0.493 OA
ATOM     22  C   UNL     1      24.979   4.413  24.815  1.00  0.00     0.278 C 
ENDBRANCH  18  21
BRANCH  20  23
ATOM     23  O   UNL     1      22.005   1.688  24.984  1.00  0.00    -0.504 OA
ATOM     24  H   UNL     1      22.937   1.387  25.240  1.00  0.00     0.293 HD
ENDBRANCH  20  23
ENDBRANCH  14  15
ENDBRANCH  12  14
ENDBRANCH   9  10
ENDBRANCH   1   9
TORSDOF 10
ENDMDL
MODEL 2
REMARK VINA RESULT:    -5.871      1.305      2.385
REMARK INTER + INTRA:         -10.138
REMARK INTER:                  -8.820
REMARK INTRA:                  -1.317
REMARK UNBOUND:                -1.005
REMARK SMILES COc1cc(CNC(=O)CCCCC=CC(C)C)ccc1O
REMARK SMILES IDX 11 1 12 2 13 3 14 4 15 5 16 6 17 7 18 8 10 9 8 10 9 11 7 12
REMARK SMILES IDX 6 14 5 15 4 16 19 17 3 18 20 19 21 20 2 21 1 22 22 23
REMARK H PARENT 7 13 22 24
REMARK Flexibility Score: inf
ROOT
ATOM      1  C   UNL     1      16.916   5.884  19.164  1.00  0.00     0.010 C 
ENDROOT
BRANCH   1   2
ATOM      2  C   UNL     1      15.447   5.739  18.728  1.00  0.00     0.005 C 
BRANCH   2   3
ATOM      3  C   UNL     1      14.488   6.483  19.668  1.00  0.00     0.027 C 
BRANCH   3   4
ATOM      4  C   UNL     1      13.441   5.551  20.225  1.00  0.00    -0.031 C 
ATOM      5  C   UNL     1      13.540   4.764  21.318  1.00  0.00    -0.028 C 
BRANCH   5   6
ATOM      6  C   UNL     1      14.718   4.601  22.265  1.00  0.00     0.005 C 
ATOM      7  C   UNL     1      15.663   3.464  21.854  1.00  0.00     0.012 C 
ATOM      8  C   UNL     1      14.306   4.532  23.741  1.00  0.00     0.012 C 
ENDBRANCH   5   6
ENDBRANCH   3   4
ENDBRANCH   2   3
ENDBRANCH   1   2
BRANCH   1   9
ATOM      9  C   UNL     1      17.557   7.180  18.649  1.00  0.00     0.100 C 
BRANCH   9  10
ATOM     10  C   UNL     1      18.966   7.330  19.144  1.00  0.00     0.220 C 
ATOM     11  O   UNL     1      19.576   8.415  18.951  1.00  0.00    -0.275 OA
ATOM     12  N   UNL     1      19.605   6.255  19.845  1.00  0.00    -0.352 N 
ATOM     13  H   UNL     1      19.106   5.339  19.920  1.00  0.00     0.163 HD
BRANCH  12  14
ATOM     14  C   UNL     1      20.778   6.456  20.690  1.00  0.00     0.151 C 
BRANCH  14  15
ATOM     15  C   UNL     1      20.889   5.323  21.673  1.00  0.00    -0.025 A 
ATOM     16  C   UNL     1      19.864   4.368  21.762  1.00  0.00     0.056 A 
ATOM     17  C   UNL     1      21.968   5.262  22.566  1.00  0.00     0.009 A 
ATOM     18  C   UNL     1      19.924   3.336  22.721  1.00  0.00     0.160 A 
ATOM     19  C   UNL     1      22.035   4.241  23.518  1.00  0.00     0.050 A 
ATOM     20  C   UNL     1      21.022   3.279  23.599  1.00  0.00     0.157 A 
BRANCH  18  21
ATOM     21  O   UNL     1      18.917   2.364  22.831  1.00  0.00    -0.493 OA
ATOM     22  C   UNL     1      18.813   1.210  21.998  1.00  0.00     0.278 C 
ENDBRANCH  18  21
BRANCH  20  23
ATOM     23  O   UNL     1      21.122   2.275  24.562  1.00  0.00    -0.504 OA
ATOM     24  H   UNL     1      21.657   2.397  25.413  1.00  0.00     0.293 HD
ENDBRANCH  20  23
ENDBRANCH  14  15
ENDBRANCH  12  14
ENDBRANCH   9  10
ENDBRANCH   1   9
TORSDOF 10
ENDMDL
MODEL 3
REMARK VINA RESULT:    -5.829      2.467      7.671
REMARK INTER + INTRA:         -10.072
REMARK INTER:                  -8.706
REMARK INTRA:                  -1.366
REMARK UNBOUND:                -1.005
REMARK SMILES COc1cc(CNC(=O)CCCCC=CC(C)C)ccc1O
REMARK SMILES IDX 11 1 12 2 13 3 14 4 15 5 16 6 17 7 18 8 10 9 8 10 9 11 7 12
REMARK SMILES IDX 6 14 5 15 4 16 19 17 3 18 20 19 21 20 2 21 1 22 22 23
REMARK H PARENT 7 13 22 24
REMARK Flexibility Score: inf
ROOT
ATOM      1  C   UNL     1      20.064   3.492  23.727  1.00  0.00     0.010 C 
ENDROOT
BRANCH   1   2
ATOM      2  C   UNL     1      21.443   3.642  24.395  1.00  0.00     0.005 C 
BRANCH   2   3
ATOM      3  C   UNL     1      22.210   4.865  23.870  1.00  0.00     0.027 C 
BRANCH   3   4
ATOM      4  C   UNL     1      22.704   4.633  22.463  1.00  0.00    -0.031 C 
ATOM      5  C   UNL     1      22.216   5.168  21.323  1.00  0.00    -0.028 C 
BRANCH   5   6
ATOM      6  C   UNL     1      21.050   6.128  21.150  1.00  0.00     0.005 C 
ATOM      7  C   UNL     1      19.762   5.430  20.694  1.00  0.00     0.012 C 
ATOM      8  C   UNL     1      21.396   7.357  20.300  1.00  0.00     0.012 C 
ENDBRANCH   5   6
ENDBRANCH   3   4
ENDBRANCH   2   3
ENDBRANCH   1   2
BRANCH   1   9
ATOM      9  C   UNL     1      19.931   2.179  22.943  1.00  0.00     0.100 C 
BRANCH   9  10
ATOM     10  C   UNL     1      18.536   1.989  22.423  1.00  0.00     0.220 C 
ATOM     11  O   UNL     1      18.160   0.840  22.071  1.00  0.00    -0.275 OA
ATOM     12  N   UNL     1      17.636   3.102  22.344  1.00  0.00    -0.352 N 
ATOM     13  H   UNL     1      17.998   4.057  22.566  1.00  0.00     0.163 HD
BRANCH  12  14
ATOM     14  C   UNL     1      16.189   2.936  22.245  1.00  0.00     0.151 C 
BRANCH  14  15
ATOM     15  C   UNL     1      15.613   4.040  21.401  1.00  0.00    -0.025 A 
ATOM     16  C   UNL     1      16.298   4.480  20.258  1.00  0.00     0.056 A 
ATOM     17  C   UNL     1      14.438   4.695  21.796  1.00  0.00     0.009 A 
ATOM     18  C   UNL     1      15.803   5.555  19.492  1.00  0.00     0.160 A 
ATOM     19  C   UNL     1      13.940   5.760  21.040  1.00  0.00     0.050 A 
ATOM     20  C   UNL     1      14.614   6.191  19.892  1.00  0.00     0.157 A 
BRANCH  18  21
ATOM     21  O   UNL     1      16.464   6.015  18.341  1.00  0.00    -0.493 OA
ATOM     22  C   UNL     1      17.485   7.011  18.340  1.00  0.00     0.278 C 
ENDBRANCH  18  21
BRANCH  20  23
ATOM     23  O   UNL     1      14.087   7.258  19.163  1.00  0.00    -0.504 OA
ATOM     24  H   UNL     1      14.582   8.135  19.060  1.00  0.00     0.293 HD
ENDBRANCH  20  23
ENDBRANCH  14  15
ENDBRANCH  12  14
ENDBRANCH   9  10
ENDBRANCH   1   9
TORSDOF 10
ENDMDL
MODEL 4
REMARK VINA RESULT:    -5.824      2.913      6.715
REMARK INTER + INTRA:         -10.064
REMARK INTER:                  -8.922
REMARK INTRA:                  -1.143
REMARK UNBOUND:                -1.005
REMARK SMILES COc1cc(CNC(=O)CCCCC=CC(C)C)ccc1O
REMARK SMILES IDX 11 1 12 2 13 3 14 4 15 5 16 6 17 7 18 8 10 9 8 10 9 11 7 12
REMARK SMILES IDX 6 14 5 15 4 16 19 17 3 18 20 19 21 20 2 21 1 22 22 23
REMARK H PARENT 7 13 22 24
REMARK Flexibility Score: inf
ROOT
ATOM      1  C   UNL     1      19.224   7.265  18.832  1.00  0.00     0.010 C 
ENDROOT
BRANCH   1   2
ATOM      2  C   UNL     1      20.417   7.921  19.548  1.00  0.00     0.005 C 
BRANCH   2   3
ATOM      3  C   UNL     1      21.054   6.987  20.587  1.00  0.00     0.027 C 
BRANCH   3   4
ATOM      4  C   UNL     1      20.208   5.756  20.801  1.00  0.00    -0.031 C 
ATOM      5  C   UNL     1      20.334   4.834  21.779  1.00  0.00    -0.028 C 
BRANCH   5   6
ATOM      6  C   UNL     1      21.352   4.782  22.908  1.00  0.00     0.005 C 
ATOM      7  C   UNL     1      22.753   4.374  22.432  1.00  0.00     0.012 C 
ATOM      8  C   UNL     1      20.875   3.975  24.121  1.00  0.00     0.012 C 
ENDBRANCH   5   6
ENDBRANCH   3   4
ENDBRANCH   2   3
ENDBRANCH   1   2
BRANCH   1   9
ATOM      9  C   UNL     1      18.155   8.284  18.415  1.00  0.00     0.100 C 
BRANCH   9  10
ATOM     10  C   UNL     1      16.817   7.631  18.225  1.00  0.00     0.220 C 
ATOM     11  O   UNL     1      16.539   7.105  17.115  1.00  0.00    -0.275 OA
ATOM     12  N   UNL     1      15.872   7.590  19.303  1.00  0.00    -0.352 N 
ATOM     13  H   UNL     1      16.097   8.103  20.186  1.00  0.00     0.163 HD
BRANCH  12  14
ATOM     14  C   UNL     1      14.757   6.649  19.335  1.00  0.00     0.151 C 
BRANCH  14  15
ATOM     15  C   UNL     1      15.088   5.508  20.257  1.00  0.00    -0.025 A 
ATOM     16  C   UNL     1      14.180   5.130  21.260  1.00  0.00     0.056 A 
ATOM     17  C   UNL     1      16.335   4.874  20.182  1.00  0.00     0.009 A 
ATOM     18  C   UNL     1      14.502   4.105  22.172  1.00  0.00     0.160 A 
ATOM     19  C   UNL     1      16.659   3.854  21.082  1.00  0.00     0.050 A 
ATOM     20  C   UNL     1      15.752   3.466  22.072  1.00  0.00     0.157 A 
BRANCH  18  21
ATOM     21  O   UNL     1      13.613   3.702  23.182  1.00  0.00    -0.493 OA
ATOM     22  C   UNL     1      12.568   2.747  23.005  1.00  0.00     0.278 C 
ENDBRANCH  18  21
BRANCH  20  23
ATOM     23  O   UNL     1      16.110   2.445  22.953  1.00  0.00    -0.504 OA
ATOM     24  H   UNL     1      17.074   2.170  23.094  1.00  0.00     0.293 HD
ENDBRANCH  20  23
ENDBRANCH  14  15
ENDBRANCH  12  14
ENDBRANCH   9  10
ENDBRANCH   1   9
TORSDOF 10
ENDMDL
MODEL 5
REMARK VINA RESULT:    -5.805      3.767      7.897
REMARK INTER + INTRA:         -10.034
REMARK INTER:                  -8.568
REMARK INTRA:                  -1.466
REMARK UNBOUND:                -1.005
REMARK SMILES COc1cc(CNC(=O)CCCCC=CC(C)C)ccc1O
REMARK SMILES IDX 11 1 12 2 13 3 14 4 15 5 16 6 17 7 18 8 10 9 8 10 9 11 7 12
REMARK SMILES IDX 6 14 5 15 4 16 19 17 3 18 20 19 21 20 2 21 1 22 22 23
REMARK H PARENT 7 13 22 24
REMARK Flexibility Score: inf
ROOT
ATOM      1  C   UNL     1      19.437   3.127  23.043  1.00  0.00     0.010 C 
ENDROOT
BRANCH   1   2
ATOM      2  C   UNL     1      20.702   3.758  23.650  1.00  0.00     0.005 C 
BRANCH   2   3
ATOM      3  C   UNL     1      21.716   4.171  22.573  1.00  0.00     0.027 C 
BRANCH   3   4
ATOM      4  C   UNL     1      21.533   5.616  22.180  1.00  0.00    -0.031 C 
ATOM      5  C   UNL     1      20.914   6.096  21.080  1.00  0.00    -0.028 C 
BRANCH   5   6
ATOM      6  C   UNL     1      20.250   5.321  19.953  1.00  0.00     0.005 C 
ATOM      7  C   UNL     1      20.753   5.737  18.564  1.00  0.00     0.012 C 
ATOM      8  C   UNL     1      18.720   5.296  20.051  1.00  0.00     0.012 C 
ENDBRANCH   5   6
ENDBRANCH   3   4
ENDBRANCH   2   3
ENDBRANCH   1   2
BRANCH   1   9
ATOM      9  C   UNL     1      19.759   2.009  22.042  1.00  0.00     0.100 C 
BRANCH   9  10
ATOM     10  C   UNL     1      18.517   1.293  21.598  1.00  0.00     0.220 C 
ATOM     11  O   UNL     1      18.400   0.060  21.829  1.00  0.00    -0.275 OA
ATOM     12  N   UNL     1      17.467   2.010  20.935  1.00  0.00    -0.352 N 
ATOM     13  H   UNL     1      17.624   3.012  20.685  1.00  0.00     0.163 HD
BRANCH  12  14
ATOM     14  C   UNL     1      16.103   1.498  20.845  1.00  0.00     0.151 C 
BRANCH  14  15
ATOM     15  C   UNL     1      15.213   2.273  21.776  1.00  0.00    -0.025 A 
ATOM     16  C   UNL     1      13.861   1.919  21.912  1.00  0.00     0.056 A 
ATOM     17  C   UNL     1      15.699   3.405  22.445  1.00  0.00     0.009 A 
ATOM     18  C   UNL     1      12.998   2.674  22.733  1.00  0.00     0.160 A 
ATOM     19  C   UNL     1      14.850   4.157  23.262  1.00  0.00     0.050 A 
ATOM     20  C   UNL     1      13.506   3.798  23.411  1.00  0.00     0.157 A 
BRANCH  18  21
ATOM     21  O   UNL     1      11.643   2.342  22.892  1.00  0.00    -0.493 OA
ATOM     22  C   UNL     1      11.165   1.044  23.243  1.00  0.00     0.278 C 
ENDBRANCH  18  21
BRANCH  20  23
ATOM     23  O   UNL     1      12.689   4.572  24.234  1.00  0.00    -0.504 OA
ATOM     24  H   UNL     1      12.982   4.871  25.155  1.00  0.00     0.293 HD
ENDBRANCH  20  23
ENDBRANCH  14  15
ENDBRANCH  12  14
ENDBRANCH   9  10
ENDBRANCH   1   9
TORSDOF 10
ENDMDL
MODEL 6
REMARK VINA RESULT:    -5.785      3.018      7.323
REMARK INTER + INTRA:         -10.003
REMARK INTER:                  -8.748
REMARK INTRA:                  -1.255
REMARK UNBOUND:                -1.005
REMARK SMILES COc1cc(CNC(=O)CCCCC=CC(C)C)ccc1O
REMARK SMILES IDX 11 1 12 2 13 3 14 4 15 5 16 6 17 7 18 8 10 9 8 10 9 11 7 12
REMARK SMILES IDX 6 14 5 15 4 16 19 17 3 18 20 19 21 20 2 21 1 22 22 23
REMARK H PARENT 7 13 22 24
REMARK Flexibility Score: inf
ROOT
ATOM      1  C   UNL     1      21.732   4.545  23.581  1.00  0.00     0.010 C 
ENDROOT
BRANCH   1   2
ATOM      2  C   UNL     1      22.114   4.971  22.152  1.00  0.00     0.005 C 
BRANCH   2   3
ATOM      3  C   UNL     1      21.212   6.096  21.623  1.00  0.00     0.027 C 
BRANCH   3   4
ATOM      4  C   UNL     1      20.166   5.556  20.680  1.00  0.00    -0.031 C 
ATOM      5  C   UNL     1      19.533   6.221  19.689  1.00  0.00    -0.028 C 
BRANCH   5   6
ATOM      6  C   UNL     1      19.697   7.672  19.266  1.00  0.00     0.005 C 
ATOM      7  C   UNL     1      18.416   8.268  18.665  1.00  0.00     0.012 C 
ATOM      8  C   UNL     1      20.935   7.916  18.395  1.00  0.00     0.012 C 
ENDBRANCH   5   6
ENDBRANCH   3   4
ENDBRANCH   2   3
ENDBRANCH   1   2
BRANCH   1   9
ATOM      9  C   UNL     1      21.578   3.024  23.720  1.00  0.00     0.100 C 
BRANCH   9  10
ATOM     10  C   UNL     1      20.493   2.498  22.826  1.00  0.00     0.220 C 
ATOM     11  O   UNL     1      20.801   1.774  21.842  1.00  0.00    -0.275 OA
ATOM     12  N   UNL     1      19.119   2.800  23.102  1.00  0.00    -0.352 N 
ATOM     13  H   UNL     1      18.898   3.467  23.876  1.00  0.00     0.163 HD
BRANCH  12  14
ATOM     14  C   UNL     1      18.017   2.019  22.550  1.00  0.00     0.151 C 
BRANCH  14  15
ATOM     15  C   UNL     1      16.887   2.938  22.176  1.00  0.00    -0.025 A 
ATOM     16  C   UNL     1      15.659   2.851  22.851  1.00  0.00     0.056 A 
ATOM     17  C   UNL     1      17.019   3.823  21.097  1.00  0.00     0.009 A 
ATOM     18  C   UNL     1      14.570   3.662  22.470  1.00  0.00     0.160 A 
ATOM     19  C   UNL     1      15.945   4.632  20.716  1.00  0.00     0.050 A 
ATOM     20  C   UNL     1      14.725   4.557  21.396  1.00  0.00     0.157 A 
BRANCH  18  21
ATOM     21  O   UNL     1      13.331   3.600  23.129  1.00  0.00    -0.493 OA
ATOM     22  C   UNL     1      12.358   2.577  22.926  1.00  0.00     0.278 C 
ENDBRANCH  18  21
BRANCH  20  23
ATOM     23  O   UNL     1      13.674   5.379  20.987  1.00  0.00    -0.504 OA
ATOM     24  H   UNL     1      13.791   6.376  20.857  1.00  0.00     0.293 HD
ENDBRANCH  20  23
ENDBRANCH  14  15
ENDBRANCH  12  14
ENDBRANCH   9  10
ENDBRANCH   1   9
TORSDOF 10
ENDMDL
MODEL 7
REMARK VINA RESULT:    -5.766      1.544      2.404
REMARK INTER + INTRA:          -9.974
REMARK INTER:                  -8.470
REMARK INTRA:                  -1.504
REMARK UNBOUND:                -1.005
REMARK SMILES COc1cc(CNC(=O)CCCCC=CC(C)C)ccc1O
REMARK SMILES IDX 11 1 12 2 13 3 14 4 15 5 16 6 17 7 18 8 10 9 8 10 9 11 7 12
REMARK SMILES IDX 6 14 5 15 4 16 19 17 3 18 20 19 21 20 2 21 1 22 22 23
REMARK H PARENT 7 13 22 24
REMARK Flexibility Score: inf
ROOT
ATOM      1  C   UNL     1      16.069   4.672  19.691  1.00  0.00     0.010 C 
ENDROOT
BRANCH   1   2
ATOM      2  C   UNL     1      14.801   4.793  20.555  1.00  0.00     0.005 C 
BRANCH   2   3
ATOM      3  C   UNL     1      14.600   3.569  21.461  1.00  0.00     0.027 C 
BRANCH   3   4
ATOM      4  C   UNL     1      15.708   3.460  22.479  1.00  0.00    -0.031 C 
ATOM      5  C   UNL     1      16.602   2.457  22.614  1.00  0.00    -0.028 C 
BRANCH   5   6
ATOM      6  C   UNL     1      16.729   1.183  21.794  1.00  0.00     0.005 C 
ATOM      7  C   UNL     1      17.392   0.036  22.569  1.00  0.00     0.012 C 
ATOM      8  C   UNL     1      17.353   1.409  20.412  1.00  0.00     0.012 C 
ENDBRANCH   5   6
ENDBRANCH   3   4
ENDBRANCH   2   3
ENDBRANCH   1   2
BRANCH   1   9
ATOM      9  C   UNL     1      16.547   6.029  19.156  1.00  0.00     0.100 C 
BRANCH   9  10
ATOM     10  C   UNL     1      18.036   6.175  19.278  1.00  0.00     0.220 C 
ATOM     11  O   UNL     1      18.634   7.024  18.565  1.00  0.00    -0.275 OA
ATOM     12  N   UNL     1      18.767   5.368  20.211  1.00  0.00    -0.352 N 
ATOM     13  H   UNL     1      18.258   4.618  20.731  1.00  0.00     0.163 HD
BRANCH  12  14
ATOM     14  C   UNL     1      20.105   5.722  20.674  1.00  0.00     0.151 C 
BRANCH  14  15
ATOM     15  C   UNL     1      20.486   4.840  21.832  1.00  0.00    -0.025 A 
ATOM     16  C   UNL     1      21.616   5.148  22.606  1.00  0.00     0.056 A 
ATOM     17  C   UNL     1      19.772   3.662  22.092  1.00  0.00     0.009 A 
ATOM     18  C   UNL     1      22.022   4.298  23.655  1.00  0.00     0.160 A 
ATOM     19  C   UNL     1      20.168   2.816  23.131  1.00  0.00     0.050 A 
ATOM     20  C   UNL     1      21.285   3.127  23.913  1.00  0.00     0.157 A 
BRANCH  18  21
ATOM     21  O   UNL     1      23.146   4.581  24.449  1.00  0.00    -0.493 OA
ATOM     22  C   UNL     1      24.465   4.108  24.181  1.00  0.00     0.278 C 
ENDBRANCH  18  21
BRANCH  20  23
ATOM     23  O   UNL     1      21.651   2.259  24.942  1.00  0.00    -0.504 OA
ATOM     24  H   UNL     1      22.598   2.214  25.297  1.00  0.00     0.293 HD
ENDBRANCH  20  23
ENDBRANCH  14  15
ENDBRANCH  12  14
ENDBRANCH   9  10
ENDBRANCH   1   9
TORSDOF 10
ENDMDL
MODEL 8
REMARK VINA RESULT:    -5.660      1.857      2.632
REMARK INTER + INTRA:          -9.808
REMARK INTER:                  -8.401
REMARK INTRA:                  -1.407
REMARK UNBOUND:                -1.005
REMARK SMILES COc1cc(CNC(=O)CCCCC=CC(C)C)ccc1O
REMARK SMILES IDX 11 1 12 2 13 3 14 4 15 5 16 6 17 7 18 8 10 9 8 10 9 11 7 12
REMARK SMILES IDX 6 14 5 15 4 16 19 17 3 18 20 19 21 20 2 21 1 22 22 23
REMARK H PARENT 7 13 22 24
REMARK Flexibility Score: inf
ROOT
ATOM      1  C   UNL     1      17.743   5.277  19.293  1.00  0.00     0.010 C 
ENDROOT
BRANCH   1   2
ATOM      2  C   UNL     1      16.312   5.417  19.841  1.00  0.00     0.005 C 
BRANCH   2   3
ATOM      3  C   UNL     1      15.658   4.052  20.104  1.00  0.00     0.027 C 
BRANCH   3   4
ATOM      4  C   UNL     1      15.441   3.829  21.580  1.00  0.00    -0.031 C 
ATOM      5  C   UNL     1      16.259   3.185  22.441  1.00  0.00    -0.028 C 
BRANCH   5   6
ATOM      6  C   UNL     1      17.595   2.516  22.159  1.00  0.00     0.005 C 
ATOM      7  C   UNL     1      17.535   0.987  22.276  1.00  0.00     0.012 C 
ATOM      8  C   UNL     1      18.760   3.130  22.945  1.00  0.00     0.012 C 
ENDBRANCH   5   6
ENDBRANCH   3   4
ENDBRANCH   2   3
ENDBRANCH   1   2
BRANCH   1   9
ATOM      9  C   UNL     1      18.385   6.635  18.974  1.00  0.00     0.100 C 
BRANCH   9  10
ATOM     10  C   UNL     1      19.735   6.770  19.616  1.00  0.00     0.220 C 
ATOM     11  O   UNL     1      20.511   7.685  19.236  1.00  0.00    -0.275 OA
ATOM     12  N   UNL     1      20.128   5.876  20.666  1.00  0.00    -0.352 N 
ATOM     13  H   UNL     1      19.499   5.077  20.907  1.00  0.00     0.163 HD
BRANCH  12  14
ATOM     14  C   UNL     1      21.213   6.183  21.594  1.00  0.00     0.151 C 
BRANCH  14  15
ATOM     15  C   UNL     1      21.759   4.906  22.170  1.00  0.00    -0.025 A 
ATOM     16  C   UNL     1      22.015   3.810  21.330  1.00  0.00     0.056 A 
ATOM     17  C   UNL     1      21.932   4.769  23.554  1.00  0.00     0.009 A 
ATOM     18  C   UNL     1      22.468   2.586  21.863  1.00  0.00     0.160 A 
ATOM     19  C   UNL     1      22.383   3.559  24.088  1.00  0.00     0.050 A 
ATOM     20  C   UNL     1      22.653   2.470  23.253  1.00  0.00     0.157 A 
BRANCH  18  21
ATOM     21  O   UNL     1      22.737   1.475  21.047  1.00  0.00    -0.493 OA
ATOM     22  C   UNL     1      22.259   1.317  19.713  1.00  0.00     0.278 C 
ENDBRANCH  18  21
BRANCH  20  23
ATOM     23  O   UNL     1      23.101   1.278  23.822  1.00  0.00    -0.504 OA
ATOM     24  H   UNL     1      23.826   1.258  24.528  1.00  0.00     0.293 HD
ENDBRANCH  20  23
ENDBRANCH  14  15
ENDBRANCH  12  14
ENDBRANCH   9  10
ENDBRANCH   1   9
TORSDOF 10
ENDMDL
MODEL 9
REMARK VINA RESULT:    -5.643      3.178      7.064
REMARK INTER + INTRA:          -9.783
REMARK INTER:                  -7.899
REMARK INTRA:                  -1.884
REMARK UNBOUND:                -1.005
REMARK SMILES COc1cc(CNC(=O)CCCCC=CC(C)C)ccc1O
REMARK SMILES IDX 11 1 12 2 13 3 14 4 15 5 16 6 17 7 18 8 10 9 8 10 9 11 7 12
REMARK SMILES IDX 6 14 5 15 4 16 19 17 3 18 20 19 21 20 2 21 1 22 22 23
REMARK H PARENT 7 13 22 24
REMARK Flexibility Score: inf
ROOT
ATOM      1  C   UNL     1      21.150   3.467  23.971  1.00  0.00     0.010 C 
ENDROOT
BRANCH   1   2
ATOM      2  C   UNL     1      21.437   4.934  23.602  1.00  0.00     0.005 C 
BRANCH   2   3
ATOM      3  C   UNL     1      21.987   5.075  22.175  1.00  0.00     0.027 C 
BRANCH   3   4
ATOM      4  C   UNL     1      21.203   6.097  21.390  1.00  0.00    -0.031 C 
ATOM      5  C   UNL     1      20.136   5.877  20.593  1.00  0.00    -0.028 C 
BRANCH   5   6
ATOM      6  C   UNL     1      19.450   4.560  20.269  1.00  0.00     0.005 C 
ATOM      7  C   UNL     1      19.954   3.927  18.965  1.00  0.00     0.012 C 
ATOM      8  C   UNL     1      17.920   4.636  20.343  1.00  0.00     0.012 C 
ENDBRANCH   5   6
ENDBRANCH   3   4
ENDBRANCH   2   3
ENDBRANCH   1   2
BRANCH   1   9
ATOM      9  C   UNL     1      21.456   2.501  22.818  1.00  0.00     0.100 C 
BRANCH   9  10
ATOM     10  C   UNL     1      20.213   1.812  22.334  1.00  0.00     0.220 C 
ATOM     11  O   UNL     1      20.236   1.199  21.234  1.00  0.00    -0.275 OA
ATOM     12  N   UNL     1      19.018   1.837  23.125  1.00  0.00    -0.352 N 
ATOM     13  H   UNL     1      19.003   2.419  23.993  1.00  0.00     0.163 HD
BRANCH  12  14
ATOM     14  C   UNL     1      17.931   0.882  22.935  1.00  0.00     0.151 C 
BRANCH  14  15
ATOM     15  C   UNL     1      16.810   1.540  22.177  1.00  0.00    -0.025 A 
ATOM     16  C   UNL     1      15.983   2.475  22.820  1.00  0.00     0.056 A 
ATOM     17  C   UNL     1      16.528   1.161  20.858  1.00  0.00     0.009 A 
ATOM     18  C   UNL     1      14.890   3.054  22.142  1.00  0.00     0.160 A 
ATOM     19  C   UNL     1      15.448   1.733  20.179  1.00  0.00     0.050 A 
ATOM     20  C   UNL     1      14.630   2.675  20.812  1.00  0.00     0.157 A 
BRANCH  18  21
ATOM     21  O   UNL     1      14.048   3.995  22.756  1.00  0.00    -0.493 OA
ATOM     22  C   UNL     1      14.263   4.545  24.055  1.00  0.00     0.278 C 
ENDBRANCH  18  21
BRANCH  20  23
ATOM     23  O   UNL     1      13.561   3.224  20.104  1.00  0.00    -0.504 OA
ATOM     24  H   UNL     1      12.623   3.251  20.482  1.00  0.00     0.293 HD
ENDBRANCH  20  23
ENDBRANCH  14  15
ENDBRANCH  12  14
ENDBRANCH   9  10
ENDBRANCH   1   9
TORSDOF 10
ENDMDL
