MODEL 1
REMARK VINA RESULT:    -5.198      0.000      0.000
REMARK INTER + INTRA:          -7.441
REMARK INTER:                  -7.629
REMARK INTRA:                   0.188
REMARK UNBOUND:                 0.188
REMARK SMILES C=C1CC=CC(C)(C)CC=C(C)CCC1
REMARK SMILES IDX 2 1 1 2 15 3 14 4 13 5 11 6 12 7 10 8 3 10 4 11 5 12 6 13
REMARK SMILES IDX 7 14 8 15 9 16
REMARK H PARENT
REMARK Flexibility Score: 60.00
ROOT
ATOM      1  C   UNL     1      -2.159 -14.497  10.520  1.00  0.00    -0.074 C 
ATOM      2  C   UNL     1      -2.347 -13.818  11.666  1.00  0.00     0.008 C 
ENDROOT
BRANCH   1   3
ATOM      3  C   UNL     1      -1.599 -15.911  10.583  1.00  0.00     0.031 C 
BRANCH   3   4
ATOM      4  C   UNL     1      -2.582 -16.923  11.211  1.00  0.00     0.009 C 
BRANCH   4   5
ATOM      5  C   UNL     1      -3.576 -17.481  10.168  1.00  0.00     0.030 C 
BRANCH   5   6
ATOM      6  C   UNL     1      -4.929 -16.786  10.158  1.00  0.00    -0.077 C 
ATOM      7  C   UNL     1      -5.614 -16.506  11.470  1.00  0.00     0.039 C 
ATOM      8  C   UNL     1      -5.508 -16.313   9.026  1.00  0.00    -0.027 CG0
ATOM      9  G   UNL     1      -5.002 -16.578   7.626  1.00  0.00     0.000 G0
ENDBRANCH   5   6
ENDBRANCH   4   5
ENDBRANCH   3   4
ENDBRANCH   1   3
BRANCH   1  10
ATOM     10  C   UNL     1      -2.611 -13.919   9.187  1.00  0.00     0.057 C 
BRANCH  10  11
ATOM     11  C   UNL     1      -2.183 -14.704   7.953  1.00  0.00    -0.026 C 
ATOM     12  C   UNL     1      -2.939 -15.270   6.974  1.00  0.00    -0.024 C 
BRANCH  12  13
ATOM     13  C   UNL     1      -4.467 -15.348   6.834  1.00  0.00    -0.014 C 
ATOM     14  C   UNL     1      -5.116 -14.000   7.225  1.00  0.00     0.016 C 
ATOM     15  C   UNL     1      -4.801 -15.579   5.339  1.00  0.00     0.016 C 
BRANCH  13  16
ATOM     16  C   UNL     1      -4.999 -16.576   7.629  1.00  0.00     0.038 CG0
ATOM     17  G   UNL     1      -5.511 -16.305   9.025  1.00  0.00     0.000 G0
ENDBRANCH  13  16
ENDBRANCH  12  13
ENDBRANCH  10  11
ENDBRANCH   1  10
TORSDOF 0
ENDMDL
MODEL 2
REMARK VINA RESULT:    -5.114      1.470      3.459
REMARK INTER + INTRA:          -7.318
REMARK INTER:                  -7.430
REMARK INTRA:                   0.112
REMARK UNBOUND:                 0.188
REMARK SMILES C=C1CC=CC(C)(C)CC=C(C)CCC1
REMARK SMILES IDX 2 1 1 2 15 3 14 4 13 5 11 6 12 7 10 8 3 10 4 11 5 12 6 13
REMARK SMILES IDX 7 14 8 15 9 16
REMARK H PARENT
REMARK Flexibility Score: 60.00
ROOT
ATOM      1  C   UNL     1      -2.636 -16.377  11.840  1.00  0.00    -0.074 C 
ATOM      2  C   UNL     1      -1.579 -16.900  12.487  1.00  0.00     0.008 C 
ENDROOT
BRANCH   1   3
ATOM      3  C   UNL     1      -3.033 -14.935  12.120  1.00  0.00     0.031 C 
BRANCH   3   4
ATOM      4  C   UNL     1      -2.002 -13.911  11.596  1.00  0.00     0.009 C 
BRANCH   4   5
ATOM      5  C   UNL     1      -2.225 -13.585  10.103  1.00  0.00     0.030 C 
BRANCH   5   6
ATOM      6  C   UNL     1      -1.426 -14.456   9.145  1.00  0.00    -0.077 C 
ATOM      7  C   UNL     1       0.042 -14.672   9.409  1.00  0.00     0.039 C 
ATOM      8  C   UNL     1      -1.993 -15.134   8.116  1.00  0.00    -0.027 CG0
ATOM      9  G   UNL     1      -3.424 -14.967   7.661  1.00  0.00     0.000 G0
ENDBRANCH   5   6
ENDBRANCH   4   5
ENDBRANCH   3   4
ENDBRANCH   1   3
BRANCH   1  10
ATOM     10  C   UNL     1      -3.354 -17.163  10.752  1.00  0.00     0.057 C 
BRANCH  10  11
ATOM     11  C   UNL     1      -4.691 -16.590  10.302  1.00  0.00    -0.026 C 
ATOM     12  C   UNL     1      -5.113 -16.231   9.059  1.00  0.00    -0.024 C 
BRANCH  12  13
ATOM     13  C   UNL     1      -4.351 -16.234   7.725  1.00  0.00    -0.014 C 
ATOM     14  C   UNL     1      -3.616 -17.580   7.525  1.00  0.00     0.016 C 
ATOM     15  C   UNL     1      -5.390 -16.128   6.580  1.00  0.00     0.016 C 
BRANCH  13  16
ATOM     16  C   UNL     1      -3.436 -14.979   7.645  1.00  0.00     0.038 CG0
ATOM     17  G   UNL     1      -2.013 -15.151   8.126  1.00  0.00     0.000 G0
ENDBRANCH  13  16
ENDBRANCH  12  13
ENDBRANCH  10  11
ENDBRANCH   1  10
TORSDOF 0
ENDMDL
MODEL 3
REMARK VINA RESULT:    -4.854      1.975      5.059
REMARK INTER + INTRA:          -6.936
REMARK INTER:                  -7.742
REMARK INTRA:                   0.807
REMARK UNBOUND:                 0.188
REMARK SMILES C=C1CC=CC(C)(C)CC=C(C)CCC1
REMARK SMILES IDX 2 1 1 2 15 3 14 4 13 5 11 6 12 7 10 8 3 10 4 11 5 12 6 13
REMARK SMILES IDX 7 14 8 15 9 16
REMARK H PARENT
REMARK Flexibility Score: 60.00
ROOT
ATOM      1  C   UNL     1      -3.857 -17.790   8.705  1.00  0.00    -0.074 C 
ATOM      2  C   UNL     1      -3.099 -18.618   7.965  1.00  0.00     0.008 C 
ENDROOT
BRANCH   1   3
ATOM      3  C   UNL     1      -4.748 -16.777   8.000  1.00  0.00     0.031 C 
BRANCH   3   4
ATOM      4  C   UNL     1      -3.951 -15.664   7.286  1.00  0.00     0.009 C 
BRANCH   4   5
ATOM      5  C   UNL     1      -3.323 -14.673   8.292  1.00  0.00     0.030 C 
BRANCH   5   6
ATOM      6  C   UNL     1      -1.925 -15.051   8.754  1.00  0.00    -0.077 C 
ATOM      7  C   UNL     1      -0.953 -15.615   7.751  1.00  0.00     0.039 C 
ATOM      8  C   UNL     1      -1.472 -14.810  10.011  1.00  0.00    -0.027 CG0
ATOM      9  G   UNL     1      -2.333 -14.331  11.157  1.00  0.00     0.000 G0
ENDBRANCH   5   6
ENDBRANCH   4   5
ENDBRANCH   3   4
ENDBRANCH   1   3
BRANCH   1  10
ATOM     10  C   UNL     1      -3.926 -17.936  10.218  1.00  0.00     0.057 C 
BRANCH  10  11
ATOM     11  C   UNL     1      -4.734 -16.869  10.944  1.00  0.00    -0.026 C 
ATOM     12  C   UNL     1      -4.314 -15.825  11.708  1.00  0.00    -0.024 C 
BRANCH  12  13
ATOM     13  C   UNL     1      -2.891 -15.427  12.130  1.00  0.00    -0.014 C 
ATOM     14  C   UNL     1      -2.861 -15.031  13.625  1.00  0.00     0.016 C 
ATOM     15  C   UNL     1      -1.983 -16.674  11.987  1.00  0.00     0.016 C 
BRANCH  13  16
ATOM     16  C   UNL     1      -2.347 -14.337  11.161  1.00  0.00     0.038 CG0
ATOM     17  G   UNL     1      -1.485 -14.821  10.018  1.00  0.00     0.000 G0
ENDBRANCH  13  16
ENDBRANCH  12  13
ENDBRANCH  10  11
ENDBRANCH   1  10
TORSDOF 0
ENDMDL
MODEL 4
REMARK VINA RESULT:    -4.844      1.561      3.892
REMARK INTER + INTRA:          -6.921
REMARK INTER:                  -7.948
REMARK INTRA:                   1.027
REMARK UNBOUND:                 0.188
REMARK SMILES C=C1CC=CC(C)(C)CC=C(C)CCC1
REMARK SMILES IDX 2 1 1 2 15 3 14 4 13 5 11 6 12 7 10 8 3 10 4 11 5 12 6 13
REMARK SMILES IDX 7 14 8 15 9 16
REMARK H PARENT
REMARK Flexibility Score: 60.00
ROOT
ATOM      1  C   UNL     1      -4.818 -15.636   6.678  1.00  0.00    -0.074 C 
ATOM      2  C   UNL     1      -5.490 -15.728   5.516  1.00  0.00     0.008 C 
ENDROOT
BRANCH   1   3
ATOM      3  C   UNL     1      -5.127 -16.628   7.789  1.00  0.00     0.031 C 
BRANCH   3   4
ATOM      4  C   UNL     1      -3.926 -17.532   8.144  1.00  0.00     0.009 C 
BRANCH   4   5
ATOM      5  C   UNL     1      -3.901 -17.889   9.647  1.00  0.00     0.030 C 
BRANCH   5   6
ATOM      6  C   UNL     1      -4.270 -16.739  10.571  1.00  0.00    -0.077 C 
ATOM      7  C   UNL     1      -5.688 -16.627  11.066  1.00  0.00     0.039 C 
ATOM      8  C   UNL     1      -3.357 -15.859  11.054  1.00  0.00    -0.027 CG0
ATOM      9  G   UNL     1      -1.918 -15.774  10.599  1.00  0.00     0.000 G0
ENDBRANCH   5   6
ENDBRANCH   4   5
ENDBRANCH   3   4
ENDBRANCH   1   3
BRANCH   1  10
ATOM     10  C   UNL     1      -3.678 -14.642   6.844  1.00  0.00     0.057 C 
BRANCH  10  11
ATOM     11  C   UNL     1      -3.689 -13.842   8.141  1.00  0.00    -0.026 C 
ATOM     12  C   UNL     1      -2.830 -13.876   9.194  1.00  0.00    -0.024 C 
BRANCH  12  13
ATOM     13  C   UNL     1      -1.609 -14.776   9.437  1.00  0.00    -0.014 C 
ATOM     14  C   UNL     1      -1.166 -15.453   8.119  1.00  0.00     0.016 C 
ATOM     15  C   UNL     1      -0.431 -13.875   9.884  1.00  0.00     0.016 C 
BRANCH  13  16
ATOM     16  C   UNL     1      -1.913 -15.763  10.601  1.00  0.00     0.038 CG0
ATOM     17  G   UNL     1      -3.356 -15.866  11.036  1.00  0.00     0.000 G0
ENDBRANCH  13  16
ENDBRANCH  12  13
ENDBRANCH  10  11
ENDBRANCH   1  10
TORSDOF 0
ENDMDL
MODEL 5
REMARK VINA RESULT:    -4.798      1.632      4.357
REMARK INTER + INTRA:          -6.854
REMARK INTER:                  -7.821
REMARK INTRA:                   0.967
REMARK UNBOUND:                 0.188
REMARK SMILES C=C1CC=CC(C)(C)CC=C(C)CCC1
REMARK SMILES IDX 2 1 1 2 15 3 14 4 13 5 11 6 12 7 10 8 3 10 4 11 5 12 6 13
REMARK SMILES IDX 7 14 8 15 9 16
REMARK H PARENT
REMARK Flexibility Score: 60.00
ROOT
ATOM      1  C   UNL     1      -4.513 -15.220   7.066  1.00  0.00    -0.074 C 
ATOM      2  C   UNL     1      -5.008 -14.559   6.004  1.00  0.00     0.008 C 
ENDROOT
BRANCH   1   3
ATOM      3  C   UNL     1      -3.542 -14.505   7.993  1.00  0.00     0.031 C 
BRANCH   3   4
ATOM      4  C   UNL     1      -2.062 -14.770   7.639  1.00  0.00     0.009 C 
BRANCH   4   5
ATOM      5  C   UNL     1      -1.221 -15.096   8.893  1.00  0.00     0.030 C 
BRANCH   5   6
ATOM      6  C   UNL     1      -1.869 -14.684  10.206  1.00  0.00    -0.077 C 
ATOM      7  C   UNL     1      -1.925 -13.222  10.564  1.00  0.00     0.039 C 
ATOM      8  C   UNL     1      -2.494 -15.564  11.029  1.00  0.00    -0.027 CG0
ATOM      9  G   UNL     1      -2.461 -17.066  10.867  1.00  0.00     0.000 G0
ENDBRANCH   5   6
ENDBRANCH   4   5
ENDBRANCH   3   4
ENDBRANCH   1   3
BRANCH   1  10
ATOM     10  C   UNL     1      -5.005 -16.617   7.415  1.00  0.00     0.057 C 
BRANCH  10  11
ATOM     11  C   UNL     1      -3.917 -17.661   7.632  1.00  0.00    -0.026 C 
ATOM     12  C   UNL     1      -3.398 -18.153   8.789  1.00  0.00    -0.024 C 
BRANCH  12  13
ATOM     13  C   UNL     1      -3.703 -17.768  10.244  1.00  0.00    -0.014 C 
ATOM     14  C   UNL     1      -5.002 -16.932  10.321  1.00  0.00     0.016 C 
ATOM     15  C   UNL     1      -3.973 -19.071  11.038  1.00  0.00     0.016 C 
BRANCH  13  16
ATOM     16  C   UNL     1      -2.455 -17.085  10.874  1.00  0.00     0.038 CG0
ATOM     17  G   UNL     1      -2.511 -15.582  11.018  1.00  0.00     0.000 G0
ENDBRANCH  13  16
ENDBRANCH  12  13
ENDBRANCH  10  11
ENDBRANCH   1  10
TORSDOF 0
ENDMDL
MODEL 6
REMARK VINA RESULT:    -4.704      1.562      4.164
REMARK INTER + INTRA:          -6.716
REMARK INTER:                  -7.063
REMARK INTRA:                   0.347
REMARK UNBOUND:                 0.188
REMARK SMILES C=C1CC=CC(C)(C)CC=C(C)CCC1
REMARK SMILES IDX 2 1 1 2 15 3 14 4 13 5 11 6 12 7 10 8 3 10 4 11 5 12 6 13
REMARK SMILES IDX 7 14 8 15 9 16
REMARK H PARENT
REMARK Flexibility Score: 60.00
ROOT
ATOM      1  C   UNL     1      -4.919 -16.619  10.234  1.00  0.00    -0.074 C 
ATOM      2  C   UNL     1      -6.233 -16.509  10.501  1.00  0.00     0.008 C 
ENDROOT
BRANCH   1   3
ATOM      3  C   UNL     1      -4.482 -17.293   8.943  1.00  0.00     0.031 C 
BRANCH   3   4
ATOM      4  C   UNL     1      -5.286 -16.821   7.712  1.00  0.00     0.009 C 
BRANCH   4   5
ATOM      5  C   UNL     1      -4.426 -15.958   6.761  1.00  0.00     0.030 C 
BRANCH   5   6
ATOM      6  C   UNL     1      -4.229 -14.522   7.225  1.00  0.00    -0.077 C 
ATOM      7  C   UNL     1      -5.324 -13.519   6.975  1.00  0.00     0.039 C 
ATOM      8  C   UNL     1      -3.151 -14.121   7.945  1.00  0.00    -0.027 CG0
ATOM      9  G   UNL     1      -1.929 -14.970   8.211  1.00  0.00     0.000 G0
ENDBRANCH   5   6
ENDBRANCH   4   5
ENDBRANCH   3   4
ENDBRANCH   1   3
BRANCH   1  10
ATOM     10  C   UNL     1      -3.881 -15.974  11.141  1.00  0.00     0.057 C 
BRANCH  10  11
ATOM     11  C   UNL     1      -2.474 -16.549  11.041  1.00  0.00    -0.026 C 
ATOM     12  C   UNL     1      -1.370 -16.052  10.421  1.00  0.00    -0.024 C 
BRANCH  12  13
ATOM     13  C   UNL     1      -1.209 -14.781   9.573  1.00  0.00    -0.014 C 
ATOM     14  C   UNL     1      -1.666 -13.537  10.370  1.00  0.00     0.016 C 
ATOM     15  C   UNL     1       0.300 -14.586   9.284  1.00  0.00     0.016 C 
BRANCH  13  16
ATOM     16  C   UNL     1      -1.927 -14.974   8.206  1.00  0.00     0.038 CG0
ATOM     17  G   UNL     1      -3.151 -14.121   7.962  1.00  0.00     0.000 G0
ENDBRANCH  13  16
ENDBRANCH  12  13
ENDBRANCH  10  11
ENDBRANCH   1  10
TORSDOF 0
ENDMDL
MODEL 7
REMARK VINA RESULT:    -4.583      1.195      3.801
REMARK INTER + INTRA:          -6.539
REMARK INTER:                  -7.424
REMARK INTRA:                   0.885
REMARK UNBOUND:                 0.188
REMARK SMILES C=C1CC=CC(C)(C)CC=C(C)CCC1
REMARK SMILES IDX 2 1 1 2 15 3 14 4 13 5 11 6 12 7 10 8 3 10 4 11 5 12 6 13
REMARK SMILES IDX 7 14 8 15 9 16
REMARK H PARENT
REMARK Flexibility Score: 60.00
ROOT
ATOM      1  C   UNL     1      -1.732 -14.161   9.990  1.00  0.00    -0.074 C 
ATOM      2  C   UNL     1      -0.638 -14.800   9.537  1.00  0.00     0.008 C 
ENDROOT
BRANCH   1   3
ATOM      3  C   UNL     1      -2.402 -13.124   9.101  1.00  0.00     0.031 C 
BRANCH   3   4
ATOM      4  C   UNL     1      -3.652 -13.667   8.374  1.00  0.00     0.009 C 
BRANCH   4   5
ATOM      5  C   UNL     1      -3.275 -14.642   7.235  1.00  0.00     0.030 C 
BRANCH   5   6
ATOM      6  C   UNL     1      -4.182 -15.857   7.124  1.00  0.00    -0.077 C 
ATOM      7  C   UNL     1      -5.305 -15.839   6.120  1.00  0.00     0.039 C 
ATOM      8  C   UNL     1      -3.969 -17.003   7.819  1.00  0.00    -0.027 CG0
ATOM      9  G   UNL     1      -2.948 -17.164   8.921  1.00  0.00     0.000 G0
ENDBRANCH   5   6
ENDBRANCH   4   5
ENDBRANCH   3   4
ENDBRANCH   1   3
BRANCH   1  10
ATOM     10  C   UNL     1      -2.371 -14.550  11.315  1.00  0.00     0.057 C 
BRANCH  10  11
ATOM     11  C   UNL     1      -2.024 -15.941  11.828  1.00  0.00    -0.026 C 
ATOM     12  C   UNL     1      -2.473 -17.159  11.421  1.00  0.00    -0.024 C 
BRANCH  12  13
ATOM     13  C   UNL     1      -3.522 -17.512  10.355  1.00  0.00    -0.014 C 
ATOM     14  C   UNL     1      -4.006 -18.970  10.535  1.00  0.00     0.016 C 
ATOM     15  C   UNL     1      -4.759 -16.608  10.581  1.00  0.00     0.016 C 
BRANCH  13  16
ATOM     16  C   UNL     1      -2.956 -17.188   8.942  1.00  0.00     0.038 CG0
ATOM     17  G   UNL     1      -3.969 -17.017   7.833  1.00  0.00     0.000 G0
ENDBRANCH  13  16
ENDBRANCH  12  13
ENDBRANCH  10  11
ENDBRANCH   1  10
TORSDOF 0
ENDMDL
MODEL 8
REMARK VINA RESULT:    -4.384      1.798      3.732
REMARK INTER + INTRA:          -6.246
REMARK INTER:                  -7.017
REMARK INTRA:                   0.771
REMARK UNBOUND:                 0.188
REMARK SMILES C=C1CC=CC(C)(C)CC=C(C)CCC1
REMARK SMILES IDX 2 1 1 2 15 3 14 4 13 5 11 6 12 7 10 8 3 10 4 11 5 12 6 13
REMARK SMILES IDX 7 14 8 15 9 16
REMARK H PARENT
REMARK Flexibility Score: 60.00
ROOT
ATOM      1  C   UNL     1      -3.914 -16.503   7.592  1.00  0.00    -0.074 C 
ATOM      2  C   UNL     1      -5.246 -16.416   7.427  1.00  0.00     0.008 C 
ENDROOT
BRANCH   1   3
ATOM      3  C   UNL     1      -3.306 -17.839   7.992  1.00  0.00     0.031 C 
BRANCH   3   4
ATOM      4  C   UNL     1      -3.812 -18.349   9.359  1.00  0.00     0.009 C 
BRANCH   4   5
ATOM      5  C   UNL     1      -3.136 -17.607  10.534  1.00  0.00     0.030 C 
BRANCH   5   6
ATOM      6  C   UNL     1      -3.909 -16.399  11.041  1.00  0.00    -0.077 C 
ATOM      7  C   UNL     1      -5.395 -16.523  11.255  1.00  0.00     0.039 C 
ATOM      8  C   UNL     1      -3.309 -15.239  11.408  1.00  0.00    -0.027 CG0
ATOM      9  G   UNL     1      -1.850 -14.916  11.182  1.00  0.00     0.000 G0
ENDBRANCH   5   6
ENDBRANCH   4   5
ENDBRANCH   3   4
ENDBRANCH   1   3
BRANCH   1  10
ATOM     10  C   UNL     1      -3.008 -15.324   7.267  1.00  0.00     0.057 C 
BRANCH  10  11
ATOM     11  C   UNL     1      -1.560 -15.467   7.716  1.00  0.00    -0.026 C 
ATOM     12  C   UNL     1      -0.935 -14.972   8.819  1.00  0.00    -0.024 C 
BRANCH  12  13
ATOM     13  C   UNL     1      -1.479 -14.060   9.930  1.00  0.00    -0.014 C 
ATOM     14  C   UNL     1      -0.492 -12.904  10.213  1.00  0.00     0.016 C 
ATOM     15  C   UNL     1      -2.785 -13.406   9.415  1.00  0.00     0.016 C 
BRANCH  13  16
ATOM     16  C   UNL     1      -1.843 -14.919  11.175  1.00  0.00     0.038 CG0
ATOM     17  G   UNL     1      -3.311 -15.216  11.383  1.00  0.00     0.000 G0
ENDBRANCH  13  16
ENDBRANCH  12  13
ENDBRANCH  10  11
ENDBRANCH   1  10
TORSDOF 0
ENDMDL
MODEL 9
REMARK VINA RESULT:    -4.155      1.715      2.737
REMARK INTER + INTRA:          -5.911
REMARK INTER:                  -6.678
REMARK INTRA:                   0.767
REMARK UNBOUND:                 0.188
REMARK SMILES C=C1CC=CC(C)(C)CC=C(C)CCC1
REMARK SMILES IDX 2 1 1 2 15 3 14 4 13 5 11 6 12 7 10 8 3 10 4 11 5 12 6 13
REMARK SMILES IDX 7 14 8 15 9 16
REMARK H PARENT
REMARK Flexibility Score: 60.00
ROOT
ATOM      1  C   UNL     1      -1.481 -13.930   9.476  1.00  0.00    -0.074 C 
ATOM      2  C   UNL     1      -0.349 -14.577   9.142  1.00  0.00     0.008 C 
ENDROOT
BRANCH   1   3
ATOM      3  C   UNL     1      -1.467 -12.985  10.667  1.00  0.00     0.031 C 
BRANCH   3   4
ATOM      4  C   UNL     1      -2.303 -13.501  11.859  1.00  0.00     0.009 C 
BRANCH   4   5
ATOM      5  C   UNL     1      -2.154 -15.027  12.046  1.00  0.00     0.030 C 
BRANCH   5   6
ATOM      6  C   UNL     1      -3.472 -15.786  12.079  1.00  0.00    -0.077 C 
ATOM      7  C   UNL     1      -4.412 -15.564  13.235  1.00  0.00     0.039 C 
ATOM      8  C   UNL     1      -3.891 -16.582  11.063  1.00  0.00    -0.027 CG0
ATOM      9  G   UNL     1      -3.044 -16.979   9.875  1.00  0.00     0.000 G0
ENDBRANCH   5   6
ENDBRANCH   4   5
ENDBRANCH   3   4
ENDBRANCH   1   3
BRANCH   1  10
ATOM     10  C   UNL     1      -2.727 -14.040   8.609  1.00  0.00     0.057 C 
BRANCH  10  11
ATOM     11  C   UNL     1      -2.653 -15.059   7.479  1.00  0.00    -0.026 C 
ATOM     12  C   UNL     1      -3.102 -16.341   7.429  1.00  0.00    -0.024 C 
BRANCH  12  13
ATOM     13  C   UNL     1      -3.774 -17.189   8.520  1.00  0.00    -0.014 C 
ATOM     14  C   UNL     1      -5.294 -16.903   8.568  1.00  0.00     0.016 C 
ATOM     15  C   UNL     1      -3.622 -18.681   8.129  1.00  0.00     0.016 C 
BRANCH  13  16
ATOM     16  C   UNL     1      -3.033 -16.980   9.872  1.00  0.00     0.038 CG0
ATOM     17  G   UNL     1      -3.889 -16.596  11.057  1.00  0.00     0.000 G0
ENDBRANCH  13  16
ENDBRANCH  12  13
ENDBRANCH  10  11
ENDBRANCH   1  10
TORSDOF 0
ENDMDL
