MODEL 1
REMARK VINA RESULT:    -6.380      0.000      0.000
REMARK INTER + INTRA:          -7.635
REMARK INTER:                  -7.312
REMARK INTRA:                  -0.323
REMARK UNBOUND:                -0.323
REMARK SMILES COc1ccc(C(C)=O)c(O)c1
REMARK SMILES IDX 6 1 10 2 12 3 3 4 4 5 5 6 7 7 8 8 9 9 11 10 2 12 1 13
REMARK H PARENT 11 11
REMARK Flexibility Score: inf
ROOT
ATOM      1  C   UNL     1     -12.723   2.402  -9.328  1.00  0.00     0.059 A 
ATOM      2  C   UNL     1     -11.578   1.571  -9.382  1.00  0.00     0.130 A 
ATOM      3  C   UNL     1     -11.659   0.316  -9.996  1.00  0.00     0.093 A 
ATOM      4  C   UNL     1     -12.864  -0.150 -10.530  1.00  0.00     0.122 A 
ATOM      5  C   UNL     1     -14.007   0.662 -10.450  1.00  0.00     0.047 A 
ATOM      6  C   UNL     1     -13.935   1.924  -9.857  1.00  0.00     0.019 A 
ENDROOT
BRANCH   1   7
ATOM      7  C   UNL     1     -12.673   3.774  -8.768  1.00  0.00     0.163 C 
ATOM      8  C   UNL     1     -13.660   4.224  -7.735  1.00  0.00     0.093 C 
ATOM      9  O   UNL     1     -11.842   4.608  -9.218  1.00  0.00    -0.294 OA
ENDBRANCH   1   7
BRANCH   2  10
ATOM     10  O   UNL     1     -10.356   1.941  -8.814  1.00  0.00    -0.507 OA
ATOM     11  H   UNL     1      -9.767   2.672  -9.189  1.00  0.00     0.293 HD
ENDBRANCH   2  10
BRANCH   4  12
ATOM     12  O   UNL     1     -12.883  -1.420 -11.125  1.00  0.00    -0.497 OA
ATOM     13  C   UNL     1     -12.465  -2.618 -10.477  1.00  0.00     0.278 C 
ENDBRANCH   4  12
TORSDOF 3
ENDMDL
MODEL 2
REMARK VINA RESULT:    -6.137      1.295      2.160
REMARK INTER + INTRA:          -7.357
REMARK INTER:                  -7.120
REMARK INTRA:                  -0.237
REMARK UNBOUND:                -0.323
REMARK SMILES COc1ccc(C(C)=O)c(O)c1
REMARK SMILES IDX 6 1 10 2 12 3 3 4 4 5 5 6 7 7 8 8 9 9 11 10 2 12 1 13
REMARK H PARENT 11 11
REMARK Flexibility Score: inf
ROOT
ATOM      1  C   UNL     1     -12.422   2.267  -9.360  1.00  0.00     0.059 A 
ATOM      2  C   UNL     1     -13.733   1.885  -9.730  1.00  0.00     0.130 A 
ATOM      3  C   UNL     1     -13.957   0.621 -10.290  1.00  0.00     0.093 A 
ATOM      4  C   UNL     1     -12.899  -0.262 -10.523  1.00  0.00     0.122 A 
ATOM      5  C   UNL     1     -11.594   0.129 -10.184  1.00  0.00     0.047 A 
ATOM      6  C   UNL     1     -11.360   1.379  -9.608  1.00  0.00     0.019 A 
ENDROOT
BRANCH   1   7
ATOM      7  C   UNL     1     -12.139   3.557  -8.686  1.00  0.00     0.163 C 
ATOM      8  C   UNL     1     -10.786   3.851  -8.115  1.00  0.00     0.093 C 
ATOM      9  O   UNL     1     -13.066   4.393  -8.515  1.00  0.00    -0.294 OA
ENDBRANCH   1   7
BRANCH   2  10
ATOM     10  O   UNL     1     -14.831   2.738  -9.588  1.00  0.00    -0.507 OA
ATOM     11  H   UNL     1     -15.025   3.504 -10.218  1.00  0.00     0.293 HD
ENDBRANCH   2  10
BRANCH   4  12
ATOM     12  O   UNL     1     -13.187  -1.511 -11.094  1.00  0.00    -0.497 OA
ATOM     13  C   UNL     1     -12.730  -2.757 -10.577  1.00  0.00     0.278 C 
ENDBRANCH   4  12
TORSDOF 3
ENDMDL
MODEL 3
REMARK VINA RESULT:    -5.625      1.594      2.099
REMARK INTER + INTRA:          -6.770
REMARK INTER:                  -6.435
REMARK INTRA:                  -0.334
REMARK UNBOUND:                -0.323
REMARK SMILES COc1ccc(C(C)=O)c(O)c1
REMARK SMILES IDX 6 1 10 2 12 3 3 4 4 5 5 6 7 7 8 8 9 9 11 10 2 12 1 13
REMARK H PARENT 11 11
REMARK Flexibility Score: inf
ROOT
ATOM      1  C   UNL     1     -12.656   1.121  -9.680  1.00  0.00     0.059 A 
ATOM      2  C   UNL     1     -11.305   1.194  -9.263  1.00  0.00     0.130 A 
ATOM      3  C   UNL     1     -10.435   0.133  -9.541  1.00  0.00     0.093 A 
ATOM      4  C   UNL     1     -10.885  -1.017 -10.196  1.00  0.00     0.122 A 
ATOM      5  C   UNL     1     -12.232  -1.102 -10.583  1.00  0.00     0.047 A 
ATOM      6  C   UNL     1     -13.106  -0.043 -10.328  1.00  0.00     0.019 A 
ENDROOT
BRANCH   1   7
ATOM      7  C   UNL     1     -13.600   2.249  -9.488  1.00  0.00     0.163 C 
ATOM      8  C   UNL     1     -15.051   2.005  -9.212  1.00  0.00     0.093 C 
ATOM      9  O   UNL     1     -13.200   3.435  -9.637  1.00  0.00    -0.294 OA
ENDBRANCH   1   7
BRANCH   2  10
ATOM     10  O   UNL     1     -10.799   2.282  -8.547  1.00  0.00    -0.507 OA
ATOM     11  H   UNL     1     -11.346   2.813  -7.883  1.00  0.00     0.293 HD
ENDBRANCH   2  10
BRANCH   4  12
ATOM     12  O   UNL     1      -9.965  -2.049 -10.438  1.00  0.00    -0.497 OA
ATOM     13  C   UNL     1      -9.936  -3.284  -9.728  1.00  0.00     0.278 C 
ENDBRANCH   4  12
TORSDOF 3
ENDMDL
MODEL 4
REMARK VINA RESULT:    -4.920      2.033      2.964
REMARK INTER + INTRA:          -5.962
REMARK INTER:                  -5.805
REMARK INTRA:                  -0.156
REMARK UNBOUND:                -0.323
REMARK SMILES COc1ccc(C(C)=O)c(O)c1
REMARK SMILES IDX 6 1 10 2 12 3 3 4 4 5 5 6 7 7 8 8 9 9 11 10 2 12 1 13
REMARK H PARENT 11 11
REMARK Flexibility Score: inf
ROOT
ATOM      1  C   UNL     1     -12.927   0.976  -9.785  1.00  0.00     0.059 A 
ATOM      2  C   UNL     1     -13.184  -0.209 -10.516  1.00  0.00     0.130 A 
ATOM      3  C   UNL     1     -12.170  -1.162 -10.672  1.00  0.00     0.093 A 
ATOM      4  C   UNL     1     -10.892  -0.949 -10.146  1.00  0.00     0.122 A 
ATOM      5  C   UNL     1     -10.629   0.240  -9.447  1.00  0.00     0.047 A 
ATOM      6  C   UNL     1     -11.636   1.190  -9.269  1.00  0.00     0.019 A 
ENDROOT
BRANCH   1   7
ATOM      7  C   UNL     1     -13.985   1.979  -9.516  1.00  0.00     0.163 C 
ATOM      8  C   UNL     1     -15.033   1.737  -8.473  1.00  0.00     0.093 C 
ATOM      9  O   UNL     1     -14.061   3.019 -10.224  1.00  0.00    -0.294 OA
ENDBRANCH   1   7
BRANCH   2  10
ATOM     10  O   UNL     1     -14.415  -0.462 -11.124  1.00  0.00    -0.507 OA
ATOM     11  H   UNL     1     -14.824   0.143 -11.824  1.00  0.00     0.293 HD
ENDBRANCH   2  10
BRANCH   4  12
ATOM     12  O   UNL     1      -9.918  -1.939 -10.343  1.00  0.00    -0.497 OA
ATOM     13  C   UNL     1      -9.528  -2.892  -9.359  1.00  0.00     0.278 C 
ENDBRANCH   4  12
TORSDOF 3
ENDMDL
MODEL 5
REMARK VINA RESULT:    -4.699     14.548     16.739
REMARK INTER + INTRA:          -5.708
REMARK INTER:                  -5.551
REMARK INTRA:                  -0.157
REMARK UNBOUND:                -0.323
REMARK SMILES COc1ccc(C(C)=O)c(O)c1
REMARK SMILES IDX 6 1 10 2 12 3 3 4 4 5 5 6 7 7 8 8 9 9 11 10 2 12 1 13
REMARK H PARENT 11 11
REMARK Flexibility Score: inf
ROOT
ATOM      1  C   UNL     1     -11.463   5.991   6.776  1.00  0.00     0.059 A 
ATOM      2  C   UNL     1     -12.280   4.978   6.218  1.00  0.00     0.130 A 
ATOM      3  C   UNL     1     -13.337   5.328   5.370  1.00  0.00     0.093 A 
ATOM      4  C   UNL     1     -13.624   6.666   5.087  1.00  0.00     0.122 A 
ATOM      5  C   UNL     1     -12.831   7.672   5.664  1.00  0.00     0.047 A 
ATOM      6  C   UNL     1     -11.763   7.336   6.497  1.00  0.00     0.019 A 
ENDROOT
BRANCH   1   7
ATOM      7  C   UNL     1     -10.279   5.675   7.611  1.00  0.00     0.163 C 
ATOM      8  C   UNL     1     -10.422   5.357   9.067  1.00  0.00     0.093 C 
ATOM      9  O   UNL     1      -9.122   5.750   7.115  1.00  0.00    -0.294 OA
ENDBRANCH   1   7
BRANCH   2  10
ATOM     10  O   UNL     1     -12.096   3.623   6.505  1.00  0.00    -0.507 OA
ATOM     11  H   UNL     1     -12.179   2.892   5.811  1.00  0.00     0.293 HD
ENDBRANCH   2  10
BRANCH   4  12
ATOM     12  O   UNL     1     -14.701   6.952   4.236  1.00  0.00    -0.497 OA
ATOM     13  C   UNL     1     -15.125   6.114   3.165  1.00  0.00     0.278 C 
ENDBRANCH   4  12
TORSDOF 3
ENDMDL
MODEL 6
REMARK VINA RESULT:    -4.619     14.743     16.889
REMARK INTER + INTRA:          -5.617
REMARK INTER:                  -5.278
REMARK INTRA:                  -0.339
REMARK UNBOUND:                -0.323
REMARK SMILES COc1ccc(C(C)=O)c(O)c1
REMARK SMILES IDX 6 1 10 2 12 3 3 4 4 5 5 6 7 7 8 8 9 9 11 10 2 12 1 13
REMARK H PARENT 11 11
REMARK Flexibility Score: inf
ROOT
ATOM      1  C   UNL     1     -11.271   5.936   6.867  1.00  0.00     0.059 A 
ATOM      2  C   UNL     1     -11.652   7.146   6.238  1.00  0.00     0.130 A 
ATOM      3  C   UNL     1     -12.860   7.211   5.533  1.00  0.00     0.093 A 
ATOM      4  C   UNL     1     -13.686   6.090   5.409  1.00  0.00     0.122 A 
ATOM      5  C   UNL     1     -13.293   4.882   6.009  1.00  0.00     0.047 A 
ATOM      6  C   UNL     1     -12.100   4.808   6.730  1.00  0.00     0.019 A 
ENDROOT
BRANCH   1   7
ATOM      7  C   UNL     1     -10.047   5.834   7.697  1.00  0.00     0.163 C 
ATOM      8  C   UNL     1     -10.105   5.314   9.100  1.00  0.00     0.093 C 
ATOM      9  O   UNL     1      -8.948   6.262   7.252  1.00  0.00    -0.294 OA
ENDBRANCH   1   7
BRANCH   2  10
ATOM     10  O   UNL     1     -10.850   8.289   6.263  1.00  0.00    -0.507 OA
ATOM     11  H   UNL     1     -11.105   9.157   5.810  1.00  0.00     0.293 HD
ENDBRANCH   2  10
BRANCH   4  12
ATOM     12  O   UNL     1     -14.879   6.217   4.684  1.00  0.00    -0.497 OA
ATOM     13  C   UNL     1     -15.010   5.936   3.293  1.00  0.00     0.278 C 
ENDBRANCH   4  12
TORSDOF 3
ENDMDL
MODEL 7
REMARK VINA RESULT:    -4.213     16.076     17.210
REMARK INTER + INTRA:          -5.151
REMARK INTER:                  -5.025
REMARK INTRA:                  -0.127
REMARK UNBOUND:                -0.323
REMARK SMILES COc1ccc(C(C)=O)c(O)c1
REMARK SMILES IDX 6 1 10 2 12 3 3 4 4 5 5 6 7 7 8 8 9 9 11 10 2 12 1 13
REMARK H PARENT 11 11
REMARK Flexibility Score: inf
ROOT
ATOM      1  C   UNL     1     -11.818   5.272   6.823  1.00  0.00     0.059 A 
ATOM      2  C   UNL     1     -11.239   6.548   6.616  1.00  0.00     0.130 A 
ATOM      3  C   UNL     1     -11.945   7.523   5.903  1.00  0.00     0.093 A 
ATOM      4  C   UNL     1     -13.203   7.251   5.357  1.00  0.00     0.122 A 
ATOM      5  C   UNL     1     -13.764   5.976   5.536  1.00  0.00     0.047 A 
ATOM      6  C   UNL     1     -13.079   5.000   6.261  1.00  0.00     0.019 A 
ENDROOT
BRANCH   1   7
ATOM      7  C   UNL     1     -11.154   4.231   7.642  1.00  0.00     0.163 C 
ATOM      8  C   UNL     1     -11.011   4.387   9.125  1.00  0.00     0.093 C 
ATOM      9  O   UNL     1     -10.628   3.231   7.083  1.00  0.00    -0.294 OA
ENDBRANCH   1   7
BRANCH   2  10
ATOM     10  O   UNL     1      -9.961   6.873   7.075  1.00  0.00    -0.507 OA
ATOM     11  H   UNL     1      -9.204   7.151   6.464  1.00  0.00     0.293 HD
ENDBRANCH   2  10
BRANCH   4  12
ATOM     12  O   UNL     1     -13.856   8.268   4.646  1.00  0.00    -0.497 OA
ATOM     13  C   UNL     1     -13.569   9.657   4.782  1.00  0.00     0.278 C 
ENDBRANCH   4  12
TORSDOF 3
ENDMDL
MODEL 8
REMARK VINA RESULT:    -4.176     14.766     16.713
REMARK INTER + INTRA:          -5.109
REMARK INTER:                  -4.765
REMARK INTRA:                  -0.344
REMARK UNBOUND:                -0.323
REMARK SMILES COc1ccc(C(C)=O)c(O)c1
REMARK SMILES IDX 6 1 10 2 12 3 3 4 4 5 5 6 7 7 8 8 9 9 11 10 2 12 1 13
REMARK H PARENT 11 11
REMARK Flexibility Score: inf
ROOT
ATOM      1  C   UNL     1     -13.037   6.798   5.316  1.00  0.00     0.059 A 
ATOM      2  C   UNL     1     -12.019   7.352   6.129  1.00  0.00     0.130 A 
ATOM      3  C   UNL     1     -11.237   6.511   6.931  1.00  0.00     0.093 A 
ATOM      4  C   UNL     1     -11.467   5.133   6.971  1.00  0.00     0.122 A 
ATOM      5  C   UNL     1     -12.496   4.588   6.187  1.00  0.00     0.047 A 
ATOM      6  C   UNL     1     -13.271   5.412   5.369  1.00  0.00     0.019 A 
ENDROOT
BRANCH   1   7
ATOM      7  C   UNL     1     -13.837   7.628   4.384  1.00  0.00     0.163 C 
ATOM      8  C   UNL     1     -14.005   7.237   2.948  1.00  0.00     0.093 C 
ATOM      9  O   UNL     1     -14.322   8.724   4.776  1.00  0.00    -0.294 OA
ENDBRANCH   1   7
BRANCH   2  10
ATOM     10  O   UNL     1     -11.773   8.725   6.191  1.00  0.00    -0.507 OA
ATOM     11  H   UNL     1     -10.877   9.119   6.449  1.00  0.00     0.293 HD
ENDBRANCH   2  10
BRANCH   4  12
ATOM     12  O   UNL     1     -10.655   4.346   7.801  1.00  0.00    -0.497 OA
ATOM     13  C   UNL     1     -10.271   4.704   9.125  1.00  0.00     0.278 C 
ENDBRANCH   4  12
TORSDOF 3
ENDMDL
MODEL 9
REMARK VINA RESULT:    -4.138     15.997     16.959
REMARK INTER + INTRA:          -5.065
REMARK INTER:                  -4.730
REMARK INTRA:                  -0.335
REMARK UNBOUND:                -0.323
REMARK SMILES COc1ccc(C(C)=O)c(O)c1
REMARK SMILES IDX 6 1 10 2 12 3 3 4 4 5 5 6 7 7 8 8 9 9 11 10 2 12 1 13
REMARK H PARENT 11 11
REMARK Flexibility Score: inf
ROOT
ATOM      1  C   UNL     1     -12.827   7.257   5.708  1.00  0.00     0.059 A 
ATOM      2  C   UNL     1     -13.455   5.989   5.716  1.00  0.00     0.130 A 
ATOM      3  C   UNL     1     -12.901   4.944   6.465  1.00  0.00     0.093 A 
ATOM      4  C   UNL     1     -11.714   5.119   7.182  1.00  0.00     0.122 A 
ATOM      5  C   UNL     1     -11.074   6.369   7.150  1.00  0.00     0.047 A 
ATOM      6  C   UNL     1     -11.626   7.425   6.422  1.00  0.00     0.019 A 
ENDROOT
BRANCH   1   7
ATOM      7  C   UNL     1     -13.414   8.421   5.004  1.00  0.00     0.163 C 
ATOM      8  C   UNL     1     -13.421   9.782   5.630  1.00  0.00     0.093 C 
ATOM      9  O   UNL     1     -13.991   8.259   3.894  1.00  0.00    -0.294 OA
ENDBRANCH   1   7
BRANCH   2  10
ATOM     10  O   UNL     1     -14.607   5.718   4.974  1.00  0.00    -0.507 OA
ATOM     11  H   UNL     1     -15.486   6.199   5.117  1.00  0.00     0.293 HD
ENDBRANCH   2  10
BRANCH   4  12
ATOM     12  O   UNL     1     -11.205   4.031   7.906  1.00  0.00    -0.497 OA
ATOM     13  C   UNL     1     -10.471   4.146   9.122  1.00  0.00     0.278 C 
ENDBRANCH   4  12
TORSDOF 3
ENDMDL
