MODEL 1
REMARK VINA RESULT:    -6.128      0.000      0.000
REMARK INTER + INTRA:          -7.716
REMARK INTER:                  -7.382
REMARK INTRA:                  -0.335
REMARK UNBOUND:                -0.335
REMARK SMILES O=c1c(O)c(-c2ccc(O)c(O)c2)oc2cc(O)cc(O)c12
REMARK SMILES IDX 5 1 3 2 2 3 1 4 22 5 20 6 19 7 17 8 16 9 15 10 14 11 6 12
REMARK SMILES IDX 7 13 8 14 9 15 13 16 11 17 10 18 12 20 4 22 21 24 18 26
REMARK H PARENT 10 19 12 21 4 23 21 25 18 27
REMARK Flexibility Score: inf
ROOT
ATOM      1  C   UNL     1       5.290  21.663  -8.458  1.00  0.00     0.180 A 
ATOM      2  C   UNL     1       6.588  21.182  -8.706  1.00  0.00     0.208 A 
ATOM      3  C   UNL     1       6.821  19.799  -8.668  1.00  0.00     0.238 A 
ATOM      4  O   UNL     1       7.996  19.379  -8.836  1.00  0.00    -0.285 OA
ATOM      5  C   UNL     1       5.752  18.911  -8.400  1.00  0.00     0.111 A 
ATOM      6  C   UNL     1       5.865  17.489  -8.376  1.00  0.00     0.134 A 
ATOM      7  C   UNL     1       4.770  16.715  -7.972  1.00  0.00     0.093 A 
ATOM      8  C   UNL     1       3.547  17.309  -7.652  1.00  0.00     0.123 A 
ATOM      9  C   UNL     1       3.409  18.692  -7.729  1.00  0.00     0.094 A 
ATOM     10  C   UNL     1       4.494  19.493  -8.095  1.00  0.00     0.146 A 
ATOM     11  O   UNL     1       4.323  20.809  -8.146  1.00  0.00    -0.452 OA
ENDROOT
BRANCH   1  12
ATOM     12  C   UNL     1       4.962  23.105  -8.505  1.00  0.00     0.025 A 
ATOM     13  C   UNL     1       5.003  23.862  -7.324  1.00  0.00     0.016 A 
ATOM     14  C   UNL     1       4.676  25.220  -7.341  1.00  0.00     0.051 A 
ATOM     15  C   UNL     1       4.288  25.838  -8.536  1.00  0.00     0.157 A 
ATOM     16  C   UNL     1       4.550  23.725  -9.699  1.00  0.00     0.062 A 
ATOM     17  C   UNL     1       4.220  25.084  -9.720  1.00  0.00     0.158 A 
BRANCH  15  18
ATOM     18  O   UNL     1       3.963  27.195  -8.552  1.00  0.00    -0.504 OA
ATOM     19  H   UNL     1       3.138  27.536  -9.030  1.00  0.00     0.293 HD
ENDBRANCH  15  18
BRANCH  17  20
ATOM     20  O   UNL     1       3.822  25.667 -10.923  1.00  0.00    -0.504 OA
ATOM     21  H   UNL     1       4.308  25.488 -11.794  1.00  0.00     0.293 HD
ENDBRANCH  17  20
ENDBRANCH   1  12
BRANCH   2  22
ATOM     22  O   UNL     1       7.634  22.078  -8.946  1.00  0.00    -0.502 OA
ATOM     23  H   UNL     1       8.030  22.659  -8.217  1.00  0.00     0.293 HD
ENDBRANCH   2  22
BRANCH   6  24
ATOM     24  O   UNL     1       7.012  16.790  -8.766  1.00  0.00    -0.507 OA
ATOM     25  H   UNL     1       7.010  15.882  -9.205  1.00  0.00     0.293 HD
ENDBRANCH   6  24
BRANCH   8  26
ATOM     26  O   UNL     1       2.459  16.530  -7.265  1.00  0.00    -0.508 OA
ATOM     27  H   UNL     1       2.276  15.626  -7.686  1.00  0.00     0.293 HD
ENDBRANCH   8  26
TORSDOF 6
ENDMDL
MODEL 2
REMARK VINA RESULT:    -5.852      2.743      4.237
REMARK INTER + INTRA:          -7.384
REMARK INTER:                  -7.066
REMARK INTRA:                  -0.318
REMARK UNBOUND:                -0.335
REMARK SMILES O=c1c(O)c(-c2ccc(O)c(O)c2)oc2cc(O)cc(O)c12
REMARK SMILES IDX 5 1 3 2 2 3 1 4 22 5 20 6 19 7 17 8 16 9 15 10 14 11 6 12
REMARK SMILES IDX 7 13 8 14 9 15 13 16 11 17 10 18 12 20 4 22 21 24 18 26
REMARK H PARENT 10 19 12 21 4 23 21 25 18 27
REMARK Flexibility Score: inf
ROOT
ATOM      1  C   UNL     1       5.585  23.245  -9.986  1.00  0.00     0.180 A 
ATOM      2  C   UNL     1       4.231  23.489  -9.694  1.00  0.00     0.208 A 
ATOM      3  C   UNL     1       3.539  22.587  -8.870  1.00  0.00     0.238 A 
ATOM      4  O   UNL     1       2.314  22.781  -8.658  1.00  0.00    -0.285 OA
ATOM      5  C   UNL     1       4.213  21.463  -8.334  1.00  0.00     0.111 A 
ATOM      6  C   UNL     1       3.621  20.507  -7.456  1.00  0.00     0.134 A 
ATOM      7  C   UNL     1       4.343  19.363  -7.091  1.00  0.00     0.093 A 
ATOM      8  C   UNL     1       5.659  19.175  -7.522  1.00  0.00     0.123 A 
ATOM      9  C   UNL     1       6.265  20.132  -8.332  1.00  0.00     0.094 A 
ATOM     10  C   UNL     1       5.558  21.265  -8.741  1.00  0.00     0.146 A 
ATOM     11  O   UNL     1       6.170  22.148  -9.522  1.00  0.00    -0.452 OA
ENDROOT
BRANCH   1  12
ATOM     12  C   UNL     1       6.387  24.163 -10.827  1.00  0.00     0.025 A 
ATOM     13  C   UNL     1       7.112  25.200 -10.221  1.00  0.00     0.016 A 
ATOM     14  C   UNL     1       7.858  26.090 -10.996  1.00  0.00     0.051 A 
ATOM     15  C   UNL     1       7.879  25.966 -12.392  1.00  0.00     0.157 A 
ATOM     16  C   UNL     1       6.393  24.054 -12.229  1.00  0.00     0.062 A 
ATOM     17  C   UNL     1       7.138  24.945 -13.010  1.00  0.00     0.158 A 
BRANCH  15  18
ATOM     18  O   UNL     1       8.626  26.854 -13.164  1.00  0.00    -0.504 OA
ATOM     19  H   UNL     1       8.739  27.824 -12.896  1.00  0.00     0.293 HD
ENDBRANCH  15  18
BRANCH  17  20
ATOM     20  O   UNL     1       7.125  24.803 -14.398  1.00  0.00    -0.504 OA
ATOM     21  H   UNL     1       7.727  25.353 -15.000  1.00  0.00     0.293 HD
ENDBRANCH  17  20
ENDBRANCH   1  12
BRANCH   2  22
ATOM     22  O   UNL     1       3.580  24.592 -10.252  1.00  0.00    -0.502 OA
ATOM     23  H   UNL     1       3.259  25.373  -9.693  1.00  0.00     0.293 HD
ENDBRANCH   2  22
BRANCH   6  24
ATOM     24  O   UNL     1       2.348  20.645  -6.894  1.00  0.00    -0.507 OA
ATOM     25  H   UNL     1       2.168  20.833  -5.919  1.00  0.00     0.293 HD
ENDBRANCH   6  24
BRANCH   8  26
ATOM     26  O   UNL     1       6.375  18.042  -7.143  1.00  0.00    -0.508 OA
ATOM     27  H   UNL     1       7.374  18.076  -6.976  1.00  0.00     0.293 HD
ENDBRANCH   8  26
TORSDOF 6
ENDMDL
MODEL 3
REMARK VINA RESULT:    -5.834      2.758      7.191
REMARK INTER + INTRA:          -7.362
REMARK INTER:                  -7.047
REMARK INTRA:                  -0.315
REMARK UNBOUND:                -0.335
REMARK SMILES O=c1c(O)c(-c2ccc(O)c(O)c2)oc2cc(O)cc(O)c12
REMARK SMILES IDX 5 1 3 2 2 3 1 4 22 5 20 6 19 7 17 8 16 9 15 10 14 11 6 12
REMARK SMILES IDX 7 13 8 14 9 15 13 16 11 17 10 18 12 20 4 22 21 24 18 26
REMARK H PARENT 10 19 12 21 4 23 21 25 18 27
REMARK Flexibility Score: inf
ROOT
ATOM      1  C   UNL     1       6.507  22.441  -9.156  1.00  0.00     0.180 A 
ATOM      2  C   UNL     1       6.763  23.486  -8.251  1.00  0.00     0.208 A 
ATOM      3  C   UNL     1       7.066  24.761  -8.753  1.00  0.00     0.238 A 
ATOM      4  O   UNL     1       7.348  25.679  -7.938  1.00  0.00    -0.285 OA
ATOM      5  C   UNL     1       7.094  24.981 -10.151  1.00  0.00     0.111 A 
ATOM      6  C   UNL     1       7.350  26.242 -10.769  1.00  0.00     0.134 A 
ATOM      7  C   UNL     1       7.481  26.315 -12.161  1.00  0.00     0.093 A 
ATOM      8  C   UNL     1       7.302  25.184 -12.962  1.00  0.00     0.123 A 
ATOM      9  C   UNL     1       6.993  23.961 -12.372  1.00  0.00     0.094 A 
ATOM     10  C   UNL     1       6.891  23.850 -10.983  1.00  0.00     0.146 A 
ATOM     11  O   UNL     1       6.605  22.662 -10.461  1.00  0.00    -0.452 OA
ENDROOT
BRANCH   1  12
ATOM     12  C   UNL     1       6.157  21.075  -8.704  1.00  0.00     0.025 A 
ATOM     13  C   UNL     1       7.135  20.069  -8.721  1.00  0.00     0.016 A 
ATOM     14  C   UNL     1       6.821  18.768  -8.319  1.00  0.00     0.051 A 
ATOM     15  C   UNL     1       5.520  18.451  -7.908  1.00  0.00     0.157 A 
ATOM     16  C   UNL     1       4.847  20.747  -8.311  1.00  0.00     0.062 A 
ATOM     17  C   UNL     1       4.527  19.445  -7.909  1.00  0.00     0.158 A 
BRANCH  15  18
ATOM     18  O   UNL     1       5.208  17.153  -7.505  1.00  0.00    -0.504 OA
ATOM     19  H   UNL     1       5.903  16.415  -7.513  1.00  0.00     0.293 HD
ENDBRANCH  15  18
BRANCH  17  20
ATOM     20  O   UNL     1       3.219  19.158  -7.520  1.00  0.00    -0.504 OA
ATOM     21  H   UNL     1       2.820  18.231  -7.617  1.00  0.00     0.293 HD
ENDBRANCH  17  20
ENDBRANCH   1  12
BRANCH   2  22
ATOM     22  O   UNL     1       6.753  23.242  -6.875  1.00  0.00    -0.502 OA
ATOM     23  H   UNL     1       6.829  22.309  -6.489  1.00  0.00     0.293 HD
ENDBRANCH   2  22
BRANCH   6  24
ATOM     24  O   UNL     1       7.454  27.447 -10.068  1.00  0.00    -0.507 OA
ATOM     25  H   UNL     1       8.284  28.020 -10.030  1.00  0.00     0.293 HD
ENDBRANCH   6  24
BRANCH   8  26
ATOM     26  O   UNL     1       7.420  25.269 -14.347  1.00  0.00    -0.508 OA
ATOM     27  H   UNL     1       7.297  24.458 -14.942  1.00  0.00     0.293 HD
ENDBRANCH   8  26
TORSDOF 6
ENDMDL
MODEL 4
REMARK VINA RESULT:    -5.740      6.629      9.850
REMARK INTER + INTRA:          -7.249
REMARK INTER:                  -6.971
REMARK INTRA:                  -0.278
REMARK UNBOUND:                -0.335
REMARK SMILES O=c1c(O)c(-c2ccc(O)c(O)c2)oc2cc(O)cc(O)c12
REMARK SMILES IDX 5 1 3 2 2 3 1 4 22 5 20 6 19 7 17 8 16 9 15 10 14 11 6 12
REMARK SMILES IDX 7 13 8 14 9 15 13 16 11 17 10 18 12 20 4 22 21 24 18 26
REMARK H PARENT 10 19 12 21 4 23 21 25 18 27
REMARK Flexibility Score: inf
ROOT
ATOM      1  C   UNL     1       3.946  21.084 -15.635  1.00  0.00     0.180 A 
ATOM      2  C   UNL     1       3.353  21.994 -16.528  1.00  0.00     0.208 A 
ATOM      3  C   UNL     1       3.761  23.337 -16.502  1.00  0.00     0.238 A 
ATOM      4  O   UNL     1       3.187  24.157 -17.266  1.00  0.00    -0.285 OA
ATOM      5  C   UNL     1       4.768  23.751 -15.597  1.00  0.00     0.111 A 
ATOM      6  C   UNL     1       5.286  25.078 -15.513  1.00  0.00     0.134 A 
ATOM      7  C   UNL     1       6.188  25.404 -14.492  1.00  0.00     0.093 A 
ATOM      8  C   UNL     1       6.639  24.434 -13.592  1.00  0.00     0.123 A 
ATOM      9  C   UNL     1       6.184  23.123 -13.704  1.00  0.00     0.094 A 
ATOM     10  C   UNL     1       5.257  22.776 -14.690  1.00  0.00     0.146 A 
ATOM     11  O   UNL     1       4.840  21.516 -14.754  1.00  0.00    -0.452 OA
ENDROOT
BRANCH   1  12
ATOM     12  C   UNL     1       3.586  19.648 -15.619  1.00  0.00     0.025 A 
ATOM     13  C   UNL     1       2.406  19.238 -14.980  1.00  0.00     0.016 A 
ATOM     14  C   UNL     1       2.057  17.887 -14.934  1.00  0.00     0.051 A 
ATOM     15  C   UNL     1       2.892  16.922 -15.513  1.00  0.00     0.157 A 
ATOM     16  C   UNL     1       4.432  18.675 -16.180  1.00  0.00     0.062 A 
ATOM     17  C   UNL     1       4.088  17.319 -16.134  1.00  0.00     0.158 A 
BRANCH  15  18
ATOM     18  O   UNL     1       2.542  15.573 -15.468  1.00  0.00    -0.504 OA
ATOM     19  H   UNL     1       2.348  15.048 -16.312  1.00  0.00     0.293 HD
ENDBRANCH  15  18
BRANCH  17  20
ATOM     20  O   UNL     1       4.948  16.382 -16.707  1.00  0.00    -0.504 OA
ATOM     21  H   UNL     1       5.783  16.656 -17.212  1.00  0.00     0.293 HD
ENDBRANCH  17  20
ENDBRANCH   1  12
BRANCH   2  22
ATOM     22  O   UNL     1       2.344  21.569 -17.398  1.00  0.00    -0.502 OA
ATOM     23  H   UNL     1       1.374  21.831 -17.273  1.00  0.00     0.293 HD
ENDBRANCH   2  22
BRANCH   6  24
ATOM     24  O   UNL     1       4.973  26.097 -16.417  1.00  0.00    -0.507 OA
ATOM     25  H   UNL     1       5.398  27.013 -16.420  1.00  0.00     0.293 HD
ENDBRANCH   6  24
BRANCH   8  26
ATOM     26  O   UNL     1       7.547  24.764 -12.589  1.00  0.00    -0.508 OA
ATOM     27  H   UNL     1       8.028  24.051 -12.053  1.00  0.00     0.293 HD
ENDBRANCH   8  26
TORSDOF 6
ENDMDL
MODEL 5
REMARK VINA RESULT:    -5.568      6.057      8.937
REMARK INTER + INTRA:          -7.042
REMARK INTER:                  -6.718
REMARK INTRA:                  -0.323
REMARK UNBOUND:                -0.335
REMARK SMILES O=c1c(O)c(-c2ccc(O)c(O)c2)oc2cc(O)cc(O)c12
REMARK SMILES IDX 5 1 3 2 2 3 1 4 22 5 20 6 19 7 17 8 16 9 15 10 14 11 6 12
REMARK SMILES IDX 7 13 8 14 9 15 13 16 11 17 10 18 12 20 4 22 21 24 18 26
REMARK H PARENT 10 19 12 21 4 23 21 25 18 27
REMARK Flexibility Score: inf
ROOT
ATOM      1  C   UNL     1       4.699  22.161 -14.864  1.00  0.00     0.180 A 
ATOM      2  C   UNL     1       4.511  23.404 -15.494  1.00  0.00     0.208 A 
ATOM      3  C   UNL     1       5.249  24.512 -15.047  1.00  0.00     0.238 A 
ATOM      4  O   UNL     1       5.037  25.633 -15.579  1.00  0.00    -0.285 OA
ATOM      5  C   UNL     1       6.178  24.361 -13.989  1.00  0.00     0.111 A 
ATOM      6  C   UNL     1       7.008  25.405 -13.484  1.00  0.00     0.134 A 
ATOM      7  C   UNL     1       7.795  25.174 -12.349  1.00  0.00     0.093 A 
ATOM      8  C   UNL     1       7.830  23.917 -11.740  1.00  0.00     0.123 A 
ATOM      9  C   UNL     1       7.069  22.875 -12.263  1.00  0.00     0.094 A 
ATOM     10  C   UNL     1       6.247  23.084 -13.373  1.00  0.00     0.146 A 
ATOM     11  O   UNL     1       5.529  22.066 -13.832  1.00  0.00    -0.452 OA
ENDROOT
BRANCH   1  12
ATOM     12  C   UNL     1       3.976  20.943 -15.294  1.00  0.00     0.025 A 
ATOM     13  C   UNL     1       2.723  20.649 -14.734  1.00  0.00     0.016 A 
ATOM     14  C   UNL     1       2.033  19.494 -15.109  1.00  0.00     0.051 A 
ATOM     15  C   UNL     1       2.592  18.607 -16.038  1.00  0.00     0.157 A 
ATOM     16  C   UNL     1       4.543  20.039 -16.210  1.00  0.00     0.062 A 
ATOM     17  C   UNL     1       3.856  18.880 -16.587  1.00  0.00     0.158 A 
BRANCH  15  18
ATOM     18  O   UNL     1       1.901  17.456 -16.413  1.00  0.00    -0.504 OA
ATOM     19  H   UNL     1       1.478  16.844 -15.725  1.00  0.00     0.293 HD
ENDBRANCH  15  18
BRANCH  17  20
ATOM     20  O   UNL     1       4.447  18.010 -17.503  1.00  0.00    -0.504 OA
ATOM     21  H   UNL     1       5.301  17.507 -17.294  1.00  0.00     0.293 HD
ENDBRANCH  17  20
ENDBRANCH   1  12
BRANCH   2  22
ATOM     22  O   UNL     1       3.573  23.536 -16.521  1.00  0.00    -0.502 OA
ATOM     23  H   UNL     1       2.892  24.286 -16.542  1.00  0.00     0.293 HD
ENDBRANCH   2  22
BRANCH   6  24
ATOM     24  O   UNL     1       7.117  26.669 -14.072  1.00  0.00    -0.507 OA
ATOM     25  H   UNL     1       7.506  26.846 -14.986  1.00  0.00     0.293 HD
ENDBRANCH   6  24
BRANCH   8  26
ATOM     26  O   UNL     1       8.627  23.692 -10.621  1.00  0.00    -0.508 OA
ATOM     27  H   UNL     1       8.419  24.121  -9.726  1.00  0.00     0.293 HD
ENDBRANCH   8  26
TORSDOF 6
ENDMDL
MODEL 6
REMARK VINA RESULT:    -5.518      3.409      5.399
REMARK INTER + INTRA:          -6.982
REMARK INTER:                  -6.651
REMARK INTRA:                  -0.331
REMARK UNBOUND:                -0.335
REMARK SMILES O=c1c(O)c(-c2ccc(O)c(O)c2)oc2cc(O)cc(O)c12
REMARK SMILES IDX 5 1 3 2 2 3 1 4 22 5 20 6 19 7 17 8 16 9 15 10 14 11 6 12
REMARK SMILES IDX 7 13 8 14 9 15 13 16 11 17 10 18 12 20 4 22 21 24 18 26
REMARK H PARENT 10 19 12 21 4 23 21 25 18 27
REMARK Flexibility Score: inf
ROOT
ATOM      1  C   UNL     1       6.640  25.006 -10.427  1.00  0.00     0.180 A 
ATOM      2  C   UNL     1       5.281  24.703 -10.624  1.00  0.00     0.208 A 
ATOM      3  C   UNL     1       4.730  23.590  -9.969  1.00  0.00     0.238 A 
ATOM      4  O   UNL     1       3.527  23.293 -10.192  1.00  0.00    -0.285 OA
ATOM      5  C   UNL     1       5.539  22.804  -9.113  1.00  0.00     0.111 A 
ATOM      6  C   UNL     1       5.075  21.679  -8.368  1.00  0.00     0.134 A 
ATOM      7  C   UNL     1       5.992  20.897  -7.655  1.00  0.00     0.093 A 
ATOM      8  C   UNL     1       7.347  21.238  -7.608  1.00  0.00     0.123 A 
ATOM      9  C   UNL     1       7.798  22.369  -8.283  1.00  0.00     0.094 A 
ATOM     10  C   UNL     1       6.913  23.148  -9.032  1.00  0.00     0.146 A 
ATOM     11  O   UNL     1       7.388  24.211  -9.670  1.00  0.00    -0.452 OA
ENDROOT
BRANCH   1  12
ATOM     12  C   UNL     1       7.287  26.176 -11.064  1.00  0.00     0.025 A 
ATOM     13  C   UNL     1       8.006  26.004 -12.256  1.00  0.00     0.016 A 
ATOM     14  C   UNL     1       8.641  27.090 -12.863  1.00  0.00     0.051 A 
ATOM     15  C   UNL     1       8.581  28.361 -12.277  1.00  0.00     0.157 A 
ATOM     16  C   UNL     1       7.246  27.449 -10.468  1.00  0.00     0.062 A 
ATOM     17  C   UNL     1       7.883  28.539 -11.070  1.00  0.00     0.158 A 
BRANCH  15  18
ATOM     18  O   UNL     1       9.214  29.445 -12.885  1.00  0.00    -0.504 OA
ATOM     19  H   UNL     1       9.521  30.248 -12.348  1.00  0.00     0.293 HD
ENDBRANCH  15  18
BRANCH  17  20
ATOM     20  O   UNL     1       7.817  29.789 -10.455  1.00  0.00    -0.504 OA
ATOM     21  H   UNL     1       7.877  30.652 -10.981  1.00  0.00     0.293 HD
ENDBRANCH  17  20
ENDBRANCH   1  12
BRANCH   2  22
ATOM     22  O   UNL     1       4.507  25.479 -11.490  1.00  0.00    -0.502 OA
ATOM     23  H   UNL     1       4.799  25.692 -12.437  1.00  0.00     0.293 HD
ENDBRANCH   2  22
BRANCH   6  24
ATOM     24  O   UNL     1       3.731  21.306  -8.272  1.00  0.00    -0.507 OA
ATOM     25  H   UNL     1       3.404  20.356  -8.176  1.00  0.00     0.293 HD
ENDBRANCH   6  24
BRANCH   8  26
ATOM     26  O   UNL     1       8.249  20.462  -6.884  1.00  0.00    -0.508 OA
ATOM     27  H   UNL     1       8.226  19.450  -6.917  1.00  0.00     0.293 HD
ENDBRANCH   8  26
TORSDOF 6
ENDMDL
MODEL 7
REMARK VINA RESULT:    -5.393      8.280     11.228
REMARK INTER + INTRA:          -6.831
REMARK INTER:                  -6.540
REMARK INTRA:                  -0.290
REMARK UNBOUND:                -0.335
REMARK SMILES O=c1c(O)c(-c2ccc(O)c(O)c2)oc2cc(O)cc(O)c12
REMARK SMILES IDX 5 1 3 2 2 3 1 4 22 5 20 6 19 7 17 8 16 9 15 10 14 11 6 12
REMARK SMILES IDX 7 13 8 14 9 15 13 16 11 17 10 18 12 20 4 22 21 24 18 26
REMARK H PARENT 10 19 12 21 4 23 21 25 18 27
REMARK Flexibility Score: inf
ROOT
ATOM      1  C   UNL     1       3.233  20.938 -16.792  1.00  0.00     0.180 A 
ATOM      2  C   UNL     1       3.485  22.073 -16.001  1.00  0.00     0.208 A 
ATOM      3  C   UNL     1       3.531  23.334 -16.617  1.00  0.00     0.238 A 
ATOM      4  O   UNL     1       3.811  24.339 -15.912  1.00  0.00    -0.285 OA
ATOM      5  C   UNL     1       3.309  23.447 -18.010  1.00  0.00     0.111 A 
ATOM      6  C   UNL     1       3.293  24.679 -18.730  1.00  0.00     0.134 A 
ATOM      7  C   UNL     1       3.193  24.661 -20.127  1.00  0.00     0.093 A 
ATOM      8  C   UNL     1       3.044  23.459 -20.823  1.00  0.00     0.123 A 
ATOM      9  C   UNL     1       2.998  22.256 -20.124  1.00  0.00     0.094 A 
ATOM     10  C   UNL     1       3.131  22.239 -18.733  1.00  0.00     0.146 A 
ATOM     11  O   UNL     1       3.094  21.069 -18.106  1.00  0.00    -0.452 OA
ENDROOT
BRANCH   1  12
ATOM     12  C   UNL     1       3.145  19.578 -16.213  1.00  0.00     0.025 A 
ATOM     13  C   UNL     1       1.972  19.183 -15.550  1.00  0.00     0.016 A 
ATOM     14  C   UNL     1       1.875  17.913 -14.978  1.00  0.00     0.051 A 
ATOM     15  C   UNL     1       2.955  17.023 -15.046  1.00  0.00     0.157 A 
ATOM     16  C   UNL     1       4.233  18.689 -16.261  1.00  0.00     0.062 A 
ATOM     17  C   UNL     1       4.141  17.416 -15.688  1.00  0.00     0.158 A 
BRANCH  15  18
ATOM     18  O   UNL     1       2.855  15.754 -14.477  1.00  0.00    -0.504 OA
ATOM     19  H   UNL     1       2.078  15.502 -13.877  1.00  0.00     0.293 HD
ENDBRANCH  15  18
BRANCH  17  20
ATOM     20  O   UNL     1       5.239  16.559 -15.760  1.00  0.00    -0.504 OA
ATOM     21  H   UNL     1       6.034  16.648 -15.138  1.00  0.00     0.293 HD
ENDBRANCH  17  20
ENDBRANCH   1  12
BRANCH   2  22
ATOM     22  O   UNL     1       3.724  21.935 -14.631  1.00  0.00    -0.502 OA
ATOM     23  H   UNL     1       4.032  22.708 -14.054  1.00  0.00     0.293 HD
ENDBRANCH   2  22
BRANCH   6  24
ATOM     24  O   UNL     1       3.343  25.938 -18.125  1.00  0.00    -0.507 OA
ATOM     25  H   UNL     1       4.103  26.269 -17.549  1.00  0.00     0.293 HD
ENDBRANCH   6  24
BRANCH   8  26
ATOM     26  O   UNL     1       2.930  23.452 -22.211  1.00  0.00    -0.508 OA
ATOM     27  H   UNL     1       3.741  23.552 -22.811  1.00  0.00     0.293 HD
ENDBRANCH   8  26
TORSDOF 6
ENDMDL
MODEL 8
REMARK VINA RESULT:    -5.232      5.238     10.141
REMARK INTER + INTRA:          -6.638
REMARK INTER:                  -6.430
REMARK INTRA:                  -0.207
REMARK UNBOUND:                -0.335
REMARK SMILES O=c1c(O)c(-c2ccc(O)c(O)c2)oc2cc(O)cc(O)c12
REMARK SMILES IDX 5 1 3 2 2 3 1 4 22 5 20 6 19 7 17 8 16 9 15 10 14 11 6 12
REMARK SMILES IDX 7 13 8 14 9 15 13 16 11 17 10 18 12 20 4 22 21 24 18 26
REMARK H PARENT 10 19 12 21 4 23 21 25 18 27
REMARK Flexibility Score: inf
ROOT
ATOM      1  C   UNL     1       6.781  26.558 -12.426  1.00  0.00     0.180 A 
ATOM      2  C   UNL     1       5.738  26.580 -13.368  1.00  0.00     0.208 A 
ATOM      3  C   UNL     1       5.562  27.725 -14.161  1.00  0.00     0.238 A 
ATOM      4  O   UNL     1       4.593  27.759 -14.964  1.00  0.00    -0.285 OA
ATOM      5  C   UNL     1       6.439  28.826 -14.016  1.00  0.00     0.111 A 
ATOM      6  C   UNL     1       6.378  30.020 -14.795  1.00  0.00     0.134 A 
ATOM      7  C   UNL     1       7.215  31.096 -14.476  1.00  0.00     0.093 A 
ATOM      8  C   UNL     1       8.156  30.998 -13.448  1.00  0.00     0.123 A 
ATOM      9  C   UNL     1       8.264  29.815 -12.721  1.00  0.00     0.094 A 
ATOM     10  C   UNL     1       7.418  28.737 -12.992  1.00  0.00     0.146 A 
ATOM     11  O   UNL     1       7.547  27.631 -12.267  1.00  0.00    -0.452 OA
ENDROOT
BRANCH   1  12
ATOM     12  C   UNL     1       7.045  25.379 -11.570  1.00  0.00     0.025 A 
ATOM     13  C   UNL     1       6.918  25.493 -10.177  1.00  0.00     0.016 A 
ATOM     14  C   UNL     1       7.183  24.400  -9.350  1.00  0.00     0.051 A 
ATOM     15  C   UNL     1       7.595  23.180  -9.901  1.00  0.00     0.157 A 
ATOM     16  C   UNL     1       7.480  24.159 -12.118  1.00  0.00     0.062 A 
ATOM     17  C   UNL     1       7.748  23.061 -11.293  1.00  0.00     0.158 A 
BRANCH  15  18
ATOM     18  O   UNL     1       7.857  22.088  -9.074  1.00  0.00    -0.504 OA
ATOM     19  H   UNL     1       8.429  22.179  -8.242  1.00  0.00     0.293 HD
ENDBRANCH  15  18
BRANCH  17  20
ATOM     20  O   UNL     1       8.171  21.865 -11.871  1.00  0.00    -0.504 OA
ATOM     21  H   UNL     1       9.141  21.571 -11.851  1.00  0.00     0.293 HD
ENDBRANCH  17  20
ENDBRANCH   1  12
BRANCH   2  22
ATOM     22  O   UNL     1       4.869  25.491 -13.479  1.00  0.00    -0.502 OA
ATOM     23  H   UNL     1       3.868  25.604 -13.585  1.00  0.00     0.293 HD
ENDBRANCH   2  22
BRANCH   6  24
ATOM     24  O   UNL     1       5.540  30.188 -15.902  1.00  0.00    -0.507 OA
ATOM     25  H   UNL     1       5.787  29.948 -16.851  1.00  0.00     0.293 HD
ENDBRANCH   6  24
BRANCH   8  26
ATOM     26  O   UNL     1       8.994  32.069 -13.147  1.00  0.00    -0.508 OA
ATOM     27  H   UNL     1       8.846  32.645 -12.327  1.00  0.00     0.293 HD
ENDBRANCH   8  26
TORSDOF 6
ENDMDL
