MODEL 1
REMARK VINA RESULT:    -3.951      0.000      0.000
REMARK INTER + INTRA:          -4.621
REMARK INTER:                  -4.413
REMARK INTRA:                  -0.208
REMARK UNBOUND:                -0.208
REMARK SMILES CC(C)c1ccc(C(=O)[O-])cc1
REMARK SMILES IDX 7 1 6 2 11 3 5 4 12 5 4 6 8 7 9 8 10 9 2 10 1 11 3 12
REMARK H PARENT
REMARK Flexibility Score: inf
ROOT
ATOM      1  C   UNL     1      -4.468  36.392  19.847  1.00  0.00    -0.003 A 
ATOM      2  C   UNL     1      -3.689  37.444  19.340  1.00  0.00     0.010 A 
ATOM      3  C   UNL     1      -4.811  35.328  18.996  1.00  0.00     0.010 A 
ATOM      4  C   UNL     1      -3.261  37.434  18.009  1.00  0.00     0.004 A 
ATOM      5  C   UNL     1      -4.384  35.317  17.666  1.00  0.00     0.004 A 
ATOM      6  C   UNL     1      -3.604  36.371  17.156  1.00  0.00    -0.045 A 
ENDROOT
BRANCH   1   7
ATOM      7  C   UNL     1      -4.918  36.407  21.256  1.00  0.00     0.071 C 
ATOM      8  O   UNL     1      -5.125  37.499  21.851  1.00  0.00    -0.545 OA
ATOM      9  O   UNL     1      -5.120  35.216  21.945  1.00  0.00    -0.545 OA
ENDBRANCH   1   7
BRANCH   6  10
ATOM     10  C   UNL     1      -3.133  36.373  15.714  1.00  0.00     0.013 C 
ATOM     11  C   UNL     1      -1.607  36.247  15.630  1.00  0.00     0.012 C 
ATOM     12  C   UNL     1      -3.625  37.622  14.973  1.00  0.00     0.012 C 
ENDBRANCH   6  10
TORSDOF 2
ENDMDL
MODEL 2
REMARK VINA RESULT:    -3.897      0.075      1.399
REMARK INTER + INTRA:          -4.560
REMARK INTER:                  -4.355
REMARK INTRA:                  -0.205
REMARK UNBOUND:                -0.208
REMARK SMILES CC(C)c1ccc(C(=O)[O-])cc1
REMARK SMILES IDX 7 1 6 2 11 3 5 4 12 5 4 6 8 7 9 8 10 9 2 10 1 11 3 12
REMARK H PARENT
REMARK Flexibility Score: inf
ROOT
ATOM      1  C   UNL     1      -4.445  36.417  19.908  1.00  0.00    -0.003 A 
ATOM      2  C   UNL     1      -4.804  35.355  19.062  1.00  0.00     0.010 A 
ATOM      3  C   UNL     1      -3.650  37.455  19.396  1.00  0.00     0.010 A 
ATOM      4  C   UNL     1      -4.376  35.330  17.731  1.00  0.00     0.004 A 
ATOM      5  C   UNL     1      -3.222  37.432  18.066  1.00  0.00     0.004 A 
ATOM      6  C   UNL     1      -3.580  36.368  17.218  1.00  0.00    -0.045 A 
ENDROOT
BRANCH   1   7
ATOM      7  C   UNL     1      -4.901  36.438  21.315  1.00  0.00     0.071 C 
ATOM      8  O   UNL     1      -5.124  37.532  21.900  1.00  0.00    -0.545 OA
ATOM      9  O   UNL     1      -5.092  35.251  22.013  1.00  0.00    -0.545 OA
ENDBRANCH   1   7
BRANCH   6  10
ATOM     10  C   UNL     1      -3.122  36.329  15.772  1.00  0.00     0.013 C 
ATOM     11  C   UNL     1      -1.602  36.145  15.678  1.00  0.00     0.012 C 
ATOM     12  C   UNL     1      -3.573  37.584  15.015  1.00  0.00     0.012 C 
ENDBRANCH   6  10
TORSDOF 2
ENDMDL
MODEL 3
REMARK VINA RESULT:    -3.788      0.750      1.272
REMARK INTER + INTRA:          -4.439
REMARK INTER:                  -4.239
REMARK INTRA:                  -0.200
REMARK UNBOUND:                -0.208
REMARK SMILES CC(C)c1ccc(C(=O)[O-])cc1
REMARK SMILES IDX 7 1 6 2 11 3 5 4 12 5 4 6 8 7 9 8 10 9 2 10 1 11 3 12
REMARK H PARENT
REMARK Flexibility Score: inf
ROOT
ATOM      1  C   UNL     1      -3.934  36.343  19.690  1.00  0.00    -0.003 A 
ATOM      2  C   UNL     1      -3.087  37.433  19.431  1.00  0.00     0.010 A 
ATOM      3  C   UNL     1      -4.372  35.552  18.615  1.00  0.00     0.010 A 
ATOM      4  C   UNL     1      -2.685  37.726  18.124  1.00  0.00     0.004 A 
ATOM      5  C   UNL     1      -3.971  35.844  17.309  1.00  0.00     0.004 A 
ATOM      6  C   UNL     1      -3.123  36.935  17.048  1.00  0.00    -0.045 A 
ENDROOT
BRANCH   1   7
ATOM      7  C   UNL     1      -4.356  36.037  21.074  1.00  0.00     0.071 C 
ATOM      8  O   UNL     1      -5.125  36.818  21.697  1.00  0.00    -0.545 OA
ATOM      9  O   UNL     1      -3.910  34.884  21.709  1.00  0.00    -0.545 OA
ENDBRANCH   1   7
BRANCH   6  10
ATOM     10  C   UNL     1      -2.680  37.264  15.635  1.00  0.00     0.013 C 
ATOM     11  C   UNL     1      -3.869  37.691  14.768  1.00  0.00     0.012 C 
ATOM     12  C   UNL     1      -1.931  36.085  15.002  1.00  0.00     0.012 C 
ENDBRANCH   6  10
TORSDOF 2
ENDMDL
MODEL 4
REMARK VINA RESULT:    -3.782      3.168      5.282
REMARK INTER + INTRA:          -4.432
REMARK INTER:                  -4.228
REMARK INTRA:                  -0.204
REMARK UNBOUND:                -0.208
REMARK SMILES CC(C)c1ccc(C(=O)[O-])cc1
REMARK SMILES IDX 7 1 6 2 11 3 5 4 12 5 4 6 8 7 9 8 10 9 2 10 1 11 3 12
REMARK H PARENT
REMARK Flexibility Score: inf
ROOT
ATOM      1  C   UNL     1      -3.240  36.479  16.898  1.00  0.00    -0.003 A 
ATOM      2  C   UNL     1      -4.076  35.409  17.253  1.00  0.00     0.010 A 
ATOM      3  C   UNL     1      -2.996  37.494  17.839  1.00  0.00     0.010 A 
ATOM      4  C   UNL     1      -4.659  35.353  18.523  1.00  0.00     0.004 A 
ATOM      5  C   UNL     1      -3.578  37.438  19.108  1.00  0.00     0.004 A 
ATOM      6  C   UNL     1      -4.417  36.367  19.465  1.00  0.00    -0.045 A 
ENDROOT
BRANCH   1   7
ATOM      7  C   UNL     1      -2.626  36.533  15.553  1.00  0.00     0.071 C 
ATOM      8  O   UNL     1      -1.385  36.364  15.408  1.00  0.00    -0.545 OA
ATOM      9  O   UNL     1      -3.408  36.771  14.429  1.00  0.00    -0.545 OA
ENDBRANCH   1   7
BRANCH   6  10
ATOM     10  C   UNL     1      -5.055  36.295  20.839  1.00  0.00     0.013 C 
ATOM     11  C   UNL     1      -5.125  37.681  21.491  1.00  0.00     0.012 C 
ATOM     12  C   UNL     1      -4.316  35.298  21.741  1.00  0.00     0.012 C 
ENDBRANCH   6  10
TORSDOF 2
ENDMDL
MODEL 5
REMARK VINA RESULT:    -3.766      3.167      5.097
REMARK INTER + INTRA:          -4.414
REMARK INTER:                  -4.209
REMARK INTRA:                  -0.205
REMARK UNBOUND:                -0.208
REMARK SMILES CC(C)c1ccc(C(=O)[O-])cc1
REMARK SMILES IDX 7 1 6 2 11 3 5 4 12 5 4 6 8 7 9 8 10 9 2 10 1 11 3 12
REMARK H PARENT
REMARK Flexibility Score: inf
ROOT
ATOM      1  C   UNL     1      -3.247  36.467  16.890  1.00  0.00    -0.003 A 
ATOM      2  C   UNL     1      -3.053  37.493  17.830  1.00  0.00     0.010 A 
ATOM      3  C   UNL     1      -4.022  35.352  17.250  1.00  0.00     0.010 A 
ATOM      4  C   UNL     1      -3.621  37.405  19.104  1.00  0.00     0.004 A 
ATOM      5  C   UNL     1      -4.591  35.264  18.523  1.00  0.00     0.004 A 
ATOM      6  C   UNL     1      -4.397  36.290  19.466  1.00  0.00    -0.045 A 
ENDROOT
BRANCH   1   7
ATOM      7  C   UNL     1      -2.643  36.565  15.543  1.00  0.00     0.071 C 
ATOM      8  O   UNL     1      -1.408  36.377  15.379  1.00  0.00    -0.545 OA
ATOM      9  O   UNL     1      -3.430  36.866  14.437  1.00  0.00    -0.545 OA
ENDBRANCH   1   7
BRANCH   6  10
ATOM     10  C   UNL     1      -5.008  36.208  20.852  1.00  0.00     0.013 C 
ATOM     11  C   UNL     1      -5.125  37.598  21.489  1.00  0.00     0.012 C 
ATOM     12  C   UNL     1      -4.212  35.254  21.751  1.00  0.00     0.012 C 
ENDBRANCH   6  10
TORSDOF 2
ENDMDL
MODEL 6
REMARK VINA RESULT:    -3.488      0.569      2.029
REMARK INTER + INTRA:          -4.103
REMARK INTER:                  -3.896
REMARK INTRA:                  -0.207
REMARK UNBOUND:                -0.208
REMARK SMILES CC(C)c1ccc(C(=O)[O-])cc1
REMARK SMILES IDX 7 1 6 2 11 3 5 4 12 5 4 6 8 7 9 8 10 9 2 10 1 11 3 12
REMARK H PARENT
REMARK Flexibility Score: inf
ROOT
ATOM      1  C   UNL     1      -4.222  36.341  19.656  1.00  0.00    -0.003 A 
ATOM      2  C   UNL     1      -4.551  35.526  18.561  1.00  0.00     0.010 A 
ATOM      3  C   UNL     1      -3.357  37.429  19.460  1.00  0.00     0.010 A 
ATOM      4  C   UNL     1      -4.024  35.794  17.293  1.00  0.00     0.004 A 
ATOM      5  C   UNL     1      -2.831  37.698  18.194  1.00  0.00     0.004 A 
ATOM      6  C   UNL     1      -3.159  36.883  17.095  1.00  0.00    -0.045 A 
ENDROOT
BRANCH   1   7
ATOM      7  C   UNL     1      -4.782  36.053  20.995  1.00  0.00     0.071 C 
ATOM      8  O   UNL     1      -4.957  34.863  21.375  1.00  0.00    -0.545 OA
ATOM      9  O   UNL     1      -5.125  37.090  21.855  1.00  0.00    -0.545 OA
ENDBRANCH   1   7
BRANCH   6  10
ATOM     10  C   UNL     1      -2.594  37.162  15.715  1.00  0.00     0.013 C 
ATOM     11  C   UNL     1      -3.710  37.494  14.718  1.00  0.00     0.012 C 
ATOM     12  C   UNL     1      -1.741  35.989  15.218  1.00  0.00     0.012 C 
ENDBRANCH   6  10
TORSDOF 2
ENDMDL
MODEL 7
REMARK VINA RESULT:    -1.445      1.708      2.665
REMARK INTER + INTRA:          -1.821
REMARK INTER:                  -1.612
REMARK INTRA:                  -0.209
REMARK UNBOUND:                -0.208
REMARK SMILES CC(C)c1ccc(C(=O)[O-])cc1
REMARK SMILES IDX 7 1 6 2 11 3 5 4 12 5 4 6 8 7 9 8 10 9 2 10 1 11 3 12
REMARK H PARENT
REMARK Flexibility Score: inf
ROOT
ATOM      1  C   UNL     1      -4.557  35.862  22.171  1.00  0.00    -0.003 A 
ATOM      2  C   UNL     1      -4.766  37.203  21.811  1.00  0.00     0.010 A 
ATOM      3  C   UNL     1      -3.971  34.991  21.238  1.00  0.00     0.010 A 
ATOM      4  C   UNL     1      -4.399  37.664  20.542  1.00  0.00     0.004 A 
ATOM      5  C   UNL     1      -3.603  35.450  19.971  1.00  0.00     0.004 A 
ATOM      6  C   UNL     1      -3.813  36.794  19.608  1.00  0.00    -0.045 A 
ENDROOT
BRANCH   1   7
ATOM      7  C   UNL     1      -4.947  35.380  23.514  1.00  0.00     0.071 C 
ATOM      8  O   UNL     1      -5.125  36.193  24.460  1.00  0.00    -0.545 OA
ATOM      9  O   UNL     1      -5.125  34.022  23.752  1.00  0.00    -0.545 OA
ENDBRANCH   1   7
BRANCH   6  10
ATOM     10  C   UNL     1      -3.419  37.306  18.236  1.00  0.00     0.013 C 
ATOM     11  C   UNL     1      -3.611  36.226  17.165  1.00  0.00     0.012 C 
ATOM     12  C   UNL     1      -1.979  37.834  18.235  1.00  0.00     0.012 C 
ENDBRANCH   6  10
TORSDOF 2
ENDMDL
MODEL 8
REMARK VINA RESULT:    -0.992      2.109      3.655
REMARK INTER + INTRA:          -1.316
REMARK INTER:                  -1.098
REMARK INTRA:                  -0.218
REMARK UNBOUND:                -0.208
REMARK SMILES CC(C)c1ccc(C(=O)[O-])cc1
REMARK SMILES IDX 7 1 6 2 11 3 5 4 12 5 4 6 8 7 9 8 10 9 2 10 1 11 3 12
REMARK H PARENT
REMARK Flexibility Score: inf
ROOT
ATOM      1  C   UNL     1      -4.996  36.503  22.933  1.00  0.00    -0.003 A 
ATOM      2  C   UNL     1      -4.849  35.259  22.298  1.00  0.00     0.010 A 
ATOM      3  C   UNL     1      -5.057  37.665  22.147  1.00  0.00     0.010 A 
ATOM      4  C   UNL     1      -4.764  35.178  20.904  1.00  0.00     0.004 A 
ATOM      5  C   UNL     1      -4.973  37.585  20.754  1.00  0.00     0.004 A 
ATOM      6  C   UNL     1      -4.825  36.340  20.116  1.00  0.00    -0.045 A 
ENDROOT
BRANCH   1   7
ATOM      7  C   UNL     1      -5.085  36.582  24.407  1.00  0.00     0.071 C 
ATOM      8  O   UNL     1      -5.125  35.533  25.104  1.00  0.00    -0.545 OA
ATOM      9  O   UNL     1      -5.125  37.816  25.046  1.00  0.00    -0.545 OA
ENDBRANCH   1   7
BRANCH   6  10
ATOM     10  C   UNL     1      -4.732  36.238  18.606  1.00  0.00     0.013 C 
ATOM     11  C   UNL     1      -4.608  34.777  18.156  1.00  0.00     0.012 C 
ATOM     12  C   UNL     1      -3.572  37.082  18.065  1.00  0.00     0.012 C 
ENDBRANCH   6  10
TORSDOF 2
ENDMDL
