MODEL 1
REMARK VINA RESULT:    -6.254      0.000      0.000
REMARK INTER + INTRA:         -10.392
REMARK INTER:                  -9.727
REMARK INTRA:                  -0.665
REMARK UNBOUND:                -0.665
REMARK SMILES COc1cc(CNC(=O)CCCCC=CC(C)C)ccc1O
REMARK SMILES IDX 11 1 12 2 13 3 14 4 15 5 16 6 17 7 18 8 10 9 8 10 9 11 7 12
REMARK SMILES IDX 6 14 5 15 4 16 19 17 3 18 20 19 21 20 2 21 1 22 22 23
REMARK H PARENT 7 13 22 24
REMARK Flexibility Score: inf
ROOT
ATOM      1  C   UNL     1      -7.601 -27.733 -25.532  1.00  0.00     0.010 C 
ENDROOT
BRANCH   1   2
ATOM      2  C   UNL     1      -8.514 -28.451 -24.521  1.00  0.00     0.005 C 
BRANCH   2   3
ATOM      3  C   UNL     1      -7.807 -28.894 -23.228  1.00  0.00     0.027 C 
BRANCH   3   4
ATOM      4  C   UNL     1      -8.618 -28.606 -21.991  1.00  0.00    -0.031 C 
ATOM      5  C   UNL     1      -9.471 -29.507 -21.479  1.00  0.00    -0.028 C 
BRANCH   5   6
ATOM      6  C   UNL     1     -10.263 -29.214 -20.227  1.00  0.00     0.005 C 
ATOM      7  C   UNL     1     -11.761 -29.419 -20.479  1.00  0.00     0.012 C 
ATOM      8  C   UNL     1      -9.994 -27.785 -19.739  1.00  0.00     0.012 C 
ENDBRANCH   5   6
ENDBRANCH   3   4
ENDBRANCH   2   3
ENDBRANCH   1   2
BRANCH   1   9
ATOM      9  C   UNL     1      -6.202 -28.361 -25.625  1.00  0.00     0.100 C 
BRANCH   9  10
ATOM     10  C   UNL     1      -5.145 -27.306 -25.486  1.00  0.00     0.220 C 
ATOM     11  O   UNL     1      -4.132 -27.540 -24.770  1.00  0.00    -0.275 OA
ATOM     12  N   UNL     1      -5.271 -26.055 -26.179  1.00  0.00    -0.352 N 
ATOM     13  H   UNL     1      -6.106 -25.892 -26.783  1.00  0.00     0.163 HD
BRANCH  12  14
ATOM     14  C   UNL     1      -4.245 -25.015 -26.114  1.00  0.00     0.151 C 
BRANCH  14  15
ATOM     15  C   UNL     1      -3.504 -24.922 -27.423  1.00  0.00    -0.025 A 
ATOM     16  C   UNL     1      -4.160 -25.222 -28.628  1.00  0.00     0.056 A 
ATOM     17  C   UNL     1      -2.162 -24.513 -27.452  1.00  0.00     0.009 A 
ATOM     18  C   UNL     1      -3.482 -25.111 -29.859  1.00  0.00     0.160 A 
ATOM     19  C   UNL     1      -1.484 -24.408 -28.670  1.00  0.00     0.050 A 
ATOM     20  C   UNL     1      -2.139 -24.706 -29.872  1.00  0.00     0.157 A 
BRANCH  18  21
ATOM     21  O   UNL     1      -4.106 -25.389 -31.084  1.00  0.00    -0.493 OA
ATOM     22  C   UNL     1      -5.209 -24.656 -31.613  1.00  0.00     0.278 C 
ENDBRANCH  18  21
BRANCH  20  23
ATOM     23  O   UNL     1      -1.462 -24.603 -31.088  1.00  0.00    -0.504 OA
ATOM     24  H   UNL     1      -0.455 -24.690 -31.142  1.00  0.00     0.293 HD
ENDBRANCH  20  23
ENDBRANCH  14  15
ENDBRANCH  12  14
ENDBRANCH   9  10
ENDBRANCH   1   9
TORSDOF 10
ENDMDL
MODEL 2
REMARK VINA RESULT:    -6.136      6.044      9.376
REMARK INTER + INTRA:         -10.209
REMARK INTER:                  -8.379
REMARK INTRA:                  -1.830
REMARK UNBOUND:                -0.665
REMARK SMILES COc1cc(CNC(=O)CCCCC=CC(C)C)ccc1O
REMARK SMILES IDX 11 1 12 2 13 3 14 4 15 5 16 6 17 7 18 8 10 9 8 10 9 11 7 12
REMARK SMILES IDX 6 14 5 15 4 16 19 17 3 18 20 19 21 20 2 21 1 22 22 23
REMARK H PARENT 7 13 22 24
REMARK Flexibility Score: inf
ROOT
ATOM      1  C   UNL     1     -15.580 -27.248 -19.247  1.00  0.00     0.010 C 
ENDROOT
BRANCH   1   2
ATOM      2  C   UNL     1     -16.213 -28.526 -19.827  1.00  0.00     0.005 C 
BRANCH   2   3
ATOM      3  C   UNL     1     -15.377 -29.802 -19.618  1.00  0.00     0.027 C 
BRANCH   3   4
ATOM      4  C   UNL     1     -14.330 -29.994 -20.684  1.00  0.00    -0.031 C 
ATOM      5  C   UNL     1     -14.517 -29.568 -21.943  1.00  0.00    -0.028 C 
BRANCH   5   6
ATOM      6  C   UNL     1     -13.451 -29.748 -22.999  1.00  0.00     0.005 C 
ATOM      7  C   UNL     1     -12.880 -28.390 -23.422  1.00  0.00     0.012 C 
ATOM      8  C   UNL     1     -14.016 -30.492 -24.216  1.00  0.00     0.012 C 
ENDBRANCH   5   6
ENDBRANCH   3   4
ENDBRANCH   2   3
ENDBRANCH   1   2
BRANCH   1   9
ATOM      9  C   UNL     1     -15.341 -26.165 -20.307  1.00  0.00     0.100 C 
BRANCH   9  10
ATOM     10  C   UNL     1     -13.893 -25.777 -20.343  1.00  0.00     0.220 C 
ATOM     11  O   UNL     1     -13.580 -24.585 -20.619  1.00  0.00    -0.275 OA
ATOM     12  N   UNL     1     -12.874 -26.742 -20.040  1.00  0.00    -0.352 N 
ATOM     13  H   UNL     1     -13.156 -27.716 -19.793  1.00  0.00     0.163 HD
BRANCH  12  14
ATOM     14  C   UNL     1     -11.452 -26.402 -20.015  1.00  0.00     0.151 C 
BRANCH  14  15
ATOM     15  C   UNL     1     -10.641 -27.474 -20.697  1.00  0.00    -0.025 A 
ATOM     16  C   UNL     1      -9.879 -27.165 -21.835  1.00  0.00     0.056 A 
ATOM     17  C   UNL     1     -10.622 -28.781 -20.189  1.00  0.00     0.009 A 
ATOM     18  C   UNL     1      -9.095 -28.155 -22.463  1.00  0.00     0.160 A 
ATOM     19  C   UNL     1      -9.853 -29.768 -20.811  1.00  0.00     0.050 A 
ATOM     20  C   UNL     1      -9.091 -29.459 -21.946  1.00  0.00     0.157 A 
BRANCH  18  21
ATOM     21  O   UNL     1      -8.311 -27.883 -23.592  1.00  0.00    -0.493 OA
ATOM     22  C   UNL     1      -8.791 -27.899 -24.935  1.00  0.00     0.278 C 
ENDBRANCH  18  21
BRANCH  20  23
ATOM     23  O   UNL     1      -8.323 -30.444 -22.569  1.00  0.00    -0.504 OA
ATOM     24  H   UNL     1      -8.606 -31.417 -22.566  1.00  0.00     0.293 HD
ENDBRANCH  20  23
ENDBRANCH  14  15
ENDBRANCH  12  14
ENDBRANCH   9  10
ENDBRANCH   1   9
TORSDOF 10
ENDMDL
MODEL 3
REMARK VINA RESULT:    -6.059      4.288      8.053
REMARK INTER + INTRA:         -10.088
REMARK INTER:                  -9.434
REMARK INTRA:                  -0.654
REMARK UNBOUND:                -0.665
REMARK SMILES COc1cc(CNC(=O)CCCCC=CC(C)C)ccc1O
REMARK SMILES IDX 11 1 12 2 13 3 14 4 15 5 16 6 17 7 18 8 10 9 8 10 9 11 7 12
REMARK SMILES IDX 6 14 5 15 4 16 19 17 3 18 20 19 21 20 2 21 1 22 22 23
REMARK H PARENT 7 13 22 24
REMARK Flexibility Score: inf
ROOT
ATOM      1  C   UNL     1     -15.141 -30.059 -21.050  1.00  0.00     0.010 C 
ENDROOT
BRANCH   1   2
ATOM      2  C   UNL     1     -15.762 -29.668 -19.697  1.00  0.00     0.005 C 
BRANCH   2   3
ATOM      3  C   UNL     1     -16.252 -28.211 -19.619  1.00  0.00     0.027 C 
BRANCH   3   4
ATOM      4  C   UNL     1     -15.183 -27.260 -19.147  1.00  0.00    -0.031 C 
ATOM      5  C   UNL     1     -15.318 -25.930 -19.266  1.00  0.00    -0.028 C 
BRANCH   5   6
ATOM      6  C   UNL     1     -14.248 -24.985 -18.769  1.00  0.00     0.005 C 
ATOM      7  C   UNL     1     -14.775 -24.144 -17.601  1.00  0.00     0.012 C 
ATOM      8  C   UNL     1     -13.761 -24.076 -19.905  1.00  0.00     0.012 C 
ENDBRANCH   5   6
ENDBRANCH   3   4
ENDBRANCH   2   3
ENDBRANCH   1   2
BRANCH   1   9
ATOM      9  C   UNL     1     -13.606 -30.020 -21.037  1.00  0.00     0.100 C 
BRANCH   9  10
ATOM     10  C   UNL     1     -13.093 -29.223 -22.199  1.00  0.00     0.220 C 
ATOM     11  O   UNL     1     -13.915 -28.631 -22.952  1.00  0.00    -0.275 OA
ATOM     12  N   UNL     1     -11.681 -29.113 -22.437  1.00  0.00    -0.352 N 
ATOM     13  H   UNL     1     -11.019 -29.592 -21.790  1.00  0.00     0.163 HD
BRANCH  12  14
ATOM     14  C   UNL     1     -11.129 -28.309 -23.528  1.00  0.00     0.151 C 
BRANCH  14  15
ATOM     15  C   UNL     1      -9.633 -28.475 -23.599  1.00  0.00    -0.025 A 
ATOM     16  C   UNL     1      -8.948 -28.187 -24.791  1.00  0.00     0.056 A 
ATOM     17  C   UNL     1      -8.910 -28.894 -22.472  1.00  0.00     0.009 A 
ATOM     18  C   UNL     1      -7.545 -28.313 -24.859  1.00  0.00     0.160 A 
ATOM     19  C   UNL     1      -7.520 -29.027 -22.536  1.00  0.00     0.050 A 
ATOM     20  C   UNL     1      -6.837 -28.738 -23.724  1.00  0.00     0.157 A 
BRANCH  18  21
ATOM     21  O   UNL     1      -6.823 -28.022 -26.025  1.00  0.00    -0.493 OA
ATOM     22  C   UNL     1      -6.879 -26.779 -26.721  1.00  0.00     0.278 C 
ENDBRANCH  18  21
BRANCH  20  23
ATOM     23  O   UNL     1      -5.449 -28.871 -23.789  1.00  0.00    -0.504 OA
ATOM     24  H   UNL     1      -4.908 -28.426 -24.520  1.00  0.00     0.293 HD
ENDBRANCH  20  23
ENDBRANCH  14  15
ENDBRANCH  12  14
ENDBRANCH   9  10
ENDBRANCH   1   9
TORSDOF 10
ENDMDL
MODEL 4
REMARK VINA RESULT:    -6.056      4.997      8.290
REMARK INTER + INTRA:         -10.084
REMARK INTER:                  -9.100
REMARK INTRA:                  -0.984
REMARK UNBOUND:                -0.665
REMARK SMILES COc1cc(CNC(=O)CCCCC=CC(C)C)ccc1O
REMARK SMILES IDX 11 1 12 2 13 3 14 4 15 5 16 6 17 7 18 8 10 9 8 10 9 11 7 12
REMARK SMILES IDX 6 14 5 15 4 16 19 17 3 18 20 19 21 20 2 21 1 22 22 23
REMARK H PARENT 7 13 22 24
REMARK Flexibility Score: inf
ROOT
ATOM      1  C   UNL     1     -14.973 -29.053 -21.950  1.00  0.00     0.010 C 
ENDROOT
BRANCH   1   2
ATOM      2  C   UNL     1     -16.211 -29.228 -21.050  1.00  0.00     0.005 C 
BRANCH   2   3
ATOM      3  C   UNL     1     -16.052 -28.652 -19.632  1.00  0.00     0.027 C 
BRANCH   3   4
ATOM      4  C   UNL     1     -15.887 -27.155 -19.624  1.00  0.00    -0.031 C 
ATOM      5  C   UNL     1     -14.803 -26.567 -19.094  1.00  0.00    -0.028 C 
BRANCH   5   6
ATOM      6  C   UNL     1     -14.638 -25.065 -19.111  1.00  0.00     0.005 C 
ATOM      7  C   UNL     1     -13.299 -24.679 -19.751  1.00  0.00     0.012 C 
ATOM      8  C   UNL     1     -14.735 -24.494 -17.690  1.00  0.00     0.012 C 
ENDBRANCH   5   6
ENDBRANCH   3   4
ENDBRANCH   2   3
ENDBRANCH   1   2
BRANCH   1   9
ATOM      9  C   UNL     1     -13.776 -29.897 -21.490  1.00  0.00     0.100 C 
BRANCH   9  10
ATOM     10  C   UNL     1     -12.643 -29.011 -21.065  1.00  0.00     0.220 C 
ATOM     11  O   UNL     1     -12.075 -29.225 -19.958  1.00  0.00    -0.275 OA
ATOM     12  N   UNL     1     -12.193 -27.947 -21.917  1.00  0.00    -0.352 N 
ATOM     13  H   UNL     1     -12.663 -27.801 -22.837  1.00  0.00     0.163 HD
BRANCH  12  14
ATOM     14  C   UNL     1     -11.063 -27.086 -21.569  1.00  0.00     0.151 C 
BRANCH  14  15
ATOM     15  C   UNL     1      -9.774 -27.681 -22.071  1.00  0.00    -0.025 A 
ATOM     16  C   UNL     1      -9.330 -27.405 -23.375  1.00  0.00     0.056 A 
ATOM     17  C   UNL     1      -8.993 -28.494 -21.236  1.00  0.00     0.009 A 
ATOM     18  C   UNL     1      -8.110 -27.934 -23.845  1.00  0.00     0.160 A 
ATOM     19  C   UNL     1      -7.787 -29.027 -21.699  1.00  0.00     0.050 A 
ATOM     20  C   UNL     1      -7.344 -28.750 -22.999  1.00  0.00     0.157 A 
BRANCH  18  21
ATOM     21  O   UNL     1      -7.628 -27.670 -25.134  1.00  0.00    -0.493 OA
ATOM     22  C   UNL     1      -8.132 -26.650 -25.993  1.00  0.00     0.278 C 
ENDBRANCH  18  21
BRANCH  20  23
ATOM     23  O   UNL     1      -6.140 -29.283 -23.462  1.00  0.00    -0.504 OA
ATOM     24  H   UNL     1      -5.681 -30.048 -22.983  1.00  0.00     0.293 HD
ENDBRANCH  20  23
ENDBRANCH  14  15
ENDBRANCH  12  14
ENDBRANCH   9  10
ENDBRANCH   1   9
TORSDOF 10
ENDMDL
MODEL 5
REMARK VINA RESULT:    -6.040      4.740      8.289
REMARK INTER + INTRA:         -10.059
REMARK INTER:                  -8.003
REMARK INTRA:                  -2.056
REMARK UNBOUND:                -0.665
REMARK SMILES COc1cc(CNC(=O)CCCCC=CC(C)C)ccc1O
REMARK SMILES IDX 11 1 12 2 13 3 14 4 15 5 16 6 17 7 18 8 10 9 8 10 9 11 7 12
REMARK SMILES IDX 6 14 5 15 4 16 19 17 3 18 20 19 21 20 2 21 1 22 22 23
REMARK H PARENT 7 13 22 24
REMARK Flexibility Score: inf
ROOT
ATOM      1  C   UNL     1      -5.762 -21.096 -30.073  1.00  0.00     0.010 C 
ENDROOT
BRANCH   1   2
ATOM      2  C   UNL     1      -5.377 -21.927 -31.310  1.00  0.00     0.005 C 
BRANCH   2   3
ATOM      3  C   UNL     1      -5.156 -23.424 -31.027  1.00  0.00     0.027 C 
BRANCH   3   4
ATOM      4  C   UNL     1      -3.714 -23.760 -30.756  1.00  0.00    -0.031 C 
ATOM      5  C   UNL     1      -3.353 -24.555 -29.736  1.00  0.00    -0.028 C 
BRANCH   5   6
ATOM      6  C   UNL     1      -1.904 -24.902 -29.486  1.00  0.00     0.005 C 
ATOM      7  C   UNL     1      -1.146 -23.685 -28.943  1.00  0.00     0.012 C 
ATOM      8  C   UNL     1      -1.241 -25.413 -30.771  1.00  0.00     0.012 C 
ENDBRANCH   5   6
ENDBRANCH   3   4
ENDBRANCH   2   3
ENDBRANCH   1   2
BRANCH   1   9
ATOM      9  C   UNL     1      -4.678 -20.085 -29.671  1.00  0.00     0.100 C 
BRANCH   9  10
ATOM     10  C   UNL     1      -3.772 -20.674 -28.631  1.00  0.00     0.220 C 
ATOM     11  O   UNL     1      -2.531 -20.451 -28.695  1.00  0.00    -0.275 OA
ATOM     12  N   UNL     1      -4.312 -21.462 -27.559  1.00  0.00    -0.352 N 
ATOM     13  H   UNL     1      -5.343 -21.617 -27.513  1.00  0.00     0.163 HD
BRANCH  12  14
ATOM     14  C   UNL     1      -3.477 -22.019 -26.495  1.00  0.00     0.151 C 
BRANCH  14  15
ATOM     15  C   UNL     1      -3.797 -23.476 -26.282  1.00  0.00    -0.025 A 
ATOM     16  C   UNL     1      -5.041 -23.991 -26.681  1.00  0.00     0.056 A 
ATOM     17  C   UNL     1      -2.848 -24.335 -25.707  1.00  0.00     0.009 A 
ATOM     18  C   UNL     1      -5.338 -25.359 -26.511  1.00  0.00     0.160 A 
ATOM     19  C   UNL     1      -3.140 -25.690 -25.529  1.00  0.00     0.050 A 
ATOM     20  C   UNL     1      -4.381 -26.203 -25.929  1.00  0.00     0.157 A 
BRANCH  18  21
ATOM     21  O   UNL     1      -6.563 -25.913 -26.909  1.00  0.00    -0.493 OA
ATOM     22  C   UNL     1      -6.959 -26.109 -28.264  1.00  0.00     0.278 C 
ENDBRANCH  18  21
BRANCH  20  23
ATOM     23  O   UNL     1      -4.674 -27.557 -25.752  1.00  0.00    -0.504 OA
ATOM     24  H   UNL     1      -5.608 -27.920 -25.898  1.00  0.00     0.293 HD
ENDBRANCH  20  23
ENDBRANCH  14  15
ENDBRANCH  12  14
ENDBRANCH   9  10
ENDBRANCH   1   9
TORSDOF 10
ENDMDL
MODEL 6
REMARK VINA RESULT:    -6.031      4.352      7.367
REMARK INTER + INTRA:         -10.045
REMARK INTER:                  -7.936
REMARK INTRA:                  -2.109
REMARK UNBOUND:                -0.665
REMARK SMILES COc1cc(CNC(=O)CCCCC=CC(C)C)ccc1O
REMARK SMILES IDX 11 1 12 2 13 3 14 4 15 5 16 6 17 7 18 8 10 9 8 10 9 11 7 12
REMARK SMILES IDX 6 14 5 15 4 16 19 17 3 18 20 19 21 20 2 21 1 22 22 23
REMARK H PARENT 7 13 22 24
REMARK Flexibility Score: inf
ROOT
ATOM      1  C   UNL     1      -3.866 -25.970 -25.826  1.00  0.00     0.010 C 
ENDROOT
BRANCH   1   2
ATOM      2  C   UNL     1      -4.199 -24.471 -25.713  1.00  0.00     0.005 C 
BRANCH   2   3
ATOM      3  C   UNL     1      -3.117 -23.534 -26.279  1.00  0.00     0.027 C 
BRANCH   3   4
ATOM      4  C   UNL     1      -2.932 -23.687 -27.766  1.00  0.00    -0.031 C 
ATOM      5  C   UNL     1      -1.824 -24.238 -28.288  1.00  0.00    -0.028 C 
BRANCH   5   6
ATOM      6  C   UNL     1      -1.659 -24.405 -29.780  1.00  0.00     0.005 C 
ATOM      7  C   UNL     1      -1.935 -23.081 -30.502  1.00  0.00     0.012 C 
ATOM      8  C   UNL     1      -2.589 -25.504 -30.308  1.00  0.00     0.012 C 
ENDBRANCH   5   6
ENDBRANCH   3   4
ENDBRANCH   2   3
ENDBRANCH   1   2
BRANCH   1   9
ATOM      9  C   UNL     1      -5.117 -26.860 -25.855  1.00  0.00     0.100 C 
BRANCH   9  10
ATOM     10  C   UNL     1      -6.101 -26.349 -26.865  1.00  0.00     0.220 C 
ATOM     11  O   UNL     1      -7.276 -26.071 -26.496  1.00  0.00    -0.275 OA
ATOM     12  N   UNL     1      -5.705 -26.154 -28.231  1.00  0.00    -0.352 N 
ATOM     13  H   UNL     1      -4.723 -26.370 -28.510  1.00  0.00     0.163 HD
BRANCH  12  14
ATOM     14  C   UNL     1      -6.612 -25.614 -29.243  1.00  0.00     0.151 C 
BRANCH  14  15
ATOM     15  C   UNL     1      -6.248 -24.189 -29.571  1.00  0.00    -0.025 A 
ATOM     16  C   UNL     1      -6.357 -23.189 -28.591  1.00  0.00     0.056 A 
ATOM     17  C   UNL     1      -5.774 -23.853 -30.848  1.00  0.00     0.009 A 
ATOM     18  C   UNL     1      -5.991 -21.858 -28.881  1.00  0.00     0.160 A 
ATOM     19  C   UNL     1      -5.417 -22.535 -31.144  1.00  0.00     0.050 A 
ATOM     20  C   UNL     1      -5.524 -21.538 -30.165  1.00  0.00     0.157 A 
BRANCH  18  21
ATOM     21  O   UNL     1      -6.072 -20.835 -27.926  1.00  0.00    -0.493 OA
ATOM     22  C   UNL     1      -5.924 -21.027 -26.521  1.00  0.00     0.278 C 
ENDBRANCH  18  21
BRANCH  20  23
ATOM     23  O   UNL     1      -5.169 -20.220 -30.459  1.00  0.00    -0.504 OA
ATOM     24  H   UNL     1      -4.824 -19.592 -29.743  1.00  0.00     0.293 HD
ENDBRANCH  20  23
ENDBRANCH  14  15
ENDBRANCH  12  14
ENDBRANCH   9  10
ENDBRANCH   1   9
TORSDOF 10
ENDMDL
MODEL 7
REMARK VINA RESULT:    -6.024      3.605      5.543
REMARK INTER + INTRA:         -10.034
REMARK INTER:                  -7.749
REMARK INTRA:                  -2.285
REMARK UNBOUND:                -0.665
REMARK SMILES COc1cc(CNC(=O)CCCCC=CC(C)C)ccc1O
REMARK SMILES IDX 11 1 12 2 13 3 14 4 15 5 16 6 17 7 18 8 10 9 8 10 9 11 7 12
REMARK SMILES IDX 6 14 5 15 4 16 19 17 3 18 20 19 21 20 2 21 1 22 22 23
REMARK H PARENT 7 13 22 24
REMARK Flexibility Score: inf
ROOT
ATOM      1  C   UNL     1      -7.714 -26.573 -26.048  1.00  0.00     0.010 C 
ENDROOT
BRANCH   1   2
ATOM      2  C   UNL     1      -6.413 -27.323 -25.710  1.00  0.00     0.005 C 
BRANCH   2   3
ATOM      3  C   UNL     1      -5.381 -27.355 -26.851  1.00  0.00     0.027 C 
BRANCH   3   4
ATOM      4  C   UNL     1      -4.401 -26.214 -26.785  1.00  0.00    -0.031 C 
ATOM      5  C   UNL     1      -4.092 -25.614 -25.624  1.00  0.00    -0.028 C 
BRANCH   5   6
ATOM      6  C   UNL     1      -3.091 -24.484 -25.566  1.00  0.00     0.005 C 
ATOM      7  C   UNL     1      -3.805 -23.130 -25.662  1.00  0.00     0.012 C 
ATOM      8  C   UNL     1      -2.054 -24.622 -26.688  1.00  0.00     0.012 C 
ENDBRANCH   5   6
ENDBRANCH   3   4
ENDBRANCH   2   3
ENDBRANCH   1   2
BRANCH   1   9
ATOM      9  C   UNL     1      -7.785 -25.179 -25.409  1.00  0.00     0.100 C 
BRANCH   9  10
ATOM     10  C   UNL     1      -7.478 -24.120 -26.425  1.00  0.00     0.220 C 
ATOM     11  O   UNL     1      -7.345 -22.923 -26.048  1.00  0.00    -0.275 OA
ATOM     12  N   UNL     1      -7.312 -24.467 -27.809  1.00  0.00    -0.352 N 
ATOM     13  H   UNL     1      -7.405 -25.466 -28.096  1.00  0.00     0.163 HD
BRANCH  12  14
ATOM     14  C   UNL     1      -6.966 -23.479 -28.830  1.00  0.00     0.151 C 
BRANCH  14  15
ATOM     15  C   UNL     1      -5.617 -23.788 -29.427  1.00  0.00    -0.025 A 
ATOM     16  C   UNL     1      -4.561 -22.872 -29.296  1.00  0.00     0.056 A 
ATOM     17  C   UNL     1      -5.397 -25.002 -30.096  1.00  0.00     0.009 A 
ATOM     18  C   UNL     1      -3.288 -23.165 -29.826  1.00  0.00     0.160 A 
ATOM     19  C   UNL     1      -4.139 -25.294 -30.630  1.00  0.00     0.050 A 
ATOM     20  C   UNL     1      -3.086 -24.380 -30.497  1.00  0.00     0.157 A 
BRANCH  18  21
ATOM     21  O   UNL     1      -2.205 -22.283 -29.704  1.00  0.00    -0.493 OA
ATOM     22  C   UNL     1      -2.000 -21.402 -28.601  1.00  0.00     0.278 C 
ENDBRANCH  18  21
BRANCH  20  23
ATOM     23  O   UNL     1      -1.829 -24.671 -31.031  1.00  0.00    -0.504 OA
ATOM     24  H   UNL     1      -1.619 -25.580 -31.426  1.00  0.00     0.293 HD
ENDBRANCH  20  23
ENDBRANCH  14  15
ENDBRANCH  12  14
ENDBRANCH   9  10
ENDBRANCH   1   9
TORSDOF 10
ENDMDL
MODEL 8
REMARK VINA RESULT:    -5.936      4.209      6.732
REMARK INTER + INTRA:          -9.897
REMARK INTER:                  -7.718
REMARK INTRA:                  -2.179
REMARK UNBOUND:                -0.665
REMARK SMILES COc1cc(CNC(=O)CCCCC=CC(C)C)ccc1O
REMARK SMILES IDX 11 1 12 2 13 3 14 4 15 5 16 6 17 7 18 8 10 9 8 10 9 11 7 12
REMARK SMILES IDX 6 14 5 15 4 16 19 17 3 18 20 19 21 20 2 21 1 22 22 23
REMARK H PARENT 7 13 22 24
REMARK Flexibility Score: inf
ROOT
ATOM      1  C   UNL     1      -3.229 -25.430 -30.698  1.00  0.00     0.010 C 
ENDROOT
BRANCH   1   2
ATOM      2  C   UNL     1      -3.926 -24.073 -30.915  1.00  0.00     0.005 C 
BRANCH   2   3
ATOM      3  C   UNL     1      -5.380 -24.017 -30.414  1.00  0.00     0.027 C 
BRANCH   3   4
ATOM      4  C   UNL     1      -5.722 -25.153 -29.486  1.00  0.00    -0.031 C 
ATOM      5  C   UNL     1      -5.763 -24.991 -28.155  1.00  0.00    -0.028 C 
BRANCH   5   6
ATOM      6  C   UNL     1      -6.128 -26.133 -27.235  1.00  0.00     0.005 C 
ATOM      7  C   UNL     1      -6.985 -25.630 -26.068  1.00  0.00     0.012 C 
ATOM      8  C   UNL     1      -4.865 -26.829 -26.710  1.00  0.00     0.012 C 
ENDBRANCH   5   6
ENDBRANCH   3   4
ENDBRANCH   2   3
ENDBRANCH   1   2
BRANCH   1   9
ATOM      9  C   UNL     1      -1.712 -25.299 -30.502  1.00  0.00     0.100 C 
BRANCH   9  10
ATOM     10  C   UNL     1      -1.409 -24.371 -29.363  1.00  0.00     0.220 C 
ATOM     11  O   UNL     1      -0.868 -23.256 -29.603  1.00  0.00    -0.275 OA
ATOM     12  N   UNL     1      -1.754 -24.736 -28.018  1.00  0.00    -0.352 N 
ATOM     13  H   UNL     1      -2.220 -25.653 -27.845  1.00  0.00     0.163 HD
BRANCH  12  14
ATOM     14  C   UNL     1      -1.523 -23.847 -26.879  1.00  0.00     0.151 C 
BRANCH  14  15
ATOM     15  C   UNL     1      -2.822 -23.252 -26.403  1.00  0.00    -0.025 A 
ATOM     16  C   UNL     1      -3.450 -22.239 -27.147  1.00  0.00     0.056 A 
ATOM     17  C   UNL     1      -3.429 -23.719 -25.227  1.00  0.00     0.009 A 
ATOM     18  C   UNL     1      -4.680 -21.696 -26.723  1.00  0.00     0.160 A 
ATOM     19  C   UNL     1      -4.645 -23.180 -24.799  1.00  0.00     0.050 A 
ATOM     20  C   UNL     1      -5.271 -22.171 -25.543  1.00  0.00     0.157 A 
BRANCH  18  21
ATOM     21  O   UNL     1      -5.344 -20.695 -27.445  1.00  0.00    -0.493 OA
ATOM     22  C   UNL     1      -5.320 -20.571 -28.866  1.00  0.00     0.278 C 
ENDBRANCH  18  21
BRANCH  20  23
ATOM     23  O   UNL     1      -6.485 -21.631 -25.115  1.00  0.00    -0.504 OA
ATOM     24  H   UNL     1      -6.709 -20.653 -25.256  1.00  0.00     0.293 HD
ENDBRANCH  20  23
ENDBRANCH  14  15
ENDBRANCH  12  14
ENDBRANCH   9  10
ENDBRANCH   1   9
TORSDOF 10
ENDMDL
MODEL 9
REMARK VINA RESULT:    -5.885      3.885      6.716
REMARK INTER + INTRA:          -9.818
REMARK INTER:                  -7.675
REMARK INTRA:                  -2.143
REMARK UNBOUND:                -0.665
REMARK SMILES COc1cc(CNC(=O)CCCCC=CC(C)C)ccc1O
REMARK SMILES IDX 11 1 12 2 13 3 14 4 15 5 16 6 17 7 18 8 10 9 8 10 9 11 7 12
REMARK SMILES IDX 6 14 5 15 4 16 19 17 3 18 20 19 21 20 2 21 1 22 22 23
REMARK H PARENT 7 13 22 24
REMARK Flexibility Score: inf
ROOT
ATOM      1  C   UNL     1      -6.863 -24.056 -25.410  1.00  0.00     0.010 C 
ENDROOT
BRANCH   1   2
ATOM      2  C   UNL     1      -5.647 -23.471 -24.669  1.00  0.00     0.005 C 
BRANCH   2   3
ATOM      3  C   UNL     1      -4.530 -22.950 -25.591  1.00  0.00     0.027 C 
BRANCH   3   4
ATOM      4  C   UNL     1      -5.031 -21.970 -26.619  1.00  0.00    -0.031 C 
ATOM      5  C   UNL     1      -4.201 -21.370 -27.487  1.00  0.00    -0.028 C 
BRANCH   5   6
ATOM      6  C   UNL     1      -4.717 -20.404 -28.527  1.00  0.00     0.005 C 
ATOM      7  C   UNL     1      -4.842 -18.995 -27.936  1.00  0.00     0.012 C 
ATOM      8  C   UNL     1      -6.070 -20.874 -29.077  1.00  0.00     0.012 C 
ENDBRANCH   5   6
ENDBRANCH   3   4
ENDBRANCH   2   3
ENDBRANCH   1   2
BRANCH   1   9
ATOM      9  C   UNL     1      -6.786 -25.580 -25.576  1.00  0.00     0.100 C 
BRANCH   9  10
ATOM     10  C   UNL     1      -6.302 -25.934 -26.950  1.00  0.00     0.220 C 
ATOM     11  O   UNL     1      -5.795 -27.073 -27.151  1.00  0.00    -0.275 OA
ATOM     12  N   UNL     1      -6.438 -24.999 -28.031  1.00  0.00    -0.352 N 
ATOM     13  H   UNL     1      -6.879 -24.072 -27.848  1.00  0.00     0.163 HD
BRANCH  12  14
ATOM     14  C   UNL     1      -6.025 -25.314 -29.399  1.00  0.00     0.151 C 
BRANCH  14  15
ATOM     15  C   UNL     1      -4.773 -24.558 -29.759  1.00  0.00    -0.025 A 
ATOM     16  C   UNL     1      -3.621 -24.679 -28.964  1.00  0.00     0.056 A 
ATOM     17  C   UNL     1      -4.737 -23.745 -30.902  1.00  0.00     0.009 A 
ATOM     18  C   UNL     1      -2.437 -23.996 -29.309  1.00  0.00     0.160 A 
ATOM     19  C   UNL     1      -3.568 -23.061 -31.245  1.00  0.00     0.050 A 
ATOM     20  C   UNL     1      -2.419 -23.184 -30.452  1.00  0.00     0.157 A 
BRANCH  18  21
ATOM     21  O   UNL     1      -1.264 -24.103 -28.549  1.00  0.00    -0.493 OA
ATOM     22  C   UNL     1      -1.017 -23.392 -27.337  1.00  0.00     0.278 C 
ENDBRANCH  18  21
BRANCH  20  23
ATOM     23  O   UNL     1      -1.251 -22.500 -30.793  1.00  0.00    -0.504 OA
ATOM     24  H   UNL     1      -0.421 -22.991 -31.100  1.00  0.00     0.293 HD
ENDBRANCH  20  23
ENDBRANCH  14  15
ENDBRANCH  12  14
ENDBRANCH   9  10
ENDBRANCH   1   9
TORSDOF 10
ENDMDL
