MODEL 1
REMARK VINA RESULT:    -3.437      0.000      0.000
REMARK INTER + INTRA:          -4.603
REMARK INTER:                  -4.441
REMARK INTRA:                  -0.162
REMARK UNBOUND:                -0.162
REMARK SMILES CCCCCCC(=O)[O-]
REMARK SMILES IDX 5 1 6 2 7 3 8 4 9 5 4 6 3 7 2 8 1 9
REMARK H PARENT
REMARK Flexibility Score: inf
ROOT
ATOM      1  C   UNL     1      -5.941  35.818  22.280  1.00  0.00     0.006 C 
ENDROOT
BRANCH   1   2
ATOM      2  C   UNL     1      -6.125  35.259  20.857  1.00  0.00     0.053 C 
BRANCH   2   3
ATOM      3  C   UNL     1      -5.225  35.916  19.856  1.00  0.00     0.041 C 
ATOM      4  O   UNL     1      -4.605  35.224  19.005  1.00  0.00    -0.550 OA
ATOM      5  O   UNL     1      -5.044  37.294  19.881  1.00  0.00    -0.550 OA
ENDBRANCH   2   3
ENDBRANCH   1   2
BRANCH   1   6
ATOM      6  C   UNL     1      -6.018  34.751  23.386  1.00  0.00     0.000 C 
BRANCH   6   7
ATOM      7  C   UNL     1      -6.124  35.351  24.795  1.00  0.00    -0.000 C 
BRANCH   7   8
ATOM      8  C   UNL     1      -5.893  36.866  24.765  1.00  0.00    -0.003 C 
ATOM      9  C   UNL     1      -4.970  37.306  25.899  1.00  0.00     0.004 C 
ENDBRANCH   7   8
ENDBRANCH   6   7
ENDBRANCH   1   6
TORSDOF 5
ENDMDL
MODEL 2
REMARK VINA RESULT:    -2.924      1.465      2.123
REMARK INTER + INTRA:          -3.941
REMARK INTER:                  -3.780
REMARK INTRA:                  -0.161
REMARK UNBOUND:                -0.162
REMARK SMILES CCCCCCC(=O)[O-]
REMARK SMILES IDX 5 1 6 2 7 3 8 4 9 5 4 6 3 7 2 8 1 9
REMARK H PARENT
REMARK Flexibility Score: inf
ROOT
ATOM      1  C   UNL     1      -5.925  35.999  20.657  1.00  0.00     0.006 C 
ENDROOT
BRANCH   1   2
ATOM      2  C   UNL     1      -4.667  35.387  20.014  1.00  0.00     0.053 C 
BRANCH   2   3
ATOM      3  C   UNL     1      -4.955  34.710  18.709  1.00  0.00     0.041 C 
ATOM      4  O   UNL     1      -4.216  34.915  17.709  1.00  0.00    -0.550 OA
ATOM      5  O   UNL     1      -6.059  33.875  18.586  1.00  0.00    -0.550 OA
ENDBRANCH   2   3
ENDBRANCH   1   2
BRANCH   1   6
ATOM      6  C   UNL     1      -5.883  36.044  22.195  1.00  0.00     0.000 C 
BRANCH   6   7
ATOM      7  C   UNL     1      -5.860  34.650  22.838  1.00  0.00    -0.000 C 
BRANCH   7   8
ATOM      8  C   UNL     1      -6.123  34.736  24.346  1.00  0.00    -0.003 C 
ATOM      9  C   UNL     1      -6.068  36.182  24.833  1.00  0.00     0.004 C 
ENDBRANCH   7   8
ENDBRANCH   6   7
ENDBRANCH   1   6
TORSDOF 5
ENDMDL
MODEL 3
REMARK VINA RESULT:    -2.757      2.864      5.250
REMARK INTER + INTRA:          -3.725
REMARK INTER:                  -3.585
REMARK INTRA:                  -0.141
REMARK UNBOUND:                -0.162
REMARK SMILES CCCCCCC(=O)[O-]
REMARK SMILES IDX 5 1 6 2 7 3 8 4 9 5 4 6 3 7 2 8 1 9
REMARK H PARENT
REMARK Flexibility Score: inf
ROOT
ATOM      1  C   UNL     1      -4.958  35.399  21.489  1.00  0.00     0.006 C 
ENDROOT
BRANCH   1   2
ATOM      2  C   UNL     1      -6.119  35.740  22.440  1.00  0.00     0.053 C 
BRANCH   2   3
ATOM      3  C   UNL     1      -5.980  35.086  23.781  1.00  0.00     0.041 C 
ATOM      4  O   UNL     1      -6.125  33.840  23.899  1.00  0.00    -0.550 OA
ATOM      5  O   UNL     1      -5.720  35.856  24.908  1.00  0.00    -0.550 OA
ENDBRANCH   2   3
ENDBRANCH   1   2
BRANCH   1   6
ATOM      6  C   UNL     1      -5.189  35.848  20.035  1.00  0.00     0.000 C 
BRANCH   6   7
ATOM      7  C   UNL     1      -6.044  34.861  19.228  1.00  0.00    -0.000 C 
BRANCH   7   8
ATOM      8  C   UNL     1      -5.178  34.054  18.253  1.00  0.00    -0.003 C 
ATOM      9  C   UNL     1      -4.145  34.944  17.567  1.00  0.00     0.004 C 
ENDBRANCH   7   8
ENDBRANCH   6   7
ENDBRANCH   1   6
TORSDOF 5
ENDMDL
MODEL 4
REMARK VINA RESULT:    -2.327      2.659      5.171
REMARK INTER + INTRA:          -3.169
REMARK INTER:                  -3.070
REMARK INTRA:                  -0.099
REMARK UNBOUND:                -0.162
REMARK SMILES CCCCCCC(=O)[O-]
REMARK SMILES IDX 5 1 6 2 7 3 8 4 9 5 4 6 3 7 2 8 1 9
REMARK H PARENT
REMARK Flexibility Score: inf
ROOT
ATOM      1  C   UNL     1      -6.065  34.982  22.037  1.00  0.00     0.006 C 
ENDROOT
BRANCH   1   2
ATOM      2  C   UNL     1      -5.848  34.837  23.554  1.00  0.00     0.053 C 
BRANCH   2   3
ATOM      3  C   UNL     1      -6.026  36.130  24.291  1.00  0.00     0.041 C 
ATOM      4  O   UNL     1      -6.123  36.138  25.547  1.00  0.00    -0.550 OA
ATOM      5  O   UNL     1      -6.116  37.325  23.588  1.00  0.00    -0.550 OA
ENDBRANCH   2   3
ENDBRANCH   1   2
BRANCH   1   6
ATOM      6  C   UNL     1      -4.765  35.169  21.234  1.00  0.00     0.000 C 
BRANCH   6   7
ATOM      7  C   UNL     1      -5.007  35.688  19.810  1.00  0.00    -0.000 C 
BRANCH   7   8
ATOM      8  C   UNL     1      -4.872  34.556  18.784  1.00  0.00    -0.003 C 
ATOM      9  C   UNL     1      -4.258  35.063  17.481  1.00  0.00     0.004 C 
ENDBRANCH   7   8
ENDBRANCH   6   7
ENDBRANCH   1   6
TORSDOF 5
ENDMDL
MODEL 5
REMARK VINA RESULT:    -2.182      3.064      4.848
REMARK INTER + INTRA:          -2.982
REMARK INTER:                  -2.836
REMARK INTRA:                  -0.146
REMARK UNBOUND:                -0.162
REMARK SMILES CCCCCCC(=O)[O-]
REMARK SMILES IDX 5 1 6 2 7 3 8 4 9 5 4 6 3 7 2 8 1 9
REMARK H PARENT
REMARK Flexibility Score: inf
ROOT
ATOM      1  C   UNL     1      -5.758  36.904  22.228  1.00  0.00     0.006 C 
ENDROOT
BRANCH   1   2
ATOM      2  C   UNL     1      -5.750  38.100  21.260  1.00  0.00     0.053 C 
BRANCH   2   3
ATOM      3  C   UNL     1      -5.783  39.420  21.970  1.00  0.00     0.041 C 
ATOM      4  O   UNL     1      -6.125  40.465  21.355  1.00  0.00    -0.550 OA
ATOM      5  O   UNL     1      -5.405  39.502  23.305  1.00  0.00    -0.550 OA
ENDBRANCH   2   3
ENDBRANCH   1   2
BRANCH   1   6
ATOM      6  C   UNL     1      -5.748  35.533  21.529  1.00  0.00     0.000 C 
BRANCH   6   7
ATOM      7  C   UNL     1      -4.855  35.500  20.281  1.00  0.00    -0.000 C 
BRANCH   7   8
ATOM      8  C   UNL     1      -5.622  34.955  19.070  1.00  0.00    -0.003 C 
ATOM      9  C   UNL     1      -4.670  34.363  18.035  1.00  0.00     0.004 C 
ENDBRANCH   7   8
ENDBRANCH   6   7
ENDBRANCH   1   6
TORSDOF 5
ENDMDL
MODEL 6
REMARK VINA RESULT:    -2.053      2.886      5.050
REMARK INTER + INTRA:          -2.816
REMARK INTER:                  -2.729
REMARK INTRA:                  -0.087
REMARK UNBOUND:                -0.162
REMARK SMILES CCCCCCC(=O)[O-]
REMARK SMILES IDX 5 1 6 2 7 3 8 4 9 5 4 6 3 7 2 8 1 9
REMARK H PARENT
REMARK Flexibility Score: inf
ROOT
ATOM      1  C   UNL     1      -6.124  36.365  23.250  1.00  0.00     0.006 C 
ENDROOT
BRANCH   1   2
ATOM      2  C   UNL     1      -5.744  36.217  24.734  1.00  0.00     0.053 C 
BRANCH   2   3
ATOM      3  C   UNL     1      -5.027  37.419  25.271  1.00  0.00     0.041 C 
ATOM      4  O   UNL     1      -4.218  37.301  26.229  1.00  0.00    -0.550 OA
ATOM      5  O   UNL     1      -5.277  38.675  24.733  1.00  0.00    -0.550 OA
ENDBRANCH   2   3
ENDBRANCH   1   2
BRANCH   1   6
ATOM      6  C   UNL     1      -5.831  35.115  22.401  1.00  0.00     0.000 C 
BRANCH   6   7
ATOM      7  C   UNL     1      -5.992  35.360  20.894  1.00  0.00    -0.000 C 
BRANCH   7   8
ATOM      8  C   UNL     1      -4.633  35.323  20.184  1.00  0.00    -0.003 C 
ATOM      9  C   UNL     1      -4.800  35.077  18.686  1.00  0.00     0.004 C 
ENDBRANCH   7   8
ENDBRANCH   6   7
ENDBRANCH   1   6
TORSDOF 5
ENDMDL
MODEL 7
REMARK VINA RESULT:    -1.805      2.614      3.492
REMARK INTER + INTRA:          -2.495
REMARK INTER:                  -2.384
REMARK INTRA:                  -0.111
REMARK UNBOUND:                -0.162
REMARK SMILES CCCCCCC(=O)[O-]
REMARK SMILES IDX 5 1 6 2 7 3 8 4 9 5 4 6 3 7 2 8 1 9
REMARK H PARENT
REMARK Flexibility Score: inf
ROOT
ATOM      1  C   UNL     1      -5.060  36.696  19.839  1.00  0.00     0.006 C 
ENDROOT
BRANCH   1   2
ATOM      2  C   UNL     1      -5.918  35.761  20.710  1.00  0.00     0.053 C 
BRANCH   2   3
ATOM      3  C   UNL     1      -5.136  35.123  21.818  1.00  0.00     0.041 C 
ATOM      4  O   UNL     1      -5.630  35.029  22.973  1.00  0.00    -0.550 OA
ATOM      5  O   UNL     1      -3.847  34.660  21.584  1.00  0.00    -0.550 OA
ENDBRANCH   2   3
ENDBRANCH   1   2
BRANCH   1   6
ATOM      6  C   UNL     1      -5.303  38.193  20.101  1.00  0.00     0.000 C 
BRANCH   6   7
ATOM      7  C   UNL     1      -6.009  38.464  21.437  1.00  0.00    -0.000 C 
BRANCH   7   8
ATOM      8  C   UNL     1      -5.419  39.699  22.129  1.00  0.00    -0.003 C 
ATOM      9  C   UNL     1      -5.302  39.484  23.635  1.00  0.00     0.004 C 
ENDBRANCH   7   8
ENDBRANCH   6   7
ENDBRANCH   1   6
TORSDOF 5
ENDMDL
