MODEL 1
REMARK VINA RESULT:    -4.645      0.000      0.000
REMARK INTER + INTRA:          -6.376
REMARK INTER:                  -7.633
REMARK INTRA:                   1.256
REMARK UNBOUND:                 1.256
REMARK SMILES COc1ccc([C@H]2CC(=O)c3c(O)cc(O[C@@H]4O[C@H](CO[C@H]5O[C@H](C)[C@@H](O)[C@@H](O)[C@H]5O)[C@@H](O)[C@@H](O)[C@@H]4O)cc3O2)cc1O
REMARK SMILES IDX 19 1 32 2 34 3 36 4 17 5 18 6 20 7 21 8 22 9 25 10 24 11
REMARK SMILES IDX 26 12 23 13 28 14 30 15 27 16 29 18 31 20 33 22 35 24 16 26
REMARK SMILES IDX 15 27 14 28 38 29 12 30 39 31 11 32 40 33 9 34 7 35 10 36
REMARK SMILES IDX 8 37 13 38 6 40 41 41 5 42 42 43 4 44 3 45 43 46 2 48 1 49
REMARK SMILES IDX 37 50
REMARK H PARENT 27 17 29 19 31 21 33 23 35 25 13 39 43 47 37 51
REMARK Flexibility Score: inf
ROOT
ATOM      1  C   UNL     1      -9.102 -27.725   5.316  1.00  0.00     0.180 C 
ATOM      2  C   UNL     1      -8.848 -26.300   5.909  1.00  0.00     0.177 C 
ATOM      3  C   UNL     1     -10.021 -25.369   5.634  1.00  0.00     0.180 C 
ATOM      4  C   UNL     1     -10.378 -25.417   4.142  1.00  0.00     0.214 C 
ATOM      5  C   UNL     1     -10.548 -26.888   3.649  1.00  0.00     0.339 C 
ATOM      6  O   UNL     1     -10.392 -27.824   4.707  1.00  0.00    -0.332 OA
ENDROOT
BRANCH   1   7
ATOM      7  C   UNL     1      -8.979 -28.860   6.363  1.00  0.00     0.198 C 
BRANCH   7   8
ATOM      8  O   UNL     1      -7.961 -28.622   7.330  1.00  0.00    -0.347 OA
BRANCH   8   9
ATOM      9  C   UNL     1      -8.333 -28.017   8.568  1.00  0.00     0.281 C 
ATOM     10  C   UNL     1      -8.632 -29.020  11.885  1.00  0.00     0.041 C 
ATOM     11  C   UNL     1      -8.092 -27.949  10.945  1.00  0.00     0.150 C 
ATOM     12  C   UNL     1      -9.096 -26.768  10.859  1.00  0.00     0.174 C 
ATOM     13  O   UNL     1      -7.744 -28.594   9.721  1.00  0.00    -0.344 OA
ATOM     14  C   UNL     1      -8.763 -25.793   9.691  1.00  0.00     0.179 C 
ATOM     15  C   UNL     1      -8.070 -26.493   8.497  1.00  0.00     0.202 C 
BRANCH  12  16
ATOM     16  O   UNL     1      -9.117 -26.076  12.082  1.00  0.00    -0.388 OA
ATOM     17  H   UNL     1      -9.330 -25.119  11.857  1.00  0.00     0.211 HD
ENDBRANCH  12  16
BRANCH  14  18
ATOM     18  O   UNL     1      -8.037 -24.669  10.128  1.00  0.00    -0.387 OA
ATOM     19  H   UNL     1      -8.434 -23.874   9.688  1.00  0.00     0.211 HD
ENDBRANCH  14  18
BRANCH  15  20
ATOM     20  O   UNL     1      -6.696 -26.158   8.469  1.00  0.00    -0.385 OA
ATOM     21  H   UNL     1      -6.206 -26.854   7.951  1.00  0.00     0.211 HD
ENDBRANCH  15  20
ENDBRANCH   8   9
ENDBRANCH   7   8
ENDBRANCH   1   7
BRANCH   2  22
ATOM     22  O   UNL     1      -7.676 -25.767   5.334  1.00  0.00    -0.387 OA
ATOM     23  H   UNL     1      -7.664 -26.049   4.386  1.00  0.00     0.211 HD
ENDBRANCH   2  22
BRANCH   3  24
ATOM     24  O   UNL     1      -9.701 -24.050   5.986  1.00  0.00    -0.387 OA
ATOM     25  H   UNL     1     -10.465 -23.504   5.669  1.00  0.00     0.211 HD
ENDBRANCH   3  24
BRANCH   5  26
ATOM     26  O   UNL     1     -11.874 -27.007   3.115  1.00  0.00    -0.462 OA
BRANCH  26  27
ATOM     27  C   UNL     1     -12.272 -26.700   1.803  1.00  0.00     0.130 A 
ATOM     28  C   UNL     1     -13.328 -27.458   1.283  1.00  0.00     0.093 A 
ATOM     29  C   UNL     1     -11.652 -25.726   1.007  1.00  0.00     0.094 A 
ATOM     30  C   UNL     1     -13.813 -27.203  -0.011  1.00  0.00     0.133 A 
ATOM     31  C   UNL     1     -12.076 -25.537  -0.315  1.00  0.00     0.138 A 
ATOM     32  C   UNL     1     -13.214 -26.200  -0.791  1.00  0.00     0.102 A 
ATOM     33  O   UNL     1     -11.325 -24.764  -1.196  1.00  0.00    -0.484 OA
ATOM     34  C   UNL     1     -13.674 -25.892  -2.159  1.00  0.00     0.174 C 
ATOM     35  C   UNL     1     -11.316 -25.037  -2.602  1.00  0.00     0.211 C 
ATOM     36  O   UNL     1     -14.827 -26.221  -2.537  1.00  0.00    -0.294 OA
ATOM     37  C   UNL     1     -12.771 -25.168  -3.125  1.00  0.00     0.131 C 
BRANCH  30  38
ATOM     38  O   UNL     1     -14.884 -27.958  -0.499  1.00  0.00    -0.507 OA
ATOM     39  H   UNL     1     -15.854 -27.698  -0.325  1.00  0.00     0.293 HD
ENDBRANCH  30  38
BRANCH  35  40
ATOM     40  C   UNL     1     -10.442 -26.264  -2.874  1.00  0.00    -0.003 A 
ATOM     41  C   UNL     1     -10.986 -27.553  -3.050  1.00  0.00     0.057 A 
ATOM     42  C   UNL     1      -9.048 -26.131  -2.771  1.00  0.00     0.011 A 
ATOM     43  C   UNL     1     -10.168 -28.691  -3.076  1.00  0.00     0.158 A 
ATOM     44  C   UNL     1      -8.224 -27.265  -2.840  1.00  0.00     0.051 A 
ATOM     45  C   UNL     1      -8.766 -28.546  -2.995  1.00  0.00     0.160 A 
BRANCH  43  46
ATOM     46  O   UNL     1     -10.757 -29.949  -3.125  1.00  0.00    -0.504 OA
ATOM     47  H   UNL     1     -11.768 -30.071  -3.167  1.00  0.00     0.293 HD
ENDBRANCH  43  46
BRANCH  45  48
ATOM     48  O   UNL     1      -7.864 -29.620  -3.059  1.00  0.00    -0.493 OA
ATOM     49  C   UNL     1      -8.226 -30.995  -2.894  1.00  0.00     0.278 C 
ENDBRANCH  45  48
ENDBRANCH  35  40
ENDBRANCH  26  27
ENDBRANCH   5  26
BRANCH   4  50
ATOM     50  O   UNL     1     -11.559 -24.672   3.915  1.00  0.00    -0.384 OA
ATOM     51  H   UNL     1     -11.520 -24.347   2.979  1.00  0.00     0.211 HD
ENDBRANCH   4  50
TORSDOF 15
ENDMDL
MODEL 2
REMARK VINA RESULT:    -4.428      1.632      2.777
REMARK INTER + INTRA:          -6.019
REMARK INTER:                  -7.611
REMARK INTRA:                   1.592
REMARK UNBOUND:                 1.256
REMARK SMILES COc1ccc([C@H]2CC(=O)c3c(O)cc(O[C@@H]4O[C@H](CO[C@H]5O[C@H](C)[C@@H](O)[C@@H](O)[C@H]5O)[C@@H](O)[C@@H](O)[C@@H]4O)cc3O2)cc1O
REMARK SMILES IDX 19 1 32 2 34 3 36 4 17 5 18 6 20 7 21 8 22 9 25 10 24 11
REMARK SMILES IDX 26 12 23 13 28 14 30 15 27 16 29 18 31 20 33 22 35 24 16 26
REMARK SMILES IDX 15 27 14 28 38 29 12 30 39 31 11 32 40 33 9 34 7 35 10 36
REMARK SMILES IDX 8 37 13 38 6 40 41 41 5 42 42 43 4 44 3 45 43 46 2 48 1 49
REMARK SMILES IDX 37 50
REMARK H PARENT 27 17 29 19 31 21 33 23 35 25 13 39 43 47 37 51
REMARK Flexibility Score: inf
ROOT
ATOM      1  C   UNL     1      -8.867 -29.149   6.187  1.00  0.00     0.180 C 
ATOM      2  C   UNL     1      -8.299 -30.306   5.299  1.00  0.00     0.177 C 
ATOM      3  C   UNL     1      -8.288 -29.918   3.826  1.00  0.00     0.180 C 
ATOM      4  C   UNL     1      -9.669 -29.384   3.424  1.00  0.00     0.214 C 
ATOM      5  C   UNL     1     -10.158 -28.281   4.413  1.00  0.00     0.339 C 
ATOM      6  O   UNL     1      -9.187 -27.993   5.410  1.00  0.00    -0.332 OA
ENDROOT
BRANCH   1   7
ATOM      7  C   UNL     1      -7.905 -28.713   7.320  1.00  0.00     0.198 C 
BRANCH   7   8
ATOM      8  O   UNL     1      -7.473 -27.361   7.200  1.00  0.00    -0.347 OA
BRANCH   8   9
ATOM      9  C   UNL     1      -8.046 -26.389   8.074  1.00  0.00     0.281 C 
ATOM     10  C   UNL     1     -10.438 -23.875   7.843  1.00  0.00     0.041 C 
ATOM     11  C   UNL     1      -9.943 -25.060   8.663  1.00  0.00     0.150 C 
ATOM     12  C   UNL     1      -9.039 -24.559   9.822  1.00  0.00     0.174 C 
ATOM     13  O   UNL     1      -9.369 -25.998   7.753  1.00  0.00    -0.344 OA
ATOM     14  C   UNL     1      -8.254 -25.719  10.503  1.00  0.00     0.179 C 
ATOM     15  C   UNL     1      -7.939 -26.887   9.538  1.00  0.00     0.202 C 
BRANCH  12  16
ATOM     16  O   UNL     1      -9.819 -23.875  10.769  1.00  0.00    -0.388 OA
ATOM     17  H   UNL     1      -9.517 -24.205  11.669  1.00  0.00     0.211 HD
ENDBRANCH  12  16
BRANCH  14  18
ATOM     18  O   UNL     1      -8.887 -26.171  11.677  1.00  0.00    -0.387 OA
ATOM     19  H   UNL     1      -8.256 -26.787  12.132  1.00  0.00     0.211 HD
ENDBRANCH  14  18
BRANCH  15  20
ATOM     20  O   UNL     1      -8.776 -27.990   9.822  1.00  0.00    -0.385 OA
ATOM     21  H   UNL     1      -9.704 -27.775   9.528  1.00  0.00     0.211 HD
ENDBRANCH  15  20
ENDBRANCH   8   9
ENDBRANCH   7   8
ENDBRANCH   1   7
BRANCH   2  22
ATOM     22  O   UNL     1      -9.096 -31.455   5.481  1.00  0.00    -0.387 OA
ATOM     23  H   UNL     1      -8.568 -32.089   6.028  1.00  0.00     0.211 HD
ENDBRANCH   2  22
BRANCH   3  24
ATOM     24  O   UNL     1      -7.973 -31.025   3.025  1.00  0.00    -0.387 OA
ATOM     25  H   UNL     1      -7.327 -31.556   3.556  1.00  0.00     0.211 HD
ENDBRANCH   3  24
BRANCH   5  26
ATOM     26  O   UNL     1     -10.399 -27.095   3.642  1.00  0.00    -0.462 OA
BRANCH  26  27
ATOM     27  C   UNL     1     -11.141 -27.014   2.452  1.00  0.00     0.130 A 
ATOM     28  C   UNL     1     -12.178 -27.945   2.304  1.00  0.00     0.093 A 
ATOM     29  C   UNL     1     -10.872 -26.097   1.426  1.00  0.00     0.094 A 
ATOM     30  C   UNL     1     -12.992 -27.921   1.159  1.00  0.00     0.133 A 
ATOM     31  C   UNL     1     -11.626 -26.137   0.245  1.00  0.00     0.138 A 
ATOM     32  C   UNL     1     -12.743 -26.976   0.151  1.00  0.00     0.102 A 
ATOM     33  O   UNL     1     -11.225 -25.415  -0.876  1.00  0.00    -0.484 OA
ATOM     34  C   UNL     1     -13.558 -26.907  -1.078  1.00  0.00     0.174 C 
ATOM     35  C   UNL     1     -11.519 -25.875  -2.200  1.00  0.00     0.211 C 
ATOM     36  O   UNL     1     -14.713 -27.406  -1.109  1.00  0.00    -0.294 OA
ATOM     37  C   UNL     1     -13.025 -26.229  -2.314  1.00  0.00     0.131 C 
BRANCH  30  38
ATOM     38  O   UNL     1     -14.035 -28.846   1.045  1.00  0.00    -0.507 OA
ATOM     39  H   UNL     1     -14.725 -28.977   1.784  1.00  0.00     0.293 HD
ENDBRANCH  30  38
BRANCH  35  40
ATOM     40  C   UNL     1     -10.576 -27.027  -2.558  1.00  0.00    -0.003 A 
ATOM     41  C   UNL     1     -11.049 -28.323  -2.852  1.00  0.00     0.057 A 
ATOM     42  C   UNL     1      -9.194 -26.831  -2.417  1.00  0.00     0.011 A 
ATOM     43  C   UNL     1     -10.171 -29.411  -2.958  1.00  0.00     0.158 A 
ATOM     44  C   UNL     1      -8.309 -27.911  -2.565  1.00  0.00     0.051 A 
ATOM     45  C   UNL     1      -8.780 -29.200  -2.838  1.00  0.00     0.160 A 
BRANCH  43  46
ATOM     46  O   UNL     1     -10.691 -30.689  -3.125  1.00  0.00    -0.504 OA
ATOM     47  H   UNL     1     -10.291 -31.352  -3.786  1.00  0.00     0.293 HD
ENDBRANCH  43  46
BRANCH  45  48
ATOM     48  O   UNL     1      -7.821 -30.217  -2.975  1.00  0.00    -0.493 OA
ATOM     49  C   UNL     1      -7.892 -31.492  -2.329  1.00  0.00     0.278 C 
ENDBRANCH  45  48
ENDBRANCH  35  40
ENDBRANCH  26  27
ENDBRANCH   5  26
BRANCH   4  50
ATOM     50  O   UNL     1      -9.615 -28.885   2.102  1.00  0.00    -0.384 OA
ATOM     51  H   UNL     1     -10.112 -28.027   2.096  1.00  0.00     0.211 HD
ENDBRANCH   4  50
TORSDOF 15
ENDMDL
MODEL 3
REMARK VINA RESULT:    -3.720      1.341      2.122
REMARK INTER + INTRA:          -4.855
REMARK INTER:                  -7.183
REMARK INTRA:                   2.328
REMARK UNBOUND:                 1.256
REMARK SMILES COc1ccc([C@H]2CC(=O)c3c(O)cc(O[C@@H]4O[C@H](CO[C@H]5O[C@H](C)[C@@H](O)[C@@H](O)[C@H]5O)[C@@H](O)[C@@H](O)[C@@H]4O)cc3O2)cc1O
REMARK SMILES IDX 19 1 32 2 34 3 36 4 17 5 18 6 20 7 21 8 22 9 25 10 24 11
REMARK SMILES IDX 26 12 23 13 28 14 30 15 27 16 29 18 31 20 33 22 35 24 16 26
REMARK SMILES IDX 15 27 14 28 38 29 12 30 39 31 11 32 40 33 9 34 7 35 10 36
REMARK SMILES IDX 8 37 13 38 6 40 41 41 5 42 42 43 4 44 3 45 43 46 2 48 1 49
REMARK SMILES IDX 37 50
REMARK H PARENT 27 17 29 19 31 21 33 23 35 25 13 39 43 47 37 51
REMARK Flexibility Score: inf
ROOT
ATOM      1  C   UNL     1      -9.424 -27.841   6.034  1.00  0.00     0.180 C 
ATOM      2  C   UNL     1      -9.031 -29.252   5.483  1.00  0.00     0.177 C 
ATOM      3  C   UNL     1      -9.006 -29.263   3.960  1.00  0.00     0.180 C 
ATOM      4  C   UNL     1     -10.316 -28.677   3.419  1.00  0.00     0.214 C 
ATOM      5  C   UNL     1     -10.636 -27.301   4.082  1.00  0.00     0.339 C 
ATOM      6  O   UNL     1      -9.613 -26.894   4.981  1.00  0.00    -0.332 OA
ENDROOT
BRANCH   1   7
ATOM      7  C   UNL     1      -8.387 -27.256   7.025  1.00  0.00     0.198 C 
BRANCH   7   8
ATOM      8  O   UNL     1      -8.895 -26.167   7.790  1.00  0.00    -0.347 OA
BRANCH   8   9
ATOM      9  C   UNL     1      -8.888 -26.281   9.213  1.00  0.00     0.281 C 
ATOM     10  C   UNL     1      -8.707 -28.856  11.543  1.00  0.00     0.041 C 
ATOM     11  C   UNL     1      -8.169 -27.487  11.147  1.00  0.00     0.150 C 
ATOM     12  C   UNL     1      -8.921 -26.377  11.929  1.00  0.00     0.174 C 
ATOM     13  O   UNL     1      -8.204 -27.412   9.722  1.00  0.00    -0.344 OA
ATOM     14  C   UNL     1      -8.646 -24.956  11.352  1.00  0.00     0.179 C 
ATOM     15  C   UNL     1      -8.354 -24.966   9.833  1.00  0.00     0.202 C 
BRANCH  12  16
ATOM     16  O   UNL     1      -8.564 -26.430  13.287  1.00  0.00    -0.388 OA
ATOM     17  H   UNL     1      -7.597 -26.161  13.331  1.00  0.00     0.211 HD
ENDBRANCH  12  16
BRANCH  14  18
ATOM     18  O   UNL     1      -7.643 -24.277  12.070  1.00  0.00    -0.387 OA
ATOM     19  H   UNL     1      -6.792 -24.402  11.576  1.00  0.00     0.211 HD
ENDBRANCH  14  18
BRANCH  15  20
ATOM     20  O   UNL     1      -6.975 -24.752   9.602  1.00  0.00    -0.385 OA
ATOM     21  H   UNL     1      -6.735 -23.837   9.916  1.00  0.00     0.211 HD
ENDBRANCH  15  20
ENDBRANCH   8   9
ENDBRANCH   7   8
ENDBRANCH   1   7
BRANCH   2  22
ATOM     22  O   UNL     1      -9.963 -30.202   5.949  1.00  0.00    -0.387 OA
ATOM     23  H   UNL     1      -9.458 -30.867   6.480  1.00  0.00     0.211 HD
ENDBRANCH   2  22
BRANCH   3  24
ATOM     24  O   UNL     1      -8.855 -30.571   3.476  1.00  0.00    -0.387 OA
ATOM     25  H   UNL     1      -9.534 -30.663   2.761  1.00  0.00     0.211 HD
ENDBRANCH   3  24
BRANCH   5  26
ATOM     26  O   UNL     1     -10.741 -26.335   3.028  1.00  0.00    -0.462 OA
BRANCH  26  27
ATOM     27  C   UNL     1     -11.463 -26.485   1.832  1.00  0.00     0.130 A 
ATOM     28  C   UNL     1     -12.406 -27.521   1.804  1.00  0.00     0.093 A 
ATOM     29  C   UNL     1     -11.260 -25.692   0.694  1.00  0.00     0.094 A 
ATOM     30  C   UNL     1     -13.195 -27.728   0.660  1.00  0.00     0.133 A 
ATOM     31  C   UNL     1     -11.983 -25.961  -0.477  1.00  0.00     0.138 A 
ATOM     32  C   UNL     1     -13.015 -26.907  -0.465  1.00  0.00     0.102 A 
ATOM     33  O   UNL     1     -11.628 -25.361  -1.682  1.00  0.00    -0.484 OA
ATOM     34  C   UNL     1     -13.808 -27.082  -1.698  1.00  0.00     0.174 C 
ATOM     35  C   UNL     1     -11.851 -26.020  -2.934  1.00  0.00     0.211 C 
ATOM     36  O   UNL     1     -14.910 -27.687  -1.670  1.00  0.00    -0.294 OA
ATOM     37  C   UNL     1     -13.315 -26.528  -3.010  1.00  0.00     0.131 C 
BRANCH  30  38
ATOM     38  O   UNL     1     -14.145 -28.754   0.665  1.00  0.00    -0.507 OA
ATOM     39  H   UNL     1     -15.146 -28.566   0.610  1.00  0.00     0.293 HD
ENDBRANCH  30  38
BRANCH  35  40
ATOM     40  C   UNL     1     -10.798 -27.115  -3.125  1.00  0.00    -0.003 A 
ATOM     41  C   UNL     1     -11.129 -28.486  -3.125  1.00  0.00     0.057 A 
ATOM     42  C   UNL     1      -9.443 -26.751  -3.124  1.00  0.00     0.011 A 
ATOM     43  C   UNL     1     -10.136 -29.475  -3.078  1.00  0.00     0.158 A 
ATOM     44  C   UNL     1      -8.446 -27.739  -3.120  1.00  0.00     0.051 A 
ATOM     45  C   UNL     1      -8.775 -29.099  -3.101  1.00  0.00     0.160 A 
BRANCH  43  46
ATOM     46  O   UNL     1     -10.510 -30.807  -2.954  1.00  0.00    -0.504 OA
ATOM     47  H   UNL     1     -11.357 -31.173  -3.387  1.00  0.00     0.293 HD
ENDBRANCH  43  46
BRANCH  45  48
ATOM     48  O   UNL     1      -7.712 -30.016  -3.104  1.00  0.00    -0.493 OA
ATOM     49  C   UNL     1      -7.863 -31.435  -2.994  1.00  0.00     0.278 C 
ENDBRANCH  45  48
ENDBRANCH  35  40
ENDBRANCH  26  27
ENDBRANCH   5  26
BRANCH   4  50
ATOM     50  O   UNL     1     -10.231 -28.548   2.013  1.00  0.00    -0.384 OA
ATOM     51  H   UNL     1     -10.473 -27.612   1.793  1.00  0.00     0.211 HD
ENDBRANCH   4  50
TORSDOF 15
ENDMDL
MODEL 4
REMARK VINA RESULT:    -3.171      2.140      4.565
REMARK INTER + INTRA:          -3.953
REMARK INTER:                  -5.045
REMARK INTRA:                   1.091
REMARK UNBOUND:                 1.256
REMARK SMILES COc1ccc([C@H]2CC(=O)c3c(O)cc(O[C@@H]4O[C@H](CO[C@H]5O[C@H](C)[C@@H](O)[C@@H](O)[C@H]5O)[C@@H](O)[C@@H](O)[C@@H]4O)cc3O2)cc1O
REMARK SMILES IDX 19 1 32 2 34 3 36 4 17 5 18 6 20 7 21 8 22 9 25 10 24 11
REMARK SMILES IDX 26 12 23 13 28 14 30 15 27 16 29 18 31 20 33 22 35 24 16 26
REMARK SMILES IDX 15 27 14 28 38 29 12 30 39 31 11 32 40 33 9 34 7 35 10 36
REMARK SMILES IDX 8 37 13 38 6 40 41 41 5 42 42 43 4 44 3 45 43 46 2 48 1 49
REMARK SMILES IDX 37 50
REMARK H PARENT 27 17 29 19 31 21 33 23 35 25 13 39 43 47 37 51
REMARK Flexibility Score: inf
ROOT
ATOM      1  C   UNL     1      -8.287 -26.276   5.565  1.00  0.00     0.180 C 
ATOM      2  C   UNL     1      -8.995 -25.117   6.342  1.00  0.00     0.177 C 
ATOM      3  C   UNL     1     -10.473 -25.035   5.987  1.00  0.00     0.180 C 
ATOM      4  C   UNL     1     -10.636 -25.012   4.462  1.00  0.00     0.214 C 
ATOM      5  C   UNL     1      -9.841 -26.175   3.791  1.00  0.00     0.339 C 
ATOM      6  O   UNL     1      -9.207 -27.008   4.752  1.00  0.00    -0.332 OA
ENDROOT
BRANCH   1   7
ATOM      7  C   UNL     1      -7.558 -27.283   6.489  1.00  0.00     0.198 C 
BRANCH   7   8
ATOM      8  O   UNL     1      -8.445 -28.020   7.325  1.00  0.00    -0.347 OA
BRANCH   8   9
ATOM      9  C   UNL     1      -8.605 -27.596   8.679  1.00  0.00     0.281 C 
ATOM     10  C   UNL     1      -8.815 -29.118  11.799  1.00  0.00     0.041 C 
ATOM     11  C   UNL     1      -8.168 -27.997  10.994  1.00  0.00     0.150 C 
ATOM     12  C   UNL     1      -8.948 -26.673  11.213  1.00  0.00     0.174 C 
ATOM     13  O   UNL     1      -8.039 -28.458   9.650  1.00  0.00    -0.344 OA
ATOM     14  C   UNL     1      -8.539 -25.570  10.191  1.00  0.00     0.179 C 
ATOM     15  C   UNL     1      -8.079 -26.146   8.830  1.00  0.00     0.202 C 
BRANCH  12  16
ATOM     16  O   UNL     1      -8.749 -26.218  12.527  1.00  0.00    -0.388 OA
ATOM     17  H   UNL     1      -9.653 -26.232  12.967  1.00  0.00     0.211 HD
ENDBRANCH  12  16
BRANCH  14  18
ATOM     18  O   UNL     1      -7.592 -24.677  10.725  1.00  0.00    -0.387 OA
ATOM     19  H   UNL     1      -7.842 -23.767  10.420  1.00  0.00     0.211 HD
ENDBRANCH  14  18
BRANCH  15  20
ATOM     20  O   UNL     1      -6.674 -26.039   8.708  1.00  0.00    -0.385 OA
ATOM     21  H   UNL     1      -6.343 -25.379   9.376  1.00  0.00     0.211 HD
ENDBRANCH  15  20
ENDBRANCH   8   9
ENDBRANCH   7   8
ENDBRANCH   1   7
BRANCH   2  22
ATOM     22  O   UNL     1      -8.362 -23.898   6.022  1.00  0.00    -0.387 OA
ATOM     23  H   UNL     1      -8.012 -23.987   5.100  1.00  0.00     0.211 HD
ENDBRANCH   2  22
BRANCH   3  24
ATOM     24  O   UNL     1     -11.049 -23.875   6.527  1.00  0.00    -0.387 OA
ATOM     25  H   UNL     1     -10.680 -23.128   5.991  1.00  0.00     0.211 HD
ENDBRANCH   3  24
BRANCH   5  26
ATOM     26  O   UNL     1     -10.782 -26.958   3.044  1.00  0.00    -0.462 OA
BRANCH  26  27
ATOM     27  C   UNL     1     -11.153 -26.755   1.704  1.00  0.00     0.130 A 
ATOM     28  C   UNL     1     -10.709 -25.566   1.112  1.00  0.00     0.093 A 
ATOM     29  C   UNL     1     -11.953 -27.645   0.973  1.00  0.00     0.094 A 
ATOM     30  C   UNL     1     -11.008 -25.291  -0.234  1.00  0.00     0.133 A 
ATOM     31  C   UNL     1     -12.328 -27.324  -0.339  1.00  0.00     0.138 A 
ATOM     32  C   UNL     1     -11.778 -26.204  -0.973  1.00  0.00     0.102 A 
ATOM     33  O   UNL     1     -13.313 -28.058  -0.993  1.00  0.00    -0.484 OA
ATOM     34  C   UNL     1     -12.130 -25.966  -2.387  1.00  0.00     0.174 C 
ATOM     35  C   UNL     1     -14.158 -27.453  -1.980  1.00  0.00     0.211 C 
ATOM     36  O   UNL     1     -11.461 -25.166  -3.089  1.00  0.00    -0.294 OA
ATOM     37  C   UNL     1     -13.294 -26.687  -3.017  1.00  0.00     0.131 C 
BRANCH  30  38
ATOM     38  O   UNL     1     -10.534 -24.108  -0.809  1.00  0.00    -0.507 OA
ATOM     39  H   UNL     1     -11.022 -23.645  -1.575  1.00  0.00     0.293 HD
ENDBRANCH  30  38
BRANCH  35  40
ATOM     40  C   UNL     1     -15.211 -26.588  -1.283  1.00  0.00    -0.003 A 
ATOM     41  C   UNL     1     -15.093 -26.201   0.068  1.00  0.00     0.057 A 
ATOM     42  C   UNL     1     -16.413 -26.321  -1.956  1.00  0.00     0.011 A 
ATOM     43  C   UNL     1     -16.162 -25.602   0.750  1.00  0.00     0.158 A 
ATOM     44  C   UNL     1     -17.470 -25.683  -1.288  1.00  0.00     0.051 A 
ATOM     45  C   UNL     1     -17.360 -25.316   0.058  1.00  0.00     0.160 A 
BRANCH  43  46
ATOM     46  O   UNL     1     -16.044 -25.351   2.112  1.00  0.00    -0.504 OA
ATOM     47  H   UNL     1     -16.735 -24.804   2.622  1.00  0.00     0.293 HD
ENDBRANCH  43  46
BRANCH  45  48
ATOM     48  O   UNL     1     -18.466 -24.678   0.641  1.00  0.00    -0.493 OA
ATOM     49  C   UNL     1     -19.746 -25.288   0.836  1.00  0.00     0.278 C 
ENDBRANCH  45  48
ENDBRANCH  35  40
ENDBRANCH  26  27
ENDBRANCH   5  26
BRANCH   4  50
ATOM     50  O   UNL     1     -12.010 -25.088   4.132  1.00  0.00    -0.384 OA
ATOM     51  H   UNL     1     -12.488 -24.469   4.741  1.00  0.00     0.211 HD
ENDBRANCH   4  50
TORSDOF 15
ENDMDL
MODEL 5
REMARK VINA RESULT:    -3.123      2.293      4.884
REMARK INTER + INTRA:          -3.874
REMARK INTER:                  -5.683
REMARK INTRA:                   1.809
REMARK UNBOUND:                 1.256
REMARK SMILES COc1ccc([C@H]2CC(=O)c3c(O)cc(O[C@@H]4O[C@H](CO[C@H]5O[C@H](C)[C@@H](O)[C@@H](O)[C@H]5O)[C@@H](O)[C@@H](O)[C@@H]4O)cc3O2)cc1O
REMARK SMILES IDX 19 1 32 2 34 3 36 4 17 5 18 6 20 7 21 8 22 9 25 10 24 11
REMARK SMILES IDX 26 12 23 13 28 14 30 15 27 16 29 18 31 20 33 22 35 24 16 26
REMARK SMILES IDX 15 27 14 28 38 29 12 30 39 31 11 32 40 33 9 34 7 35 10 36
REMARK SMILES IDX 8 37 13 38 6 40 41 41 5 42 42 43 4 44 3 45 43 46 2 48 1 49
REMARK SMILES IDX 37 50
REMARK H PARENT 27 17 29 19 31 21 33 23 35 25 13 39 43 47 37 51
REMARK Flexibility Score: inf
ROOT
ATOM      1  C   UNL     1      -8.102 -28.366   5.771  1.00  0.00     0.180 C 
ATOM      2  C   UNL     1      -7.437 -29.514   4.941  1.00  0.00     0.177 C 
ATOM      3  C   UNL     1      -8.174 -29.747   3.629  1.00  0.00     0.180 C 
ATOM      4  C   UNL     1      -9.675 -29.905   3.902  1.00  0.00     0.214 C 
ATOM      5  C   UNL     1     -10.215 -28.738   4.786  1.00  0.00     0.339 C 
ATOM      6  O   UNL     1      -9.205 -27.780   5.076  1.00  0.00    -0.332 OA
ENDROOT
BRANCH   1   7
ATOM      7  C   UNL     1      -7.119 -27.232   6.152  1.00  0.00     0.198 C 
BRANCH   7   8
ATOM      8  O   UNL     1      -7.768 -26.086   6.694  1.00  0.00    -0.347 OA
BRANCH   8   9
ATOM      9  C   UNL     1      -7.993 -26.041   8.103  1.00  0.00     0.281 C 
ATOM     10  C   UNL     1      -9.524 -23.875  10.353  1.00  0.00     0.041 C 
ATOM     11  C   UNL     1      -9.381 -25.327   9.913  1.00  0.00     0.150 C 
ATOM     12  C   UNL     1      -8.329 -26.046  10.801  1.00  0.00     0.174 C 
ATOM     13  O   UNL     1      -9.147 -25.324   8.506  1.00  0.00    -0.344 OA
ATOM     14  C   UNL     1      -7.906 -27.426  10.216  1.00  0.00     0.179 C 
ATOM     15  C   UNL     1      -7.990 -27.482   8.672  1.00  0.00     0.202 C 
BRANCH  12  16
ATOM     16  O   UNL     1      -8.835 -26.201  12.102  1.00  0.00    -0.388 OA
ATOM     17  H   UNL     1      -9.833 -26.274  12.007  1.00  0.00     0.211 HD
ENDBRANCH  12  16
BRANCH  14  18
ATOM     18  O   UNL     1      -8.605 -28.492  10.814  1.00  0.00    -0.387 OA
ATOM     19  H   UNL     1      -7.936 -29.186  11.050  1.00  0.00     0.211 HD
ENDBRANCH  14  18
BRANCH  15  20
ATOM     20  O   UNL     1      -9.110 -28.247   8.274  1.00  0.00    -0.385 OA
ATOM     21  H   UNL     1      -9.380 -27.969   7.356  1.00  0.00     0.211 HD
ENDBRANCH  15  20
ENDBRANCH   8   9
ENDBRANCH   7   8
ENDBRANCH   1   7
BRANCH   2  22
ATOM     22  O   UNL     1      -7.448 -30.698   5.707  1.00  0.00    -0.387 OA
ATOM     23  H   UNL     1      -8.096 -31.313   5.281  1.00  0.00     0.211 HD
ENDBRANCH   2  22
BRANCH   3  24
ATOM     24  O   UNL     1      -7.700 -30.903   2.992  1.00  0.00    -0.387 OA
ATOM     25  H   UNL     1      -6.870 -31.144   3.477  1.00  0.00     0.211 HD
ENDBRANCH   3  24
BRANCH   5  26
ATOM     26  O   UNL     1     -11.266 -28.098   4.050  1.00  0.00    -0.462 OA
BRANCH  26  27
ATOM     27  C   UNL     1     -11.120 -27.360   2.863  1.00  0.00     0.130 A 
ATOM     28  C   UNL     1     -10.754 -26.016   3.011  1.00  0.00     0.093 A 
ATOM     29  C   UNL     1     -11.352 -27.885   1.585  1.00  0.00     0.094 A 
ATOM     30  C   UNL     1     -10.556 -25.207   1.879  1.00  0.00     0.133 A 
ATOM     31  C   UNL     1     -11.246 -27.052   0.462  1.00  0.00     0.138 A 
ATOM     32  C   UNL     1     -10.754 -25.748   0.598  1.00  0.00     0.102 A 
ATOM     33  O   UNL     1     -11.709 -27.475  -0.780  1.00  0.00    -0.484 OA
ATOM     34  C   UNL     1     -10.569 -24.947  -0.628  1.00  0.00     0.174 C 
ATOM     35  C   UNL     1     -12.212 -26.542  -1.743  1.00  0.00     0.211 C 
ATOM     36  O   UNL     1      -9.873 -23.899  -0.610  1.00  0.00    -0.294 OA
ATOM     37  C   UNL     1     -11.204 -25.376  -1.926  1.00  0.00     0.131 C 
BRANCH  30  38
ATOM     38  O   UNL     1     -10.168 -23.875   2.052  1.00  0.00    -0.507 OA
ATOM     39  H   UNL     1      -9.397 -23.610   2.664  1.00  0.00     0.293 HD
ENDBRANCH  30  38
BRANCH  35  40
ATOM     40  C   UNL     1     -13.617 -26.095  -1.329  1.00  0.00    -0.003 A 
ATOM     41  C   UNL     1     -14.129 -26.323  -0.035  1.00  0.00     0.057 A 
ATOM     42  C   UNL     1     -14.483 -25.602  -2.317  1.00  0.00     0.011 A 
ATOM     43  C   UNL     1     -15.483 -26.111   0.260  1.00  0.00     0.158 A 
ATOM     44  C   UNL     1     -15.829 -25.347  -2.014  1.00  0.00     0.051 A 
ATOM     45  C   UNL     1     -16.341 -25.592  -0.734  1.00  0.00     0.160 A 
BRANCH  43  46
ATOM     46  O   UNL     1     -15.969 -26.467   1.512  1.00  0.00    -0.504 OA
ATOM     47  H   UNL     1     -16.760 -27.099   1.624  1.00  0.00     0.293 HD
ENDBRANCH  43  46
BRANCH  45  48
ATOM     48  O   UNL     1     -17.698 -25.302  -0.521  1.00  0.00    -0.493 OA
ATOM     49  C   UNL     1     -18.181 -24.214   0.274  1.00  0.00     0.278 C 
ENDBRANCH  45  48
ENDBRANCH  35  40
ENDBRANCH  26  27
ENDBRANCH   5  26
BRANCH   4  50
ATOM     50  O   UNL     1     -10.375 -29.970   2.675  1.00  0.00    -0.384 OA
ATOM     51  H   UNL     1     -10.277 -30.895   2.334  1.00  0.00     0.211 HD
ENDBRANCH   4  50
TORSDOF 15
ENDMDL
MODEL 6
REMARK VINA RESULT:    -2.776      2.133      5.442
REMARK INTER + INTRA:          -3.305
REMARK INTER:                  -2.290
REMARK INTRA:                  -1.015
REMARK UNBOUND:                 1.256
REMARK SMILES COc1ccc([C@H]2CC(=O)c3c(O)cc(O[C@@H]4O[C@H](CO[C@H]5O[C@H](C)[C@@H](O)[C@@H](O)[C@H]5O)[C@@H](O)[C@@H](O)[C@@H]4O)cc3O2)cc1O
REMARK SMILES IDX 19 1 32 2 34 3 36 4 17 5 18 6 20 7 21 8 22 9 25 10 24 11
REMARK SMILES IDX 26 12 23 13 28 14 30 15 27 16 29 18 31 20 33 22 35 24 16 26
REMARK SMILES IDX 15 27 14 28 38 29 12 30 39 31 11 32 40 33 9 34 7 35 10 36
REMARK SMILES IDX 8 37 13 38 6 40 41 41 5 42 42 43 4 44 3 45 43 46 2 48 1 49
REMARK SMILES IDX 37 50
REMARK H PARENT 27 17 29 19 31 21 33 23 35 25 13 39 43 47 37 51
REMARK Flexibility Score: inf
ROOT
ATOM      1  C   UNL     1      -8.758 -27.373   5.072  1.00  0.00     0.180 C 
ATOM      2  C   UNL     1      -8.509 -27.106   6.594  1.00  0.00     0.177 C 
ATOM      3  C   UNL     1      -9.453 -26.039   7.130  1.00  0.00     0.180 C 
ATOM      4  C   UNL     1      -9.404 -24.804   6.220  1.00  0.00     0.214 C 
ATOM      5  C   UNL     1      -9.605 -25.198   4.723  1.00  0.00     0.339 C 
ATOM      6  O   UNL     1      -9.842 -26.590   4.567  1.00  0.00    -0.332 OA
ENDROOT
BRANCH   1   7
ATOM      7  C   UNL     1      -9.047 -28.859   4.746  1.00  0.00     0.198 C 
BRANCH   7   8
ATOM      8  O   UNL     1     -10.055 -29.029   3.753  1.00  0.00    -0.347 OA
BRANCH   8   9
ATOM      9  C   UNL     1      -9.649 -29.412   2.439  1.00  0.00     0.281 C 
ATOM     10  C   UNL     1      -7.548 -31.801   1.035  1.00  0.00     0.041 C 
ATOM     11  C   UNL     1      -8.923 -31.149   0.966  1.00  0.00     0.150 C 
ATOM     12  C   UNL     1      -8.922 -30.027  -0.107  1.00  0.00     0.174 C 
ATOM     13  O   UNL     1      -9.282 -30.773   2.295  1.00  0.00    -0.344 OA
ATOM     14  C   UNL     1     -10.184 -29.119  -0.015  1.00  0.00     0.179 C 
ATOM     15  C   UNL     1     -10.746 -29.008   1.423  1.00  0.00     0.202 C 
BRANCH  12  16
ATOM     16  O   UNL     1      -8.824 -30.597  -1.388  1.00  0.00    -0.388 OA
ATOM     17  H   UNL     1      -9.659 -31.142  -1.514  1.00  0.00     0.211 HD
ENDBRANCH  12  16
BRANCH  14  18
ATOM     18  O   UNL     1     -11.179 -29.498  -0.935  1.00  0.00    -0.387 OA
ATOM     19  H   UNL     1     -11.943 -28.876  -0.814  1.00  0.00     0.211 HD
ENDBRANCH  14  18
BRANCH  15  20
ATOM     20  O   UNL     1     -11.932 -29.768   1.540  1.00  0.00    -0.385 OA
ATOM     21  H   UNL     1     -12.690 -29.243   1.162  1.00  0.00     0.211 HD
ENDBRANCH  15  20
ENDBRANCH   8   9
ENDBRANCH   7   8
ENDBRANCH   1   7
BRANCH   2  22
ATOM     22  O   UNL     1      -7.173 -26.692   6.773  1.00  0.00    -0.387 OA
ATOM     23  H   UNL     1      -7.091 -26.376   7.707  1.00  0.00     0.211 HD
ENDBRANCH   2  22
BRANCH   3  24
ATOM     24  O   UNL     1      -9.088 -25.663   8.431  1.00  0.00    -0.387 OA
ATOM     25  H   UNL     1      -8.498 -26.389   8.755  1.00  0.00     0.211 HD
ENDBRANCH   3  24
BRANCH   5  26
ATOM     26  O   UNL     1     -10.746 -24.474   4.242  1.00  0.00    -0.462 OA
BRANCH  26  27
ATOM     27  C   UNL     1     -11.583 -24.854   3.180  1.00  0.00     0.130 A 
ATOM     28  C   UNL     1     -12.152 -26.131   3.266  1.00  0.00     0.093 A 
ATOM     29  C   UNL     1     -11.834 -24.050   2.059  1.00  0.00     0.094 A 
ATOM     30  C   UNL     1     -13.026 -26.585   2.264  1.00  0.00     0.133 A 
ATOM     31  C   UNL     1     -12.631 -24.542   1.016  1.00  0.00     0.138 A 
ATOM     32  C   UNL     1     -13.304 -25.762   1.161  1.00  0.00     0.102 A 
ATOM     33  O   UNL     1     -12.692 -23.876  -0.204  1.00  0.00    -0.484 OA
ATOM     34  C   UNL     1     -14.207 -26.187   0.074  1.00  0.00     0.174 C 
ATOM     35  C   UNL     1     -12.917 -24.586  -1.428  1.00  0.00     0.211 C 
ATOM     36  O   UNL     1     -15.048 -27.104   0.260  1.00  0.00    -0.294 OA
ATOM     37  C   UNL     1     -14.144 -25.523  -1.278  1.00  0.00     0.131 C 
BRANCH  30  38
ATOM     38  O   UNL     1     -13.599 -27.855   2.384  1.00  0.00    -0.507 OA
ATOM     39  H   UNL     1     -14.609 -27.993   2.410  1.00  0.00     0.293 HD
ENDBRANCH  30  38
BRANCH  35  40
ATOM     40  C   UNL     1     -11.629 -25.303  -1.841  1.00  0.00    -0.003 A 
ATOM     41  C   UNL     1     -11.638 -26.571  -2.458  1.00  0.00     0.057 A 
ATOM     42  C   UNL     1     -10.399 -24.762  -1.436  1.00  0.00     0.011 A 
ATOM     43  C   UNL     1     -10.456 -27.307  -2.626  1.00  0.00     0.158 A 
ATOM     44  C   UNL     1      -9.210 -25.477  -1.642  1.00  0.00     0.051 A 
ATOM     45  C   UNL     1      -9.221 -26.745  -2.237  1.00  0.00     0.160 A 
BRANCH  43  46
ATOM     46  O   UNL     1     -10.529 -28.603  -3.124  1.00  0.00    -0.504 OA
ATOM     47  H   UNL     1      -9.980 -29.364  -2.729  1.00  0.00     0.293 HD
ENDBRANCH  43  46
BRANCH  45  48
ATOM     48  O   UNL     1      -7.983 -27.384  -2.408  1.00  0.00    -0.493 OA
ATOM     49  C   UNL     1      -6.762 -26.713  -2.736  1.00  0.00     0.278 C 
ENDBRANCH  45  48
ENDBRANCH  35  40
ENDBRANCH  26  27
ENDBRANCH   5  26
BRANCH   4  50
ATOM     50  O   UNL     1     -10.389 -23.876   6.630  1.00  0.00    -0.384 OA
ATOM     51  H   UNL     1     -10.408 -23.155   5.951  1.00  0.00     0.211 HD
ENDBRANCH   4  50
TORSDOF 15
ENDMDL
MODEL 7
REMARK VINA RESULT:    -2.768      2.361      5.166
REMARK INTER + INTRA:          -3.291
REMARK INTER:                  -4.472
REMARK INTRA:                   1.181
REMARK UNBOUND:                 1.256
REMARK SMILES COc1ccc([C@H]2CC(=O)c3c(O)cc(O[C@@H]4O[C@H](CO[C@H]5O[C@H](C)[C@@H](O)[C@@H](O)[C@H]5O)[C@@H](O)[C@@H](O)[C@@H]4O)cc3O2)cc1O
REMARK SMILES IDX 19 1 32 2 34 3 36 4 17 5 18 6 20 7 21 8 22 9 25 10 24 11
REMARK SMILES IDX 26 12 23 13 28 14 30 15 27 16 29 18 31 20 33 22 35 24 16 26
REMARK SMILES IDX 15 27 14 28 38 29 12 30 39 31 11 32 40 33 9 34 7 35 10 36
REMARK SMILES IDX 8 37 13 38 6 40 41 41 5 42 42 43 4 44 3 45 43 46 2 48 1 49
REMARK SMILES IDX 37 50
REMARK H PARENT 27 17 29 19 31 21 33 23 35 25 13 39 43 47 37 51
REMARK Flexibility Score: inf
ROOT
ATOM      1  C   UNL     1     -10.056 -27.172   4.609  1.00  0.00     0.180 C 
ATOM      2  C   UNL     1      -9.215 -28.267   5.345  1.00  0.00     0.177 C 
ATOM      3  C   UNL     1      -8.677 -29.302   4.367  1.00  0.00     0.180 C 
ATOM      4  C   UNL     1      -9.820 -29.820   3.484  1.00  0.00     0.214 C 
ATOM      5  C   UNL     1     -10.624 -28.641   2.852  1.00  0.00     0.339 C 
ATOM      6  O   UNL     1     -10.072 -27.377   3.195  1.00  0.00    -0.332 OA
ENDROOT
BRANCH   1   7
ATOM      7  C   UNL     1      -9.559 -25.730   4.878  1.00  0.00     0.198 C 
BRANCH   7   8
ATOM      8  O   UNL     1      -9.960 -25.226   6.149  1.00  0.00    -0.347 OA
BRANCH   8   9
ATOM      9  C   UNL     1      -9.474 -25.884   7.319  1.00  0.00     0.281 C 
ATOM     10  C   UNL     1      -7.501 -28.660   8.025  1.00  0.00     0.041 C 
ATOM     11  C   UNL     1      -7.755 -27.192   8.344  1.00  0.00     0.150 C 
ATOM     12  C   UNL     1      -8.637 -27.072   9.616  1.00  0.00     0.174 C 
ATOM     13  O   UNL     1      -8.249 -26.578   7.154  1.00  0.00    -0.344 OA
ATOM     14  C   UNL     1      -9.191 -25.630   9.818  1.00  0.00     0.179 C 
ATOM     15  C   UNL     1      -9.400 -24.869   8.487  1.00  0.00     0.202 C 
BRANCH  12  16
ATOM     16  O   UNL     1      -7.899 -27.474  10.742  1.00  0.00    -0.388 OA
ATOM     17  H   UNL     1      -8.523 -27.398  11.526  1.00  0.00     0.211 HD
ENDBRANCH  12  16
BRANCH  14  18
ATOM     18  O   UNL     1      -8.415 -24.886  10.727  1.00  0.00    -0.387 OA
ATOM     19  H   UNL     1      -8.971 -24.739  11.535  1.00  0.00     0.211 HD
ENDBRANCH  14  18
BRANCH  15  20
ATOM     20  O   UNL     1      -8.391 -23.892   8.323  1.00  0.00    -0.385 OA
ATOM     21  H   UNL     1      -8.444 -23.528   7.397  1.00  0.00     0.211 HD
ENDBRANCH  15  20
ENDBRANCH   8   9
ENDBRANCH   7   8
ENDBRANCH   1   7
BRANCH   2  22
ATOM     22  O   UNL     1     -10.030 -28.901   6.305  1.00  0.00    -0.387 OA
ATOM     23  H   UNL     1     -10.412 -28.189   6.877  1.00  0.00     0.211 HD
ENDBRANCH   2  22
BRANCH   3  24
ATOM     24  O   UNL     1      -8.102 -30.382   5.053  1.00  0.00    -0.387 OA
ATOM     25  H   UNL     1      -7.633 -30.911   4.359  1.00  0.00     0.211 HD
ENDBRANCH   3  24
BRANCH   5  26
ATOM     26  O   UNL     1     -10.567 -28.803   1.428  1.00  0.00    -0.462 OA
BRANCH  26  27
ATOM     27  C   UNL     1     -11.072 -27.909   0.469  1.00  0.00     0.130 A 
ATOM     28  C   UNL     1     -10.459 -26.651   0.413  1.00  0.00     0.093 A 
ATOM     29  C   UNL     1     -12.149 -28.200  -0.379  1.00  0.00     0.094 A 
ATOM     30  C   UNL     1     -10.877 -25.701  -0.534  1.00  0.00     0.133 A 
ATOM     31  C   UNL     1     -12.626 -27.218  -1.258  1.00  0.00     0.138 A 
ATOM     32  C   UNL     1     -11.933 -26.011  -1.407  1.00  0.00     0.102 A 
ATOM     33  O   UNL     1     -13.836 -27.391  -1.924  1.00  0.00    -0.484 OA
ATOM     34  C   UNL     1     -12.422 -25.052  -2.417  1.00  0.00     0.174 C 
ATOM     35  C   UNL     1     -14.654 -26.271  -2.281  1.00  0.00     0.211 C 
ATOM     36  O   UNL     1     -11.696 -24.100  -2.801  1.00  0.00    -0.294 OA
ATOM     37  C   UNL     1     -13.798 -25.204  -3.014  1.00  0.00     0.131 C 
BRANCH  30  38
ATOM     38  O   UNL     1     -10.234 -24.460  -0.585  1.00  0.00    -0.507 OA
ATOM     39  H   UNL     1     -10.585 -23.691  -1.155  1.00  0.00     0.293 HD
ENDBRANCH  30  38
BRANCH  35  40
ATOM     40  C   UNL     1     -15.371 -25.749  -1.034  1.00  0.00    -0.003 A 
ATOM     41  C   UNL     1     -14.836 -25.902   0.262  1.00  0.00     0.057 A 
ATOM     42  C   UNL     1     -16.680 -25.260  -1.167  1.00  0.00     0.011 A 
ATOM     43  C   UNL     1     -15.601 -25.620   1.403  1.00  0.00     0.158 A 
ATOM     44  C   UNL     1     -17.433 -24.936  -0.028  1.00  0.00     0.051 A 
ATOM     45  C   UNL     1     -16.908 -25.107   1.259  1.00  0.00     0.160 A 
BRANCH  43  46
ATOM     46  O   UNL     1     -15.076 -25.905   2.659  1.00  0.00    -0.504 OA
ATOM     47  H   UNL     1     -15.347 -26.737   3.181  1.00  0.00     0.293 HD
ENDBRANCH  43  46
BRANCH  45  48
ATOM     48  O   UNL     1     -17.732 -24.752   2.339  1.00  0.00    -0.493 OA
ATOM     49  C   UNL     1     -19.162 -24.737   2.300  1.00  0.00     0.278 C 
ENDBRANCH  45  48
ENDBRANCH  35  40
ENDBRANCH  26  27
ENDBRANCH   5  26
BRANCH   4  50
ATOM     50  O   UNL     1      -9.295 -30.665   2.479  1.00  0.00    -0.384 OA
ATOM     51  H   UNL     1      -9.261 -30.134   1.643  1.00  0.00     0.211 HD
ENDBRANCH   4  50
TORSDOF 15
ENDMDL
MODEL 8
REMARK VINA RESULT:    -2.762      2.833      4.197
REMARK INTER + INTRA:          -3.282
REMARK INTER:                  -2.425
REMARK INTRA:                  -0.857
REMARK UNBOUND:                 1.256
REMARK SMILES COc1ccc([C@H]2CC(=O)c3c(O)cc(O[C@@H]4O[C@H](CO[C@H]5O[C@H](C)[C@@H](O)[C@@H](O)[C@H]5O)[C@@H](O)[C@@H](O)[C@@H]4O)cc3O2)cc1O
REMARK SMILES IDX 19 1 32 2 34 3 36 4 17 5 18 6 20 7 21 8 22 9 25 10 24 11
REMARK SMILES IDX 26 12 23 13 28 14 30 15 27 16 29 18 31 20 33 22 35 24 16 26
REMARK SMILES IDX 15 27 14 28 38 29 12 30 39 31 11 32 40 33 9 34 7 35 10 36
REMARK SMILES IDX 8 37 13 38 6 40 41 41 5 42 42 43 4 44 3 45 43 46 2 48 1 49
REMARK SMILES IDX 37 50
REMARK H PARENT 27 17 29 19 31 21 33 23 35 25 13 39 43 47 37 51
REMARK Flexibility Score: inf
ROOT
ATOM      1  C   UNL     1      -9.246 -27.020   5.250  1.00  0.00     0.180 C 
ATOM      2  C   UNL     1      -8.973 -28.553   5.399  1.00  0.00     0.177 C 
ATOM      3  C   UNL     1      -9.200 -29.286   4.084  1.00  0.00     0.180 C 
ATOM      4  C   UNL     1     -10.572 -28.906   3.512  1.00  0.00     0.214 C 
ATOM      5  C   UNL     1     -10.755 -27.357   3.467  1.00  0.00     0.339 C 
ATOM      6  O   UNL     1      -9.591 -26.671   3.908  1.00  0.00    -0.332 OA
ENDROOT
BRANCH   1   7
ATOM      7  C   UNL     1      -8.051 -26.136   5.683  1.00  0.00     0.198 C 
BRANCH   7   8
ATOM      8  O   UNL     1      -7.468 -26.545   6.917  1.00  0.00    -0.347 OA
BRANCH   8   9
ATOM      9  C   UNL     1      -8.035 -26.048   8.129  1.00  0.00     0.281 C 
ATOM     10  C   UNL     1     -10.602 -23.875   9.016  1.00  0.00     0.041 C 
ATOM     11  C   UNL     1      -9.966 -25.234   9.279  1.00  0.00     0.150 C 
ATOM     12  C   UNL     1      -9.010 -25.142  10.499  1.00  0.00     0.174 C 
ATOM     13  O   UNL     1      -9.403 -25.687   8.049  1.00  0.00    -0.344 OA
ATOM     14  C   UNL     1      -8.098 -26.398  10.632  1.00  0.00     0.179 C 
ATOM     15  C   UNL     1      -7.781 -27.063   9.271  1.00  0.00     0.202 C 
BRANCH  12  16
ATOM     16  O   UNL     1      -9.758 -24.957  11.674  1.00  0.00    -0.388 OA
ATOM     17  H   UNL     1     -10.676 -25.318  11.480  1.00  0.00     0.211 HD
ENDBRANCH  12  16
BRANCH  14  18
ATOM     18  O   UNL     1      -8.605 -27.327  11.560  1.00  0.00    -0.387 OA
ATOM     19  H   UNL     1      -7.951 -28.070  11.618  1.00  0.00     0.211 HD
ENDBRANCH  14  18
BRANCH  15  20
ATOM     20  O   UNL     1      -8.517 -28.263   9.134  1.00  0.00    -0.385 OA
ATOM     21  H   UNL     1      -9.481 -28.037   9.023  1.00  0.00     0.211 HD
ENDBRANCH  15  20
ENDBRANCH   8   9
ENDBRANCH   7   8
ENDBRANCH   1   7
BRANCH   2  22
ATOM     22  O   UNL     1      -9.832 -29.077   6.388  1.00  0.00    -0.387 OA
ATOM     23  H   UNL     1      -9.930 -30.044   6.203  1.00  0.00     0.211 HD
ENDBRANCH   2  22
BRANCH   3  24
ATOM     24  O   UNL     1      -9.153 -30.675   4.275  1.00  0.00    -0.387 OA
ATOM     25  H   UNL     1      -9.980 -30.897   4.774  1.00  0.00     0.211 HD
ENDBRANCH   3  24
BRANCH   5  26
ATOM     26  O   UNL     1     -11.017 -26.999   2.103  1.00  0.00    -0.462 OA
BRANCH  26  27
ATOM     27  C   UNL     1     -12.147 -26.314   1.626  1.00  0.00     0.130 A 
ATOM     28  C   UNL     1     -13.297 -26.386   2.423  1.00  0.00     0.093 A 
ATOM     29  C   UNL     1     -12.182 -25.617   0.410  1.00  0.00     0.094 A 
ATOM     30  C   UNL     1     -14.467 -25.709   2.040  1.00  0.00     0.133 A 
ATOM     31  C   UNL     1     -13.377 -25.021  -0.015  1.00  0.00     0.138 A 
ATOM     32  C   UNL     1     -14.486 -24.981   0.839  1.00  0.00     0.102 A 
ATOM     33  O   UNL     1     -13.507 -24.544  -1.316  1.00  0.00    -0.484 OA
ATOM     34  C   UNL     1     -15.686 -24.255   0.381  1.00  0.00     0.174 C 
ATOM     35  C   UNL     1     -14.776 -24.535  -1.981  1.00  0.00     0.211 C 
ATOM     36  O   UNL     1     -16.591 -23.935   1.194  1.00  0.00    -0.294 OA
ATOM     37  C   UNL     1     -15.845 -23.876  -1.069  1.00  0.00     0.131 C 
BRANCH  30  38
ATOM     38  O   UNL     1     -15.595 -25.777   2.864  1.00  0.00    -0.507 OA
ATOM     39  H   UNL     1     -15.675 -26.460   3.617  1.00  0.00     0.293 HD
ENDBRANCH  30  38
BRANCH  35  40
ATOM     40  C   UNL     1     -15.124 -25.957  -2.427  1.00  0.00    -0.003 A 
ATOM     41  C   UNL     1     -16.457 -26.398  -2.565  1.00  0.00     0.057 A 
ATOM     42  C   UNL     1     -14.090 -26.900  -2.532  1.00  0.00     0.011 A 
ATOM     43  C   UNL     1     -16.759 -27.753  -2.756  1.00  0.00     0.158 A 
ATOM     44  C   UNL     1     -14.388 -28.251  -2.766  1.00  0.00     0.051 A 
ATOM     45  C   UNL     1     -15.711 -28.691  -2.884  1.00  0.00     0.160 A 
BRANCH  43  46
ATOM     46  O   UNL     1     -18.089 -28.158  -2.762  1.00  0.00    -0.504 OA
ATOM     47  H   UNL     1     -18.361 -29.112  -2.994  1.00  0.00     0.293 HD
ENDBRANCH  43  46
BRANCH  45  48
ATOM     48  O   UNL     1     -15.913 -30.060  -3.124  1.00  0.00    -0.493 OA
ATOM     49  C   UNL     1     -17.183 -30.717  -3.060  1.00  0.00     0.278 C 
ENDBRANCH  45  48
ENDBRANCH  35  40
ENDBRANCH  26  27
ENDBRANCH   5  26
BRANCH   4  50
ATOM     50  O   UNL     1     -10.718 -29.466   2.222  1.00  0.00    -0.384 OA
ATOM     51  H   UNL     1     -11.111 -30.368   2.341  1.00  0.00     0.211 HD
ENDBRANCH   4  50
TORSDOF 15
ENDMDL
MODEL 9
REMARK VINA RESULT:    -2.756      2.434      4.812
REMARK INTER + INTRA:          -3.272
REMARK INTER:                  -2.437
REMARK INTRA:                  -0.835
REMARK UNBOUND:                 1.256
REMARK SMILES COc1ccc([C@H]2CC(=O)c3c(O)cc(O[C@@H]4O[C@H](CO[C@H]5O[C@H](C)[C@@H](O)[C@@H](O)[C@H]5O)[C@@H](O)[C@@H](O)[C@@H]4O)cc3O2)cc1O
REMARK SMILES IDX 19 1 32 2 34 3 36 4 17 5 18 6 20 7 21 8 22 9 25 10 24 11
REMARK SMILES IDX 26 12 23 13 28 14 30 15 27 16 29 18 31 20 33 22 35 24 16 26
REMARK SMILES IDX 15 27 14 28 38 29 12 30 39 31 11 32 40 33 9 34 7 35 10 36
REMARK SMILES IDX 8 37 13 38 6 40 41 41 5 42 42 43 4 44 3 45 43 46 2 48 1 49
REMARK SMILES IDX 37 50
REMARK H PARENT 27 17 29 19 31 21 33 23 35 25 13 39 43 47 37 51
REMARK Flexibility Score: inf
ROOT
ATOM      1  C   UNL     1      -8.354 -27.487   6.281  1.00  0.00     0.180 C 
ATOM      2  C   UNL     1      -7.968 -26.807   7.637  1.00  0.00     0.177 C 
ATOM      3  C   UNL     1      -8.974 -25.731   8.023  1.00  0.00     0.180 C 
ATOM      4  C   UNL     1      -9.191 -24.781   6.838  1.00  0.00     0.214 C 
ATOM      5  C   UNL     1      -9.511 -25.571   5.531  1.00  0.00     0.339 C 
ATOM      6  O   UNL     1      -9.582 -26.972   5.761  1.00  0.00    -0.332 OA
ENDROOT
BRANCH   1   7
ATOM      7  C   UNL     1      -8.485 -29.027   6.379  1.00  0.00     0.198 C 
BRANCH   7   8
ATOM      8  O   UNL     1      -7.439 -29.722   5.707  1.00  0.00    -0.347 OA
BRANCH   8   9
ATOM      9  C   UNL     1      -7.668 -30.153   4.366  1.00  0.00     0.281 C 
ATOM     10  C   UNL     1      -6.646 -32.793   2.346  1.00  0.00     0.041 C 
ATOM     11  C   UNL     1      -7.836 -31.967   2.819  1.00  0.00     0.150 C 
ATOM     12  C   UNL     1      -8.150 -30.853   1.784  1.00  0.00     0.174 C 
ATOM     13  O   UNL     1      -7.560 -31.550   4.155  1.00  0.00    -0.344 OA
ATOM     14  C   UNL     1      -9.141 -29.789   2.343  1.00  0.00     0.179 C 
ATOM     15  C   UNL     1      -9.033 -29.608   3.876  1.00  0.00     0.202 C 
BRANCH  12  16
ATOM     16  O   UNL     1      -8.665 -31.430   0.610  1.00  0.00    -0.388 OA
ATOM     17  H   UNL     1      -9.284 -30.746   0.212  1.00  0.00     0.211 HD
ENDBRANCH  12  16
BRANCH  14  18
ATOM     18  O   UNL     1     -10.467 -30.034   1.939  1.00  0.00    -0.387 OA
ATOM     19  H   UNL     1     -11.030 -30.018   2.756  1.00  0.00     0.211 HD
ENDBRANCH  14  18
BRANCH  15  20
ATOM     20  O   UNL     1     -10.143 -30.208   4.515  1.00  0.00    -0.385 OA
ATOM     21  H   UNL     1      -9.820 -30.967   5.074  1.00  0.00     0.211 HD
ENDBRANCH  15  20
ENDBRANCH   8   9
ENDBRANCH   7   8
ENDBRANCH   1   7
BRANCH   2  22
ATOM     22  O   UNL     1      -6.685 -26.234   7.512  1.00  0.00    -0.387 OA
ATOM     23  H   UNL     1      -6.777 -25.271   7.718  1.00  0.00     0.211 HD
ENDBRANCH   2  22
BRANCH   3  24
ATOM     24  O   UNL     1      -8.513 -24.994   9.123  1.00  0.00    -0.387 OA
ATOM     25  H   UNL     1      -8.994 -25.366   9.905  1.00  0.00     0.211 HD
ENDBRANCH   3  24
BRANCH   5  26
ATOM     26  O   UNL     1     -10.784 -25.112   5.057  1.00  0.00    -0.462 OA
BRANCH  26  27
ATOM     27  C   UNL     1     -11.132 -24.864   3.719  1.00  0.00     0.130 A 
ATOM     28  C   UNL     1     -12.431 -25.227   3.339  1.00  0.00     0.093 A 
ATOM     29  C   UNL     1     -10.253 -24.322   2.772  1.00  0.00     0.094 A 
ATOM     30  C   UNL     1     -12.877 -24.991   2.028  1.00  0.00     0.133 A 
ATOM     31  C   UNL     1     -10.670 -24.173   1.441  1.00  0.00     0.138 A 
ATOM     32  C   UNL     1     -12.004 -24.412   1.092  1.00  0.00     0.102 A 
ATOM     33  O   UNL     1      -9.750 -23.876   0.440  1.00  0.00    -0.484 OA
ATOM     34  C   UNL     1     -12.413 -24.147  -0.301  1.00  0.00     0.174 C 
ATOM     35  C   UNL     1      -9.946 -24.326  -0.906  1.00  0.00     0.211 C 
ATOM     36  O   UNL     1     -13.630 -24.060  -0.607  1.00  0.00    -0.294 OA
ATOM     37  C   UNL     1     -11.378 -23.964  -1.381  1.00  0.00     0.131 C 
BRANCH  30  38
ATOM     38  O   UNL     1     -14.186 -25.341   1.680  1.00  0.00    -0.507 OA
ATOM     39  H   UNL     1     -14.746 -25.974   2.249  1.00  0.00     0.293 HD
ENDBRANCH  30  38
BRANCH  35  40
ATOM     40  C   UNL     1      -9.617 -25.818  -0.994  1.00  0.00    -0.003 A 
ATOM     41  C   UNL     1      -8.512 -26.304  -1.724  1.00  0.00     0.057 A 
ATOM     42  C   UNL     1     -10.540 -26.741  -0.479  1.00  0.00     0.011 A 
ATOM     43  C   UNL     1      -8.353 -27.674  -1.978  1.00  0.00     0.158 A 
ATOM     44  C   UNL     1     -10.360 -28.116  -0.694  1.00  0.00     0.051 A 
ATOM     45  C   UNL     1      -9.274 -28.597  -1.436  1.00  0.00     0.160 A 
BRANCH  43  46
ATOM     46  O   UNL     1      -7.320 -28.095  -2.806  1.00  0.00    -0.504 OA
ATOM     47  H   UNL     1      -7.299 -29.030  -3.211  1.00  0.00     0.293 HD
ENDBRANCH  43  46
BRANCH  45  48
ATOM     48  O   UNL     1      -9.172 -29.988  -1.595  1.00  0.00    -0.493 OA
ATOM     49  C   UNL     1      -9.653 -30.712  -2.732  1.00  0.00     0.278 C 
ENDBRANCH  45  48
ENDBRANCH  35  40
ENDBRANCH  26  27
ENDBRANCH   5  26
BRANCH   4  50
ATOM     50  O   UNL     1     -10.234 -23.876   7.144  1.00  0.00    -0.384 OA
ATOM     51  H   UNL     1     -11.065 -24.409   7.228  1.00  0.00     0.211 HD
ENDBRANCH   4  50
TORSDOF 15
ENDMDL
