MODEL 1
REMARK VINA RESULT:    -3.370      0.000      0.000
REMARK INTER + INTRA:          -5.590
REMARK INTER:                  -5.144
REMARK INTRA:                  -0.447
REMARK UNBOUND:                -0.447
REMARK SMILES CC1=CCC[C@@H](C)C(=O)C[C@@H](C(C)C)C(=O)C1
REMARK SMILES IDX 8 1 9 2 6 3 7 4 5 5 4 6 3 7 2 8 1 9 10 11 11 12 15 13 16 14
REMARK SMILES IDX 17 15 12 17 13 18 14 19
REMARK H PARENT
REMARK Flexibility Score: 70.00
ROOT
ATOM      1  C   UNL     1      84.643  34.131  23.388  1.00  0.00     0.136 C 
ATOM      2  O   UNL     1      84.558  33.034  23.924  1.00  0.00    -0.299 OA
ENDROOT
BRANCH   1   3
ATOM      3  C   UNL     1      85.933  34.913  23.525  1.00  0.00     0.053 C 
ATOM      4  C   UNL     1      87.097  34.146  22.884  1.00  0.00     0.016 C 
BRANCH   3   5
ATOM      5  C   UNL     1      86.209  35.210  25.021  1.00  0.00     0.015 C 
BRANCH   5   6
ATOM      6  C   UNL     1      85.704  36.598  25.469  1.00  0.00     0.028 C 
BRANCH   6   7
ATOM      7  C   UNL     1      84.456  36.488  26.315  1.00  0.00    -0.028 C 
ATOM      8  C   UNL     1      83.223  36.903  25.941  1.00  0.00    -0.070 CG0
ATOM      9  C   UNL     1      82.074  36.657  26.883  1.00  0.00     0.039 C 
ATOM     10  G   UNL     1      82.948  37.614  24.629  1.00  0.00     0.000 G0
ENDBRANCH   6   7
ENDBRANCH   5   6
ENDBRANCH   3   5
ENDBRANCH   1   3
BRANCH   1  11
ATOM     11  C   UNL     1      83.458  34.624  22.581  1.00  0.00     0.087 C 
BRANCH  11  12
ATOM     12  C   UNL     1      83.286  36.167  22.458  1.00  0.00     0.066 C 
BRANCH  12  13
ATOM     13  C   UNL     1      82.365  36.715  23.540  1.00  0.00     0.140 C 
ATOM     14  O   UNL     1      81.163  36.497  23.477  1.00  0.00    -0.299 OA
BRANCH  13  15
ATOM     15  C   UNL     1      82.915  37.623  24.620  1.00  0.00     0.106 CG0
ATOM     16  G   UNL     1      83.214  36.896  25.918  1.00  0.00     0.000 G0
ENDBRANCH  13  15
ENDBRANCH  12  13
BRANCH  12  17
ATOM     17  C   UNL     1      82.758  36.566  21.041  1.00  0.00    -0.006 C 
ATOM     18  C   UNL     1      83.284  35.622  19.944  1.00  0.00     0.008 C 
ATOM     19  C   UNL     1      83.139  38.013  20.677  1.00  0.00     0.008 C 
ENDBRANCH  12  17
ENDBRANCH  11  12
ENDBRANCH   1  11
TORSDOF 1
ENDMDL
MODEL 2
REMARK VINA RESULT:    -3.089      2.685      3.861
REMARK INTER + INTRA:          -5.161
REMARK INTER:                  -5.006
REMARK INTRA:                  -0.155
REMARK UNBOUND:                -0.447
REMARK SMILES CC1=CCC[C@@H](C)C(=O)C[C@@H](C(C)C)C(=O)C1
REMARK SMILES IDX 8 1 9 2 6 3 7 4 5 5 4 6 3 7 2 8 1 9 10 11 11 12 15 13 16 14
REMARK SMILES IDX 17 15 12 17 13 18 14 19
REMARK H PARENT
REMARK Flexibility Score: 70.00
ROOT
ATOM      1  C   UNL     1      87.129  37.040  25.528  1.00  0.00     0.136 C 
ATOM      2  O   UNL     1      87.668  37.270  24.454  1.00  0.00    -0.299 OA
ENDROOT
BRANCH   1   3
ATOM      3  C   UNL     1      87.485  37.902  26.722  1.00  0.00     0.053 C 
ATOM      4  C   UNL     1      88.952  38.345  26.648  1.00  0.00     0.016 C 
BRANCH   3   5
ATOM      5  C   UNL     1      87.195  37.127  28.033  1.00  0.00     0.015 C 
BRANCH   5   6
ATOM      6  C   UNL     1      86.144  37.818  28.929  1.00  0.00     0.028 C 
BRANCH   6   7
ATOM      7  C   UNL     1      85.203  36.814  29.554  1.00  0.00    -0.028 C 
ATOM      8  C   UNL     1      84.055  36.368  28.993  1.00  0.00    -0.070 CG0
ATOM      9  C   UNL     1      83.267  35.314  29.726  1.00  0.00     0.039 C 
ATOM     10  G   UNL     1      83.520  36.886  27.670  1.00  0.00     0.000 G0
ENDBRANCH   6   7
ENDBRANCH   5   6
ENDBRANCH   3   5
ENDBRANCH   1   3
BRANCH   1  11
ATOM     11  C   UNL     1      86.105  35.924  25.588  1.00  0.00     0.087 C 
BRANCH  11  12
ATOM     12  C   UNL     1      84.620  36.320  25.340  1.00  0.00     0.066 C 
BRANCH  12  13
ATOM     13  C   UNL     1      83.730  35.916  26.508  1.00  0.00     0.140 C 
ATOM     14  O   UNL     1      83.129  34.851  26.467  1.00  0.00    -0.299 OA
BRANCH  13  15
ATOM     15  C   UNL     1      83.497  36.876  27.655  1.00  0.00     0.106 CG0
ATOM     16  G   UNL     1      84.051  36.374  28.977  1.00  0.00     0.000 G0
ENDBRANCH  13  15
ENDBRANCH  12  13
BRANCH  12  17
ATOM     17  C   UNL     1      84.084  35.701  24.007  1.00  0.00    -0.006 C 
ATOM     18  C   UNL     1      85.149  34.839  23.305  1.00  0.00     0.008 C 
ATOM     19  C   UNL     1      83.598  36.786  23.029  1.00  0.00     0.008 C 
ENDBRANCH  12  17
ENDBRANCH  11  12
ENDBRANCH   1  11
TORSDOF 1
ENDMDL
MODEL 3
REMARK VINA RESULT:    -3.081      5.061      8.096
REMARK INTER + INTRA:          -5.150
REMARK INTER:                  -4.847
REMARK INTRA:                  -0.303
REMARK UNBOUND:                -0.447
REMARK SMILES CC1=CCC[C@@H](C)C(=O)C[C@@H](C(C)C)C(=O)C1
REMARK SMILES IDX 8 1 9 2 6 3 7 4 5 5 4 6 3 7 2 8 1 9 10 11 11 12 15 13 16 14
REMARK SMILES IDX 17 15 12 17 13 18 14 19
REMARK H PARENT
REMARK Flexibility Score: 70.00
ROOT
ATOM      1  C   UNL     1      83.611  36.145  30.244  1.00  0.00     0.136 C 
ATOM      2  O   UNL     1      82.475  36.528  29.998  1.00  0.00    -0.299 OA
ENDROOT
BRANCH   1   3
ATOM      3  C   UNL     1      84.781  36.942  29.704  1.00  0.00     0.053 C 
ATOM      4  C   UNL     1      84.651  38.420  30.094  1.00  0.00     0.016 C 
BRANCH   3   5
ATOM      5  C   UNL     1      84.868  36.769  28.166  1.00  0.00     0.015 C 
BRANCH   5   6
ATOM      6  C   UNL     1      86.042  35.870  27.720  1.00  0.00     0.028 C 
BRANCH   6   7
ATOM      7  C   UNL     1      85.549  34.580  27.107  1.00  0.00    -0.028 C 
ATOM      8  C   UNL     1      85.627  33.361  27.690  1.00  0.00    -0.070 CG0
ATOM      9  C   UNL     1      85.026  32.185  26.965  1.00  0.00     0.039 C 
ATOM     10  G   UNL     1      86.299  33.122  29.030  1.00  0.00     0.000 G0
ENDBRANCH   6   7
ENDBRANCH   5   6
ENDBRANCH   3   5
ENDBRANCH   1   3
BRANCH   1  11
ATOM     11  C   UNL     1      83.778  34.913  31.110  1.00  0.00     0.087 C 
BRANCH  11  12
ATOM     12  C   UNL     1      85.192  34.261  31.139  1.00  0.00     0.066 C 
BRANCH  12  13
ATOM     13  C   UNL     1      85.286  33.087  30.174  1.00  0.00     0.140 C 
ATOM     14  O   UNL     1      84.619  32.082  30.380  1.00  0.00    -0.299 OA
BRANCH  13  15
ATOM     15  C   UNL     1      86.285  33.114  29.037  1.00  0.00     0.106 CG0
ATOM     16  G   UNL     1      85.646  33.375  27.685  1.00  0.00     0.000 G0
ENDBRANCH  13  15
ENDBRANCH  12  13
BRANCH  12  17
ATOM     17  C   UNL     1      85.577  33.809  32.586  1.00  0.00    -0.006 C 
ATOM     18  C   UNL     1      84.972  34.733  33.658  1.00  0.00     0.008 C 
ATOM     19  C   UNL     1      87.104  33.755  32.779  1.00  0.00     0.008 C 
ENDBRANCH  12  17
ENDBRANCH  11  12
ENDBRANCH   1  11
TORSDOF 1
ENDMDL
MODEL 4
REMARK VINA RESULT:    -2.996      2.304      4.430
REMARK INTER + INTRA:          -5.020
REMARK INTER:                  -4.756
REMARK INTRA:                  -0.264
REMARK UNBOUND:                -0.447
REMARK SMILES CC1=CCC[C@@H](C)C(=O)C[C@@H](C(C)C)C(=O)C1
REMARK SMILES IDX 8 1 9 2 6 3 7 4 5 5 4 6 3 7 2 8 1 9 10 11 11 12 15 13 16 14
REMARK SMILES IDX 17 15 12 17 13 18 14 19
REMARK H PARENT
REMARK Flexibility Score: 70.00
ROOT
ATOM      1  C   UNL     1      86.527  36.025  24.457  1.00  0.00     0.136 C 
ATOM      2  O   UNL     1      87.623  36.512  24.213  1.00  0.00    -0.299 OA
ENDROOT
BRANCH   1   3
ATOM      3  C   UNL     1      86.114  34.760  23.736  1.00  0.00     0.053 C 
ATOM      4  C   UNL     1      87.254  34.252  22.843  1.00  0.00     0.016 C 
BRANCH   3   5
ATOM      5  C   UNL     1      84.827  35.023  22.912  1.00  0.00     0.015 C 
BRANCH   5   6
ATOM      6  C   UNL     1      83.614  34.199  23.397  1.00  0.00     0.028 C 
BRANCH   6   7
ATOM      7  C   UNL     1      82.351  35.028  23.410  1.00  0.00    -0.028 C 
ATOM      8  C   UNL     1      81.761  35.533  24.519  1.00  0.00    -0.070 CG0
ATOM      9  C   UNL     1      80.539  36.395  24.345  1.00  0.00     0.039 C 
ATOM     10  G   UNL     1      82.265  35.261  25.925  1.00  0.00     0.000 G0
ENDBRANCH   6   7
ENDBRANCH   5   6
ENDBRANCH   3   5
ENDBRANCH   1   3
BRANCH   1  11
ATOM     11  C   UNL     1      85.663  36.702  25.503  1.00  0.00     0.087 C 
BRANCH  11  12
ATOM     12  C   UNL     1      84.796  35.775  26.405  1.00  0.00     0.066 C 
BRANCH  12  13
ATOM     13  C   UNL     1      83.338  36.213  26.420  1.00  0.00     0.140 C 
ATOM     14  O   UNL     1      83.039  37.298  26.901  1.00  0.00    -0.299 OA
BRANCH  13  15
ATOM     15  C   UNL     1      82.253  35.265  25.953  1.00  0.00     0.106 CG0
ATOM     16  G   UNL     1      81.776  35.551  24.540  1.00  0.00     0.000 G0
ENDBRANCH  13  15
ENDBRANCH  12  13
BRANCH  12  17
ATOM     17  C   UNL     1      85.361  35.713  27.862  1.00  0.00    -0.006 C 
ATOM     18  C   UNL     1      86.315  36.884  28.159  1.00  0.00     0.008 C 
ATOM     19  C   UNL     1      86.099  34.389  28.132  1.00  0.00     0.008 C 
ENDBRANCH  12  17
ENDBRANCH  11  12
ENDBRANCH   1  11
TORSDOF 1
ENDMDL
MODEL 5
REMARK VINA RESULT:    -2.912      5.960      7.600
REMARK INTER + INTRA:          -4.891
REMARK INTER:                  -4.760
REMARK INTRA:                  -0.131
REMARK UNBOUND:                -0.447
REMARK SMILES CC1=CCC[C@@H](C)C(=O)C[C@@H](C(C)C)C(=O)C1
REMARK SMILES IDX 8 1 9 2 6 3 7 4 5 5 4 6 3 7 2 8 1 9 10 11 11 12 15 13 16 14
REMARK SMILES IDX 17 15 12 17 13 18 14 19
REMARK H PARENT
REMARK Flexibility Score: 70.00
ROOT
ATOM      1  C   UNL     1      86.246  32.798  29.700  1.00  0.00     0.136 C 
ATOM      2  O   UNL     1      85.276  32.065  29.833  1.00  0.00    -0.299 OA
ENDROOT
BRANCH   1   3
ATOM      3  C   UNL     1      87.576  32.361  30.278  1.00  0.00     0.053 C 
ATOM      4  C   UNL     1      88.086  31.103  29.564  1.00  0.00     0.016 C 
BRANCH   3   5
ATOM      5  C   UNL     1      87.432  32.123  31.804  1.00  0.00     0.015 C 
BRANCH   5   6
ATOM      6  C   UNL     1      87.002  33.388  32.579  1.00  0.00     0.028 C 
BRANCH   6   7
ATOM      7  C   UNL     1      85.631  33.222  33.193  1.00  0.00    -0.028 C 
ATOM      8  C   UNL     1      84.583  34.055  32.996  1.00  0.00    -0.070 CG0
ATOM      9  C   UNL     1      83.264  33.704  33.635  1.00  0.00     0.039 C 
ATOM     10  G   UNL     1      84.676  35.328  32.174  1.00  0.00     0.000 G0
ENDBRANCH   6   7
ENDBRANCH   5   6
ENDBRANCH   3   5
ENDBRANCH   1   3
BRANCH   1  11
ATOM     11  C   UNL     1      86.065  34.089  28.926  1.00  0.00     0.087 C 
BRANCH  11  12
ATOM     12  C   UNL     1      85.713  35.361  29.753  1.00  0.00     0.066 C 
BRANCH  12  13
ATOM     13  C   UNL     1      84.527  35.117  30.675  1.00  0.00     0.140 C 
ATOM     14  O   UNL     1      83.437  34.839  30.195  1.00  0.00    -0.299 OA
BRANCH  13  15
ATOM     15  C   UNL     1      84.665  35.336  32.167  1.00  0.00     0.106 CG0
ATOM     16  G   UNL     1      84.545  34.055  32.973  1.00  0.00     0.000 G0
ENDBRANCH  13  15
ENDBRANCH  12  13
BRANCH  12  17
ATOM     17  C   UNL     1      85.435  36.584  28.819  1.00  0.00    -0.006 C 
ATOM     18  C   UNL     1      85.106  36.147  27.380  1.00  0.00     0.008 C 
ATOM     19  C   UNL     1      86.628  37.557  28.783  1.00  0.00     0.008 C 
ENDBRANCH  12  17
ENDBRANCH  11  12
ENDBRANCH   1  11
TORSDOF 1
ENDMDL
MODEL 6
REMARK VINA RESULT:    -2.871      3.458      5.996
REMARK INTER + INTRA:          -4.829
REMARK INTER:                  -4.750
REMARK INTRA:                  -0.079
REMARK UNBOUND:                -0.447
REMARK SMILES CC1=CCC[C@@H](C)C(=O)C[C@@H](C(C)C)C(=O)C1
REMARK SMILES IDX 8 1 9 2 6 3 7 4 5 5 4 6 3 7 2 8 1 9 10 11 11 12 15 13 16 14
REMARK SMILES IDX 17 15 12 17 13 18 14 19
REMARK H PARENT
REMARK Flexibility Score: 70.00
ROOT
ATOM      1  C   UNL     1      86.507  36.834  25.760  1.00  0.00     0.136 C 
ATOM      2  O   UNL     1      87.411  37.602  26.061  1.00  0.00    -0.299 OA
ENDROOT
BRANCH   1   3
ATOM      3  C   UNL     1      86.427  36.324  24.336  1.00  0.00     0.053 C 
ATOM      4  C   UNL     1      84.973  36.325  23.845  1.00  0.00     0.016 C 
BRANCH   3   5
ATOM      5  C   UNL     1      87.050  34.908  24.250  1.00  0.00     0.015 C 
BRANCH   5   6
ATOM      6  C   UNL     1      86.013  33.775  24.412  1.00  0.00     0.028 C 
BRANCH   6   7
ATOM      7  C   UNL     1      86.486  32.728  25.393  1.00  0.00    -0.028 C 
ATOM      8  C   UNL     1      86.065  32.614  26.675  1.00  0.00    -0.070 CG0
ATOM      9  C   UNL     1      86.591  31.468  27.499  1.00  0.00     0.039 C 
ATOM     10  G   UNL     1      85.100  33.592  27.322  1.00  0.00     0.000 G0
ENDBRANCH   6   7
ENDBRANCH   5   6
ENDBRANCH   3   5
ENDBRANCH   1   3
BRANCH   1  11
ATOM     11  C   UNL     1      85.541  36.407  26.847  1.00  0.00     0.087 C 
BRANCH  11  12
ATOM     12  C   UNL     1      86.164  35.843  28.159  1.00  0.00     0.066 C 
BRANCH  12  13
ATOM     13  C   UNL     1      85.685  34.426  28.441  1.00  0.00     0.140 C 
ATOM     14  O   UNL     1      85.884  33.930  29.542  1.00  0.00    -0.299 OA
BRANCH  13  15
ATOM     15  C   UNL     1      85.074  33.594  27.334  1.00  0.00     0.106 CG0
ATOM     16  G   UNL     1      86.062  32.639  26.688  1.00  0.00     0.000 G0
ENDBRANCH  13  15
ENDBRANCH  12  13
BRANCH  12  17
ATOM     17  C   UNL     1      85.857  36.775  29.377  1.00  0.00    -0.006 C 
ATOM     18  C   UNL     1      84.349  37.042  29.533  1.00  0.00     0.008 C 
ATOM     19  C   UNL     1      86.591  38.124  29.262  1.00  0.00     0.008 C 
ENDBRANCH  12  17
ENDBRANCH  11  12
ENDBRANCH   1  11
TORSDOF 1
ENDMDL
MODEL 7
REMARK VINA RESULT:    -2.735      2.097      5.350
REMARK INTER + INTRA:          -4.621
REMARK INTER:                  -4.493
REMARK INTRA:                  -0.128
REMARK UNBOUND:                -0.447
REMARK SMILES CC1=CCC[C@@H](C)C(=O)C[C@@H](C(C)C)C(=O)C1
REMARK SMILES IDX 8 1 9 2 6 3 7 4 5 5 4 6 3 7 2 8 1 9 10 11 11 12 15 13 16 14
REMARK SMILES IDX 17 15 12 17 13 18 14 19
REMARK H PARENT
REMARK Flexibility Score: 70.00
ROOT
ATOM      1  C   UNL     1      82.163  38.107  25.030  1.00  0.00     0.136 C 
ATOM      2  O   UNL     1      82.028  38.587  26.147  1.00  0.00    -0.299 OA
ENDROOT
BRANCH   1   3
ATOM      3  C   UNL     1      81.940  38.994  23.823  1.00  0.00     0.053 C 
ATOM      4  C   UNL     1      81.198  40.275  24.226  1.00  0.00     0.016 C 
BRANCH   3   5
ATOM      5  C   UNL     1      81.163  38.212  22.733  1.00  0.00     0.015 C 
BRANCH   5   6
ATOM      6  C   UNL     1      81.896  38.170  21.375  1.00  0.00     0.028 C 
BRANCH   6   7
ATOM      7  C   UNL     1      81.635  36.873  20.644  1.00  0.00    -0.028 C 
ATOM      8  C   UNL     1      82.406  35.763  20.727  1.00  0.00    -0.070 CG0
ATOM      9  C   UNL     1      81.964  34.532  19.981  1.00  0.00     0.039 C 
ATOM     10  G   UNL     1      83.698  35.707  21.522  1.00  0.00     0.000 G0
ENDBRANCH   6   7
ENDBRANCH   5   6
ENDBRANCH   3   5
ENDBRANCH   1   3
BRANCH   1  11
ATOM     11  C   UNL     1      82.585  36.655  24.923  1.00  0.00     0.087 C 
BRANCH  11  12
ATOM     12  C   UNL     1      83.840  36.350  24.052  1.00  0.00     0.066 C 
BRANCH  12  13
ATOM     13  C   UNL     1      83.533  35.326  22.968  1.00  0.00     0.140 C 
ATOM     14  O   UNL     1      83.228  34.185  23.286  1.00  0.00    -0.299 OA
BRANCH  13  15
ATOM     15  C   UNL     1      83.721  35.682  21.509  1.00  0.00     0.106 CG0
ATOM     16  G   UNL     1      82.415  35.754  20.738  1.00  0.00     0.000 G0
ENDBRANCH  13  15
ENDBRANCH  12  13
BRANCH  12  17
ATOM     17  C   UNL     1      85.037  35.868  24.935  1.00  0.00    -0.006 C 
ATOM     18  C   UNL     1      85.204  36.729  26.200  1.00  0.00     0.008 C 
ATOM     19  C   UNL     1      86.362  35.874  24.151  1.00  0.00     0.008 C 
ENDBRANCH  12  17
ENDBRANCH  11  12
ENDBRANCH   1  11
TORSDOF 1
ENDMDL
MODEL 8
REMARK VINA RESULT:    -2.634      2.132      3.919
REMARK INTER + INTRA:          -4.467
REMARK INTER:                  -4.149
REMARK INTRA:                  -0.318
REMARK UNBOUND:                -0.447
REMARK SMILES CC1=CCC[C@@H](C)C(=O)C[C@@H](C(C)C)C(=O)C1
REMARK SMILES IDX 8 1 9 2 6 3 7 4 5 5 4 6 3 7 2 8 1 9 10 11 11 12 15 13 16 14
REMARK SMILES IDX 17 15 12 17 13 18 14 19
REMARK H PARENT
REMARK Flexibility Score: 70.00
ROOT
ATOM      1  C   UNL     1      85.565  34.884  27.232  1.00  0.00     0.136 C 
ATOM      2  O   UNL     1      85.900  34.226  28.208  1.00  0.00    -0.299 OA
ENDROOT
BRANCH   1   3
ATOM      3  C   UNL     1      85.361  36.376  27.395  1.00  0.00     0.053 C 
ATOM      4  C   UNL     1      86.542  37.002  28.148  1.00  0.00     0.016 C 
BRANCH   3   5
ATOM      5  C   UNL     1      84.020  36.645  28.126  1.00  0.00     0.015 C 
BRANCH   5   6
ATOM      6  C   UNL     1      82.948  37.283  27.216  1.00  0.00     0.028 C 
BRANCH   6   7
ATOM      7  C   UNL     1      82.078  36.232  26.564  1.00  0.00    -0.028 C 
ATOM      8  C   UNL     1      82.239  35.758  25.306  1.00  0.00    -0.070 CG0
ATOM      9  C   UNL     1      81.320  34.661  24.836  1.00  0.00     0.039 C 
ATOM     10  G   UNL     1      83.290  36.287  24.347  1.00  0.00     0.000 G0
ENDBRANCH   6   7
ENDBRANCH   5   6
ENDBRANCH   3   5
ENDBRANCH   1   3
BRANCH   1  11
ATOM     11  C   UNL     1      85.414  34.168  25.905  1.00  0.00     0.087 C 
BRANCH  11  12
ATOM     12  C   UNL     1      85.597  35.027  24.619  1.00  0.00     0.066 C 
BRANCH  12  13
ATOM     13  C   UNL     1      84.278  35.222  23.883  1.00  0.00     0.140 C 
ATOM     14  O   UNL     1      84.056  34.583  22.864  1.00  0.00    -0.299 OA
BRANCH  13  15
ATOM     15  C   UNL     1      83.300  36.283  24.343  1.00  0.00     0.106 CG0
ATOM     16  G   UNL     1      82.244  35.751  25.295  1.00  0.00     0.000 G0
ENDBRANCH  13  15
ENDBRANCH  12  13
BRANCH  12  17
ATOM     17  C   UNL     1      86.664  34.396  23.665  1.00  0.00    -0.006 C 
ATOM     18  C   UNL     1      87.105  32.999  24.137  1.00  0.00     0.008 C 
ATOM     19  C   UNL     1      87.910  35.291  23.531  1.00  0.00     0.008 C 
ENDBRANCH  12  17
ENDBRANCH  11  12
ENDBRANCH   1  11
TORSDOF 1
ENDMDL
MODEL 9
REMARK VINA RESULT:    -2.634      3.747      4.823
REMARK INTER + INTRA:          -4.466
REMARK INTER:                  -4.246
REMARK INTRA:                  -0.220
REMARK UNBOUND:                -0.447
REMARK SMILES CC1=CCC[C@@H](C)C(=O)C[C@@H](C(C)C)C(=O)C1
REMARK SMILES IDX 8 1 9 2 6 3 7 4 5 5 4 6 3 7 2 8 1 9 10 11 11 12 15 13 16 14
REMARK SMILES IDX 17 15 12 17 13 18 14 19
REMARK H PARENT
REMARK Flexibility Score: 70.00
ROOT
ATOM      1  C   UNL     1      85.923  33.903  24.998  1.00  0.00     0.136 C 
ATOM      2  O   UNL     1      85.740  33.497  23.859  1.00  0.00    -0.299 OA
ENDROOT
BRANCH   1   3
ATOM      3  C   UNL     1      86.556  32.973  26.012  1.00  0.00     0.053 C 
ATOM      4  C   UNL     1      87.352  31.868  25.304  1.00  0.00     0.016 C 
BRANCH   3   5
ATOM      5  C   UNL     1      85.461  32.377  26.933  1.00  0.00     0.015 C 
BRANCH   5   6
ATOM      6  C   UNL     1      85.777  32.537  28.436  1.00  0.00     0.028 C 
BRANCH   6   7
ATOM      7  C   UNL     1      84.655  33.239  29.166  1.00  0.00    -0.028 C 
ATOM      8  C   UNL     1      84.585  34.573  29.388  1.00  0.00    -0.070 CG0
ATOM      9  C   UNL     1      83.361  35.116  30.078  1.00  0.00     0.039 C 
ATOM     10  G   UNL     1      85.683  35.541  28.987  1.00  0.00     0.000 G0
ENDBRANCH   6   7
ENDBRANCH   5   6
ENDBRANCH   3   5
ENDBRANCH   1   3
BRANCH   1  11
ATOM     11  C   UNL     1      85.538  35.335  25.316  1.00  0.00     0.087 C 
BRANCH  11  12
ATOM     12  C   UNL     1      86.304  36.026  26.482  1.00  0.00     0.066 C 
BRANCH  12  13
ATOM     13  C   UNL     1      85.399  36.265  27.683  1.00  0.00     0.140 C 
ATOM     14  O   UNL     1      84.507  37.100  27.608  1.00  0.00    -0.299 OA
BRANCH  13  15
ATOM     15  C   UNL     1      85.675  35.564  28.996  1.00  0.00     0.106 CG0
ATOM     16  G   UNL     1      84.594  34.570  29.382  1.00  0.00     0.000 G0
ENDBRANCH  13  15
ENDBRANCH  12  13
BRANCH  12  17
ATOM     17  C   UNL     1      86.954  37.369  26.014  1.00  0.00    -0.006 C 
ATOM     18  C   UNL     1      87.684  37.217  24.666  1.00  0.00     0.008 C 
ATOM     19  C   UNL     1      87.946  37.917  27.057  1.00  0.00     0.008 C 
ENDBRANCH  12  17
ENDBRANCH  11  12
ENDBRANCH   1  11
TORSDOF 1
ENDMDL
