MODEL 1
REMARK VINA RESULT:    -4.560      0.000      0.000
REMARK INTER + INTRA:          -5.161
REMARK INTER:                  -4.960
REMARK INTRA:                  -0.201
REMARK UNBOUND:                -0.201
REMARK SMILES CC(C)(C)[C@@H]1C=C[C@H](O)CC1
REMARK SMILES IDX 5 1 11 2 10 3 8 4 7 5 6 6 2 7 1 8 3 9 4 10 9 11
REMARK H PARENT 9 12
REMARK Flexibility Score: inf
ROOT
ATOM      1  C   UNL     1     134.079 137.778 142.679  1.00  0.00     0.017 C 
ATOM      2  C   UNL     1     133.626 138.948 141.749  1.00  0.00     0.011 C 
ATOM      3  C   UNL     1     132.933 138.497 140.434  1.00  0.00     0.037 C 
ATOM      4  C   UNL     1     132.609 136.995 140.396  1.00  0.00     0.137 C 
ATOM      5  C   UNL     1     133.840 136.217 140.778  1.00  0.00     0.000 C 
ATOM      6  C   UNL     1     134.554 136.601 141.844  1.00  0.00    -0.025 C 
ENDROOT
BRANCH   1   7
ATOM      7  C   UNL     1     135.093 138.203 143.807  1.00  0.00    -0.032 C 
ATOM      8  C   UNL     1     136.533 138.241 143.245  1.00  0.00     0.011 C 
ATOM      9  C   UNL     1     135.064 137.240 145.018  1.00  0.00     0.011 C 
ATOM     10  C   UNL     1     134.753 139.629 144.304  1.00  0.00     0.011 C 
ENDBRANCH   1   7
BRANCH   4  11
ATOM     11  O   UNL     1     132.187 136.638 139.107  1.00  0.00    -0.389 OA
ATOM     12  H   UNL     1     132.808 137.080 138.471  1.00  0.00     0.211 HD
ENDBRANCH   4  11
TORSDOF 2
ENDMDL
MODEL 2
REMARK VINA RESULT:    -4.491     14.592     15.776
REMARK INTER + INTRA:          -5.086
REMARK INTER:                  -4.882
REMARK INTRA:                  -0.204
REMARK UNBOUND:                -0.201
REMARK SMILES CC(C)(C)[C@@H]1C=C[C@H](O)CC1
REMARK SMILES IDX 5 1 11 2 10 3 8 4 7 5 6 6 2 7 1 8 3 9 4 10 9 11
REMARK H PARENT 9 12
REMARK Flexibility Score: inf
ROOT
ATOM      1  C   UNL     1     149.462 141.017 140.218  1.00  0.00     0.017 C 
ATOM      2  C   UNL     1     149.697 139.609 140.850  1.00  0.00     0.011 C 
ATOM      3  C   UNL     1     149.893 138.463 139.820  1.00  0.00     0.037 C 
ATOM      4  C   UNL     1     150.052 138.959 138.374  1.00  0.00     0.137 C 
ATOM      5  C   UNL     1     148.942 139.928 138.062  1.00  0.00     0.000 C 
ATOM      6  C   UNL     1     148.642 140.888 138.944  1.00  0.00    -0.025 C 
ENDROOT
BRANCH   1   7
ATOM      7  C   UNL     1     148.903 142.094 141.223  1.00  0.00    -0.032 C 
ATOM      8  C   UNL     1     147.463 142.498 140.826  1.00  0.00     0.011 C 
ATOM      9  C   UNL     1     149.777 143.370 141.267  1.00  0.00     0.011 C 
ATOM     10  C   UNL     1     148.837 141.491 142.647  1.00  0.00     0.011 C 
ENDBRANCH   1   7
BRANCH   4  11
ATOM     11  O   UNL     1     150.008 137.867 137.494  1.00  0.00    -0.389 OA
ATOM     12  H   UNL     1     150.857 137.881 136.980  1.00  0.00     0.211 HD
ENDBRANCH   4  11
TORSDOF 2
ENDMDL
MODEL 3
REMARK VINA RESULT:    -4.298      0.571      2.041
REMARK INTER + INTRA:          -4.876
REMARK INTER:                  -4.671
REMARK INTRA:                  -0.206
REMARK UNBOUND:                -0.201
REMARK SMILES CC(C)(C)[C@@H]1C=C[C@H](O)CC1
REMARK SMILES IDX 5 1 11 2 10 3 8 4 7 5 6 6 2 7 1 8 3 9 4 10 9 11
REMARK H PARENT 9 12
REMARK Flexibility Score: inf
ROOT
ATOM      1  C   UNL     1     134.841 137.859 142.523  1.00  0.00     0.017 C 
ATOM      2  C   UNL     1     134.393 136.364 142.537  1.00  0.00     0.011 C 
ATOM      3  C   UNL     1     133.459 135.958 141.364  1.00  0.00     0.037 C 
ATOM      4  C   UNL     1     133.336 137.038 140.277  1.00  0.00     0.137 C 
ATOM      5  C   UNL     1     133.019 138.357 140.930  1.00  0.00     0.000 C 
ATOM      6  C   UNL     1     133.712 138.738 142.010  1.00  0.00    -0.025 C 
ENDROOT
BRANCH   1   7
ATOM      7  C   UNL     1     135.465 138.362 143.879  1.00  0.00    -0.032 C 
ATOM      8  C   UNL     1     134.897 139.753 144.247  1.00  0.00     0.011 C 
ATOM      9  C   UNL     1     137.008 138.463 143.817  1.00  0.00     0.011 C 
ATOM     10  C   UNL     1     135.081 137.389 145.021  1.00  0.00     0.011 C 
ENDBRANCH   1   7
BRANCH   4  11
ATOM     11  O   UNL     1     132.322 136.684 139.375  1.00  0.00    -0.389 OA
ATOM     12  H   UNL     1     132.594 135.822 138.964  1.00  0.00     0.211 HD
ENDBRANCH   4  11
TORSDOF 2
ENDMDL
MODEL 4
REMARK VINA RESULT:    -4.253     14.351     15.112
REMARK INTER + INTRA:          -4.827
REMARK INTER:                  -4.624
REMARK INTRA:                  -0.202
REMARK UNBOUND:                -0.201
REMARK SMILES CC(C)(C)[C@@H]1C=C[C@H](O)CC1
REMARK SMILES IDX 5 1 11 2 10 3 8 4 7 5 6 6 2 7 1 8 3 9 4 10 9 11
REMARK H PARENT 9 12
REMARK Flexibility Score: inf
ROOT
ATOM      1  C   UNL     1     148.185 139.636 140.557  1.00  0.00     0.017 C 
ATOM      2  C   UNL     1     148.989 140.133 141.799  1.00  0.00     0.011 C 
ATOM      3  C   UNL     1     148.873 141.658 142.076  1.00  0.00     0.037 C 
ATOM      4  C   UNL     1     147.805 142.356 141.220  1.00  0.00     0.137 C 
ATOM      5  C   UNL     1     148.004 141.974 139.777  1.00  0.00     0.000 C 
ATOM      6  C   UNL     1     148.210 140.689 139.461  1.00  0.00    -0.025 C 
ENDROOT
BRANCH   1   7
ATOM      7  C   UNL     1     148.586 138.196 140.058  1.00  0.00    -0.032 C 
ATOM      8  C   UNL     1     150.125 138.078 139.950  1.00  0.00     0.011 C 
ATOM      9  C   UNL     1     147.970 137.856 138.680  1.00  0.00     0.011 C 
ATOM     10  C   UNL     1     148.113 137.139 141.085  1.00  0.00     0.011 C 
ENDBRANCH   1   7
BRANCH   4  11
ATOM     11  O   UNL     1     147.913 143.746 141.375  1.00  0.00    -0.389 OA
ATOM     12  H   UNL     1     148.828 143.924 141.718  1.00  0.00     0.211 HD
ENDBRANCH   4  11
TORSDOF 2
ENDMDL
MODEL 5
REMARK VINA RESULT:    -4.230     13.562     14.906
REMARK INTER + INTRA:          -4.802
REMARK INTER:                  -4.603
REMARK INTRA:                  -0.199
REMARK UNBOUND:                -0.201
REMARK SMILES CC(C)(C)[C@@H]1C=C[C@H](O)CC1
REMARK SMILES IDX 5 1 11 2 10 3 8 4 7 5 6 6 2 7 1 8 3 9 4 10 9 11
REMARK H PARENT 9 12
REMARK Flexibility Score: inf
ROOT
ATOM      1  C   UNL     1     148.185 140.307 140.112  1.00  0.00     0.017 C 
ATOM      2  C   UNL     1     147.467 141.526 139.452  1.00  0.00     0.011 C 
ATOM      3  C   UNL     1     147.562 141.572 137.902  1.00  0.00     0.037 C 
ATOM      4  C   UNL     1     148.143 140.289 137.287  1.00  0.00     0.137 C 
ATOM      5  C   UNL     1     149.419 139.934 138.004  1.00  0.00     0.000 C 
ATOM      6  C   UNL     1     149.451 139.967 139.341  1.00  0.00    -0.025 C 
ENDROOT
BRANCH   1   7
ATOM      7  C   UNL     1     148.411 140.450 141.665  1.00  0.00    -0.032 C 
ATOM      8  C   UNL     1     147.064 140.320 142.415  1.00  0.00     0.011 C 
ATOM      9  C   UNL     1     149.055 141.805 142.045  1.00  0.00     0.011 C 
ATOM     10  C   UNL     1     149.330 139.309 142.165  1.00  0.00     0.011 C 
ENDBRANCH   1   7
BRANCH   4  11
ATOM     11  O   UNL     1     148.391 140.493 135.922  1.00  0.00    -0.389 OA
ATOM     12  H   UNL     1     148.811 141.389 135.839  1.00  0.00     0.211 HD
ENDBRANCH   4  11
TORSDOF 2
ENDMDL
MODEL 6
REMARK VINA RESULT:    -4.114     14.260     15.462
REMARK INTER + INTRA:          -4.676
REMARK INTER:                  -4.474
REMARK INTRA:                  -0.202
REMARK UNBOUND:                -0.201
REMARK SMILES CC(C)(C)[C@@H]1C=C[C@H](O)CC1
REMARK SMILES IDX 5 1 11 2 10 3 8 4 7 5 6 6 2 7 1 8 3 9 4 10 9 11
REMARK H PARENT 9 12
REMARK Flexibility Score: inf
ROOT
ATOM      1  C   UNL     1     149.040 139.995 140.520  1.00  0.00     0.017 C 
ATOM      2  C   UNL     1     148.362 140.965 139.501  1.00  0.00     0.011 C 
ATOM      3  C   UNL     1     148.438 142.467 139.889  1.00  0.00     0.037 C 
ATOM      4  C   UNL     1     149.368 142.746 141.081  1.00  0.00     0.137 C 
ATOM      5  C   UNL     1     149.022 141.804 142.204  1.00  0.00     0.000 C 
ATOM      6  C   UNL     1     148.840 140.505 141.938  1.00  0.00    -0.025 C 
ENDROOT
BRANCH   1   7
ATOM      7  C   UNL     1     148.650 138.481 140.332  1.00  0.00    -0.032 C 
ATOM      8  C   UNL     1     149.880 137.666 139.868  1.00  0.00     0.011 C 
ATOM      9  C   UNL     1     147.515 138.288 139.298  1.00  0.00     0.011 C 
ATOM     10  C   UNL     1     148.189 137.890 141.686  1.00  0.00     0.011 C 
ENDBRANCH   1   7
BRANCH   4  11
ATOM     11  O   UNL     1     149.215 144.076 141.496  1.00  0.00    -0.389 OA
ATOM     12  H   UNL     1     148.435 144.441 141.001  1.00  0.00     0.211 HD
ENDBRANCH   4  11
TORSDOF 2
ENDMDL
MODEL 7
REMARK VINA RESULT:    -4.093     13.466     14.839
REMARK INTER + INTRA:          -4.653
REMARK INTER:                  -4.453
REMARK INTRA:                  -0.200
REMARK UNBOUND:                -0.201
REMARK SMILES CC(C)(C)[C@@H]1C=C[C@H](O)CC1
REMARK SMILES IDX 5 1 11 2 10 3 8 4 7 5 6 6 2 7 1 8 3 9 4 10 9 11
REMARK H PARENT 9 12
REMARK Flexibility Score: inf
ROOT
ATOM      1  C   UNL     1     148.704 140.223 140.041  1.00  0.00     0.017 C 
ATOM      2  C   UNL     1     148.914 138.892 139.253  1.00  0.00     0.011 C 
ATOM      3  C   UNL     1     148.701 139.009 137.718  1.00  0.00     0.037 C 
ATOM      4  C   UNL     1     148.553 140.459 137.229  1.00  0.00     0.137 C 
ATOM      5  C   UNL     1     147.529 141.162 138.081  1.00  0.00     0.000 C 
ATOM      6  C   UNL     1     147.581 141.032 139.412  1.00  0.00    -0.025 C 
ENDROOT
BRANCH   1   7
ATOM      7  C   UNL     1     148.553 140.037 141.598  1.00  0.00    -0.032 C 
ATOM      8  C   UNL     1     148.954 141.338 142.333  1.00  0.00     0.011 C 
ATOM      9  C   UNL     1     149.422 138.878 142.141  1.00  0.00     0.011 C 
ATOM     10  C   UNL     1     147.072 139.748 141.947  1.00  0.00     0.011 C 
ENDBRANCH   1   7
BRANCH   4  11
ATOM     11  O   UNL     1     148.155 140.463 135.885  1.00  0.00    -0.389 OA
ATOM     12  H   UNL     1     148.766 141.082 135.408  1.00  0.00     0.211 HD
ENDBRANCH   4  11
TORSDOF 2
ENDMDL
MODEL 8
REMARK VINA RESULT:    -4.032      2.799      4.104
REMARK INTER + INTRA:          -4.587
REMARK INTER:                  -4.382
REMARK INTRA:                  -0.205
REMARK UNBOUND:                -0.201
REMARK SMILES CC(C)(C)[C@@H]1C=C[C@H](O)CC1
REMARK SMILES IDX 5 1 11 2 10 3 8 4 7 5 6 6 2 7 1 8 3 9 4 10 9 11
REMARK H PARENT 9 12
REMARK Flexibility Score: inf
ROOT
ATOM      1  C   UNL     1     135.820 137.614 142.916  1.00  0.00     0.017 C 
ATOM      2  C   UNL     1     135.858 137.082 141.449  1.00  0.00     0.011 C 
ATOM      3  C   UNL     1     137.280 136.754 140.917  1.00  0.00     0.037 C 
ATOM      4  C   UNL     1     138.365 136.789 142.006  1.00  0.00     0.137 C 
ATOM      5  C   UNL     1     138.244 138.076 142.778  1.00  0.00     0.000 C 
ATOM      6  C   UNL     1     137.037 138.484 143.189  1.00  0.00    -0.025 C 
ENDROOT
BRANCH   1   7
ATOM      7  C   UNL     1     134.457 138.289 143.326  1.00  0.00    -0.032 C 
ATOM      8  C   UNL     1     134.721 139.609 144.087  1.00  0.00     0.011 C 
ATOM      9  C   UNL     1     133.590 137.371 144.221  1.00  0.00     0.011 C 
ATOM     10  C   UNL     1     133.648 138.643 142.054  1.00  0.00     0.011 C 
ENDBRANCH   1   7
BRANCH   4  11
ATOM     11  O   UNL     1     139.631 136.694 141.411  1.00  0.00    -0.389 OA
ATOM     12  H   UNL     1     140.266 137.156 142.018  1.00  0.00     0.211 HD
ENDBRANCH   4  11
TORSDOF 2
ENDMDL
MODEL 9
REMARK VINA RESULT:    -3.096     14.456     15.592
REMARK INTER + INTRA:          -3.569
REMARK INTER:                  -3.363
REMARK INTRA:                  -0.205
REMARK UNBOUND:                -0.201
REMARK SMILES CC(C)(C)[C@@H]1C=C[C@H](O)CC1
REMARK SMILES IDX 5 1 11 2 10 3 8 4 7 5 6 6 2 7 1 8 3 9 4 10 9 11
REMARK H PARENT 9 12
REMARK Flexibility Score: inf
ROOT
ATOM      1  C   UNL     1     148.727 140.652 140.088  1.00  0.00     0.017 C 
ATOM      2  C   UNL     1     148.660 140.995 138.566  1.00  0.00     0.011 C 
ATOM      3  C   UNL     1     149.072 139.831 137.623  1.00  0.00     0.037 C 
ATOM      4  C   UNL     1     149.243 138.486 138.349  1.00  0.00     0.137 C 
ATOM      5  C   UNL     1     150.125 138.687 139.553  1.00  0.00     0.000 C 
ATOM      6  C   UNL     1     149.900 139.726 140.365  1.00  0.00    -0.025 C 
ENDROOT
BRANCH   1   7
ATOM      7  C   UNL     1     148.675 141.908 141.038  1.00  0.00    -0.032 C 
ATOM      8  C   UNL     1     148.969 141.487 142.497  1.00  0.00     0.011 C 
ATOM      9  C   UNL     1     147.302 142.621 141.000  1.00  0.00     0.011 C 
ATOM     10  C   UNL     1     149.769 142.922 140.621  1.00  0.00     0.011 C 
ENDBRANCH   1   7
BRANCH   4  11
ATOM     11  O   UNL     1     149.816 137.551 137.475  1.00  0.00    -0.389 OA
ATOM     12  H   UNL     1     149.375 137.674 136.595  1.00  0.00     0.211 HD
ENDBRANCH   4  11
TORSDOF 2
ENDMDL
