MODEL 1
REMARK VINA RESULT:    -4.887      0.000      0.000
REMARK INTER + INTRA:         -11.014
REMARK INTER:                  -8.887
REMARK INTRA:                  -2.127
REMARK UNBOUND:                -2.127
REMARK SMILES CCCCCCCCCCCCCCCC(=O)[O-]
REMARK SMILES IDX 9 1 10 2 11 3 12 4 13 5 14 6 15 7 16 8 17 9 18 10 8 11 7 12
REMARK SMILES IDX 6 13 5 14 4 15 3 16 2 17 1 18
REMARK H PARENT
REMARK Flexibility Score: inf
ROOT
ATOM      1  C   UNL     1     -37.943  38.446  42.660  1.00  0.00     0.000 C 
ENDROOT
BRANCH   1   2
ATOM      2  C   UNL     1     -38.152  39.679  43.558  1.00  0.00     0.000 C 
BRANCH   2   3
ATOM      3  C   UNL     1     -39.310  39.570  44.573  1.00  0.00     0.000 C 
BRANCH   3   4
ATOM      4  C   UNL     1     -38.895  39.158  45.997  1.00  0.00     0.000 C 
BRANCH   4   5
ATOM      5  C   UNL     1     -39.963  38.370  46.779  1.00  0.00     0.000 C 
BRANCH   5   6
ATOM      6  C   UNL     1     -39.384  37.230  47.644  1.00  0.00     0.006 C 
BRANCH   6   7
ATOM      7  C   UNL     1     -40.404  36.115  47.906  1.00  0.00     0.053 C 
BRANCH   7   8
ATOM      8  C   UNL     1     -40.613  35.932  49.376  1.00  0.00     0.041 C 
ATOM      9  O   UNL     1     -40.499  34.791  49.896  1.00  0.00    -0.550 OA
ATOM     10  O   UNL     1     -40.885  37.032  50.182  1.00  0.00    -0.550 OA
ENDBRANCH   7   8
ENDBRANCH   6   7
ENDBRANCH   5   6
ENDBRANCH   4   5
ENDBRANCH   3   4
ENDBRANCH   2   3
ENDBRANCH   1   2
BRANCH   1  11
ATOM     11  C   UNL     1     -36.555  37.808  42.835  1.00  0.00     0.000 C 
BRANCH  11  12
ATOM     12  C   UNL     1     -36.620  36.358  43.351  1.00  0.00    -0.000 C 
BRANCH  12  13
ATOM     13  C   UNL     1     -36.898  36.209  44.859  1.00  0.00    -0.000 C 
BRANCH  13  14
ATOM     14  C   UNL     1     -35.628  36.327  45.721  1.00  0.00    -0.000 C 
BRANCH  14  15
ATOM     15  C   UNL     1     -35.832  37.258  46.936  1.00  0.00    -0.000 C 
BRANCH  15  16
ATOM     16  C   UNL     1     -34.809  38.404  47.013  1.00  0.00    -0.000 C 
BRANCH  16  17
ATOM     17  C   UNL     1     -34.792  39.276  45.752  1.00  0.00    -0.003 C 
ATOM     18  C   UNL     1     -35.467  40.622  46.002  1.00  0.00     0.004 C 
ENDBRANCH  16  17
ENDBRANCH  15  16
ENDBRANCH  14  15
ENDBRANCH  13  14
ENDBRANCH  12  13
ENDBRANCH  11  12
ENDBRANCH   1  11
TORSDOF 14
ENDMDL
MODEL 2
REMARK VINA RESULT:    -4.851      6.279      8.852
REMARK INTER + INTRA:         -10.948
REMARK INTER:                  -8.442
REMARK INTRA:                  -2.506
REMARK UNBOUND:                -2.127
REMARK SMILES CCCCCCCCCCCCCCCC(=O)[O-]
REMARK SMILES IDX 9 1 10 2 11 3 12 4 13 5 14 6 15 7 16 8 17 9 18 10 8 11 7 12
REMARK SMILES IDX 6 13 5 14 4 15 3 16 2 17 1 18
REMARK H PARENT
REMARK Flexibility Score: inf
ROOT
ATOM      1  C   UNL     1     -33.629  39.169  43.899  1.00  0.00     0.000 C 
ENDROOT
BRANCH   1   2
ATOM      2  C   UNL     1     -34.631  38.678  42.838  1.00  0.00     0.000 C 
BRANCH   2   3
ATOM      3  C   UNL     1     -34.304  39.078  41.385  1.00  0.00     0.000 C 
BRANCH   3   4
ATOM      4  C   UNL     1     -35.259  40.110  40.758  1.00  0.00     0.000 C 
BRANCH   4   5
ATOM      5  C   UNL     1     -34.568  41.337  40.133  1.00  0.00     0.000 C 
BRANCH   5   6
ATOM      6  C   UNL     1     -35.320  42.663  40.375  1.00  0.00     0.006 C 
BRANCH   6   7
ATOM      7  C   UNL     1     -34.409  43.889  40.236  1.00  0.00     0.053 C 
BRANCH   7   8
ATOM      8  C   UNL     1     -34.646  44.571  38.926  1.00  0.00     0.041 C 
ATOM      9  O   UNL     1     -35.099  45.746  38.895  1.00  0.00    -0.550 OA
ATOM     10  O   UNL     1     -34.320  43.928  37.737  1.00  0.00    -0.550 OA
ENDBRANCH   7   8
ENDBRANCH   6   7
ENDBRANCH   5   6
ENDBRANCH   4   5
ENDBRANCH   3   4
ENDBRANCH   2   3
ENDBRANCH   1   2
BRANCH   1  11
ATOM     11  C   UNL     1     -32.580  40.139  43.329  1.00  0.00     0.000 C 
BRANCH  11  12
ATOM     12  C   UNL     1     -32.915  41.617  43.607  1.00  0.00    -0.000 C 
BRANCH  12  13
ATOM     13  C   UNL     1     -34.060  41.855  44.609  1.00  0.00    -0.000 C 
BRANCH  13  14
ATOM     14  C   UNL     1     -35.352  42.357  43.941  1.00  0.00    -0.000 C 
BRANCH  14  15
ATOM     15  C   UNL     1     -36.605  41.620  44.465  1.00  0.00    -0.000 C 
BRANCH  15  16
ATOM     16  C   UNL     1     -37.712  41.458  43.410  1.00  0.00    -0.000 C 
BRANCH  16  17
ATOM     17  C   UNL     1     -38.137  39.998  43.209  1.00  0.00    -0.003 C 
ATOM     18  C   UNL     1     -37.898  39.176  44.473  1.00  0.00     0.004 C 
ENDBRANCH  16  17
ENDBRANCH  15  16
ENDBRANCH  14  15
ENDBRANCH  13  14
ENDBRANCH  12  13
ENDBRANCH  11  12
ENDBRANCH   1  11
TORSDOF 14
ENDMDL
MODEL 3
REMARK VINA RESULT:    -4.801      7.577      9.734
REMARK INTER + INTRA:         -10.858
REMARK INTER:                  -8.771
REMARK INTRA:                  -2.087
REMARK UNBOUND:                -2.127
REMARK SMILES CCCCCCCCCCCCCCCC(=O)[O-]
REMARK SMILES IDX 9 1 10 2 11 3 12 4 13 5 14 6 15 7 16 8 17 9 18 10 8 11 7 12
REMARK SMILES IDX 6 13 5 14 4 15 3 16 2 17 1 18
REMARK H PARENT
REMARK Flexibility Score: inf
ROOT
ATOM      1  C   UNL     1     -34.998  42.728  44.072  1.00  0.00     0.000 C 
ENDROOT
BRANCH   1   2
ATOM      2  C   UNL     1     -35.549  43.164  42.702  1.00  0.00     0.000 C 
BRANCH   2   3
ATOM      3  C   UNL     1     -35.614  42.056  41.631  1.00  0.00     0.000 C 
BRANCH   3   4
ATOM      4  C   UNL     1     -35.071  42.452  40.246  1.00  0.00     0.000 C 
BRANCH   4   5
ATOM      5  C   UNL     1     -33.643  43.031  40.251  1.00  0.00     0.000 C 
BRANCH   5   6
ATOM      6  C   UNL     1     -33.509  44.357  39.473  1.00  0.00     0.006 C 
BRANCH   6   7
ATOM      7  C   UNL     1     -34.207  44.311  38.108  1.00  0.00     0.053 C 
BRANCH   7   8
ATOM      8  C   UNL     1     -33.541  45.247  37.149  1.00  0.00     0.041 C 
ATOM      9  O   UNL     1     -34.230  45.923  36.340  1.00  0.00    -0.550 OA
ATOM     10  O   UNL     1     -32.161  45.411  37.181  1.00  0.00    -0.550 OA
ENDBRANCH   7   8
ENDBRANCH   6   7
ENDBRANCH   5   6
ENDBRANCH   4   5
ENDBRANCH   3   4
ENDBRANCH   2   3
ENDBRANCH   1   2
BRANCH   1  11
ATOM     11  C   UNL     1     -35.746  41.519  44.660  1.00  0.00     0.000 C 
BRANCH  11  12
ATOM     12  C   UNL     1     -34.863  40.656  45.582  1.00  0.00    -0.000 C 
BRANCH  12  13
ATOM     13  C   UNL     1     -34.415  39.307  44.988  1.00  0.00    -0.000 C 
BRANCH  13  14
ATOM     14  C   UNL     1     -34.897  39.094  43.542  1.00  0.00    -0.000 C 
BRANCH  14  15
ATOM     15  C   UNL     1     -33.723  38.995  42.544  1.00  0.00    -0.000 C 
BRANCH  15  16
ATOM     16  C   UNL     1     -32.373  39.438  43.132  1.00  0.00    -0.000 C 
BRANCH  16  17
ATOM     17  C   UNL     1     -31.978  40.861  42.715  1.00  0.00    -0.003 C 
ATOM     18  C   UNL     1     -31.433  41.651  43.901  1.00  0.00     0.004 C 
ENDBRANCH  16  17
ENDBRANCH  15  16
ENDBRANCH  14  15
ENDBRANCH  13  14
ENDBRANCH  12  13
ENDBRANCH  11  12
ENDBRANCH   1  11
TORSDOF 14
ENDMDL
MODEL 4
REMARK VINA RESULT:    -4.761      7.040      9.151
REMARK INTER + INTRA:         -10.785
REMARK INTER:                  -8.434
REMARK INTRA:                  -2.351
REMARK UNBOUND:                -2.127
REMARK SMILES CCCCCCCCCCCCCCCC(=O)[O-]
REMARK SMILES IDX 9 1 10 2 11 3 12 4 13 5 14 6 15 7 16 8 17 9 18 10 8 11 7 12
REMARK SMILES IDX 6 13 5 14 4 15 3 16 2 17 1 18
REMARK H PARENT
REMARK Flexibility Score: inf
ROOT
ATOM      1  C   UNL     1     -34.573  39.494  39.862  1.00  0.00     0.000 C 
ENDROOT
BRANCH   1   2
ATOM      2  C   UNL     1     -35.715  39.408  40.890  1.00  0.00     0.000 C 
BRANCH   2   3
ATOM      3  C   UNL     1     -36.193  40.759  41.463  1.00  0.00     0.000 C 
BRANCH   3   4
ATOM      4  C   UNL     1     -35.886  41.987  40.587  1.00  0.00     0.000 C 
BRANCH   4   5
ATOM      5  C   UNL     1     -35.178  43.143  41.318  1.00  0.00     0.000 C 
BRANCH   5   6
ATOM      6  C   UNL     1     -34.460  44.129  40.371  1.00  0.00     0.006 C 
BRANCH   6   7
ATOM      7  C   UNL     1     -34.381  43.609  38.931  1.00  0.00     0.053 C 
BRANCH   7   8
ATOM      8  C   UNL     1     -34.372  44.749  37.963  1.00  0.00     0.041 C 
ATOM      9  O   UNL     1     -35.153  45.724  38.123  1.00  0.00    -0.550 OA
ATOM     10  O   UNL     1     -33.465  44.760  36.909  1.00  0.00    -0.550 OA
ENDBRANCH   7   8
ENDBRANCH   6   7
ENDBRANCH   5   6
ENDBRANCH   4   5
ENDBRANCH   3   4
ENDBRANCH   2   3
ENDBRANCH   1   2
BRANCH   1  11
ATOM     11  C   UNL     1     -33.180  39.387  40.505  1.00  0.00     0.000 C 
BRANCH  11  12
ATOM     12  C   UNL     1     -32.403  40.717  40.481  1.00  0.00    -0.000 C 
BRANCH  12  13
ATOM     13  C   UNL     1     -32.035  41.289  41.864  1.00  0.00    -0.000 C 
BRANCH  13  14
ATOM     14  C   UNL     1     -32.778  40.596  43.020  1.00  0.00    -0.000 C 
BRANCH  14  15
ATOM     15  C   UNL     1     -33.274  41.602  44.081  1.00  0.00    -0.000 C 
BRANCH  15  16
ATOM     16  C   UNL     1     -34.668  41.271  44.642  1.00  0.00    -0.000 C 
BRANCH  16  17
ATOM     17  C   UNL     1     -34.623  40.266  45.800  1.00  0.00    -0.003 C 
ATOM     18  C   UNL     1     -34.868  38.844  45.305  1.00  0.00     0.004 C 
ENDBRANCH  16  17
ENDBRANCH  15  16
ENDBRANCH  14  15
ENDBRANCH  13  14
ENDBRANCH  12  13
ENDBRANCH  11  12
ENDBRANCH   1  11
TORSDOF 14
ENDMDL
MODEL 5
REMARK VINA RESULT:    -4.723      7.740     10.238
REMARK INTER + INTRA:         -10.715
REMARK INTER:                  -8.559
REMARK INTRA:                  -2.155
REMARK UNBOUND:                -2.127
REMARK SMILES CCCCCCCCCCCCCCCC(=O)[O-]
REMARK SMILES IDX 9 1 10 2 11 3 12 4 13 5 14 6 15 7 16 8 17 9 18 10 8 11 7 12
REMARK SMILES IDX 6 13 5 14 4 15 3 16 2 17 1 18
REMARK H PARENT
REMARK Flexibility Score: inf
ROOT
ATOM      1  C   UNL     1     -32.201  41.378  42.671  1.00  0.00     0.000 C 
ENDROOT
BRANCH   1   2
ATOM      2  C   UNL     1     -32.248  41.730  41.173  1.00  0.00     0.000 C 
BRANCH   2   3
ATOM      3  C   UNL     1     -33.455  41.163  40.397  1.00  0.00     0.000 C 
BRANCH   3   4
ATOM      4  C   UNL     1     -34.379  42.219  39.762  1.00  0.00     0.000 C 
BRANCH   4   5
ATOM      5  C   UNL     1     -34.283  43.623  40.388  1.00  0.00     0.000 C 
BRANCH   5   6
ATOM      6  C   UNL     1     -33.819  44.714  39.398  1.00  0.00     0.006 C 
BRANCH   6   7
ATOM      7  C   UNL     1     -34.217  44.402  37.951  1.00  0.00     0.053 C 
BRANCH   7   8
ATOM      8  C   UNL     1     -33.439  45.255  36.999  1.00  0.00     0.041 C 
ATOM      9  O   UNL     1     -34.013  45.799  36.019  1.00  0.00    -0.550 OA
ATOM     10  O   UNL     1     -32.087  45.490  37.222  1.00  0.00    -0.550 OA
ENDBRANCH   7   8
ENDBRANCH   6   7
ENDBRANCH   5   6
ENDBRANCH   4   5
ENDBRANCH   3   4
ENDBRANCH   2   3
ENDBRANCH   1   2
BRANCH   1  11
ATOM     11  C   UNL     1     -33.376  40.489  43.114  1.00  0.00     0.000 C 
BRANCH  11  12
ATOM     12  C   UNL     1     -34.219  41.122  44.237  1.00  0.00    -0.000 C 
BRANCH  12  13
ATOM     13  C   UNL     1     -34.767  42.530  43.934  1.00  0.00    -0.000 C 
BRANCH  13  14
ATOM     14  C   UNL     1     -36.171  42.508  43.303  1.00  0.00    -0.000 C 
BRANCH  14  15
ATOM     15  C   UNL     1     -37.075  41.422  43.927  1.00  0.00    -0.000 C 
BRANCH  15  16
ATOM     16  C   UNL     1     -37.754  40.512  42.890  1.00  0.00    -0.000 C 
BRANCH  16  17
ATOM     17  C   UNL     1     -36.830  40.145  41.722  1.00  0.00    -0.003 C 
ATOM     18  C   UNL     1     -37.541  40.314  40.382  1.00  0.00     0.004 C 
ENDBRANCH  16  17
ENDBRANCH  15  16
ENDBRANCH  14  15
ENDBRANCH  13  14
ENDBRANCH  12  13
ENDBRANCH  11  12
ENDBRANCH   1  11
TORSDOF 14
ENDMDL
MODEL 6
REMARK VINA RESULT:    -4.711      4.315      6.351
REMARK INTER + INTRA:         -10.694
REMARK INTER:                  -8.037
REMARK INTRA:                  -2.657
REMARK UNBOUND:                -2.127
REMARK SMILES CCCCCCCCCCCCCCCC(=O)[O-]
REMARK SMILES IDX 9 1 10 2 11 3 12 4 13 5 14 6 15 7 16 8 17 9 18 10 8 11 7 12
REMARK SMILES IDX 6 13 5 14 4 15 3 16 2 17 1 18
REMARK H PARENT
REMARK Flexibility Score: inf
ROOT
ATOM      1  C   UNL     1     -33.084  41.849  40.268  1.00  0.00     0.000 C 
ENDROOT
BRANCH   1   2
ATOM      2  C   UNL     1     -33.971  40.669  39.832  1.00  0.00     0.000 C 
BRANCH   2   3
ATOM      3  C   UNL     1     -33.859  39.400  40.701  1.00  0.00     0.000 C 
BRANCH   3   4
ATOM      4  C   UNL     1     -35.186  38.896  41.297  1.00  0.00     0.000 C 
BRANCH   4   5
ATOM      5  C   UNL     1     -36.453  39.468  40.633  1.00  0.00     0.000 C 
BRANCH   5   6
ATOM      6  C   UNL     1     -37.729  39.304  41.486  1.00  0.00     0.006 C 
BRANCH   6   7
ATOM      7  C   UNL     1     -37.503  38.418  42.717  1.00  0.00     0.053 C 
BRANCH   7   8
ATOM      8  C   UNL     1     -37.916  39.138  43.962  1.00  0.00     0.041 C 
ATOM      9  O   UNL     1     -37.266  38.984  45.029  1.00  0.00    -0.550 OA
ATOM     10  O   UNL     1     -38.991  40.019  43.931  1.00  0.00    -0.550 OA
ENDBRANCH   7   8
ENDBRANCH   6   7
ENDBRANCH   5   6
ENDBRANCH   4   5
ENDBRANCH   3   4
ENDBRANCH   2   3
ENDBRANCH   1   2
BRANCH   1  11
ATOM     11  C   UNL     1     -33.849  43.183  40.329  1.00  0.00     0.000 C 
BRANCH  11  12
ATOM     12  C   UNL     1     -35.299  43.022  40.823  1.00  0.00    -0.000 C 
BRANCH  12  13
ATOM     13  C   UNL     1     -35.525  43.350  42.312  1.00  0.00    -0.000 C 
BRANCH  13  14
ATOM     14  C   UNL     1     -35.777  42.100  43.173  1.00  0.00    -0.000 C 
BRANCH  14  15
ATOM     15  C   UNL     1     -34.732  41.947  44.300  1.00  0.00    -0.000 C 
BRANCH  15  16
ATOM     16  C   UNL     1     -33.543  41.047  43.922  1.00  0.00    -0.000 C 
BRANCH  16  17
ATOM     17  C   UNL     1     -32.192  41.765  44.033  1.00  0.00    -0.003 C 
ATOM     18  C   UNL     1     -31.103  41.009  43.277  1.00  0.00     0.004 C 
ENDBRANCH  16  17
ENDBRANCH  15  16
ENDBRANCH  14  15
ENDBRANCH  13  14
ENDBRANCH  12  13
ENDBRANCH  11  12
ENDBRANCH   1  11
TORSDOF 14
ENDMDL
MODEL 7
REMARK VINA RESULT:    -4.689      3.385      5.070
REMARK INTER + INTRA:         -10.654
REMARK INTER:                  -7.995
REMARK INTRA:                  -2.659
REMARK UNBOUND:                -2.127
REMARK SMILES CCCCCCCCCCCCCCCC(=O)[O-]
REMARK SMILES IDX 9 1 10 2 11 3 12 4 13 5 14 6 15 7 16 8 17 9 18 10 8 11 7 12
REMARK SMILES IDX 6 13 5 14 4 15 3 16 2 17 1 18
REMARK H PARENT
REMARK Flexibility Score: inf
ROOT
ATOM      1  C   UNL     1     -35.057  42.473  44.492  1.00  0.00     0.000 C 
ENDROOT
BRANCH   1   2
ATOM      2  C   UNL     1     -35.942  42.554  43.235  1.00  0.00     0.000 C 
BRANCH   2   3
ATOM      3  C   UNL     1     -37.250  41.738  43.292  1.00  0.00     0.000 C 
BRANCH   3   4
ATOM      4  C   UNL     1     -37.369  40.617  42.243  1.00  0.00     0.000 C 
BRANCH   4   5
ATOM      5  C   UNL     1     -37.707  39.227  42.816  1.00  0.00     0.000 C 
BRANCH   5   6
ATOM      6  C   UNL     1     -38.476  39.278  44.154  1.00  0.00     0.006 C 
BRANCH   6   7
ATOM      7  C   UNL     1     -37.745  38.539  45.280  1.00  0.00     0.053 C 
BRANCH   7   8
ATOM      8  C   UNL     1     -37.831  39.314  46.557  1.00  0.00     0.041 C 
ATOM      9  O   UNL     1     -38.457  38.845  47.544  1.00  0.00    -0.550 OA
ATOM     10  O   UNL     1     -37.177  40.535  46.674  1.00  0.00    -0.550 OA
ENDBRANCH   7   8
ENDBRANCH   6   7
ENDBRANCH   5   6
ENDBRANCH   4   5
ENDBRANCH   3   4
ENDBRANCH   2   3
ENDBRANCH   1   2
BRANCH   1  11
ATOM     11  C   UNL     1     -33.897  41.475  44.344  1.00  0.00     0.000 C 
BRANCH  11  12
ATOM     12  C   UNL     1     -34.321  40.017  44.605  1.00  0.00    -0.000 C 
BRANCH  12  13
ATOM     13  C   UNL     1     -33.984  39.023  43.477  1.00  0.00    -0.000 C 
BRANCH  13  14
ATOM     14  C   UNL     1     -32.542  39.163  42.960  1.00  0.00    -0.000 C 
BRANCH  14  15
ATOM     15  C   UNL     1     -32.492  39.555  41.468  1.00  0.00    -0.000 C 
BRANCH  15  16
ATOM     16  C   UNL     1     -33.879  39.706  40.822  1.00  0.00    -0.000 C 
BRANCH  16  17
ATOM     17  C   UNL     1     -34.172  41.141  40.364  1.00  0.00    -0.003 C 
ATOM     18  C   UNL     1     -33.040  42.086  40.754  1.00  0.00     0.004 C 
ENDBRANCH  16  17
ENDBRANCH  15  16
ENDBRANCH  14  15
ENDBRANCH  13  14
ENDBRANCH  12  13
ENDBRANCH  11  12
ENDBRANCH   1  11
TORSDOF 14
ENDMDL
MODEL 8
REMARK VINA RESULT:    -4.678      2.154      4.041
REMARK INTER + INTRA:         -10.633
REMARK INTER:                  -7.973
REMARK INTRA:                  -2.661
REMARK UNBOUND:                -2.127
REMARK SMILES CCCCCCCCCCCCCCCC(=O)[O-]
REMARK SMILES IDX 9 1 10 2 11 3 12 4 13 5 14 6 15 7 16 8 17 9 18 10 8 11 7 12
REMARK SMILES IDX 6 13 5 14 4 15 3 16 2 17 1 18
REMARK H PARENT
REMARK Flexibility Score: inf
ROOT
ATOM      1  C   UNL     1     -36.983  36.970  42.939  1.00  0.00     0.000 C 
ENDROOT
BRANCH   1   2
ATOM      2  C   UNL     1     -35.677  36.635  43.681  1.00  0.00     0.000 C 
BRANCH   2   3
ATOM      3  C   UNL     1     -34.722  37.825  43.911  1.00  0.00     0.000 C 
BRANCH   3   4
ATOM      4  C   UNL     1     -34.577  38.274  45.377  1.00  0.00     0.000 C 
BRANCH   4   5
ATOM      5  C   UNL     1     -35.227  37.333  46.409  1.00  0.00     0.000 C 
BRANCH   5   6
ATOM      6  C   UNL     1     -36.398  37.976  47.184  1.00  0.00     0.006 C 
BRANCH   6   7
ATOM      7  C   UNL     1     -37.764  37.448  46.728  1.00  0.00     0.053 C 
BRANCH   7   8
ATOM      8  C   UNL     1     -38.867  38.218  47.383  1.00  0.00     0.041 C 
ATOM      9  O   UNL     1     -39.692  38.863  46.683  1.00  0.00    -0.550 OA
ATOM     10  O   UNL     1     -39.015  38.183  48.764  1.00  0.00    -0.550 OA
ENDBRANCH   7   8
ENDBRANCH   6   7
ENDBRANCH   5   6
ENDBRANCH   4   5
ENDBRANCH   3   4
ENDBRANCH   2   3
ENDBRANCH   1   2
BRANCH   1  11
ATOM     11  C   UNL     1     -37.125  38.469  42.623  1.00  0.00     0.000 C 
BRANCH  11  12
ATOM     12  C   UNL     1     -38.278  39.140  43.393  1.00  0.00    -0.000 C 
BRANCH  12  13
ATOM     13  C   UNL     1     -38.066  40.628  43.730  1.00  0.00    -0.000 C 
BRANCH  13  14
ATOM     14  C   UNL     1     -37.224  40.844  45.000  1.00  0.00    -0.000 C 
BRANCH  14  15
ATOM     15  C   UNL     1     -35.910  41.601  44.708  1.00  0.00    -0.000 C 
BRANCH  15  16
ATOM     16  C   UNL     1     -35.918  42.359  43.370  1.00  0.00    -0.000 C 
BRANCH  16  17
ATOM     17  C   UNL     1     -34.767  41.947  42.443  1.00  0.00    -0.003 C 
ATOM     18  C   UNL     1     -33.570  41.440  43.243  1.00  0.00     0.004 C 
ENDBRANCH  16  17
ENDBRANCH  15  16
ENDBRANCH  14  15
ENDBRANCH  13  14
ENDBRANCH  12  13
ENDBRANCH  11  12
ENDBRANCH   1  11
TORSDOF 14
ENDMDL
MODEL 9
REMARK VINA RESULT:    -4.659      3.146      5.020
REMARK INTER + INTRA:         -10.599
REMARK INTER:                  -7.793
REMARK INTRA:                  -2.806
REMARK UNBOUND:                -2.127
REMARK SMILES CCCCCCCCCCCCCCCC(=O)[O-]
REMARK SMILES IDX 9 1 10 2 11 3 12 4 13 5 14 6 15 7 16 8 17 9 18 10 8 11 7 12
REMARK SMILES IDX 6 13 5 14 4 15 3 16 2 17 1 18
REMARK H PARENT
REMARK Flexibility Score: inf
ROOT
ATOM      1  C   UNL     1     -34.848  38.258  43.809  1.00  0.00     0.000 C 
ENDROOT
BRANCH   1   2
ATOM      2  C   UNL     1     -35.759  38.396  42.576  1.00  0.00     0.000 C 
BRANCH   2   3
ATOM      3  C   UNL     1     -37.271  38.267  42.852  1.00  0.00     0.000 C 
BRANCH   3   4
ATOM      4  C   UNL     1     -38.080  39.567  42.687  1.00  0.00     0.000 C 
BRANCH   4   5
ATOM      5  C   UNL     1     -38.502  40.239  44.009  1.00  0.00     0.000 C 
BRANCH   5   6
ATOM      6  C   UNL     1     -38.795  39.238  45.147  1.00  0.00     0.006 C 
BRANCH   6   7
ATOM      7  C   UNL     1     -37.917  39.479  46.382  1.00  0.00     0.053 C 
BRANCH   7   8
ATOM      8  C   UNL     1     -37.188  38.228  46.757  1.00  0.00     0.041 C 
ATOM      9  O   UNL     1     -36.132  38.290  47.441  1.00  0.00    -0.550 OA
ATOM     10  O   UNL     1     -37.702  36.989  46.395  1.00  0.00    -0.550 OA
ENDBRANCH   7   8
ENDBRANCH   6   7
ENDBRANCH   5   6
ENDBRANCH   4   5
ENDBRANCH   3   4
ENDBRANCH   2   3
ENDBRANCH   1   2
BRANCH   1  11
ATOM     11  C   UNL     1     -33.993  39.511  44.065  1.00  0.00     0.000 C 
BRANCH  11  12
ATOM     12  C   UNL     1     -34.727  40.579  44.899  1.00  0.00    -0.000 C 
BRANCH  12  13
ATOM     13  C   UNL     1     -34.562  42.028  44.402  1.00  0.00    -0.000 C 
BRANCH  13  14
ATOM     14  C   UNL     1     -35.735  42.503  43.527  1.00  0.00    -0.000 C 
BRANCH  14  15
ATOM     15  C   UNL     1     -35.284  42.877  42.099  1.00  0.00    -0.000 C 
BRANCH  15  16
ATOM     16  C   UNL     1     -35.638  41.817  41.041  1.00  0.00    -0.000 C 
BRANCH  16  17
ATOM     17  C   UNL     1     -34.403  41.119  40.458  1.00  0.00    -0.003 C 
ATOM     18  C   UNL     1     -33.115  41.761  40.967  1.00  0.00     0.004 C 
ENDBRANCH  16  17
ENDBRANCH  15  16
ENDBRANCH  14  15
ENDBRANCH  13  14
ENDBRANCH  12  13
ENDBRANCH  11  12
ENDBRANCH   1  11
TORSDOF 14
ENDMDL
