MODEL 1
REMARK VINA RESULT:    -7.989      0.000      0.000
REMARK INTER + INTRA:         -12.002
REMARK INTER:                 -10.791
REMARK INTRA:                  -1.211
REMARK UNBOUND:                -1.211
REMARK SMILES CC[C@H](CC[C@@H](C)[C@H]1CC[C@@H]2[C@H]3CC(=O)C4=CC(=O)CC[C@@]4(C)[C@H]3CC[C@@]21C)C(C)C
REMARK SMILES IDX 4 1 3 2 2 3 1 4 29 5 30 6 31 7 5 8 6 9 7 10 8 11 9 12 27 13
REMARK SMILES IDX 10 14 11 15 26 16 28 17 12 18 25 19 24 20 13 21 22 22 14 23
REMARK SMILES IDX 16 24 21 25 23 26 15 27 17 28 20 29 18 30 19 31
REMARK H PARENT
REMARK Flexibility Score: inf
ROOT
ATOM      1  C   UNL     1      14.571 -28.598  22.974  1.00  0.00     0.004 C 
ENDROOT
BRANCH   1   2
ATOM      2  C   UNL     1      13.426 -27.563  23.200  1.00  0.00    -0.009 C 
BRANCH   2   3
ATOM      3  C   UNL     1      12.186 -28.198  23.897  1.00  0.00     0.000 C 
ATOM      4  C   UNL     1      10.890 -28.187  23.084  1.00  0.00     0.004 C 
ENDBRANCH   2   3
BRANCH   2   5
ATOM      5  C   UNL     1      13.901 -26.198  23.809  1.00  0.00    -0.014 C 
ATOM      6  C   UNL     1      13.195 -25.011  23.124  1.00  0.00     0.007 C 
ATOM      7  C   UNL     1      13.644 -26.109  25.324  1.00  0.00     0.007 C 
ENDBRANCH   2   5
ENDBRANCH   1   2
BRANCH   1   8
ATOM      8  C   UNL     1      14.630 -29.241  21.568  1.00  0.00     0.004 C 
BRANCH   8   9
ATOM      9  C   UNL     1      14.401 -30.786  21.607  1.00  0.00    -0.011 C 
ATOM     10  C   UNL     1      13.321 -31.137  20.564  1.00  0.00     0.008 C 
BRANCH   9  11
ATOM     11  C   UNL     1      15.756 -31.566  21.391  1.00  0.00    -0.002 C 
ATOM     12  C   UNL     1      16.931 -30.581  21.180  1.00  0.00     0.005 C 
ATOM     13  C   UNL     1      16.266 -32.542  22.511  1.00  0.00    -0.026 C 
ATOM     14  C   UNL     1      18.140 -31.113  21.937  1.00  0.00     0.005 C 
ATOM     15  C   UNL     1      17.817 -32.567  22.290  1.00  0.00    -0.001 C 
ATOM     16  C   UNL     1      15.613 -33.966  22.443  1.00  0.00     0.007 C 
ATOM     17  C   UNL     1      15.991 -31.961  23.930  1.00  0.00     0.012 C 
ATOM     18  C   UNL     1      18.261 -33.534  21.146  1.00  0.00     0.004 C 
ATOM     19  C   UNL     1      16.219 -34.955  21.436  1.00  0.00     0.005 C 
ATOM     20  C   UNL     1      17.760 -34.967  21.393  1.00  0.00     0.003 C 
ATOM     21  C   UNL     1      19.777 -33.589  20.857  1.00  0.00     0.085 C 
ATOM     22  C   UNL     1      18.539 -35.793  22.527  1.00  0.00    -0.000 C 
ATOM     23  C   UNL     1      20.539 -34.180  21.992  1.00  0.00     0.159 C 
ATOM     24  C   UNL     1      19.891 -35.154  22.900  1.00  0.00     0.005 C 
ATOM     25  C   UNL     1      17.717 -35.947  23.846  1.00  0.00     0.020 C 
ATOM     26  C   UNL     1      18.839 -37.203  21.952  1.00  0.00     0.017 C 
ATOM     27  O   UNL     1      21.747 -33.852  22.150  1.00  0.00    -0.295 OA
ATOM     28  C   UNL     1      20.511 -35.478  24.054  1.00  0.00     0.055 C 
ATOM     29  C   UNL     1      18.444 -36.760  24.929  1.00  0.00     0.081 C 
ATOM     30  C   UNL     1      19.870 -36.322  25.073  1.00  0.00     0.156 C 
ATOM     31  O   UNL     1      20.533 -36.692  26.079  1.00  0.00    -0.295 OA
ENDBRANCH   9  11
ENDBRANCH   8   9
ENDBRANCH   1   8
TORSDOF 6
ENDMDL
MODEL 2
REMARK VINA RESULT:    -7.951      4.723      7.065
REMARK INTER + INTRA:         -11.951
REMARK INTER:                 -10.505
REMARK INTRA:                  -1.446
REMARK UNBOUND:                -1.211
REMARK SMILES CC[C@H](CC[C@@H](C)[C@H]1CC[C@@H]2[C@H]3CC(=O)C4=CC(=O)CC[C@@]4(C)[C@H]3CC[C@@]21C)C(C)C
REMARK SMILES IDX 4 1 3 2 2 3 1 4 29 5 30 6 31 7 5 8 6 9 7 10 8 11 9 12 27 13
REMARK SMILES IDX 10 14 11 15 26 16 28 17 12 18 25 19 24 20 13 21 22 22 14 23
REMARK SMILES IDX 16 24 21 25 23 26 15 27 17 28 20 29 18 30 19 31
REMARK H PARENT
REMARK Flexibility Score: inf
ROOT
ATOM      1  C   UNL     1      23.145 -26.883  21.209  1.00  0.00     0.004 C 
ENDROOT
BRANCH   1   2
ATOM      2  C   UNL     1      22.911 -25.350  21.045  1.00  0.00    -0.009 C 
BRANCH   2   3
ATOM      3  C   UNL     1      22.518 -24.967  19.586  1.00  0.00     0.000 C 
ATOM      4  C   UNL     1      23.552 -24.143  18.816  1.00  0.00     0.004 C 
ENDBRANCH   2   3
BRANCH   2   5
ATOM      5  C   UNL     1      22.014 -24.711  22.162  1.00  0.00    -0.014 C 
ATOM      6  C   UNL     1      22.491 -23.286  22.506  1.00  0.00     0.007 C 
ATOM      7  C   UNL     1      20.530 -24.642  21.757  1.00  0.00     0.007 C 
ENDBRANCH   2   5
ENDBRANCH   1   2
BRANCH   1   8
ATOM      8  C   UNL     1      21.947 -27.791  20.840  1.00  0.00     0.004 C 
BRANCH   8   9
ATOM      9  C   UNL     1      21.584 -28.795  21.981  1.00  0.00    -0.011 C 
ATOM     10  C   UNL     1      22.187 -28.263  23.297  1.00  0.00     0.008 C 
BRANCH   9  11
ATOM     11  C   UNL     1      20.026 -29.027  22.057  1.00  0.00    -0.002 C 
ATOM     12  C   UNL     1      19.275 -28.029  21.142  1.00  0.00     0.005 C 
ATOM     13  C   UNL     1      19.440 -30.430  21.662  1.00  0.00    -0.026 C 
ATOM     14  C   UNL     1      18.141 -28.777  20.453  1.00  0.00     0.005 C 
ATOM     15  C   UNL     1      17.977 -30.097  21.210  1.00  0.00    -0.001 C 
ATOM     16  C   UNL     1      19.499 -31.481  22.825  1.00  0.00     0.007 C 
ATOM     17  C   UNL     1      20.197 -31.032  20.441  1.00  0.00     0.012 C 
ATOM     18  C   UNL     1      16.983 -29.939  22.405  1.00  0.00     0.004 C 
ATOM     19  C   UNL     1      18.378 -31.412  23.874  1.00  0.00     0.005 C 
ATOM     20  C   UNL     1      16.967 -31.195  23.294  1.00  0.00     0.003 C 
ATOM     21  C   UNL     1      15.527 -29.584  22.032  1.00  0.00     0.085 C 
ATOM     22  C   UNL     1      16.194 -32.466  22.692  1.00  0.00    -0.000 C 
ATOM     23  C   UNL     1      14.857 -30.692  21.295  1.00  0.00     0.159 C 
ATOM     24  C   UNL     1      15.278 -32.095  21.510  1.00  0.00     0.005 C 
ATOM     25  C   UNL     1      17.158 -33.591  22.199  1.00  0.00     0.020 C 
ATOM     26  C   UNL     1      15.288 -33.034  23.816  1.00  0.00     0.017 C 
ATOM     27  O   UNL     1      13.913 -30.414  20.506  1.00  0.00    -0.295 OA
ATOM     28  C   UNL     1      14.838 -33.043  20.657  1.00  0.00     0.055 C 
ATOM     29  C   UNL     1      16.428 -34.824  21.646  1.00  0.00     0.081 C 
ATOM     30  C   UNL     1      15.323 -34.430  20.713  1.00  0.00     0.156 C 
ATOM     31  O   UNL     1      14.796 -35.303  19.973  1.00  0.00    -0.295 OA
ENDBRANCH   9  11
ENDBRANCH   8   9
ENDBRANCH   1   8
TORSDOF 6
ENDMDL
MODEL 3
REMARK VINA RESULT:    -7.924      4.338      6.224
REMARK INTER + INTRA:         -11.915
REMARK INTER:                 -10.779
REMARK INTRA:                  -1.136
REMARK UNBOUND:                -1.211
REMARK SMILES CC[C@H](CC[C@@H](C)[C@H]1CC[C@@H]2[C@H]3CC(=O)C4=CC(=O)CC[C@@]4(C)[C@H]3CC[C@@]21C)C(C)C
REMARK SMILES IDX 4 1 3 2 2 3 1 4 29 5 30 6 31 7 5 8 6 9 7 10 8 11 9 12 27 13
REMARK SMILES IDX 10 14 11 15 26 16 28 17 12 18 25 19 24 20 13 21 22 22 14 23
REMARK SMILES IDX 16 24 21 25 23 26 15 27 17 28 20 29 18 30 19 31
REMARK H PARENT
REMARK Flexibility Score: inf
ROOT
ATOM      1  C   UNL     1      20.654 -26.011  20.145  1.00  0.00     0.004 C 
ENDROOT
BRANCH   1   2
ATOM      2  C   UNL     1      21.612 -24.909  20.693  1.00  0.00    -0.009 C 
BRANCH   2   3
ATOM      3  C   UNL     1      21.389 -24.636  22.211  1.00  0.00     0.000 C 
ATOM      4  C   UNL     1      21.111 -23.180  22.589  1.00  0.00     0.004 C 
ENDBRANCH   2   3
BRANCH   2   5
ATOM      5  C   UNL     1      23.111 -25.085  20.265  1.00  0.00    -0.014 C 
ATOM      6  C   UNL     1      23.313 -26.403  19.490  1.00  0.00     0.007 C 
ATOM      7  C   UNL     1      23.613 -23.924  19.389  1.00  0.00     0.007 C 
ENDBRANCH   2   5
ENDBRANCH   1   2
BRANCH   1   8
ATOM      8  C   UNL     1      19.923 -26.861  21.212  1.00  0.00     0.004 C 
BRANCH   8   9
ATOM      9  C   UNL     1      20.494 -28.311  21.314  1.00  0.00    -0.011 C 
ATOM     10  C   UNL     1      21.732 -28.276  22.233  1.00  0.00     0.008 C 
BRANCH   9  11
ATOM     11  C   UNL     1      19.385 -29.324  21.798  1.00  0.00    -0.002 C 
ATOM     12  C   UNL     1      18.110 -29.201  20.928  1.00  0.00     0.005 C 
ATOM     13  C   UNL     1      19.702 -30.863  21.803  1.00  0.00    -0.026 C 
ATOM     14  C   UNL     1      17.574 -30.602  20.669  1.00  0.00     0.005 C 
ATOM     15  C   UNL     1      18.288 -31.524  21.660  1.00  0.00    -0.001 C 
ATOM     16  C   UNL     1      20.475 -31.336  23.082  1.00  0.00     0.007 C 
ATOM     17  C   UNL     1      20.550 -31.266  20.559  1.00  0.00     0.012 C 
ATOM     18  C   UNL     1      17.508 -31.607  23.011  1.00  0.00     0.004 C 
ATOM     19  C   UNL     1      19.632 -31.601  24.339  1.00  0.00     0.005 C 
ATOM     20  C   UNL     1      18.316 -32.361  24.082  1.00  0.00     0.003 C 
ATOM     21  C   UNL     1      16.094 -32.225  22.939  1.00  0.00     0.085 C 
ATOM     22  C   UNL     1      18.386 -33.955  23.911  1.00  0.00    -0.000 C 
ATOM     23  C   UNL     1      16.138 -33.672  22.587  1.00  0.00     0.159 C 
ATOM     24  C   UNL     1      17.321 -34.491  22.935  1.00  0.00     0.005 C 
ATOM     25  C   UNL     1      19.776 -34.455  23.406  1.00  0.00     0.020 C 
ATOM     26  C   UNL     1      18.096 -34.584  25.300  1.00  0.00     0.017 C 
ATOM     27  O   UNL     1      15.142 -34.187  22.008  1.00  0.00    -0.295 OA
ATOM     28  C   UNL     1      17.445 -35.719  22.389  1.00  0.00     0.055 C 
ATOM     29  C   UNL     1      19.862 -35.983  23.265  1.00  0.00     0.081 C 
ATOM     30  C   UNL     1      18.655 -36.534  22.567  1.00  0.00     0.156 C 
ATOM     31  O   UNL     1      18.675 -37.718  22.137  1.00  0.00    -0.295 OA
ENDBRANCH   9  11
ENDBRANCH   8   9
ENDBRANCH   1   8
TORSDOF 6
ENDMDL
MODEL 4
REMARK VINA RESULT:    -7.808      2.638      3.849
REMARK INTER + INTRA:         -11.758
REMARK INTER:                 -10.419
REMARK INTRA:                  -1.338
REMARK UNBOUND:                -1.211
REMARK SMILES CC[C@H](CC[C@@H](C)[C@H]1CC[C@@H]2[C@H]3CC(=O)C4=CC(=O)CC[C@@]4(C)[C@H]3CC[C@@]21C)C(C)C
REMARK SMILES IDX 4 1 3 2 2 3 1 4 29 5 30 6 31 7 5 8 6 9 7 10 8 11 9 12 27 13
REMARK SMILES IDX 10 14 11 15 26 16 28 17 12 18 25 19 24 20 13 21 22 22 14 23
REMARK SMILES IDX 16 24 21 25 23 26 15 27 17 28 20 29 18 30 19 31
REMARK H PARENT
REMARK Flexibility Score: inf
ROOT
ATOM      1  C   UNL     1      13.560 -31.545  22.494  1.00  0.00     0.004 C 
ENDROOT
BRANCH   1   2
ATOM      2  C   UNL     1      12.948 -30.117  22.353  1.00  0.00    -0.009 C 
BRANCH   2   3
ATOM      3  C   UNL     1      11.398 -30.154  22.202  1.00  0.00     0.000 C 
ATOM      4  C   UNL     1      10.875 -30.647  20.851  1.00  0.00     0.004 C 
ENDBRANCH   2   3
BRANCH   2   5
ATOM      5  C   UNL     1      13.487 -29.078  23.396  1.00  0.00    -0.014 C 
ATOM      6  C   UNL     1      14.572 -28.178  22.771  1.00  0.00     0.007 C 
ATOM      7  C   UNL     1      12.373 -28.176  23.959  1.00  0.00     0.007 C 
ENDBRANCH   2   5
ENDBRANCH   1   2
BRANCH   1   8
ATOM      8  C   UNL     1      14.109 -32.174  21.191  1.00  0.00     0.004 C 
BRANCH   8   9
ATOM      9  C   UNL     1      15.296 -33.155  21.455  1.00  0.00    -0.011 C 
ATOM     10  C   UNL     1      15.139 -34.364  20.511  1.00  0.00     0.008 C 
BRANCH   9  11
ATOM     11  C   UNL     1      16.684 -32.419  21.303  1.00  0.00    -0.002 C 
ATOM     12  C   UNL     1      16.479 -30.924  20.957  1.00  0.00     0.005 C 
ATOM     13  C   UNL     1      17.680 -32.403  22.516  1.00  0.00    -0.026 C 
ATOM     14  C   UNL     1      17.495 -30.110  21.747  1.00  0.00     0.005 C 
ATOM     15  C   UNL     1      18.530 -31.109  22.269  1.00  0.00    -0.001 C 
ATOM     16  C   UNL     1      18.554 -33.701  22.624  1.00  0.00     0.007 C 
ATOM     17  C   UNL     1      16.920 -32.229  23.865  1.00  0.00     0.012 C 
ATOM     18  C   UNL     1      19.682 -31.317  21.235  1.00  0.00     0.004 C 
ATOM     19  C   UNL     1      19.798 -33.771  21.724  1.00  0.00     0.005 C 
ATOM     20  C   UNL     1      20.615 -32.466  21.653  1.00  0.00     0.003 C 
ATOM     21  C   UNL     1      20.545 -30.074  20.923  1.00  0.00     0.085 C 
ATOM     22  C   UNL     1      21.624 -32.142  22.858  1.00  0.00    -0.000 C 
ATOM     23  C   UNL     1      21.345 -29.644  22.104  1.00  0.00     0.159 C 
ATOM     24  C   UNL     1      21.755 -30.631  23.129  1.00  0.00     0.005 C 
ATOM     25  C   UNL     1      21.211 -32.822  24.202  1.00  0.00     0.020 C 
ATOM     26  C   UNL     1      23.027 -32.658  22.442  1.00  0.00     0.017 C 
ATOM     27  O   UNL     1      21.683 -28.433  22.200  1.00  0.00    -0.295 OA
ATOM     28  C   UNL     1      22.253 -30.182  24.300  1.00  0.00     0.055 C 
ATOM     29  C   UNL     1      22.186 -32.540  25.356  1.00  0.00     0.081 C 
ATOM     30  C   UNL     1      22.546 -31.087  25.421  1.00  0.00     0.156 C 
ATOM     31  O   UNL     1      23.118 -30.636  26.449  1.00  0.00    -0.295 OA
ENDBRANCH   9  11
ENDBRANCH   8   9
ENDBRANCH   1   8
TORSDOF 6
ENDMDL
MODEL 5
REMARK VINA RESULT:    -7.715      3.037      4.918
REMARK INTER + INTRA:         -11.632
REMARK INTER:                  -9.727
REMARK INTRA:                  -1.905
REMARK UNBOUND:                -1.211
REMARK SMILES CC[C@H](CC[C@@H](C)[C@H]1CC[C@@H]2[C@H]3CC(=O)C4=CC(=O)CC[C@@]4(C)[C@H]3CC[C@@]21C)C(C)C
REMARK SMILES IDX 4 1 3 2 2 3 1 4 29 5 30 6 31 7 5 8 6 9 7 10 8 11 9 12 27 13
REMARK SMILES IDX 10 14 11 15 26 16 28 17 12 18 25 19 24 20 13 21 22 22 14 23
REMARK SMILES IDX 16 24 21 25 23 26 15 27 17 28 20 29 18 30 19 31
REMARK H PARENT
REMARK Flexibility Score: inf
ROOT
ATOM      1  C   UNL     1      14.269 -33.236  21.257  1.00  0.00     0.004 C 
ENDROOT
BRANCH   1   2
ATOM      2  C   UNL     1      13.876 -31.731  21.375  1.00  0.00    -0.009 C 
BRANCH   2   3
ATOM      3  C   UNL     1      12.635 -31.376  20.503  1.00  0.00     0.000 C 
ATOM      4  C   UNL     1      11.508 -30.633  21.224  1.00  0.00     0.004 C 
ENDBRANCH   2   3
BRANCH   2   5
ATOM      5  C   UNL     1      13.828 -31.190  22.846  1.00  0.00    -0.014 C 
ATOM      6  C   UNL     1      13.979 -32.339  23.863  1.00  0.00     0.007 C 
ATOM      7  C   UNL     1      14.925 -30.147  23.126  1.00  0.00     0.007 C 
ENDBRANCH   2   5
ENDBRANCH   1   2
BRANCH   1   8
ATOM      8  C   UNL     1      15.406 -33.559  20.259  1.00  0.00     0.004 C 
BRANCH   8   9
ATOM      9  C   UNL     1      16.668 -34.153  20.963  1.00  0.00    -0.011 C 
ATOM     10  C   UNL     1      17.033 -35.475  20.258  1.00  0.00     0.008 C 
BRANCH   9  11
ATOM     11  C   UNL     1      17.851 -33.108  20.982  1.00  0.00    -0.002 C 
ATOM     12  C   UNL     1      17.367 -31.720  20.497  1.00  0.00     0.005 C 
ATOM     13  C   UNL     1      18.587 -32.810  22.337  1.00  0.00    -0.026 C 
ATOM     14  C   UNL     1      18.012 -30.658  21.377  1.00  0.00     0.005 C 
ATOM     15  C   UNL     1      19.142 -31.358  22.134  1.00  0.00    -0.001 C 
ATOM     16  C   UNL     1      19.706 -33.853  22.682  1.00  0.00     0.007 C 
ATOM     17  C   UNL     1      17.583 -32.779  23.528  1.00  0.00     0.012 C 
ATOM     18  C   UNL     1      20.474 -31.316  21.319  1.00  0.00     0.004 C 
ATOM     19  C   UNL     1      21.070 -33.650  22.004  1.00  0.00     0.005 C 
ATOM     20  C   UNL     1      21.561 -32.190  21.969  1.00  0.00     0.003 C 
ATOM     21  C   UNL     1      21.065 -29.913  21.059  1.00  0.00     0.085 C 
ATOM     22  C   UNL     1      22.239 -31.590  23.294  1.00  0.00    -0.000 C 
ATOM     23  C   UNL     1      21.523 -29.261  22.318  1.00  0.00     0.159 C 
ATOM     24  C   UNL     1      21.965 -30.084  23.467  1.00  0.00     0.005 C 
ATOM     25  C   UNL     1      21.766 -32.303  24.599  1.00  0.00     0.020 C 
ATOM     26  C   UNL     1      23.775 -31.765  23.150  1.00  0.00     0.017 C 
ATOM     27  O   UNL     1      21.548 -28.001  22.376  1.00  0.00    -0.295 OA
ATOM     28  C   UNL     1      22.131 -29.487  24.666  1.00  0.00     0.055 C 
ATOM     29  C   UNL     1      22.430 -31.754  25.872  1.00  0.00     0.081 C 
ATOM     30  C   UNL     1      22.425 -30.255  25.885  1.00  0.00     0.156 C 
ATOM     31  O   UNL     1      22.687 -29.644  26.955  1.00  0.00    -0.295 OA
ENDBRANCH   9  11
ENDBRANCH   8   9
ENDBRANCH   1   8
TORSDOF 6
ENDMDL
MODEL 6
REMARK VINA RESULT:    -7.666      3.642      6.445
REMARK INTER + INTRA:         -11.566
REMARK INTER:                  -9.961
REMARK INTRA:                  -1.604
REMARK UNBOUND:                -1.211
REMARK SMILES CC[C@H](CC[C@@H](C)[C@H]1CC[C@@H]2[C@H]3CC(=O)C4=CC(=O)CC[C@@]4(C)[C@H]3CC[C@@]21C)C(C)C
REMARK SMILES IDX 4 1 3 2 2 3 1 4 29 5 30 6 31 7 5 8 6 9 7 10 8 11 9 12 27 13
REMARK SMILES IDX 10 14 11 15 26 16 28 17 12 18 25 19 24 20 13 21 22 22 14 23
REMARK SMILES IDX 16 24 21 25 23 26 15 27 17 28 20 29 18 30 19 31
REMARK H PARENT
REMARK Flexibility Score: inf
ROOT
ATOM      1  C   UNL     1      15.402 -35.049  20.250  1.00  0.00     0.004 C 
ENDROOT
BRANCH   1   2
ATOM      2  C   UNL     1      16.564 -35.252  19.230  1.00  0.00    -0.009 C 
BRANCH   2   3
ATOM      3  C   UNL     1      17.082 -33.902  18.650  1.00  0.00     0.000 C 
ATOM      4  C   UNL     1      18.585 -33.653  18.793  1.00  0.00     0.004 C 
ENDBRANCH   2   3
BRANCH   2   5
ATOM      5  C   UNL     1      17.683 -36.238  19.715  1.00  0.00    -0.014 C 
ATOM      6  C   UNL     1      17.611 -36.448  21.240  1.00  0.00     0.007 C 
ATOM      7  C   UNL     1      17.593 -37.614  19.029  1.00  0.00     0.007 C 
ENDBRANCH   2   5
ENDBRANCH   1   2
BRANCH   1   8
ATOM      8  C   UNL     1      14.890 -33.597  20.408  1.00  0.00     0.004 C 
BRANCH   8   9
ATOM      9  C   UNL     1      15.395 -32.926  21.726  1.00  0.00    -0.011 C 
ATOM     10  C   UNL     1      15.457 -34.009  22.822  1.00  0.00     0.008 C 
BRANCH   9  11
ATOM     11  C   UNL     1      16.771 -32.189  21.496  1.00  0.00    -0.002 C 
ATOM     12  C   UNL     1      16.545 -30.752  20.967  1.00  0.00     0.005 C 
ATOM     13  C   UNL     1      17.754 -32.005  22.708  1.00  0.00    -0.026 C 
ATOM     14  C   UNL     1      17.538 -29.828  21.659  1.00  0.00     0.005 C 
ATOM     15  C   UNL     1      18.584 -30.737  22.311  1.00  0.00    -0.001 C 
ATOM     16  C   UNL     1      18.648 -33.263  22.983  1.00  0.00     0.007 C 
ATOM     17  C   UNL     1      16.975 -31.680  24.018  1.00  0.00     0.012 C 
ATOM     18  C   UNL     1      19.751 -31.050  21.320  1.00  0.00     0.004 C 
ATOM     19  C   UNL     1      19.903 -33.422  22.111  1.00  0.00     0.005 C 
ATOM     20  C   UNL     1      20.699 -32.121  21.886  1.00  0.00     0.003 C 
ATOM     21  C   UNL     1      20.596 -29.839  20.866  1.00  0.00     0.085 C 
ATOM     22  C   UNL     1      21.688 -31.632  23.051  1.00  0.00    -0.000 C 
ATOM     23  C   UNL     1      21.375 -29.252  21.991  1.00  0.00     0.159 C 
ATOM     24  C   UNL     1      21.790 -30.097  23.134  1.00  0.00     0.005 C 
ATOM     25  C   UNL     1      21.271 -32.148  24.464  1.00  0.00     0.020 C 
ATOM     26  C   UNL     1      23.105 -32.170  22.715  1.00  0.00     0.017 C 
ATOM     27  O   UNL     1      21.692 -28.032  21.940  1.00  0.00    -0.295 OA
ATOM     28  C   UNL     1      22.267 -29.498  24.245  1.00  0.00     0.055 C 
ATOM     29  C   UNL     1      22.228 -31.708  25.584  1.00  0.00     0.081 C 
ATOM     30  C   UNL     1      22.563 -30.251  25.473  1.00  0.00     0.156 C 
ATOM     31  O   UNL     1      23.115 -29.667  26.442  1.00  0.00    -0.295 OA
ENDBRANCH   9  11
ENDBRANCH   8   9
ENDBRANCH   1   8
TORSDOF 6
ENDMDL
MODEL 7
REMARK VINA RESULT:    -7.614      4.208      6.293
REMARK INTER + INTRA:         -11.496
REMARK INTER:                  -9.970
REMARK INTRA:                  -1.526
REMARK UNBOUND:                -1.211
REMARK SMILES CC[C@H](CC[C@@H](C)[C@H]1CC[C@@H]2[C@H]3CC(=O)C4=CC(=O)CC[C@@]4(C)[C@H]3CC[C@@]21C)C(C)C
REMARK SMILES IDX 4 1 3 2 2 3 1 4 29 5 30 6 31 7 5 8 6 9 7 10 8 11 9 12 27 13
REMARK SMILES IDX 10 14 11 15 26 16 28 17 12 18 25 19 24 20 13 21 22 22 14 23
REMARK SMILES IDX 16 24 21 25 23 26 15 27 17 28 20 29 18 30 19 31
REMARK H PARENT
REMARK Flexibility Score: inf
ROOT
ATOM      1  C   UNL     1      22.505 -26.666  23.105  1.00  0.00     0.004 C 
ENDROOT
BRANCH   1   2
ATOM      2  C   UNL     1      22.011 -25.693  21.989  1.00  0.00    -0.009 C 
BRANCH   2   3
ATOM      3  C   UNL     1      22.787 -25.888  20.652  1.00  0.00     0.000 C 
ATOM      4  C   UNL     1      23.261 -24.605  19.968  1.00  0.00     0.004 C 
ENDBRANCH   2   3
BRANCH   2   5
ATOM      5  C   UNL     1      20.451 -25.616  21.844  1.00  0.00    -0.014 C 
ATOM      6  C   UNL     1      19.935 -24.201  22.170  1.00  0.00     0.007 C 
ATOM      7  C   UNL     1      19.972 -25.996  20.432  1.00  0.00     0.007 C 
ENDBRANCH   2   5
ENDBRANCH   1   2
BRANCH   1   8
ATOM      8  C   UNL     1      23.116 -28.000  22.614  1.00  0.00     0.004 C 
BRANCH   8   9
ATOM      9  C   UNL     1      22.600 -29.229  23.429  1.00  0.00    -0.011 C 
ATOM     10  C   UNL     1      22.450 -28.798  24.902  1.00  0.00     0.008 C 
BRANCH   9  11
ATOM     11  C   UNL     1      21.268 -29.803  22.807  1.00  0.00    -0.002 C 
ATOM     12  C   UNL     1      21.132 -29.391  21.321  1.00  0.00     0.005 C 
ATOM     13  C   UNL     1      21.033 -31.356  22.801  1.00  0.00    -0.026 C 
ATOM     14  C   UNL     1      20.590 -30.583  20.544  1.00  0.00     0.005 C 
ATOM     15  C   UNL     1      20.062 -31.570  21.589  1.00  0.00    -0.001 C 
ATOM     16  C   UNL     1      20.458 -31.905  24.152  1.00  0.00     0.007 C 
ATOM     17  C   UNL     1      22.355 -32.124  22.500  1.00  0.00     0.012 C 
ATOM     18  C   UNL     1      18.568 -31.273  21.936  1.00  0.00     0.004 C 
ATOM     19  C   UNL     1      18.942 -31.771  24.362  1.00  0.00     0.005 C 
ATOM     20  C   UNL     1      18.087 -32.119  23.128  1.00  0.00     0.003 C 
ATOM     21  C   UNL     1      17.558 -31.438  20.779  1.00  0.00     0.085 C 
ATOM     22  C   UNL     1      17.809 -33.668  22.816  1.00  0.00    -0.000 C 
ATOM     23  C   UNL     1      17.436 -32.859  20.348  1.00  0.00     0.159 C 
ATOM     24  C   UNL     1      17.698 -33.956  21.306  1.00  0.00     0.005 C 
ATOM     25  C   UNL     1      18.909 -34.615  23.391  1.00  0.00     0.020 C 
ATOM     26  C   UNL     1      16.443 -34.033  23.456  1.00  0.00     0.017 C 
ATOM     27  O   UNL     1      17.086 -33.106  19.161  1.00  0.00    -0.295 OA
ATOM     28  C   UNL     1      17.828 -35.214  20.834  1.00  0.00     0.055 C 
ATOM     29  C   UNL     1      18.638 -36.104  23.122  1.00  0.00     0.081 C 
ATOM     30  C   UNL     1      18.231 -36.334  21.698  1.00  0.00     0.156 C 
ATOM     31  O   UNL     1      18.224 -37.506  21.237  1.00  0.00    -0.295 OA
ENDBRANCH   9  11
ENDBRANCH   8   9
ENDBRANCH   1   8
TORSDOF 6
ENDMDL
MODEL 8
REMARK VINA RESULT:    -7.462      1.499      2.725
REMARK INTER + INTRA:         -11.291
REMARK INTER:                 -11.041
REMARK INTRA:                  -0.250
REMARK UNBOUND:                -1.211
REMARK SMILES CC[C@H](CC[C@@H](C)[C@H]1CC[C@@H]2[C@H]3CC(=O)C4=CC(=O)CC[C@@]4(C)[C@H]3CC[C@@]21C)C(C)C
REMARK SMILES IDX 4 1 3 2 2 3 1 4 29 5 30 6 31 7 5 8 6 9 7 10 8 11 9 12 27 13
REMARK SMILES IDX 10 14 11 15 26 16 28 17 12 18 25 19 24 20 13 21 22 22 14 23
REMARK SMILES IDX 16 24 21 25 23 26 15 27 17 28 20 29 18 30 19 31
REMARK H PARENT
REMARK Flexibility Score: inf
ROOT
ATOM      1  C   UNL     1      15.023 -29.285  22.142  1.00  0.00     0.004 C 
ENDROOT
BRANCH   1   2
ATOM      2  C   UNL     1      13.895 -29.654  23.154  1.00  0.00    -0.009 C 
BRANCH   2   3
ATOM      3  C   UNL     1      12.941 -28.455  23.435  1.00  0.00     0.000 C 
ATOM      4  C   UNL     1      11.470 -28.681  23.080  1.00  0.00     0.004 C 
ENDBRANCH   2   3
BRANCH   2   5
ATOM      5  C   UNL     1      13.177 -31.015  22.851  1.00  0.00    -0.014 C 
ATOM      6  C   UNL     1      13.411 -31.451  21.391  1.00  0.00     0.007 C 
ATOM      7  C   UNL     1      13.650 -32.149  23.779  1.00  0.00     0.007 C 
ENDBRANCH   2   5
ENDBRANCH   1   2
BRANCH   1   8
ATOM      8  C   UNL     1      16.448 -29.759  22.517  1.00  0.00     0.004 C 
BRANCH   8   9
ATOM      9  C   UNL     1      17.332 -30.046  21.262  1.00  0.00    -0.011 C 
ATOM     10  C   UNL     1      18.067 -28.744  20.885  1.00  0.00     0.008 C 
BRANCH   9  11
ATOM     11  C   UNL     1      18.306 -31.260  21.521  1.00  0.00    -0.002 C 
ATOM     12  C   UNL     1      19.740 -30.761  21.827  1.00  0.00     0.005 C 
ATOM     13  C   UNL     1      17.988 -32.263  22.688  1.00  0.00    -0.026 C 
ATOM     14  C   UNL     1      20.312 -31.618  22.947  1.00  0.00     0.005 C 
ATOM     15  C   UNL     1      19.397 -32.839  23.063  1.00  0.00    -0.001 C 
ATOM     16  C   UNL     1      16.955 -33.374  22.291  1.00  0.00     0.007 C 
ATOM     17  C   UNL     1      17.427 -31.515  23.934  1.00  0.00     0.012 C 
ATOM     18  C   UNL     1      19.867 -33.985  22.111  1.00  0.00     0.004 C 
ATOM     19  C   UNL     1      17.507 -34.587  21.526  1.00  0.00     0.005 C 
ATOM     20  C   UNL     1      18.844 -35.134  22.063  1.00  0.00     0.003 C 
ATOM     21  C   UNL     1      21.260 -34.583  22.407  1.00  0.00     0.085 C 
ATOM     22  C   UNL     1      18.805 -36.088  23.352  1.00  0.00    -0.000 C 
ATOM     23  C   UNL     1      21.286 -35.311  23.706  1.00  0.00     0.159 C 
ATOM     24  C   UNL     1      20.052 -35.928  24.243  1.00  0.00     0.005 C 
ATOM     25  C   UNL     1      17.554 -35.846  24.255  1.00  0.00     0.020 C 
ATOM     26  C   UNL     1      18.785 -37.554  22.845  1.00  0.00     0.017 C 
ATOM     27  O   UNL     1      22.381 -35.410  24.325  1.00  0.00    -0.295 OA
ATOM     28  C   UNL     1      20.044 -36.357  25.522  1.00  0.00     0.055 C 
ATOM     29  C   UNL     1      17.493 -36.773  25.479  1.00  0.00     0.081 C 
ATOM     30  C   UNL     1      18.819 -36.846  26.173  1.00  0.00     0.156 C 
ATOM     31  O   UNL     1      18.887 -37.343  27.329  1.00  0.00    -0.295 OA
ENDBRANCH   9  11
ENDBRANCH   8   9
ENDBRANCH   1   8
TORSDOF 6
ENDMDL
MODEL 9
REMARK VINA RESULT:    -7.337      2.705      4.913
REMARK INTER + INTRA:         -11.121
REMARK INTER:                  -8.896
REMARK INTRA:                  -2.225
REMARK UNBOUND:                -1.211
REMARK SMILES CC[C@H](CC[C@@H](C)[C@H]1CC[C@@H]2[C@H]3CC(=O)C4=CC(=O)CC[C@@]4(C)[C@H]3CC[C@@]21C)C(C)C
REMARK SMILES IDX 4 1 3 2 2 3 1 4 29 5 30 6 31 7 5 8 6 9 7 10 8 11 9 12 27 13
REMARK SMILES IDX 10 14 11 15 26 16 28 17 12 18 25 19 24 20 13 21 22 22 14 23
REMARK SMILES IDX 16 24 21 25 23 26 15 27 17 28 20 29 18 30 19 31
REMARK H PARENT
REMARK Flexibility Score: inf
ROOT
ATOM      1  C   UNL     1      15.016 -32.897  21.108  1.00  0.00     0.004 C 
ENDROOT
BRANCH   1   2
ATOM      2  C   UNL     1      14.963 -31.434  21.645  1.00  0.00    -0.009 C 
BRANCH   2   3
ATOM      3  C   UNL     1      14.361 -31.354  23.080  1.00  0.00     0.000 C 
ATOM      4  C   UNL     1      13.226 -30.346  23.267  1.00  0.00     0.004 C 
ENDBRANCH   2   3
BRANCH   2   5
ATOM      5  C   UNL     1      16.289 -30.622  21.437  1.00  0.00    -0.014 C 
ATOM      6  C   UNL     1      16.951 -30.288  22.788  1.00  0.00     0.007 C 
ATOM      7  C   UNL     1      17.311 -31.377  20.568  1.00  0.00     0.007 C 
ENDBRANCH   2   5
ENDBRANCH   1   2
BRANCH   1   8
ATOM      8  C   UNL     1      15.037 -34.010  22.183  1.00  0.00     0.004 C 
BRANCH   8   9
ATOM      9  C   UNL     1      16.402 -34.768  22.233  1.00  0.00    -0.011 C 
ATOM     10  C   UNL     1      16.790 -35.152  20.791  1.00  0.00     0.008 C 
BRANCH   9  11
ATOM     11  C   UNL     1      17.502 -33.908  22.968  1.00  0.00    -0.002 C 
ATOM     12  C   UNL     1      17.044 -33.536  24.400  1.00  0.00     0.005 C 
ATOM     13  C   UNL     1      18.940 -34.508  23.165  1.00  0.00    -0.026 C 
ATOM     14  C   UNL     1      18.243 -33.668  25.331  1.00  0.00     0.005 C 
ATOM     15  C   UNL     1      19.477 -33.754  24.429  1.00  0.00    -0.001 C 
ATOM     16  C   UNL     1      19.864 -34.337  21.909  1.00  0.00     0.007 C 
ATOM     17  C   UNL     1      18.873 -36.028  23.502  1.00  0.00     0.012 C 
ATOM     18  C   UNL     1      20.037 -32.332  24.107  1.00  0.00     0.004 C 
ATOM     19  C   UNL     1      20.557 -32.976  21.743  1.00  0.00     0.005 C 
ATOM     20  C   UNL     1      21.145 -32.391  23.042  1.00  0.00     0.003 C 
ATOM     21  C   UNL     1      20.560 -31.521  25.314  1.00  0.00     0.085 C 
ATOM     22  C   UNL     1      22.566 -32.944  23.543  1.00  0.00    -0.000 C 
ATOM     23  C   UNL     1      21.776 -32.139  25.912  1.00  0.00     0.159 C 
ATOM     24  C   UNL     1      22.687 -32.956  25.079  1.00  0.00     0.005 C 
ATOM     25  C   UNL     1      22.871 -34.391  23.040  1.00  0.00     0.020 C 
ATOM     26  C   UNL     1      23.657 -31.981  23.002  1.00  0.00     0.017 C 
ATOM     27  O   UNL     1      22.025 -31.933  27.132  1.00  0.00    -0.295 OA
ATOM     28  C   UNL     1      23.630 -33.704  25.689  1.00  0.00     0.055 C 
ATOM     29  C   UNL     1      24.241 -34.920  23.492  1.00  0.00     0.081 C 
ATOM     30  C   UNL     1      24.476 -34.651  24.947  1.00  0.00     0.156 C 
ATOM     31  O   UNL     1      25.418 -35.238  25.542  1.00  0.00    -0.295 OA
ENDBRANCH   9  11
ENDBRANCH   8   9
ENDBRANCH   1   8
TORSDOF 6
ENDMDL
