MODEL 1
REMARK VINA RESULT:    -4.067      0.000      0.000
REMARK INTER + INTRA:          -6.070
REMARK INTER:                  -5.494
REMARK INTRA:                  -0.577
REMARK UNBOUND:                -0.577
REMARK SMILES CC(=O)OCC=C(C)CCC=C(C)C
REMARK SMILES IDX 7 1 6 2 8 3 9 4 10 5 11 6 13 7 12 8 14 9 5 10 4 11 2 12 3 13
REMARK SMILES IDX 1 14
REMARK H PARENT
REMARK Flexibility Score: inf
ROOT
ATOM      1  C   UNL     1       2.904  -6.160  -6.778  1.00  0.00    -0.074 C 
ATOM      2  C   UNL     1       2.965  -4.837  -7.048  1.00  0.00     0.013 C 
ATOM      3  C   UNL     1       1.787  -7.025  -7.311  1.00  0.00     0.039 C 
ENDROOT
BRANCH   1   4
ATOM      4  C   UNL     1       3.983  -6.788  -5.922  1.00  0.00     0.034 C 
BRANCH   4   5
ATOM      5  C   UNL     1       5.292  -5.997  -6.024  1.00  0.00     0.032 C 
BRANCH   5   6
ATOM      6  C   UNL     1       5.570  -5.233  -4.753  1.00  0.00    -0.028 C 
ATOM      7  C   UNL     1       5.948  -3.107  -6.007  1.00  0.00     0.039 C 
ATOM      8  C   UNL     1       5.870  -3.917  -4.735  1.00  0.00    -0.080 C 
ATOM      9  C   UNL     1       6.131  -3.251  -3.408  1.00  0.00     0.039 C 
ENDBRANCH   5   6
ENDBRANCH   4   5
ENDBRANCH   1   4
BRANCH   2  10
ATOM     10  C   UNL     1       1.951  -4.103  -7.888  1.00  0.00     0.260 C 
BRANCH  10  11
ATOM     11  O   UNL     1       1.400  -2.999  -7.171  1.00  0.00    -0.462 OA
BRANCH  11  12
ATOM     12  C   UNL     1       1.883  -1.691  -7.284  1.00  0.00     0.302 C 
ATOM     13  O   UNL     1       1.284  -0.730  -6.728  1.00  0.00    -0.253 OA
ATOM     14  C   UNL     1       3.090  -1.424  -8.117  1.00  0.00     0.139 C 
ENDBRANCH  11  12
ENDBRANCH  10  11
ENDBRANCH   2  10
TORSDOF 6
ENDMDL
MODEL 2
REMARK VINA RESULT:    -4.065      1.140      1.552
REMARK INTER + INTRA:          -6.067
REMARK INTER:                  -5.633
REMARK INTRA:                  -0.434
REMARK UNBOUND:                -0.577
REMARK SMILES CC(=O)OCC=C(C)CCC=C(C)C
REMARK SMILES IDX 7 1 6 2 8 3 9 4 10 5 11 6 13 7 12 8 14 9 5 10 4 11 2 12 3 13
REMARK SMILES IDX 1 14
REMARK H PARENT
REMARK Flexibility Score: inf
ROOT
ATOM      1  C   UNL     1       2.588  -6.305  -7.011  1.00  0.00    -0.074 C 
ATOM      2  C   UNL     1       2.809  -4.985  -7.201  1.00  0.00     0.013 C 
ATOM      3  C   UNL     1       1.396  -7.004  -7.621  1.00  0.00     0.039 C 
ENDROOT
BRANCH   1   4
ATOM      4  C   UNL     1       3.563  -7.102  -6.170  1.00  0.00     0.034 C 
BRANCH   4   5
ATOM      5  C   UNL     1       4.701  -6.212  -5.660  1.00  0.00     0.032 C 
BRANCH   5   6
ATOM      6  C   UNL     1       5.448  -6.873  -4.528  1.00  0.00    -0.028 C 
ATOM      7  C   UNL     1       6.242  -4.676  -3.648  1.00  0.00     0.039 C 
ATOM      8  C   UNL     1       6.152  -6.182  -3.607  1.00  0.00    -0.080 C 
ATOM      9  C   UNL     1       6.862  -6.943  -2.517  1.00  0.00     0.039 C 
ENDBRANCH   5   6
ENDBRANCH   4   5
ENDBRANCH   1   4
BRANCH   2  10
ATOM     10  C   UNL     1       1.911  -4.092  -8.018  1.00  0.00     0.260 C 
BRANCH  10  11
ATOM     11  O   UNL     1       1.387  -3.031  -7.221  1.00  0.00    -0.462 OA
BRANCH  11  12
ATOM     12  C   UNL     1       1.839  -1.710  -7.307  1.00  0.00     0.302 C 
ATOM     13  O   UNL     1       1.237  -0.780  -6.703  1.00  0.00    -0.253 OA
ATOM     14  C   UNL     1       3.014  -1.391  -8.166  1.00  0.00     0.139 C 
ENDBRANCH  11  12
ENDBRANCH  10  11
ENDBRANCH   2  10
TORSDOF 6
ENDMDL
MODEL 3
REMARK VINA RESULT:    -3.917      1.422      2.132
REMARK INTER + INTRA:          -5.868
REMARK INTER:                  -5.173
REMARK INTRA:                  -0.695
REMARK UNBOUND:                -0.577
REMARK SMILES CC(=O)OCC=C(C)CCC=C(C)C
REMARK SMILES IDX 7 1 6 2 8 3 9 4 10 5 11 6 13 7 12 8 14 9 5 10 4 11 2 12 3 13
REMARK SMILES IDX 1 14
REMARK H PARENT
REMARK Flexibility Score: inf
ROOT
ATOM      1  C   UNL     1       4.775  -6.289  -5.492  1.00  0.00    -0.074 C 
ATOM      2  C   UNL     1       4.398  -5.214  -6.219  1.00  0.00     0.013 C 
ATOM      3  C   UNL     1       3.939  -7.546  -5.447  1.00  0.00     0.039 C 
ENDROOT
BRANCH   1   4
ATOM      4  C   UNL     1       6.069  -6.231  -4.707  1.00  0.00     0.034 C 
BRANCH   4   5
ATOM      5  C   UNL     1       5.989  -5.177  -3.599  1.00  0.00     0.032 C 
BRANCH   5   6
ATOM      6  C   UNL     1       7.171  -4.240  -3.648  1.00  0.00    -0.028 C 
ATOM      7  C   UNL     1       5.701  -2.259  -4.036  1.00  0.00     0.039 C 
ATOM      8  C   UNL     1       7.050  -2.910  -3.847  1.00  0.00    -0.080 C 
ATOM      9  C   UNL     1       8.298  -2.066  -3.879  1.00  0.00     0.039 C 
ENDBRANCH   5   6
ENDBRANCH   4   5
ENDBRANCH   1   4
BRANCH   2  10
ATOM     10  C   UNL     1       3.135  -5.155  -7.040  1.00  0.00     0.260 C 
BRANCH  10  11
ATOM     11  O   UNL     1       3.050  -3.923  -7.755  1.00  0.00    -0.462 OA
BRANCH  11  12
ATOM     12  C   UNL     1       2.340  -2.812  -7.290  1.00  0.00     0.302 C 
ATOM     13  O   UNL     1       1.079  -2.786  -7.333  1.00  0.00    -0.253 OA
ATOM     14  C   UNL     1       3.085  -1.623  -6.787  1.00  0.00     0.139 C 
ENDBRANCH  11  12
ENDBRANCH  10  11
ENDBRANCH   2  10
TORSDOF 6
ENDMDL
MODEL 4
REMARK VINA RESULT:    -3.852      2.385      5.090
REMARK INTER + INTRA:          -5.781
REMARK INTER:                  -5.376
REMARK INTRA:                  -0.405
REMARK UNBOUND:                -0.577
REMARK SMILES CC(=O)OCC=C(C)CCC=C(C)C
REMARK SMILES IDX 7 1 6 2 8 3 9 4 10 5 11 6 13 7 12 8 14 9 5 10 4 11 2 12 3 13
REMARK SMILES IDX 1 14
REMARK H PARENT
REMARK Flexibility Score: inf
ROOT
ATOM      1  C   UNL     1       3.965  -5.685  -6.250  1.00  0.00    -0.074 C 
ATOM      2  C   UNL     1       4.931  -4.828  -5.851  1.00  0.00     0.013 C 
ATOM      3  C   UNL     1       3.906  -7.104  -5.735  1.00  0.00     0.039 C 
ENDROOT
BRANCH   1   4
ATOM      4  C   UNL     1       2.917  -5.210  -7.234  1.00  0.00     0.034 C 
BRANCH   4   5
ATOM      5  C   UNL     1       2.916  -3.681  -7.336  1.00  0.00     0.032 C 
BRANCH   5   6
ATOM      6  C   UNL     1       1.611  -3.171  -7.895  1.00  0.00    -0.028 C 
ATOM      7  C   UNL     1       2.076  -0.848  -7.106  1.00  0.00     0.039 C 
ATOM      8  C   UNL     1       1.220  -1.883  -7.796  1.00  0.00    -0.080 C 
ATOM      9  C   UNL     1      -0.105  -1.480  -8.390  1.00  0.00     0.039 C 
ENDBRANCH   5   6
ENDBRANCH   4   5
ENDBRANCH   1   4
BRANCH   2  10
ATOM     10  C   UNL     1       6.024  -5.186  -4.877  1.00  0.00     0.260 C 
BRANCH  10  11
ATOM     11  O   UNL     1       5.874  -4.464  -3.656  1.00  0.00    -0.462 OA
BRANCH  11  12
ATOM     12  C   UNL     1       6.341  -3.158  -3.474  1.00  0.00     0.302 C 
ATOM     13  O   UNL     1       5.612  -2.166  -3.750  1.00  0.00    -0.253 OA
ATOM     14  C   UNL     1       7.736  -2.937  -2.998  1.00  0.00     0.139 C 
ENDBRANCH  11  12
ENDBRANCH  10  11
ENDBRANCH   2  10
TORSDOF 6
ENDMDL
MODEL 5
REMARK VINA RESULT:    -3.763     13.908     15.534
REMARK INTER + INTRA:          -5.660
REMARK INTER:                  -5.066
REMARK INTRA:                  -0.594
REMARK UNBOUND:                -0.577
REMARK SMILES CC(=O)OCC=C(C)CCC=C(C)C
REMARK SMILES IDX 7 1 6 2 8 3 9 4 10 5 11 6 13 7 12 8 14 9 5 10 4 11 2 12 3 13
REMARK SMILES IDX 1 14
REMARK H PARENT
REMARK Flexibility Score: inf
ROOT
ATOM      1  C   UNL     1      -7.980   2.246   0.541  1.00  0.00    -0.074 C 
ATOM      2  C   UNL     1      -8.530   1.358   1.400  1.00  0.00     0.013 C 
ATOM      3  C   UNL     1      -6.786   1.886  -0.311  1.00  0.00     0.039 C 
ENDROOT
BRANCH   1   4
ATOM      4  C   UNL     1      -8.578   3.632   0.431  1.00  0.00     0.034 C 
BRANCH   4   5
ATOM      5  C   UNL     1      -7.533   4.642  -0.057  1.00  0.00     0.032 C 
BRANCH   5   6
ATOM      6  C   UNL     1      -6.881   5.358   1.100  1.00  0.00    -0.028 C 
ATOM      7  C   UNL     1      -4.594   4.923   0.198  1.00  0.00     0.039 C 
ATOM      8  C   UNL     1      -5.544   5.492   1.225  1.00  0.00    -0.080 C 
ATOM      9  C   UNL     1      -4.998   6.226   2.422  1.00  0.00     0.039 C 
ENDBRANCH   5   6
ENDBRANCH   4   5
ENDBRANCH   1   4
BRANCH   2  10
ATOM     10  C   UNL     1      -8.024  -0.048   1.594  1.00  0.00     0.260 C 
BRANCH  10  11
ATOM     11  O   UNL     1      -7.764  -0.309   2.973  1.00  0.00    -0.462 OA
BRANCH  11  12
ATOM     12  C   UNL     1      -7.514  -1.589   3.478  1.00  0.00     0.302 C 
ATOM     13  O   UNL     1      -7.261  -2.552   2.702  1.00  0.00    -0.253 OA
ATOM     14  C   UNL     1      -7.599  -1.829   4.946  1.00  0.00     0.139 C 
ENDBRANCH  11  12
ENDBRANCH  10  11
ENDBRANCH   2  10
TORSDOF 6
ENDMDL
MODEL 6
REMARK VINA RESULT:    -3.708     13.860     15.947
REMARK INTER + INTRA:          -5.585
REMARK INTER:                  -4.833
REMARK INTRA:                  -0.752
REMARK UNBOUND:                -0.577
REMARK SMILES CC(=O)OCC=C(C)CCC=C(C)C
REMARK SMILES IDX 7 1 6 2 8 3 9 4 10 5 11 6 13 7 12 8 14 9 5 10 4 11 2 12 3 13
REMARK SMILES IDX 1 14
REMARK H PARENT
REMARK Flexibility Score: inf
ROOT
ATOM      1  C   UNL     1      -4.326   6.833   3.686  1.00  0.00    -0.074 C 
ATOM      2  C   UNL     1      -3.529   7.260   2.681  1.00  0.00     0.013 C 
ATOM      3  C   UNL     1      -3.786   6.590   5.076  1.00  0.00     0.039 C 
ENDROOT
BRANCH   1   4
ATOM      4  C   UNL     1      -5.796   6.596   3.411  1.00  0.00     0.034 C 
BRANCH   4   5
ATOM      5  C   UNL     1      -6.103   6.741   1.917  1.00  0.00     0.032 C 
BRANCH   5   6
ATOM      6  C   UNL     1      -6.750   5.494   1.367  1.00  0.00    -0.028 C 
ATOM      7  C   UNL     1      -4.709   4.904   0.056  1.00  0.00     0.039 C 
ATOM      8  C   UNL     1      -6.124   4.651   0.520  1.00  0.00    -0.080 C 
ATOM      9  C   UNL     1      -6.863   3.433   0.031  1.00  0.00     0.039 C 
ENDBRANCH   5   6
ENDBRANCH   4   5
ENDBRANCH   1   4
BRANCH   2  10
ATOM     10  C   UNL     1      -2.054   7.530   2.836  1.00  0.00     0.260 C 
BRANCH  10  11
ATOM     11  O   UNL     1      -1.295   6.757   1.907  1.00  0.00    -0.462 OA
BRANCH  11  12
ATOM     12  C   UNL     1      -1.357   6.943   0.522  1.00  0.00     0.302 C 
ATOM     13  O   UNL     1      -1.401   5.955  -0.261  1.00  0.00    -0.253 OA
ATOM     14  C   UNL     1      -1.316   8.324  -0.036  1.00  0.00     0.139 C 
ENDBRANCH  11  12
ENDBRANCH  10  11
ENDBRANCH   2  10
TORSDOF 6
ENDMDL
MODEL 7
REMARK VINA RESULT:    -3.705      3.417      5.827
REMARK INTER + INTRA:          -5.582
REMARK INTER:                  -5.098
REMARK INTRA:                  -0.484
REMARK UNBOUND:                -0.577
REMARK SMILES CC(=O)OCC=C(C)CCC=C(C)C
REMARK SMILES IDX 7 1 6 2 8 3 9 4 10 5 11 6 13 7 12 8 14 9 5 10 4 11 2 12 3 13
REMARK SMILES IDX 1 14
REMARK H PARENT
REMARK Flexibility Score: inf
ROOT
ATOM      1  C   UNL     1       5.534  -4.295  -5.101  1.00  0.00    -0.074 C 
ATOM      2  C   UNL     1       5.873  -3.916  -3.848  1.00  0.00     0.013 C 
ATOM      3  C   UNL     1       5.225  -3.282  -6.178  1.00  0.00     0.039 C 
ENDROOT
BRANCH   1   4
ATOM      4  C   UNL     1       5.465  -5.771  -5.431  1.00  0.00     0.034 C 
BRANCH   4   5
ATOM      5  C   UNL     1       4.166  -6.107  -6.170  1.00  0.00     0.032 C 
BRANCH   5   6
ATOM      6  C   UNL     1       3.683  -7.494  -5.826  1.00  0.00    -0.028 C 
ATOM      7  C   UNL     1       1.680  -7.260  -7.299  1.00  0.00     0.039 C 
ATOM      8  C   UNL     1       2.552  -8.029  -6.335  1.00  0.00    -0.080 C 
ATOM      9  C   UNL     1       2.162  -9.425  -5.924  1.00  0.00     0.039 C 
ENDBRANCH   5   6
ENDBRANCH   4   5
ENDBRANCH   1   4
BRANCH   2  10
ATOM     10  C   UNL     1       5.976  -2.480  -3.404  1.00  0.00     0.260 C 
BRANCH  10  11
ATOM     11  O   UNL     1       7.263  -2.208  -2.852  1.00  0.00    -0.462 OA
BRANCH  11  12
ATOM     12  C   UNL     1       8.433  -2.165  -3.617  1.00  0.00     0.302 C 
ATOM     13  O   UNL     1       9.360  -3.000  -3.429  1.00  0.00    -0.253 OA
ATOM     14  C   UNL     1       8.608  -1.086  -4.631  1.00  0.00     0.139 C 
ENDBRANCH  11  12
ENDBRANCH  10  11
ENDBRANCH   2  10
TORSDOF 6
ENDMDL
MODEL 8
REMARK VINA RESULT:    -3.697      1.875      3.202
REMARK INTER + INTRA:          -5.570
REMARK INTER:                  -5.013
REMARK INTRA:                  -0.557
REMARK UNBOUND:                -0.577
REMARK SMILES CC(=O)OCC=C(C)CCC=C(C)C
REMARK SMILES IDX 7 1 6 2 8 3 9 4 10 5 11 6 13 7 12 8 14 9 5 10 4 11 2 12 3 13
REMARK SMILES IDX 1 14
REMARK H PARENT
REMARK Flexibility Score: inf
ROOT
ATOM      1  C   UNL     1       3.022  -2.975  -7.272  1.00  0.00    -0.074 C 
ATOM      2  C   UNL     1       3.050  -1.634  -7.106  1.00  0.00     0.013 C 
ATOM      3  C   UNL     1       1.720  -3.731  -7.383  1.00  0.00     0.039 C 
ENDROOT
BRANCH   1   4
ATOM      4  C   UNL     1       4.329  -3.735  -7.351  1.00  0.00     0.034 C 
BRANCH   4   5
ATOM      5  C   UNL     1       4.186  -5.134  -6.744  1.00  0.00     0.032 C 
BRANCH   5   6
ATOM      6  C   UNL     1       5.090  -5.308  -5.548  1.00  0.00    -0.028 C 
ATOM      7  C   UNL     1       4.306  -7.650  -5.181  1.00  0.00     0.039 C 
ATOM      8  C   UNL     1       5.152  -6.449  -4.830  1.00  0.00    -0.080 C 
ATOM      9  C   UNL     1       6.091  -6.514  -3.653  1.00  0.00     0.039 C 
ENDBRANCH   5   6
ENDBRANCH   4   5
ENDBRANCH   1   4
BRANCH   2  10
ATOM     10  C   UNL     1       1.816  -0.772  -7.015  1.00  0.00     0.260 C 
BRANCH  10  11
ATOM     11  O   UNL     1       1.499  -0.203  -8.284  1.00  0.00    -0.462 OA
BRANCH  11  12
ATOM     12  C   UNL     1       0.689  -0.840  -9.230  1.00  0.00     0.302 C 
ATOM     13  O   UNL     1       1.116  -1.069 -10.396  1.00  0.00    -0.253 OA
ATOM     14  C   UNL     1      -0.711  -1.204  -8.873  1.00  0.00     0.139 C 
ENDBRANCH  11  12
ENDBRANCH  10  11
ENDBRANCH   2  10
TORSDOF 6
ENDMDL
MODEL 9
REMARK VINA RESULT:    -3.653     13.835     15.867
REMARK INTER + INTRA:          -5.511
REMARK INTER:                  -4.200
REMARK INTRA:                  -1.311
REMARK UNBOUND:                -0.577
REMARK SMILES CC(=O)OCC=C(C)CCC=C(C)C
REMARK SMILES IDX 7 1 6 2 8 3 9 4 10 5 11 6 13 7 12 8 14 9 5 10 4 11 2 12 3 13
REMARK SMILES IDX 1 14
REMARK H PARENT
REMARK Flexibility Score: inf
ROOT
ATOM      1  C   UNL     1      -5.128   6.834   2.674  1.00  0.00    -0.074 C 
ATOM      2  C   UNL     1      -4.969   5.762   1.866  1.00  0.00     0.013 C 
ATOM      3  C   UNL     1      -5.757   8.114   2.177  1.00  0.00     0.039 C 
ENDROOT
BRANCH   1   4
ATOM      4  C   UNL     1      -4.664   6.748   4.113  1.00  0.00     0.034 C 
BRANCH   4   5
ATOM      5  C   UNL     1      -3.581   7.792   4.403  1.00  0.00     0.032 C 
BRANCH   5   6
ATOM      6  C   UNL     1      -2.317   7.499   3.633  1.00  0.00    -0.028 C 
ATOM      7  C   UNL     1      -2.448   9.673   2.412  1.00  0.00     0.039 C 
ATOM      8  C   UNL     1      -1.793   8.349   2.725  1.00  0.00    -0.080 C 
ATOM      9  C   UNL     1      -0.525   7.956   2.013  1.00  0.00     0.039 C 
ENDBRANCH   5   6
ENDBRANCH   4   5
ENDBRANCH   1   4
BRANCH   2  10
ATOM     10  C   UNL     1      -5.392   5.730   0.420  1.00  0.00     0.260 C 
BRANCH  10  11
ATOM     11  O   UNL     1      -4.286   5.420  -0.426  1.00  0.00    -0.462 OA
BRANCH  11  12
ATOM     12  C   UNL     1      -3.102   6.166  -0.448  1.00  0.00     0.302 C 
ATOM     13  O   UNL     1      -1.990   5.619  -0.211  1.00  0.00    -0.253 OA
ATOM     14  C   UNL     1      -3.164   7.633  -0.701  1.00  0.00     0.139 C 
ENDBRANCH  11  12
ENDBRANCH  10  11
ENDBRANCH   2  10
TORSDOF 6
ENDMDL
