MODEL 1
REMARK VINA RESULT:    -3.626      0.000      0.000
REMARK INTER + INTRA:          -4.256
REMARK INTER:                  -4.156
REMARK INTRA:                  -0.100
REMARK UNBOUND:                -0.100
REMARK SMILES COc1cc(C(=O)[O-])ccc1O
REMARK SMILES IDX 5 1 9 2 4 3 10 4 3 5 11 6 6 7 7 8 8 9 2 10 1 11 12 12
REMARK H PARENT 12 13
REMARK Flexibility Score: inf
ROOT
ATOM      1  C   UNL     1       6.911  12.332   7.764  1.00  0.00     0.001 A 
ATOM      2  C   UNL     1       6.308  11.063   7.763  1.00  0.00     0.014 A 
ATOM      3  C   UNL     1       6.094  13.476   7.721  1.00  0.00     0.060 A 
ATOM      4  C   UNL     1       4.919  10.940   7.720  1.00  0.00     0.051 A 
ATOM      5  C   UNL     1       4.691  13.358   7.678  1.00  0.00     0.161 A 
ATOM      6  C   UNL     1       4.108  12.077   7.677  1.00  0.00     0.157 A 
ENDROOT
BRANCH   1   7
ATOM      7  C   UNL     1       8.384  12.465   7.809  1.00  0.00     0.072 C 
ATOM      8  O   UNL     1       9.075  11.703   8.536  1.00  0.00    -0.545 OA
ATOM      9  O   UNL     1       9.028  13.436   7.049  1.00  0.00    -0.545 OA
ENDBRANCH   1   7
BRANCH   5  10
ATOM     10  O   UNL     1       3.850  14.482   7.635  1.00  0.00    -0.493 OA
ATOM     11  C   UNL     1       3.581  15.246   6.463  1.00  0.00     0.278 C 
ENDBRANCH   5  10
BRANCH   6  12
ATOM     12  O   UNL     1       2.723  11.915   7.635  1.00  0.00    -0.504 OA
ATOM     13  H   UNL     1       2.281  11.185   7.091  1.00  0.00     0.293 HD
ENDBRANCH   6  12
TORSDOF 3
ENDMDL
MODEL 2
REMARK VINA RESULT:    -3.593      1.842      4.969
REMARK INTER + INTRA:          -4.218
REMARK INTER:                  -4.137
REMARK INTRA:                  -0.081
REMARK UNBOUND:                -0.100
REMARK SMILES COc1cc(C(=O)[O-])ccc1O
REMARK SMILES IDX 5 1 9 2 4 3 10 4 3 5 11 6 6 7 7 8 8 9 2 10 1 11 12 12
REMARK H PARENT 12 13
REMARK Flexibility Score: inf
ROOT
ATOM      1  C   UNL     1       6.127  11.599   7.904  1.00  0.00     0.001 A 
ATOM      2  C   UNL     1       6.120  13.004   7.929  1.00  0.00     0.014 A 
ATOM      3  C   UNL     1       7.298  10.929   7.509  1.00  0.00     0.060 A 
ATOM      4  C   UNL     1       7.260  13.723   7.567  1.00  0.00     0.051 A 
ATOM      5  C   UNL     1       8.452  11.651   7.143  1.00  0.00     0.161 A 
ATOM      6  C   UNL     1       8.423  13.057   7.174  1.00  0.00     0.157 A 
ENDROOT
BRANCH   1   7
ATOM      7  C   UNL     1       4.920  10.834   8.287  1.00  0.00     0.072 C 
ATOM      8  O   UNL     1       4.917  10.117   9.322  1.00  0.00    -0.545 OA
ATOM      9  O   UNL     1       3.770  10.895   7.508  1.00  0.00    -0.545 OA
ENDBRANCH   1   7
BRANCH   5  10
ATOM     10  O   UNL     1       9.636  11.008   6.744  1.00  0.00    -0.493 OA
ATOM     11  C   UNL     1       9.698   9.925   5.822  1.00  0.00     0.278 C 
ENDBRANCH   5  10
BRANCH   6  12
ATOM     12  O   UNL     1       9.543  13.809   6.820  1.00  0.00    -0.504 OA
ATOM     13  H   UNL     1       9.469  14.758   6.474  1.00  0.00     0.293 HD
ENDBRANCH   6  12
TORSDOF 3
ENDMDL
MODEL 3
REMARK VINA RESULT:    -3.561      1.656      5.027
REMARK INTER + INTRA:          -4.181
REMARK INTER:                  -4.084
REMARK INTRA:                  -0.097
REMARK UNBOUND:                -0.100
REMARK SMILES COc1cc(C(=O)[O-])ccc1O
REMARK SMILES IDX 5 1 9 2 4 3 10 4 3 5 11 6 6 7 7 8 8 9 2 10 1 11 12 12
REMARK H PARENT 12 13
REMARK Flexibility Score: inf
ROOT
ATOM      1  C   UNL     1       5.940  11.918   7.903  1.00  0.00     0.001 A 
ATOM      2  C   UNL     1       6.069  13.305   7.723  1.00  0.00     0.014 A 
ATOM      3  C   UNL     1       7.064  11.096   7.711  1.00  0.00     0.060 A 
ATOM      4  C   UNL     1       7.298  13.859   7.358  1.00  0.00     0.051 A 
ATOM      5  C   UNL     1       8.307  11.650   7.343  1.00  0.00     0.161 A 
ATOM      6  C   UNL     1       8.414  13.042   7.167  1.00  0.00     0.157 A 
ENDROOT
BRANCH   1   7
ATOM      7  C   UNL     1       4.639  11.327   8.289  1.00  0.00     0.072 C 
ATOM      8  O   UNL     1       3.698  11.249   7.455  1.00  0.00    -0.545 OA
ATOM      9  O   UNL     1       4.436  10.850   9.579  1.00  0.00    -0.545 OA
ENDBRANCH   1   7
BRANCH   5  10
ATOM     10  O   UNL     1       9.447  10.854   7.144  1.00  0.00    -0.493 OA
ATOM     11  C   UNL     1       9.722  10.117   5.957  1.00  0.00     0.278 C 
ENDBRANCH   5  10
BRANCH   6  12
ATOM     12  O   UNL     1       9.625  13.631   6.804  1.00  0.00    -0.504 OA
ATOM     13  H   UNL     1      10.177  14.176   7.453  1.00  0.00     0.293 HD
ENDBRANCH   6  12
TORSDOF 3
ENDMDL
MODEL 4
REMARK VINA RESULT:    -3.489      1.091      2.910
REMARK INTER + INTRA:          -4.099
REMARK INTER:                  -4.024
REMARK INTRA:                  -0.075
REMARK UNBOUND:                -0.100
REMARK SMILES COc1cc(C(=O)[O-])ccc1O
REMARK SMILES IDX 5 1 9 2 4 3 10 4 3 5 11 6 6 7 7 8 8 9 2 10 1 11 12 12
REMARK H PARENT 12 13
REMARK Flexibility Score: inf
ROOT
ATOM      1  C   UNL     1       7.264  12.231   7.764  1.00  0.00     0.001 A 
ATOM      2  C   UNL     1       6.638  13.488   7.751  1.00  0.00     0.014 A 
ATOM      3  C   UNL     1       6.469  11.072   7.733  1.00  0.00     0.060 A 
ATOM      4  C   UNL     1       5.246  13.584   7.708  1.00  0.00     0.051 A 
ATOM      5  C   UNL     1       5.063  11.162   7.689  1.00  0.00     0.161 A 
ATOM      6  C   UNL     1       4.457  12.432   7.677  1.00  0.00     0.157 A 
ENDROOT
BRANCH   1   7
ATOM      7  C   UNL     1       8.739  12.126   7.811  1.00  0.00     0.072 C 
ATOM      8  O   UNL     1       9.450  12.683   6.933  1.00  0.00    -0.545 OA
ATOM      9  O   UNL     1       9.364  11.409   8.825  1.00  0.00    -0.545 OA
ENDBRANCH   1   7
BRANCH   5  10
ATOM     10  O   UNL     1       4.245  10.022   7.656  1.00  0.00    -0.493 OA
ATOM     11  C   UNL     1       4.721   8.688   7.504  1.00  0.00     0.278 C 
ENDBRANCH   5  10
BRANCH   6  12
ATOM     12  O   UNL     1       3.069  12.567   7.633  1.00  0.00    -0.504 OA
ATOM     13  H   UNL     1       2.618  13.445   7.410  1.00  0.00     0.293 HD
ENDBRANCH   6  12
TORSDOF 3
ENDMDL
MODEL 5
REMARK VINA RESULT:    -3.479      3.136      4.598
REMARK INTER + INTRA:          -4.087
REMARK INTER:                  -4.004
REMARK INTRA:                  -0.083
REMARK UNBOUND:                -0.100
REMARK SMILES COc1cc(C(=O)[O-])ccc1O
REMARK SMILES IDX 5 1 9 2 4 3 10 4 3 5 11 6 6 7 7 8 8 9 2 10 1 11 12 12
REMARK H PARENT 12 13
REMARK Flexibility Score: inf
ROOT
ATOM      1  C   UNL     1       9.464   9.822   6.901  1.00  0.00     0.001 A 
ATOM      2  C   UNL     1       9.461   8.900   7.961  1.00  0.00     0.014 A 
ATOM      3  C   UNL     1       9.034  11.139   7.139  1.00  0.00     0.060 A 
ATOM      4  C   UNL     1       9.037   9.288   9.233  1.00  0.00     0.051 A 
ATOM      5  C   UNL     1       8.605  11.536   8.422  1.00  0.00     0.161 A 
ATOM      6  C   UNL     1       8.610  10.597   9.469  1.00  0.00     0.157 A 
ENDROOT
BRANCH   1   7
ATOM      7  C   UNL     1       9.912   9.413   5.551  1.00  0.00     0.072 C 
ATOM      8  O   UNL     1       9.077   9.058   4.678  1.00  0.00    -0.545 OA
ATOM      9  O   UNL     1      11.264   9.416   5.226  1.00  0.00    -0.545 OA
ENDBRANCH   1   7
BRANCH   5  10
ATOM     10  O   UNL     1       8.171  12.844   8.689  1.00  0.00    -0.493 OA
ATOM     11  C   UNL     1       7.185  13.540   7.933  1.00  0.00     0.278 C 
ENDBRANCH   5  10
BRANCH   6  12
ATOM     12  O   UNL     1       8.194  10.948  10.753  1.00  0.00    -0.504 OA
ATOM     13  H   UNL     1       7.230  11.176  10.966  1.00  0.00     0.293 HD
ENDBRANCH   6  12
TORSDOF 3
ENDMDL
MODEL 6
REMARK VINA RESULT:    -3.381      2.699      4.506
REMARK INTER + INTRA:          -3.975
REMARK INTER:                  -3.882
REMARK INTRA:                  -0.093
REMARK UNBOUND:                -0.100
REMARK SMILES COc1cc(C(=O)[O-])ccc1O
REMARK SMILES IDX 5 1 9 2 4 3 10 4 3 5 11 6 6 7 7 8 8 9 2 10 1 11 12 12
REMARK H PARENT 12 13
REMARK Flexibility Score: inf
ROOT
ATOM      1  C   UNL     1       7.810   9.780   7.481  1.00  0.00     0.001 A 
ATOM      2  C   UNL     1       8.882   9.844   6.575  1.00  0.00     0.014 A 
ATOM      3  C   UNL     1       7.410  10.951   8.149  1.00  0.00     0.060 A 
ATOM      4  C   UNL     1       9.539  11.053   6.341  1.00  0.00     0.051 A 
ATOM      5  C   UNL     1       8.070  12.175   7.917  1.00  0.00     0.161 A 
ATOM      6  C   UNL     1       9.141  12.216   7.005  1.00  0.00     0.157 A 
ENDROOT
BRANCH   1   7
ATOM      7  C   UNL     1       7.112   8.500   7.732  1.00  0.00     0.072 C 
ATOM      8  O   UNL     1       7.360   7.826   8.767  1.00  0.00    -0.545 OA
ATOM      9  O   UNL     1       6.171   8.021   6.827  1.00  0.00    -0.545 OA
ENDBRANCH   1   7
BRANCH   5  10
ATOM     10  O   UNL     1       7.692  13.360   8.569  1.00  0.00    -0.493 OA
ATOM     11  C   UNL     1       6.470  14.055   8.340  1.00  0.00     0.278 C 
ENDBRANCH   5  10
BRANCH   6  12
ATOM     12  O   UNL     1       9.821  13.405   6.746  1.00  0.00    -0.504 OA
ATOM     13  H   UNL     1       9.341  14.290   6.639  1.00  0.00     0.293 HD
ENDBRANCH   6  12
TORSDOF 3
ENDMDL
MODEL 7
REMARK VINA RESULT:    -3.369      3.784      5.893
REMARK INTER + INTRA:          -3.962
REMARK INTER:                  -3.871
REMARK INTRA:                  -0.090
REMARK UNBOUND:                -0.100
REMARK SMILES COc1cc(C(=O)[O-])ccc1O
REMARK SMILES IDX 5 1 9 2 4 3 10 4 3 5 11 6 6 7 7 8 8 9 2 10 1 11 12 12
REMARK H PARENT 12 13
REMARK Flexibility Score: inf
ROOT
ATOM      1  C   UNL     1       8.738  10.606   6.963  1.00  0.00     0.001 A 
ATOM      2  C   UNL     1       7.651   9.796   7.333  1.00  0.00     0.014 A 
ATOM      3  C   UNL     1       9.641  10.135   5.994  1.00  0.00     0.060 A 
ATOM      4  C   UNL     1       7.471   8.542   6.745  1.00  0.00     0.051 A 
ATOM      5  C   UNL     1       9.464   8.871   5.397  1.00  0.00     0.161 A 
ATOM      6  C   UNL     1       8.369   8.076   5.782  1.00  0.00     0.157 A 
ENDROOT
BRANCH   1   7
ATOM      7  C   UNL     1       8.931  11.934   7.584  1.00  0.00     0.072 C 
ATOM      8  O   UNL     1       9.467  12.873   6.937  1.00  0.00    -0.545 OA
ATOM      9  O   UNL     1       8.524  12.167   8.894  1.00  0.00    -0.545 OA
ENDBRANCH   1   7
BRANCH   5  10
ATOM     10  O   UNL     1      10.350   8.376   4.426  1.00  0.00    -0.493 OA
ATOM     11  C   UNL     1      11.758   8.255   4.603  1.00  0.00     0.278 C 
ENDBRANCH   5  10
BRANCH   6  12
ATOM     12  O   UNL     1       8.157   6.819   5.217  1.00  0.00    -0.504 OA
ATOM     13  H   UNL     1       7.683   6.075   5.714  1.00  0.00     0.293 HD
ENDBRANCH   6  12
TORSDOF 3
ENDMDL
MODEL 8
REMARK VINA RESULT:    -3.332      3.697      5.043
REMARK INTER + INTRA:          -3.919
REMARK INTER:                  -3.842
REMARK INTRA:                  -0.077
REMARK UNBOUND:                -0.100
REMARK SMILES COc1cc(C(=O)[O-])ccc1O
REMARK SMILES IDX 5 1 9 2 4 3 10 4 3 5 11 6 6 7 7 8 8 9 2 10 1 11 12 12
REMARK H PARENT 12 13
REMARK Flexibility Score: inf
ROOT
ATOM      1  C   UNL     1       8.740   9.323   7.897  1.00  0.00     0.001 A 
ATOM      2  C   UNL     1       9.445   9.574   6.707  1.00  0.00     0.014 A 
ATOM      3  C   UNL     1       8.302  10.410   8.673  1.00  0.00     0.060 A 
ATOM      4  C   UNL     1       9.706  10.885   6.304  1.00  0.00     0.051 A 
ATOM      5  C   UNL     1       8.562  11.735   8.270  1.00  0.00     0.161 A 
ATOM      6  C   UNL     1       9.270  11.964   7.076  1.00  0.00     0.157 A 
ENDROOT
BRANCH   1   7
ATOM      7  C   UNL     1       8.463   7.935   8.328  1.00  0.00     0.072 C 
ATOM      8  O   UNL     1       7.329   7.617   8.774  1.00  0.00    -0.545 OA
ATOM      9  O   UNL     1       9.452   6.961   8.248  1.00  0.00    -0.545 OA
ENDBRANCH   1   7
BRANCH   5  10
ATOM     10  O   UNL     1       8.136  12.840   9.025  1.00  0.00    -0.493 OA
ATOM     11  C   UNL     1       7.660  12.769  10.365  1.00  0.00     0.278 C 
ENDBRANCH   5  10
BRANCH   6  12
ATOM     12  O   UNL     1       9.548  13.259   6.640  1.00  0.00    -0.504 OA
ATOM     13  H   UNL     1      10.047  13.445   5.779  1.00  0.00     0.293 HD
ENDBRANCH   6  12
TORSDOF 3
ENDMDL
MODEL 9
REMARK VINA RESULT:    -3.221      3.936      5.161
REMARK INTER + INTRA:          -3.791
REMARK INTER:                  -3.692
REMARK INTRA:                  -0.099
REMARK UNBOUND:                -0.100
REMARK SMILES COc1cc(C(=O)[O-])ccc1O
REMARK SMILES IDX 5 1 9 2 4 3 10 4 3 5 11 6 6 7 7 8 8 9 2 10 1 11 12 12
REMARK H PARENT 12 13
REMARK Flexibility Score: inf
ROOT
ATOM      1  C   UNL     1       8.792  10.414   7.042  1.00  0.00     0.001 A 
ATOM      2  C   UNL     1       9.545  10.062   5.909  1.00  0.00     0.014 A 
ATOM      3  C   UNL     1       7.762   9.558   7.470  1.00  0.00     0.060 A 
ATOM      4  C   UNL     1       9.275   8.878   5.220  1.00  0.00     0.051 A 
ATOM      5  C   UNL     1       7.485   8.362   6.779  1.00  0.00     0.161 A 
ATOM      6  C   UNL     1       8.251   8.029   5.647  1.00  0.00     0.157 A 
ENDROOT
BRANCH   1   7
ATOM      7  C   UNL     1       9.076  11.668   7.774  1.00  0.00     0.072 C 
ATOM      8  O   UNL     1       9.172  11.669   9.030  1.00  0.00    -0.545 OA
ATOM      9  O   UNL     1       9.241  12.865   7.085  1.00  0.00    -0.545 OA
ENDBRANCH   1   7
BRANCH   5  10
ATOM     10  O   UNL     1       6.463   7.487   7.184  1.00  0.00    -0.493 OA
ATOM     11  C   UNL     1       5.076   7.695   6.937  1.00  0.00     0.278 C 
ENDBRANCH   5  10
BRANCH   6  12
ATOM     12  O   UNL     1       8.010   6.854   4.933  1.00  0.00    -0.504 OA
ATOM     13  H   UNL     1       7.363   6.148   5.259  1.00  0.00     0.293 HD
ENDBRANCH   6  12
TORSDOF 3
ENDMDL
