MODEL 1
REMARK VINA RESULT:    -3.435      0.000      0.000
REMARK INTER + INTRA:          -3.349
REMARK INTER:                  -4.841
REMARK INTRA:                   1.492
REMARK UNBOUND:                 1.492
REMARK SMILES CC1=CCC(=C(C)C)C(=O)CC(C)=CCC1
REMARK SMILES IDX 12 1 14 2 13 3 15 4 16 5 2 6 1 7 3 8 11 10 9 11 10 12 5 13
REMARK SMILES IDX 6 14 7 15 8 16 4 17
REMARK H PARENT
REMARK Flexibility Score: 60.00
ROOT
ATOM      1  C   UNL     1      -1.850 -15.075  -5.753  1.00  0.00    -0.070 C 
ATOM      2  C   UNL     1      -1.401 -14.731  -6.979  1.00  0.00    -0.027 C 
ATOM      3  C   UNL     1      -1.041 -16.068  -4.957  1.00  0.00     0.039 C 
ENDROOT
BRANCH   2   4
ATOM      4  C   UNL     1      -2.016 -13.686  -7.885  1.00  0.00     0.032 C 
BRANCH   4   5
ATOM      5  C   UNL     1      -2.535 -12.426  -7.160  1.00  0.00     0.034 C 
BRANCH   5   6
ATOM      6  C   UNL     1      -3.671 -11.740  -7.896  1.00  0.00    -0.077 C 
ATOM      7  C   UNL     1      -3.310 -10.760  -8.985  1.00  0.00     0.039 C 
ATOM      8  C   UNL     1      -4.985 -12.000  -7.687  1.00  0.00    -0.023 CG0
ATOM      9  G   UNL     1      -5.580 -12.923  -6.642  1.00  0.00     0.000 G0
ENDBRANCH   5   6
ENDBRANCH   4   5
ENDBRANCH   2   4
BRANCH   1  10
ATOM     10  C   UNL     1      -3.067 -14.444  -5.105  1.00  0.00     0.111 C 
BRANCH  10  11
ATOM     11  C   UNL     1      -4.347 -14.996  -5.674  1.00  0.00     0.163 C 
ATOM     12  O   UNL     1      -4.868 -15.994  -5.105  1.00  0.00    -0.294 OA
BRANCH  11  13
ATOM     13  C   UNL     1      -5.043 -14.370  -6.836  1.00  0.00    -0.002 C 
ATOM     14  C   UNL     1      -5.273 -15.083  -7.980  1.00  0.00    -0.069 C 
ATOM     15  C   UNL     1      -6.112 -14.531  -9.113  1.00  0.00     0.039 C 
ATOM     16  C   UNL     1      -4.697 -16.469  -8.170  1.00  0.00     0.039 C 
BRANCH  13  17
ATOM     17  C   UNL     1      -5.563 -12.952  -6.655  1.00  0.00     0.066 CG0
ATOM     18  G   UNL     1      -5.005 -11.998  -7.692  1.00  0.00     0.000 G0
ENDBRANCH  13  17
ENDBRANCH  11  13
ENDBRANCH  10  11
ENDBRANCH   1  10
TORSDOF 0
ENDMDL
MODEL 2
REMARK VINA RESULT:    -3.260      1.848      4.469
REMARK INTER + INTRA:          -3.102
REMARK INTER:                  -4.173
REMARK INTRA:                   1.071
REMARK UNBOUND:                 1.492
REMARK SMILES CC1=CCC(=C(C)C)C(=O)CC(C)=CCC1
REMARK SMILES IDX 12 1 14 2 13 3 15 4 16 5 2 6 1 7 3 8 11 10 9 11 10 12 5 13
REMARK SMILES IDX 6 14 7 15 8 16 4 17
REMARK H PARENT
REMARK Flexibility Score: 60.00
ROOT
ATOM      1  C   UNL     1      -3.270 -11.820  -8.725  1.00  0.00    -0.070 C 
ATOM      2  C   UNL     1      -4.582 -11.708  -9.024  1.00  0.00    -0.027 C 
ATOM      3  C   UNL     1      -2.445 -10.558  -8.685  1.00  0.00     0.039 C 
ENDROOT
BRANCH   2   4
ATOM      4  C   UNL     1      -5.590 -12.838  -9.018  1.00  0.00     0.032 C 
BRANCH   4   5
ATOM      5  C   UNL     1      -5.628 -13.664  -7.715  1.00  0.00     0.034 C 
BRANCH   5   6
ATOM      6  C   UNL     1      -5.298 -15.130  -7.927  1.00  0.00    -0.077 C 
ATOM      7  C   UNL     1      -5.905 -15.819  -9.125  1.00  0.00     0.039 C 
ATOM      8  C   UNL     1      -4.442 -15.840  -7.153  1.00  0.00    -0.023 CG0
ATOM      9  G   UNL     1      -3.736 -15.367  -5.899  1.00  0.00     0.000 G0
ENDBRANCH   5   6
ENDBRANCH   4   5
ENDBRANCH   2   4
BRANCH   1  10
ATOM     10  C   UNL     1      -2.614 -13.130  -8.337  1.00  0.00     0.111 C 
BRANCH  10  11
ATOM     11  C   UNL     1      -2.543 -13.295  -6.842  1.00  0.00     0.163 C 
ATOM     12  O   UNL     1      -2.639 -12.261  -6.126  1.00  0.00    -0.294 OA
BRANCH  11  13
ATOM     13  C   UNL     1      -2.426 -14.631  -6.188  1.00  0.00    -0.002 C 
ATOM     14  C   UNL     1      -1.207 -15.117  -5.805  1.00  0.00    -0.069 C 
ATOM     15  C   UNL     1      -1.071 -16.392  -5.000  1.00  0.00     0.039 C 
ATOM     16  C   UNL     1       0.074 -14.399  -6.168  1.00  0.00     0.039 C 
BRANCH  13  17
ATOM     17  C   UNL     1      -3.718 -15.372  -5.884  1.00  0.00     0.066 CG0
ATOM     18  G   UNL     1      -4.427 -15.833  -7.142  1.00  0.00     0.000 G0
ENDBRANCH  13  17
ENDBRANCH  11  13
ENDBRANCH  10  11
ENDBRANCH   1  10
TORSDOF 0
ENDMDL
MODEL 3
REMARK VINA RESULT:    -3.255      1.617      3.384
REMARK INTER + INTRA:          -3.096
REMARK INTER:                  -4.134
REMARK INTRA:                   1.038
REMARK UNBOUND:                 1.492
REMARK SMILES CC1=CCC(=C(C)C)C(=O)CC(C)=CCC1
REMARK SMILES IDX 12 1 14 2 13 3 15 4 16 5 2 6 1 7 3 8 11 10 9 11 10 12 5 13
REMARK SMILES IDX 6 14 7 15 8 16 4 17
REMARK H PARENT
REMARK Flexibility Score: 60.00
ROOT
ATOM      1  C   UNL     1      -2.791 -12.455  -7.570  1.00  0.00    -0.070 C 
ATOM      2  C   UNL     1      -3.162 -12.980  -8.757  1.00  0.00    -0.027 C 
ATOM      3  C   UNL     1      -2.997 -10.976  -7.356  1.00  0.00     0.039 C 
ENDROOT
BRANCH   2   4
ATOM      4  C   UNL     1      -3.126 -14.448  -9.125  1.00  0.00     0.032 C 
BRANCH   4   5
ATOM      5  C   UNL     1      -4.480 -15.179  -9.002  1.00  0.00     0.034 C 
BRANCH   5   6
ATOM      6  C   UNL     1      -5.543 -14.354  -8.301  1.00  0.00    -0.077 C 
ATOM      7  C   UNL     1      -6.263 -13.304  -9.110  1.00  0.00     0.039 C 
ATOM      8  C   UNL     1      -5.935 -14.545  -7.017  1.00  0.00    -0.023 CG0
ATOM      9  G   UNL     1      -5.348 -15.521  -6.017  1.00  0.00     0.000 G0
ENDBRANCH   5   6
ENDBRANCH   4   5
ENDBRANCH   2   4
BRANCH   1  10
ATOM     10  C   UNL     1      -2.268 -13.290  -6.418  1.00  0.00     0.111 C 
BRANCH  10  11
ATOM     11  C   UNL     1      -3.391 -13.888  -5.612  1.00  0.00     0.163 C 
ATOM     12  O   UNL     1      -3.988 -13.147  -4.785  1.00  0.00    -0.294 OA
BRANCH  11  13
ATOM     13  C   UNL     1      -3.854 -15.294  -5.803  1.00  0.00    -0.002 C 
ATOM     14  C   UNL     1      -2.978 -16.338  -5.700  1.00  0.00    -0.069 C 
ATOM     15  C   UNL     1      -3.441 -17.779  -5.731  1.00  0.00     0.039 C 
ATOM     16  C   UNL     1      -1.491 -16.103  -5.546  1.00  0.00     0.039 C 
BRANCH  13  17
ATOM     17  C   UNL     1      -5.343 -15.513  -6.020  1.00  0.00     0.066 CG0
ATOM     18  G   UNL     1      -5.927 -14.542  -7.026  1.00  0.00     0.000 G0
ENDBRANCH  13  17
ENDBRANCH  11  13
ENDBRANCH  10  11
ENDBRANCH   1  10
TORSDOF 0
ENDMDL
MODEL 4
REMARK VINA RESULT:    -3.149      1.728      3.653
REMARK INTER + INTRA:          -2.946
REMARK INTER:                  -3.277
REMARK INTRA:                   0.331
REMARK UNBOUND:                 1.492
REMARK SMILES CC1=CCC(=C(C)C)C(=O)CC(C)=CCC1
REMARK SMILES IDX 12 1 14 2 13 3 15 4 16 5 2 6 1 7 3 8 11 10 9 11 10 12 5 13
REMARK SMILES IDX 6 14 7 15 8 16 4 17
REMARK H PARENT
REMARK Flexibility Score: 60.00
ROOT
ATOM      1  C   UNL     1      -5.704 -13.285  -7.345  1.00  0.00    -0.070 C 
ATOM      2  C   UNL     1      -5.399 -11.985  -7.544  1.00  0.00    -0.027 C 
ATOM      3  C   UNL     1      -6.236 -13.687  -5.992  1.00  0.00     0.039 C 
ENDROOT
BRANCH   2   4
ATOM      4  C   UNL     1      -4.948 -11.372  -8.853  1.00  0.00     0.032 C 
BRANCH   4   5
ATOM      5  C   UNL     1      -3.432 -11.470  -9.125  1.00  0.00     0.034 C 
BRANCH   5   6
ATOM      6  C   UNL     1      -2.607 -11.631  -7.861  1.00  0.00    -0.077 C 
ATOM      7  C   UNL     1      -2.340 -10.397  -7.036  1.00  0.00     0.039 C 
ATOM      8  C   UNL     1      -2.155 -12.819  -7.390  1.00  0.00    -0.023 CG0
ATOM      9  G   UNL     1      -2.287 -14.176  -8.053  1.00  0.00     0.000 G0
ENDBRANCH   5   6
ENDBRANCH   4   5
ENDBRANCH   2   4
BRANCH   1  10
ATOM     10  C   UNL     1      -5.629 -14.334  -8.437  1.00  0.00     0.111 C 
BRANCH  10  11
ATOM     11  C   UNL     1      -4.591 -15.380  -8.131  1.00  0.00     0.163 C 
ATOM     12  O   UNL     1      -4.771 -16.544  -8.582  1.00  0.00    -0.294 OA
BRANCH  11  13
ATOM     13  C   UNL     1      -3.342 -15.073  -7.375  1.00  0.00    -0.002 C 
ATOM     14  C   UNL     1      -3.113 -15.629  -6.147  1.00  0.00    -0.069 C 
ATOM     15  C   UNL     1      -1.792 -15.464  -5.427  1.00  0.00     0.039 C 
ATOM     16  C   UNL     1      -4.177 -16.444  -5.445  1.00  0.00     0.039 C 
BRANCH  13  17
ATOM     17  C   UNL     1      -2.306 -14.201  -8.067  1.00  0.00     0.066 CG0
ATOM     18  G   UNL     1      -2.141 -12.855  -7.389  1.00  0.00     0.000 G0
ENDBRANCH  13  17
ENDBRANCH  11  13
ENDBRANCH  10  11
ENDBRANCH   1  10
TORSDOF 0
ENDMDL
MODEL 5
REMARK VINA RESULT:    -2.707      1.819      3.945
REMARK INTER + INTRA:          -2.323
REMARK INTER:                  -3.279
REMARK INTRA:                   0.956
REMARK UNBOUND:                 1.492
REMARK SMILES CC1=CCC(=C(C)C)C(=O)CC(C)=CCC1
REMARK SMILES IDX 12 1 14 2 13 3 15 4 16 5 2 6 1 7 3 8 11 10 9 11 10 12 5 13
REMARK SMILES IDX 6 14 7 15 8 16 4 17
REMARK H PARENT
REMARK Flexibility Score: 60.00
ROOT
ATOM      1  C   UNL     1      -2.520 -13.691  -7.714  1.00  0.00    -0.070 C 
ATOM      2  C   UNL     1      -1.736 -13.947  -6.644  1.00  0.00    -0.027 C 
ATOM      3  C   UNL     1      -2.578 -12.274  -8.224  1.00  0.00     0.039 C 
ENDROOT
BRANCH   2   4
ATOM      4  C   UNL     1      -1.471 -15.313  -6.048  1.00  0.00     0.032 C 
BRANCH   4   5
ATOM      5  C   UNL     1      -2.493 -15.764  -4.983  1.00  0.00     0.034 C 
BRANCH   5   6
ATOM      6  C   UNL     1      -3.589 -16.650  -5.545  1.00  0.00    -0.077 C 
ATOM      7  C   UNL     1      -3.275 -18.113  -5.744  1.00  0.00     0.039 C 
ATOM      8  C   UNL     1      -4.849 -16.230  -5.815  1.00  0.00    -0.023 CG0
ATOM      9  G   UNL     1      -5.383 -14.815  -5.711  1.00  0.00     0.000 G0
ENDBRANCH   5   6
ENDBRANCH   4   5
ENDBRANCH   2   4
BRANCH   1  10
ATOM     10  C   UNL     1      -3.264 -14.769  -8.476  1.00  0.00     0.111 C 
BRANCH  10  11
ATOM     11  C   UNL     1      -4.742 -14.732  -8.192  1.00  0.00     0.163 C 
ATOM     12  O   UNL     1      -5.511 -15.365  -8.965  1.00  0.00    -0.294 OA
BRANCH  11  13
ATOM     13  C   UNL     1      -5.312 -14.032  -7.004  1.00  0.00    -0.002 C 
ATOM     14  C   UNL     1      -5.820 -12.768  -7.115  1.00  0.00    -0.069 C 
ATOM     15  C   UNL     1      -6.546 -12.093  -5.971  1.00  0.00     0.039 C 
ATOM     16  C   UNL     1      -5.683 -11.977  -8.398  1.00  0.00     0.039 C 
BRANCH  13  17
ATOM     17  C   UNL     1      -5.387 -14.817  -5.703  1.00  0.00     0.066 CG0
ATOM     18  G   UNL     1      -4.853 -16.227  -5.850  1.00  0.00     0.000 G0
ENDBRANCH  13  17
ENDBRANCH  11  13
ENDBRANCH  10  11
ENDBRANCH   1  10
TORSDOF 0
ENDMDL
MODEL 6
REMARK VINA RESULT:    -2.692      1.470      3.193
REMARK INTER + INTRA:          -2.301
REMARK INTER:                  -3.457
REMARK INTRA:                   1.156
REMARK UNBOUND:                 1.492
REMARK SMILES CC1=CCC(=C(C)C)C(=O)CC(C)=CCC1
REMARK SMILES IDX 12 1 14 2 13 3 15 4 16 5 2 6 1 7 3 8 11 10 9 11 10 12 5 13
REMARK SMILES IDX 6 14 7 15 8 16 4 17
REMARK H PARENT
REMARK Flexibility Score: 60.00
ROOT
ATOM      1  C   UNL     1      -4.384 -16.260  -6.780  1.00  0.00    -0.070 C 
ATOM      2  C   UNL     1      -4.279 -16.365  -8.123  1.00  0.00    -0.027 C 
ATOM      3  C   UNL     1      -3.996 -17.455  -5.946  1.00  0.00     0.039 C 
ENDROOT
BRANCH   2   4
ATOM      4  C   UNL     1      -4.525 -15.252  -9.118  1.00  0.00     0.032 C 
BRANCH   4   5
ATOM      5  C   UNL     1      -3.560 -14.054  -9.003  1.00  0.00     0.034 C 
BRANCH   5   6
ATOM      6  C   UNL     1      -4.195 -12.835  -8.359  1.00  0.00    -0.077 C 
ATOM      7  C   UNL     1      -5.490 -12.328  -8.945  1.00  0.00     0.039 C 
ATOM      8  C   UNL     1      -3.714 -12.216  -7.254  1.00  0.00    -0.023 CG0
ATOM      9  G   UNL     1      -2.431 -12.535  -6.512  1.00  0.00     0.000 G0
ENDBRANCH   5   6
ENDBRANCH   4   5
ENDBRANCH   2   4
BRANCH   1  10
ATOM     10  C   UNL     1      -4.781 -14.979  -6.074  1.00  0.00     0.111 C 
BRANCH  10  11
ATOM     11  C   UNL     1      -3.640 -14.412  -5.271  1.00  0.00     0.163 C 
ATOM     12  O   UNL     1      -3.741 -14.414  -4.014  1.00  0.00    -0.294 OA
BRANCH  11  13
ATOM     13  C   UNL     1      -2.385 -13.911  -5.904  1.00  0.00    -0.002 C 
ATOM     14  C   UNL     1      -1.283 -14.715  -6.002  1.00  0.00    -0.069 C 
ATOM     15  C   UNL     1      -0.052 -14.295  -6.776  1.00  0.00     0.039 C 
ATOM     16  C   UNL     1      -1.242 -16.074  -5.339  1.00  0.00     0.039 C 
BRANCH  13  17
ATOM     17  C   UNL     1      -2.420 -12.518  -6.512  1.00  0.00     0.066 CG0
ATOM     18  G   UNL     1      -3.726 -12.234  -7.227  1.00  0.00     0.000 G0
ENDBRANCH  13  17
ENDBRANCH  11  13
ENDBRANCH  10  11
ENDBRANCH   1  10
TORSDOF 0
ENDMDL
MODEL 7
REMARK VINA RESULT:    -2.177      1.636      3.469
REMARK INTER + INTRA:          -1.576
REMARK INTER:                  -2.667
REMARK INTRA:                   1.091
REMARK UNBOUND:                 1.492
REMARK SMILES CC1=CCC(=C(C)C)C(=O)CC(C)=CCC1
REMARK SMILES IDX 12 1 14 2 13 3 15 4 16 5 2 6 1 7 3 8 11 10 9 11 10 12 5 13
REMARK SMILES IDX 6 14 7 15 8 16 4 17
REMARK H PARENT
REMARK Flexibility Score: 60.00
ROOT
ATOM      1  C   UNL     1      -5.150 -13.977  -8.651  1.00  0.00    -0.070 C 
ATOM      2  C   UNL     1      -4.005 -13.439  -9.125  1.00  0.00    -0.027 C 
ATOM      3  C   UNL     1      -6.437 -13.235  -8.909  1.00  0.00     0.039 C 
ENDROOT
BRANCH   2   4
ATOM      4  C   UNL     1      -2.633 -14.075  -9.054  1.00  0.00     0.032 C 
BRANCH   4   5
ATOM      5  C   UNL     1      -1.880 -13.846  -7.727  1.00  0.00     0.034 C 
BRANCH   5   6
ATOM      6  C   UNL     1      -2.565 -12.842  -6.818  1.00  0.00    -0.077 C 
ATOM      7  C   UNL     1      -2.678 -11.419  -7.304  1.00  0.00     0.039 C 
ATOM      8  C   UNL     1      -3.142 -13.155  -5.631  1.00  0.00    -0.023 CG0
ATOM      9  G   UNL     1      -3.137 -14.503  -4.939  1.00  0.00     0.000 G0
ENDBRANCH   5   6
ENDBRANCH   4   5
ENDBRANCH   2   4
BRANCH   1  10
ATOM     10  C   UNL     1      -5.212 -15.325  -7.963  1.00  0.00     0.111 C 
BRANCH  10  11
ATOM     11  C   UNL     1      -5.086 -15.192  -6.468  1.00  0.00     0.163 C 
ATOM     12  O   UNL     1      -6.089 -14.785  -5.822  1.00  0.00    -0.294 OA
BRANCH  11  13
ATOM     13  C   UNL     1      -3.848 -15.581  -5.731  1.00  0.00    -0.002 C 
ATOM     14  C   UNL     1      -3.330 -16.841  -5.851  1.00  0.00    -0.069 C 
ATOM     15  C   UNL     1      -1.995 -17.218  -5.246  1.00  0.00     0.039 C 
ATOM     16  C   UNL     1      -4.070 -17.925  -6.602  1.00  0.00     0.039 C 
BRANCH  13  17
ATOM     17  C   UNL     1      -3.147 -14.497  -4.928  1.00  0.00     0.066 CG0
ATOM     18  G   UNL     1      -3.137 -13.163  -5.647  1.00  0.00     0.000 G0
ENDBRANCH  13  17
ENDBRANCH  11  13
ENDBRANCH  10  11
ENDBRANCH   1  10
TORSDOF 0
ENDMDL
MODEL 8
REMARK VINA RESULT:    -2.041      1.473      3.278
REMARK INTER + INTRA:          -1.385
REMARK INTER:                  -2.613
REMARK INTRA:                   1.228
REMARK UNBOUND:                 1.492
REMARK SMILES CC1=CCC(=C(C)C)C(=O)CC(C)=CCC1
REMARK SMILES IDX 12 1 14 2 13 3 15 4 16 5 2 6 1 7 3 8 11 10 9 11 10 12 5 13
REMARK SMILES IDX 6 14 7 15 8 16 4 17
REMARK H PARENT
REMARK Flexibility Score: 60.00
ROOT
ATOM      1  C   UNL     1      -3.558 -14.887  -5.509  1.00  0.00    -0.070 C 
ATOM      2  C   UNL     1      -2.956 -15.380  -6.612  1.00  0.00    -0.027 C 
ATOM      3  C   UNL     1      -3.966 -15.860  -4.432  1.00  0.00     0.039 C 
ENDROOT
BRANCH   2   4
ATOM      4  C   UNL     1      -2.389 -14.561  -7.752  1.00  0.00     0.032 C 
BRANCH   4   5
ATOM      5  C   UNL     1      -3.126 -14.726  -9.097  1.00  0.00     0.034 C 
BRANCH   5   6
ATOM      6  C   UNL     1      -4.577 -15.140  -8.937  1.00  0.00    -0.077 C 
ATOM      7  C   UNL     1      -4.895 -16.614  -8.989  1.00  0.00     0.039 C 
ATOM      8  C   UNL     1      -5.593 -14.281  -8.681  1.00  0.00    -0.023 CG0
ATOM      9  G   UNL     1      -5.515 -12.769  -8.603  1.00  0.00     0.000 G0
ENDBRANCH   5   6
ENDBRANCH   4   5
ENDBRANCH   2   4
BRANCH   1  10
ATOM     10  C   UNL     1      -3.756 -13.405  -5.262  1.00  0.00     0.111 C 
BRANCH  10  11
ATOM     11  C   UNL     1      -4.858 -12.841  -6.120  1.00  0.00     0.163 C 
ATOM     12  O   UNL     1      -6.021 -12.789  -5.634  1.00  0.00    -0.294 OA
BRANCH  11  13
ATOM     13  C   UNL     1      -4.609 -12.292  -7.485  1.00  0.00    -0.002 C 
ATOM     14  C   UNL     1      -3.539 -11.476  -7.725  1.00  0.00    -0.069 C 
ATOM     15  C   UNL     1      -3.169 -11.031  -9.124  1.00  0.00     0.039 C 
ATOM     16  C   UNL     1      -2.665 -10.975  -6.596  1.00  0.00     0.039 C 
BRANCH  13  17
ATOM     17  C   UNL     1      -5.534 -12.753  -8.600  1.00  0.00     0.066 CG0
ATOM     18  G   UNL     1      -5.604 -14.264  -8.702  1.00  0.00     0.000 G0
ENDBRANCH  13  17
ENDBRANCH  11  13
ENDBRANCH  10  11
ENDBRANCH   1  10
TORSDOF 0
ENDMDL
MODEL 9
REMARK VINA RESULT:    -1.706      2.214      5.075
REMARK INTER + INTRA:          -0.912
REMARK INTER:                  -2.160
REMARK INTRA:                   1.248
REMARK UNBOUND:                 1.492
REMARK SMILES CC1=CCC(=C(C)C)C(=O)CC(C)=CCC1
REMARK SMILES IDX 12 1 14 2 13 3 15 4 16 5 2 6 1 7 3 8 11 10 9 11 10 12 5 13
REMARK SMILES IDX 6 14 7 15 8 16 4 17
REMARK H PARENT
REMARK Flexibility Score: 60.00
ROOT
ATOM      1  C   UNL     1      -4.300 -13.216  -8.343  1.00  0.00    -0.070 C 
ATOM      2  C   UNL     1      -5.428 -13.727  -7.803  1.00  0.00    -0.027 C 
ATOM      3  C   UNL     1      -4.408 -11.922  -9.110  1.00  0.00     0.039 C 
ENDROOT
BRANCH   2   4
ATOM      4  C   UNL     1      -5.509 -14.954  -6.921  1.00  0.00     0.032 C 
BRANCH   4   5
ATOM      5  C   UNL     1      -4.528 -16.086  -7.295  1.00  0.00     0.034 C 
BRANCH   5   6
ATOM      6  C   UNL     1      -4.091 -16.915  -6.102  1.00  0.00    -0.077 C 
ATOM      7  C   UNL     1      -4.408 -18.390  -6.119  1.00  0.00     0.039 C 
ATOM      8  C   UNL     1      -3.374 -16.432  -5.057  1.00  0.00    -0.023 CG0
ATOM      9  G   UNL     1      -2.961 -14.994  -4.818  1.00  0.00     0.000 G0
ENDBRANCH   5   6
ENDBRANCH   4   5
ENDBRANCH   2   4
BRANCH   1  10
ATOM     10  C   UNL     1      -2.929 -13.826  -8.136  1.00  0.00     0.111 C 
BRANCH  10  11
ATOM     11  C   UNL     1      -2.357 -13.465  -6.790  1.00  0.00     0.163 C 
ATOM     12  O   UNL     1      -2.295 -12.244  -6.481  1.00  0.00    -0.294 OA
BRANCH  11  13
ATOM     13  C   UNL     1      -1.926 -14.494  -5.800  1.00  0.00    -0.002 C 
ATOM     14  C   UNL     1      -0.622 -14.900  -5.737  1.00  0.00    -0.069 C 
ATOM     15  C   UNL     1      -0.122 -15.821  -4.645  1.00  0.00     0.039 C 
ATOM     16  C   UNL     1       0.393 -14.442  -6.761  1.00  0.00     0.039 C 
BRANCH  13  17
ATOM     17  C   UNL     1      -2.971 -14.993  -4.815  1.00  0.00     0.066 CG0
ATOM     18  G   UNL     1      -3.366 -16.433  -5.075  1.00  0.00     0.000 G0
ENDBRANCH  13  17
ENDBRANCH  11  13
ENDBRANCH  10  11
ENDBRANCH   1  10
TORSDOF 0
ENDMDL
