MODEL 1
REMARK VINA RESULT:    -2.978      0.000      0.000
REMARK INTER + INTRA:          -3.809
REMARK INTER:                  -4.544
REMARK INTRA:                   0.735
REMARK UNBOUND:                 0.735
REMARK SMILES CC1=CCC[C@@H](C)C(=O)C[C@@H](C(C)C)C(=O)C1
REMARK SMILES IDX 8 1 9 2 6 3 7 4 5 5 4 6 3 7 2 8 1 9 10 11 11 12 15 13 16 14
REMARK SMILES IDX 17 15 12 17 13 18 14 19
REMARK H PARENT
REMARK Flexibility Score: 70.00
ROOT
ATOM      1  C   UNL     1      -2.365 -12.911  -8.163  1.00  0.00     0.136 C 
ATOM      2  O   UNL     1      -2.096 -13.635  -9.111  1.00  0.00    -0.299 OA
ENDROOT
BRANCH   1   3
ATOM      3  C   UNL     1      -2.597 -11.433  -8.415  1.00  0.00     0.053 C 
ATOM      4  C   UNL     1      -2.439 -10.630  -7.118  1.00  0.00     0.016 C 
BRANCH   3   5
ATOM      5  C   UNL     1      -3.971 -11.176  -9.062  1.00  0.00     0.015 C 
BRANCH   5   6
ATOM      6  C   UNL     1      -5.129 -11.666  -8.175  1.00  0.00     0.028 C 
BRANCH   6   7
ATOM      7  C   UNL     1      -5.878 -12.786  -8.849  1.00  0.00    -0.028 C 
ATOM      8  C   UNL     1      -5.982 -14.043  -8.359  1.00  0.00    -0.070 CG0
ATOM      9  C   UNL     1      -6.826 -15.032  -9.121  1.00  0.00     0.039 C 
ATOM     10  G   UNL     1      -5.273 -14.498  -7.092  1.00  0.00     0.000 G0
ENDBRANCH   6   7
ENDBRANCH   5   6
ENDBRANCH   3   5
ENDBRANCH   1   3
BRANCH   1  11
ATOM     11  C   UNL     1      -2.425 -13.521  -6.779  1.00  0.00     0.087 C 
BRANCH  11  12
ATOM     12  C   UNL     1      -2.683 -15.052  -6.821  1.00  0.00     0.066 C 
BRANCH  12  13
ATOM     13  C   UNL     1      -4.048 -15.371  -7.417  1.00  0.00     0.140 C 
ATOM     14  O   UNL     1      -4.167 -16.302  -8.200  1.00  0.00    -0.299 OA
BRANCH  13  15
ATOM     15  C   UNL     1      -5.251 -14.514  -7.108  1.00  0.00     0.106 CG0
ATOM     16  G   UNL     1      -5.969 -14.052  -8.368  1.00  0.00     0.000 G0
ENDBRANCH  13  15
ENDBRANCH  12  13
BRANCH  12  17
ATOM     17  C   UNL     1      -2.478 -15.713  -5.423  1.00  0.00    -0.006 C 
ATOM     18  C   UNL     1      -2.746 -14.768  -4.236  1.00  0.00     0.008 C 
ATOM     19  C   UNL     1      -3.313 -16.994  -5.276  1.00  0.00     0.008 C 
ENDBRANCH  12  17
ENDBRANCH  11  12
ENDBRANCH   1  11
TORSDOF 1
ENDMDL
MODEL 2
REMARK VINA RESULT:    -2.750      1.809      3.370
REMARK INTER + INTRA:          -3.462
REMARK INTER:                  -3.341
REMARK INTRA:                  -0.121
REMARK UNBOUND:                 0.735
REMARK SMILES CC1=CCC[C@@H](C)C(=O)C[C@@H](C(C)C)C(=O)C1
REMARK SMILES IDX 8 1 9 2 6 3 7 4 5 5 4 6 3 7 2 8 1 9 10 11 11 12 15 13 16 14
REMARK SMILES IDX 17 15 12 17 13 18 14 19
REMARK H PARENT
REMARK Flexibility Score: 70.00
ROOT
ATOM      1  C   UNL     1      -5.561 -14.398  -6.386  1.00  0.00     0.136 C 
ATOM      2  O   UNL     1      -6.308 -15.106  -5.726  1.00  0.00    -0.299 OA
ENDROOT
BRANCH   1   3
ATOM      3  C   UNL     1      -5.747 -12.893  -6.334  1.00  0.00     0.053 C 
ATOM      4  C   UNL     1      -6.411 -12.472  -5.017  1.00  0.00     0.016 C 
BRANCH   3   5
ATOM      5  C   UNL     1      -6.544 -12.377  -7.547  1.00  0.00     0.015 C 
BRANCH   5   6
ATOM      6  C   UNL     1      -5.715 -12.418  -8.843  1.00  0.00     0.028 C 
BRANCH   6   7
ATOM      7  C   UNL     1      -4.482 -11.561  -8.713  1.00  0.00    -0.028 C 
ATOM      8  C   UNL     1      -3.216 -12.011  -8.875  1.00  0.00    -0.070 CG0
ATOM      9  C   UNL     1      -2.093 -11.010  -8.780  1.00  0.00     0.039 C 
ATOM     10  G   UNL     1      -2.883 -13.474  -9.129  1.00  0.00     0.000 G0
ENDBRANCH   6   7
ENDBRANCH   5   6
ENDBRANCH   3   5
ENDBRANCH   1   3
BRANCH   1  11
ATOM     11  C   UNL     1      -4.505 -15.059  -7.245  1.00  0.00     0.087 C 
BRANCH  11  12
ATOM     12  C   UNL     1      -3.065 -14.703  -6.785  1.00  0.00     0.066 C 
BRANCH  12  13
ATOM     13  C   UNL     1      -2.228 -14.168  -7.939  1.00  0.00     0.140 C 
ATOM     14  O   UNL     1      -1.008 -14.234  -7.888  1.00  0.00    -0.299 OA
BRANCH  13  15
ATOM     15  C   UNL     1      -2.877 -13.495  -9.124  1.00  0.00     0.106 CG0
ATOM     16  G   UNL     1      -3.189 -12.030  -8.855  1.00  0.00     0.000 G0
ENDBRANCH  13  15
ENDBRANCH  12  13
BRANCH  12  17
ATOM     17  C   UNL     1      -2.376 -15.900  -6.058  1.00  0.00    -0.006 C 
ATOM     18  C   UNL     1      -2.073 -15.641  -4.571  1.00  0.00     0.008 C 
ATOM     19  C   UNL     1      -3.184 -17.197  -6.215  1.00  0.00     0.008 C 
ENDBRANCH  12  17
ENDBRANCH  11  12
ENDBRANCH   1  11
TORSDOF 1
ENDMDL
MODEL 3
REMARK VINA RESULT:    -2.554      1.561      2.258
REMARK INTER + INTRA:          -3.163
REMARK INTER:                  -4.524
REMARK INTRA:                   1.361
REMARK UNBOUND:                 0.735
REMARK SMILES CC1=CCC[C@@H](C)C(=O)C[C@@H](C(C)C)C(=O)C1
REMARK SMILES IDX 8 1 9 2 6 3 7 4 5 5 4 6 3 7 2 8 1 9 10 11 11 12 15 13 16 14
REMARK SMILES IDX 17 15 12 17 13 18 14 19
REMARK H PARENT
REMARK Flexibility Score: 70.00
ROOT
ATOM      1  C   UNL     1      -2.375 -13.268  -6.883  1.00  0.00     0.136 C 
ATOM      2  O   UNL     1      -1.999 -12.177  -6.479  1.00  0.00    -0.299 OA
ENDROOT
BRANCH   1   3
ATOM      3  C   UNL     1      -2.717 -13.426  -8.353  1.00  0.00     0.053 C 
ATOM      4  C   UNL     1      -1.536 -14.029  -9.123  1.00  0.00     0.016 C 
BRANCH   3   5
ATOM      5  C   UNL     1      -3.164 -12.092  -8.979  1.00  0.00     0.015 C 
BRANCH   5   6
ATOM      6  C   UNL     1      -4.693 -12.005  -9.123  1.00  0.00     0.028 C 
BRANCH   6   7
ATOM      7  C   UNL     1      -5.349 -11.898  -7.770  1.00  0.00    -0.028 C 
ATOM      8  C   UNL     1      -5.684 -12.955  -6.994  1.00  0.00    -0.070 CG0
ATOM      9  C   UNL     1      -6.272 -12.676  -5.634  1.00  0.00     0.039 C 
ATOM     10  G   UNL     1      -5.507 -14.398  -7.441  1.00  0.00     0.000 G0
ENDBRANCH   6   7
ENDBRANCH   5   6
ENDBRANCH   3   5
ENDBRANCH   1   3
BRANCH   1  11
ATOM     11  C   UNL     1      -2.507 -14.403  -5.890  1.00  0.00     0.087 C 
BRANCH  11  12
ATOM     12  C   UNL     1      -3.364 -15.573  -6.444  1.00  0.00     0.066 C 
BRANCH  12  13
ATOM     13  C   UNL     1      -4.852 -15.257  -6.373  1.00  0.00     0.140 C 
ATOM     14  O   UNL     1      -5.535 -15.738  -5.481  1.00  0.00    -0.299 OA
BRANCH  13  15
ATOM     15  C   UNL     1      -5.517 -14.405  -7.428  1.00  0.00     0.106 CG0
ATOM     16  G   UNL     1      -5.647 -12.952  -6.997  1.00  0.00     0.000 G0
ENDBRANCH  13  15
ENDBRANCH  12  13
BRANCH  12  17
ATOM     17  C   UNL     1      -3.013 -16.927  -5.752  1.00  0.00    -0.006 C 
ATOM     18  C   UNL     1      -3.754 -18.143  -6.338  1.00  0.00     0.008 C 
ATOM     19  C   UNL     1      -1.498 -17.183  -5.748  1.00  0.00     0.008 C 
ENDBRANCH  12  17
ENDBRANCH  11  12
ENDBRANCH   1  11
TORSDOF 1
ENDMDL
MODEL 4
REMARK VINA RESULT:    -2.537      1.783      3.251
REMARK INTER + INTRA:          -3.137
REMARK INTER:                  -4.012
REMARK INTRA:                   0.875
REMARK UNBOUND:                 0.735
REMARK SMILES CC1=CCC[C@@H](C)C(=O)C[C@@H](C(C)C)C(=O)C1
REMARK SMILES IDX 8 1 9 2 6 3 7 4 5 5 4 6 3 7 2 8 1 9 10 11 11 12 15 13 16 14
REMARK SMILES IDX 17 15 12 17 13 18 14 19
REMARK H PARENT
REMARK Flexibility Score: 70.00
ROOT
ATOM      1  C   UNL     1      -5.665 -13.698  -7.998  1.00  0.00     0.136 C 
ATOM      2  O   UNL     1      -6.355 -13.903  -8.986  1.00  0.00    -0.299 OA
ENDROOT
BRANCH   1   3
ATOM      3  C   UNL     1      -5.066 -12.318  -7.799  1.00  0.00     0.053 C 
ATOM      4  C   UNL     1      -6.077 -11.379  -7.130  1.00  0.00     0.016 C 
BRANCH   3   5
ATOM      5  C   UNL     1      -4.551 -11.725  -9.123  1.00  0.00     0.015 C 
BRANCH   5   6
ATOM      6  C   UNL     1      -3.026 -11.516  -9.108  1.00  0.00     0.028 C 
BRANCH   6   7
ATOM      7  C   UNL     1      -2.451 -11.895  -7.768  1.00  0.00    -0.028 C 
ATOM      8  C   UNL     1      -1.932 -13.110  -7.472  1.00  0.00    -0.070 CG0
ATOM      9  C   UNL     1      -1.332 -13.309  -6.103  1.00  0.00     0.039 C 
ATOM     10  G   UNL     1      -1.945 -14.276  -8.450  1.00  0.00     0.000 G0
ENDBRANCH   6   7
ENDBRANCH   5   6
ENDBRANCH   3   5
ENDBRANCH   1   3
BRANCH   1  11
ATOM     11  C   UNL     1      -5.419 -14.839  -7.035  1.00  0.00     0.087 C 
BRANCH  11  12
ATOM     12  C   UNL     1      -3.908 -15.156  -6.872  1.00  0.00     0.066 C 
BRANCH  12  13
ATOM     13  C   UNL     1      -3.187 -15.141  -8.213  1.00  0.00     0.140 C 
ATOM     14  O   UNL     1      -3.560 -15.881  -9.112  1.00  0.00    -0.299 OA
BRANCH  13  15
ATOM     15  C   UNL     1      -1.972 -14.273  -8.434  1.00  0.00     0.106 CG0
ATOM     16  G   UNL     1      -1.919 -13.101  -7.466  1.00  0.00     0.000 G0
ENDBRANCH  13  15
ENDBRANCH  12  13
BRANCH  12  17
ATOM     17  C   UNL     1      -3.676 -16.486  -6.089  1.00  0.00    -0.006 C 
ATOM     18  C   UNL     1      -2.194 -16.808  -5.825  1.00  0.00     0.008 C 
ATOM     19  C   UNL     1      -4.464 -16.509  -4.770  1.00  0.00     0.008 C 
ENDBRANCH  12  17
ENDBRANCH  11  12
ENDBRANCH   1  11
TORSDOF 1
ENDMDL
MODEL 5
REMARK VINA RESULT:    -1.782      1.690      4.649
REMARK INTER + INTRA:          -1.984
REMARK INTER:                  -3.279
REMARK INTRA:                   1.296
REMARK UNBOUND:                 0.735
REMARK SMILES CC1=CCC[C@@H](C)C(=O)C[C@@H](C(C)C)C(=O)C1
REMARK SMILES IDX 8 1 9 2 6 3 7 4 5 5 4 6 3 7 2 8 1 9 10 11 11 12 15 13 16 14
REMARK SMILES IDX 17 15 12 17 13 18 14 19
REMARK H PARENT
REMARK Flexibility Score: 70.00
ROOT
ATOM      1  C   UNL     1      -4.275 -15.785  -5.809  1.00  0.00     0.136 C 
ATOM      2  O   UNL     1      -5.041 -16.449  -5.126  1.00  0.00    -0.299 OA
ENDROOT
BRANCH   1   3
ATOM      3  C   UNL     1      -3.000 -16.433  -6.317  1.00  0.00     0.053 C 
ATOM      4  C   UNL     1      -2.848 -17.849  -5.749  1.00  0.00     0.016 C 
BRANCH   3   5
ATOM      5  C   UNL     1      -1.762 -15.573  -6.002  1.00  0.00     0.015 C 
BRANCH   5   6
ATOM      6  C   UNL     1      -1.236 -14.839  -7.248  1.00  0.00     0.028 C 
BRANCH   6   7
ATOM      7  C   UNL     1      -1.594 -13.376  -7.194  1.00  0.00    -0.028 C 
ATOM      8  C   UNL     1      -2.520 -12.783  -7.984  1.00  0.00    -0.070 CG0
ATOM      9  C   UNL     1      -2.811 -11.322  -7.758  1.00  0.00     0.039 C 
ATOM     10  G   UNL     1      -3.257 -13.522  -9.092  1.00  0.00     0.000 G0
ENDBRANCH   6   7
ENDBRANCH   5   6
ENDBRANCH   3   5
ENDBRANCH   1   3
BRANCH   1  11
ATOM     11  C   UNL     1      -4.622 -14.339  -6.091  1.00  0.00     0.087 C 
BRANCH  11  12
ATOM     12  C   UNL     1      -5.261 -14.150  -7.494  1.00  0.00     0.066 C 
BRANCH  12  13
ATOM     13  C   UNL     1      -4.287 -14.518  -8.605  1.00  0.00     0.140 C 
ATOM     14  O   UNL     1      -4.288 -15.651  -9.065  1.00  0.00    -0.299 OA
BRANCH  13  15
ATOM     15  C   UNL     1      -3.269 -13.523  -9.108  1.00  0.00     0.106 CG0
ATOM     16  G   UNL     1      -2.557 -12.803  -7.973  1.00  0.00     0.000 G0
ENDBRANCH  13  15
ENDBRANCH  12  13
BRANCH  12  17
ATOM     17  C   UNL     1      -5.851 -12.717  -7.674  1.00  0.00    -0.006 C 
ATOM     18  C   UNL     1      -6.963 -12.624  -8.735  1.00  0.00     0.008 C 
ATOM     19  C   UNL     1      -6.345 -12.138  -6.339  1.00  0.00     0.008 C 
ENDBRANCH  12  17
ENDBRANCH  11  12
ENDBRANCH   1  11
TORSDOF 1
ENDMDL
MODEL 6
REMARK VINA RESULT:    -0.763      1.643      4.216
REMARK INTER + INTRA:          -0.430
REMARK INTER:                  -1.564
REMARK INTRA:                   1.134
REMARK UNBOUND:                 0.735
REMARK SMILES CC1=CCC[C@@H](C)C(=O)C[C@@H](C(C)C)C(=O)C1
REMARK SMILES IDX 8 1 9 2 6 3 7 4 5 5 4 6 3 7 2 8 1 9 10 11 11 12 15 13 16 14
REMARK SMILES IDX 17 15 12 17 13 18 14 19
REMARK H PARENT
REMARK Flexibility Score: 70.00
ROOT
ATOM      1  C   UNL     1      -2.574 -14.779  -5.098  1.00  0.00     0.136 C 
ATOM      2  O   UNL     1      -1.514 -15.388  -5.078  1.00  0.00    -0.299 OA
ENDROOT
BRANCH   1   3
ATOM      3  C   UNL     1      -3.821 -15.465  -4.570  1.00  0.00     0.053 C 
ATOM      4  C   UNL     1      -3.823 -15.481  -3.036  1.00  0.00     0.016 C 
BRANCH   3   5
ATOM      5  C   UNL     1      -3.972 -16.887  -5.140  1.00  0.00     0.015 C 
BRANCH   5   6
ATOM      6  C   UNL     1      -3.747 -16.927  -6.661  1.00  0.00     0.028 C 
BRANCH   6   7
ATOM      7  C   UNL     1      -4.863 -16.217  -7.383  1.00  0.00    -0.028 C 
ATOM      8  C   UNL     1      -4.693 -15.417  -8.461  1.00  0.00    -0.070 CG0
ATOM      9  C   UNL     1      -5.922 -14.834  -9.111  1.00  0.00     0.039 C 
ATOM     10  G   UNL     1      -3.323 -15.072  -9.027  1.00  0.00     0.000 G0
ENDBRANCH   6   7
ENDBRANCH   5   6
ENDBRANCH   3   5
ENDBRANCH   1   3
BRANCH   1  11
ATOM     11  C   UNL     1      -2.597 -13.380  -5.676  1.00  0.00     0.087 C 
BRANCH  11  12
ATOM     12  C   UNL     1      -3.341 -13.318  -7.037  1.00  0.00     0.066 C 
BRANCH  12  13
ATOM     13  C   UNL     1      -2.601 -14.099  -8.114  1.00  0.00     0.140 C 
ATOM     14  O   UNL     1      -1.402 -13.924  -8.277  1.00  0.00    -0.299 OA
BRANCH  13  15
ATOM     15  C   UNL     1      -3.335 -15.044  -9.034  1.00  0.00     0.106 CG0
ATOM     16  G   UNL     1      -4.707 -15.422  -8.495  1.00  0.00     0.000 G0
ENDBRANCH  13  15
ENDBRANCH  12  13
BRANCH  12  17
ATOM     17  C   UNL     1      -3.637 -11.848  -7.469  1.00  0.00    -0.006 C 
ATOM     18  C   UNL     1      -2.847 -11.386  -8.706  1.00  0.00     0.008 C 
ATOM     19  C   UNL     1      -5.140 -11.615  -7.685  1.00  0.00     0.008 C 
ENDBRANCH  12  17
ENDBRANCH  11  12
ENDBRANCH   1  11
TORSDOF 1
ENDMDL
MODEL 7
REMARK VINA RESULT:    -0.533      1.796      4.066
REMARK INTER + INTRA:          -0.078
REMARK INTER:                  -2.547
REMARK INTRA:                   2.469
REMARK UNBOUND:                 0.735
REMARK SMILES CC1=CCC[C@@H](C)C(=O)C[C@@H](C(C)C)C(=O)C1
REMARK SMILES IDX 8 1 9 2 6 3 7 4 5 5 4 6 3 7 2 8 1 9 10 11 11 12 15 13 16 14
REMARK SMILES IDX 17 15 12 17 13 18 14 19
REMARK H PARENT
REMARK Flexibility Score: 70.00
ROOT
ATOM      1  C   UNL     1      -2.781 -12.666  -6.955  1.00  0.00     0.136 C 
ATOM      2  O   UNL     1      -2.870 -11.507  -7.331  1.00  0.00    -0.299 OA
ENDROOT
BRANCH   1   3
ATOM      3  C   UNL     1      -1.744 -13.567  -7.601  1.00  0.00     0.053 C 
ATOM      4  C   UNL     1      -1.605 -13.249  -9.095  1.00  0.00     0.016 C 
BRANCH   3   5
ATOM      5  C   UNL     1      -2.067 -15.056  -7.379  1.00  0.00     0.015 C 
BRANCH   5   6
ATOM      6  C   UNL     1      -1.627 -15.541  -5.986  1.00  0.00     0.028 C 
BRANCH   6   7
ATOM      7  C   UNL     1      -2.424 -16.750  -5.568  1.00  0.00    -0.028 C 
ATOM      8  C   UNL     1      -3.658 -17.054  -6.033  1.00  0.00    -0.070 CG0
ATOM      9  C   UNL     1      -4.293 -18.339  -5.567  1.00  0.00     0.039 C 
ATOM     10  G   UNL     1      -4.429 -16.150  -6.985  1.00  0.00     0.000 G0
ENDBRANCH   6   7
ENDBRANCH   5   6
ENDBRANCH   3   5
ENDBRANCH   1   3
BRANCH   1  11
ATOM     11  C   UNL     1      -3.728 -13.156  -5.880  1.00  0.00     0.087 C 
BRANCH  11  12
ATOM     12  C   UNL     1      -5.083 -13.637  -6.465  1.00  0.00     0.066 C 
BRANCH  12  13
ATOM     13  C   UNL     1      -5.276 -15.135  -6.264  1.00  0.00     0.140 C 
ATOM     14  O   UNL     1      -6.105 -15.539  -5.461  1.00  0.00    -0.299 OA
BRANCH  13  15
ATOM     15  C   UNL     1      -4.414 -16.135  -6.995  1.00  0.00     0.106 CG0
ATOM     16  G   UNL     1      -3.664 -17.054  -6.041  1.00  0.00     0.000 G0
ENDBRANCH  13  15
ENDBRANCH  12  13
BRANCH  12  17
ATOM     17  C   UNL     1      -5.255 -13.213  -7.957  1.00  0.00    -0.006 C 
ATOM     18  C   UNL     1      -5.906 -14.289  -8.845  1.00  0.00     0.008 C 
ATOM     19  C   UNL     1      -6.024 -11.889  -8.082  1.00  0.00     0.008 C 
ENDBRANCH  12  17
ENDBRANCH  11  12
ENDBRANCH   1  11
TORSDOF 1
ENDMDL
MODEL 8
REMARK VINA RESULT:    -0.506      1.667      3.827
REMARK INTER + INTRA:          -0.037
REMARK INTER:                  -1.543
REMARK INTRA:                   1.506
REMARK UNBOUND:                 0.735
REMARK SMILES CC1=CCC[C@@H](C)C(=O)C[C@@H](C(C)C)C(=O)C1
REMARK SMILES IDX 8 1 9 2 6 3 7 4 5 5 4 6 3 7 2 8 1 9 10 11 11 12 15 13 16 14
REMARK SMILES IDX 17 15 12 17 13 18 14 19
REMARK H PARENT
REMARK Flexibility Score: 70.00
ROOT
ATOM      1  C   UNL     1      -2.860 -15.386  -5.325  1.00  0.00     0.136 C 
ATOM      2  O   UNL     1      -1.746 -15.889  -5.347  1.00  0.00    -0.299 OA
ENDROOT
BRANCH   1   3
ATOM      3  C   UNL     1      -4.074 -16.295  -5.377  1.00  0.00     0.053 C 
ATOM      4  C   UNL     1      -3.685 -17.693  -5.874  1.00  0.00     0.016 C 
BRANCH   3   5
ATOM      5  C   UNL     1      -5.199 -15.693  -6.239  1.00  0.00     0.015 C 
BRANCH   5   6
ATOM      6  C   UNL     1      -4.845 -15.697  -7.736  1.00  0.00     0.028 C 
BRANCH   6   7
ATOM      7  C   UNL     1      -5.670 -14.680  -8.481  1.00  0.00    -0.028 C 
ATOM      8  C   UNL     1      -5.716 -13.361  -8.180  1.00  0.00    -0.070 CG0
ATOM      9  C   UNL     1      -6.540 -12.462  -9.066  1.00  0.00     0.039 C 
ATOM     10  G   UNL     1      -4.992 -12.760  -6.984  1.00  0.00     0.000 G0
ENDBRANCH   6   7
ENDBRANCH   5   6
ENDBRANCH   3   5
ENDBRANCH   1   3
BRANCH   1  11
ATOM     11  C   UNL     1      -2.974 -13.878  -5.274  1.00  0.00     0.087 C 
BRANCH  11  12
ATOM     12  C   UNL     1      -2.458 -13.205  -6.575  1.00  0.00     0.066 C 
BRANCH  12  13
ATOM     13  C   UNL     1      -3.565 -12.431  -7.279  1.00  0.00     0.140 C 
ATOM     14  O   UNL     1      -3.280 -11.519  -8.042  1.00  0.00    -0.299 OA
BRANCH  13  15
ATOM     15  C   UNL     1      -5.019 -12.727  -7.002  1.00  0.00     0.106 CG0
ATOM     16  G   UNL     1      -5.712 -13.375  -8.191  1.00  0.00     0.000 G0
ENDBRANCH  13  15
ENDBRANCH  12  13
BRANCH  12  17
ATOM     17  C   UNL     1      -1.759 -14.230  -7.520  1.00  0.00    -0.006 C 
ATOM     18  C   UNL     1      -2.311 -14.237  -8.958  1.00  0.00     0.008 C 
ATOM     19  C   UNL     1      -0.236 -14.030  -7.542  1.00  0.00     0.008 C 
ENDBRANCH  12  17
ENDBRANCH  11  12
ENDBRANCH   1  11
TORSDOF 1
ENDMDL
MODEL 9
REMARK VINA RESULT:    -0.146      1.734      4.971
REMARK INTER + INTRA:           0.512
REMARK INTER:                  -2.048
REMARK INTRA:                   2.559
REMARK UNBOUND:                 0.735
REMARK SMILES CC1=CCC[C@@H](C)C(=O)C[C@@H](C(C)C)C(=O)C1
REMARK SMILES IDX 8 1 9 2 6 3 7 4 5 5 4 6 3 7 2 8 1 9 10 11 11 12 15 13 16 14
REMARK SMILES IDX 17 15 12 17 13 18 14 19
REMARK H PARENT
REMARK Flexibility Score: 70.00
ROOT
ATOM      1  C   UNL     1      -4.502 -15.500  -7.027  1.00  0.00     0.136 C 
ATOM      2  O   UNL     1      -5.508 -15.032  -6.514  1.00  0.00    -0.299 OA
ENDROOT
BRANCH   1   3
ATOM      3  C   UNL     1      -3.622 -16.420  -6.202  1.00  0.00     0.053 C 
ATOM      4  C   UNL     1      -4.183 -17.846  -6.194  1.00  0.00     0.016 C 
BRANCH   3   5
ATOM      5  C   UNL     1      -3.432 -15.890  -4.768  1.00  0.00     0.015 C 
BRANCH   5   6
ATOM      6  C   UNL     1      -2.250 -14.911  -4.665  1.00  0.00     0.028 C 
BRANCH   6   7
ATOM      7  C   UNL     1      -1.460 -14.894  -5.948  1.00  0.00    -0.028 C 
ATOM      8  C   UNL     1      -1.631 -13.992  -6.943  1.00  0.00    -0.070 CG0
ATOM      9  C   UNL     1      -0.712 -14.071  -8.135  1.00  0.00     0.039 C 
ATOM     10  G   UNL     1      -2.715 -12.925  -6.914  1.00  0.00     0.000 G0
ENDBRANCH   6   7
ENDBRANCH   5   6
ENDBRANCH   3   5
ENDBRANCH   1   3
BRANCH   1  11
ATOM     11  C   UNL     1      -4.169 -15.116  -8.453  1.00  0.00     0.087 C 
BRANCH  11  12
ATOM     12  C   UNL     1      -4.477 -13.623  -8.748  1.00  0.00     0.066 C 
BRANCH  12  13
ATOM     13  C   UNL     1      -3.355 -12.716  -8.261  1.00  0.00     0.140 C 
ATOM     14  O   UNL     1      -2.929 -11.830  -8.989  1.00  0.00    -0.299 OA
BRANCH  13  15
ATOM     15  C   UNL     1      -2.710 -12.931  -6.913  1.00  0.00     0.106 CG0
ATOM     16  G   UNL     1      -1.626 -13.998  -6.957  1.00  0.00     0.000 G0
ENDBRANCH  13  15
ENDBRANCH  12  13
BRANCH  12  17
ATOM     17  C   UNL     1      -5.869 -13.196  -8.187  1.00  0.00    -0.006 C 
ATOM     18  C   UNL     1      -5.982 -11.695  -7.863  1.00  0.00     0.008 C 
ATOM     19  C   UNL     1      -7.009 -13.621  -9.125  1.00  0.00     0.008 C 
ENDBRANCH  12  17
ENDBRANCH  11  12
ENDBRANCH   1  11
TORSDOF 1
ENDMDL
