MODEL 1
REMARK VINA RESULT:    -4.777      0.000      0.000
REMARK INTER + INTRA:          -6.484
REMARK INTER:                  -6.173
REMARK INTRA:                  -0.311
REMARK UNBOUND:                -0.311
REMARK SMILES CO[C@]1(CO)O[C@H](CO)[C@H](O)[C@@H]1O
REMARK SMILES IDX 3 1 12 2 10 3 7 4 6 5 2 6 1 7 4 8 5 9 13 11 11 13 8 15 9 16
REMARK H PARENT 5 10 13 12 11 14 9 17
REMARK Flexibility Score: inf
ROOT
ATOM      1  C   UNL     1      22.010   2.612  40.749  1.00  0.00     0.221 C 
ATOM      2  C   UNL     1      20.904   3.674  40.934  1.00  0.00     0.207 C 
ATOM      3  C   UNL     1      20.240   3.735  39.571  1.00  0.00     0.180 C 
ATOM      4  C   UNL     1      21.292   3.122  38.629  1.00  0.00     0.179 C 
ATOM      5  O   UNL     1      22.394   2.668  39.390  1.00  0.00    -0.337 OA
ENDROOT
BRANCH   1   6
ATOM      6  O   UNL     1      23.170   2.914  41.524  1.00  0.00    -0.349 OA
ATOM      7  C   UNL     1      24.205   3.529  40.778  1.00  0.00     0.198 C 
ENDBRANCH   1   6
BRANCH   1   8
ATOM      8  C   UNL     1      21.479   1.176  41.030  1.00  0.00     0.224 C 
BRANCH   8   9
ATOM      9  O   UNL     1      21.207   1.006  42.395  1.00  0.00    -0.391 OA
ATOM     10  H   UNL     1      20.962   0.053  42.521  1.00  0.00     0.210 HD
ENDBRANCH   8   9
ENDBRANCH   1   8
BRANCH   2  11
ATOM     11  O   UNL     1      21.431   4.925  41.313  1.00  0.00    -0.385 OA
ATOM     12  H   UNL     1      22.116   4.774  42.015  1.00  0.00     0.211 HD
ENDBRANCH   2  11
BRANCH   3  13
ATOM     13  O   UNL     1      19.875   5.045  39.215  1.00  0.00    -0.387 OA
ATOM     14  H   UNL     1      18.947   5.178  39.540  1.00  0.00     0.211 HD
ENDBRANCH   3  13
BRANCH   4  15
ATOM     15  C   UNL     1      21.790   4.060  37.519  1.00  0.00     0.191 C 
BRANCH  15  16
ATOM     16  O   UNL     1      22.673   5.015  38.038  1.00  0.00    -0.394 OA
ATOM     17  H   UNL     1      23.302   4.519  38.623  1.00  0.00     0.210 HD
ENDBRANCH  15  16
ENDBRANCH   4  15
TORSDOF 7
ENDMDL
MODEL 2
REMARK VINA RESULT:    -4.704      1.272      2.582
REMARK INTER + INTRA:          -6.389
REMARK INTER:                  -5.882
REMARK INTRA:                  -0.507
REMARK UNBOUND:                -0.311
REMARK SMILES CO[C@]1(CO)O[C@H](CO)[C@H](O)[C@@H]1O
REMARK SMILES IDX 3 1 12 2 10 3 7 4 6 5 2 6 1 7 4 8 5 9 13 11 11 13 8 15 9 16
REMARK H PARENT 5 10 13 12 11 14 9 17
REMARK Flexibility Score: inf
ROOT
ATOM      1  C   UNL     1      21.032   2.805  41.000  1.00  0.00     0.221 C 
ATOM      2  C   UNL     1      20.940   3.463  39.606  1.00  0.00     0.207 C 
ATOM      3  C   UNL     1      22.374   3.447  39.112  1.00  0.00     0.180 C 
ATOM      4  C   UNL     1      23.198   3.269  40.400  1.00  0.00     0.179 C 
ATOM      5  O   UNL     1      22.322   3.098  41.496  1.00  0.00    -0.337 OA
ENDROOT
BRANCH   1   6
ATOM      6  O   UNL     1      20.093   3.369  41.916  1.00  0.00    -0.349 OA
ATOM      7  C   UNL     1      20.688   3.877  43.096  1.00  0.00     0.198 C 
ENDBRANCH   1   6
BRANCH   1   8
ATOM      8  C   UNL     1      20.902   1.256  40.912  1.00  0.00     0.224 C 
BRANCH   8   9
ATOM      9  O   UNL     1      21.188   0.663  42.150  1.00  0.00    -0.391 OA
ATOM     10  H   UNL     1      21.673  -0.181  41.957  1.00  0.00     0.210 HD
ENDBRANCH   8   9
ENDBRANCH   1   8
BRANCH   2  11
ATOM     11  O   UNL     1      20.427   4.775  39.674  1.00  0.00    -0.385 OA
ATOM     12  H   UNL     1      21.192   5.407  39.688  1.00  0.00     0.211 HD
ENDBRANCH   2  11
BRANCH   3  13
ATOM     13  O   UNL     1      22.705   4.615  38.401  1.00  0.00    -0.387 OA
ATOM     14  H   UNL     1      23.048   5.264  39.069  1.00  0.00     0.211 HD
ENDBRANCH   3  13
BRANCH   4  15
ATOM     15  C   UNL     1      24.180   4.411  40.702  1.00  0.00     0.191 C 
BRANCH  15  16
ATOM     16  O   UNL     1      23.495   5.539  41.174  1.00  0.00    -0.394 OA
ATOM     17  H   UNL     1      24.154   6.062  41.699  1.00  0.00     0.210 HD
ENDBRANCH  15  16
ENDBRANCH   4  15
TORSDOF 7
ENDMDL
MODEL 3
REMARK VINA RESULT:    -4.611      1.428      4.045
REMARK INTER + INTRA:          -6.270
REMARK INTER:                  -5.933
REMARK INTRA:                  -0.337
REMARK UNBOUND:                -0.311
REMARK SMILES CO[C@]1(CO)O[C@H](CO)[C@H](O)[C@@H]1O
REMARK SMILES IDX 3 1 12 2 10 3 7 4 6 5 2 6 1 7 4 8 5 9 13 11 11 13 8 15 9 16
REMARK H PARENT 5 10 13 12 11 14 9 17
REMARK Flexibility Score: inf
ROOT
ATOM      1  C   UNL     1      21.391   3.619  39.518  1.00  0.00     0.221 C 
ATOM      2  C   UNL     1      21.306   4.355  40.874  1.00  0.00     0.207 C 
ATOM      3  C   UNL     1      21.746   3.303  41.876  1.00  0.00     0.180 C 
ATOM      4  C   UNL     1      21.555   1.979  41.116  1.00  0.00     0.179 C 
ATOM      5  O   UNL     1      21.149   2.253  39.789  1.00  0.00    -0.337 OA
ENDROOT
BRANCH   1   6
ATOM      6  O   UNL     1      20.375   4.054  38.615  1.00  0.00    -0.349 OA
ATOM      7  C   UNL     1      19.875   3.020  37.786  1.00  0.00     0.198 C 
ENDBRANCH   1   6
BRANCH   1   8
ATOM      8  C   UNL     1      22.813   3.730  38.894  1.00  0.00     0.224 C 
BRANCH   8   9
ATOM      9  O   UNL     1      22.880   4.811  38.003  1.00  0.00    -0.391 OA
ATOM     10  H   UNL     1      23.842   5.028  37.889  1.00  0.00     0.210 HD
ENDBRANCH   8   9
ENDBRANCH   1   8
BRANCH   2  11
ATOM     11  O   UNL     1      20.002   4.818  41.143  1.00  0.00    -0.385 OA
ATOM     12  H   UNL     1      19.625   4.272  41.881  1.00  0.00     0.211 HD
ENDBRANCH   2  11
BRANCH   3  13
ATOM     13  O   UNL     1      21.008   3.367  43.071  1.00  0.00    -0.387 OA
ATOM     14  H   UNL     1      20.702   2.442  43.263  1.00  0.00     0.211 HD
ENDBRANCH   3  13
BRANCH   4  15
ATOM     15  C   UNL     1      20.562   1.000  41.762  1.00  0.00     0.191 C 
BRANCH  15  16
ATOM     16  O   UNL     1      20.966   0.674  43.063  1.00  0.00    -0.394 OA
ATOM     17  H   UNL     1      21.514  -0.149  42.983  1.00  0.00     0.210 HD
ENDBRANCH  15  16
ENDBRANCH   4  15
TORSDOF 7
ENDMDL
MODEL 4
REMARK VINA RESULT:    -4.528      1.462      3.695
REMARK INTER + INTRA:          -6.162
REMARK INTER:                  -5.769
REMARK INTRA:                  -0.394
REMARK UNBOUND:                -0.311
REMARK SMILES CO[C@]1(CO)O[C@H](CO)[C@H](O)[C@@H]1O
REMARK SMILES IDX 3 1 12 2 10 3 7 4 6 5 2 6 1 7 4 8 5 9 13 11 11 13 8 15 9 16
REMARK H PARENT 5 10 13 12 11 14 9 17
REMARK Flexibility Score: inf
ROOT
ATOM      1  C   UNL     1      22.878   3.642  40.130  1.00  0.00     0.221 C 
ATOM      2  C   UNL     1      21.698   4.415  40.759  1.00  0.00     0.207 C 
ATOM      3  C   UNL     1      21.366   3.607  42.000  1.00  0.00     0.180 C 
ATOM      4  C   UNL     1      22.000   2.234  41.717  1.00  0.00     0.179 C 
ATOM      5  O   UNL     1      22.706   2.287  40.493  1.00  0.00    -0.337 OA
ENDROOT
BRANCH   1   6
ATOM      6  O   UNL     1      22.851   3.701  38.704  1.00  0.00    -0.349 OA
ATOM      7  C   UNL     1      22.839   2.427  38.086  1.00  0.00     0.198 C 
ENDBRANCH   1   6
BRANCH   1   8
ATOM      8  C   UNL     1      24.244   4.114  40.708  1.00  0.00     0.224 C 
BRANCH   8   9
ATOM      9  O   UNL     1      24.178   5.460  41.099  1.00  0.00    -0.391 OA
ATOM     10  H   UNL     1      24.246   5.473  42.089  1.00  0.00     0.210 HD
ENDBRANCH   8   9
ENDBRANCH   1   8
BRANCH   2  11
ATOM     11  O   UNL     1      20.596   4.500  39.883  1.00  0.00    -0.385 OA
ATOM     12  H   UNL     1      20.495   3.625  39.425  1.00  0.00     0.211 HD
ENDBRANCH   2  11
BRANCH   3  13
ATOM     13  O   UNL     1      19.981   3.539  42.235  1.00  0.00    -0.387 OA
ATOM     14  H   UNL     1      19.566   3.223  41.390  1.00  0.00     0.211 HD
ENDBRANCH   3  13
BRANCH   4  15
ATOM     15  C   UNL     1      21.011   1.059  41.687  1.00  0.00     0.191 C 
BRANCH  15  16
ATOM     16  O   UNL     1      20.717   0.627  42.987  1.00  0.00    -0.394 OA
ATOM     17  H   UNL     1      21.570   0.294  43.366  1.00  0.00     0.210 HD
ENDBRANCH  15  16
ENDBRANCH   4  15
TORSDOF 7
ENDMDL
MODEL 5
REMARK VINA RESULT:    -4.496      9.836     11.389
REMARK INTER + INTRA:          -6.120
REMARK INTER:                  -5.734
REMARK INTRA:                  -0.386
REMARK UNBOUND:                -0.311
REMARK SMILES CO[C@]1(CO)O[C@H](CO)[C@H](O)[C@@H]1O
REMARK SMILES IDX 3 1 12 2 10 3 7 4 6 5 2 6 1 7 4 8 5 9 13 11 11 13 8 15 9 16
REMARK H PARENT 5 10 13 12 11 14 9 17
REMARK Flexibility Score: inf
ROOT
ATOM      1  C   UNL     1      32.455   3.622  40.726  1.00  0.00     0.221 C 
ATOM      2  C   UNL     1      32.239   2.196  40.175  1.00  0.00     0.207 C 
ATOM      3  C   UNL     1      31.458   1.504  41.277  1.00  0.00     0.180 C 
ATOM      4  C   UNL     1      31.728   2.379  42.514  1.00  0.00     0.179 C 
ATOM      5  O   UNL     1      32.496   3.504  42.134  1.00  0.00    -0.337 OA
ENDROOT
BRANCH   1   6
ATOM      6  O   UNL     1      33.710   4.165  40.315  1.00  0.00    -0.349 OA
ATOM      7  C   UNL     1      34.546   4.538  41.395  1.00  0.00     0.198 C 
ENDBRANCH   1   6
BRANCH   1   8
ATOM      8  C   UNL     1      31.267   4.561  40.367  1.00  0.00     0.224 C 
BRANCH   8   9
ATOM      9  O   UNL     1      31.164   5.608  41.295  1.00  0.00    -0.391 OA
ATOM     10  H   UNL     1      31.003   6.437  40.773  1.00  0.00     0.210 HD
ENDBRANCH   8   9
ENDBRANCH   1   8
BRANCH   2  11
ATOM     11  O   UNL     1      33.459   1.541  39.911  1.00  0.00    -0.385 OA
ATOM     12  H   UNL     1      34.197   2.190  40.052  1.00  0.00     0.211 HD
ENDBRANCH   2  11
BRANCH   3  13
ATOM     13  O   UNL     1      31.853   0.166  41.449  1.00  0.00    -0.387 OA
ATOM     14  H   UNL     1      32.060   0.054  42.413  1.00  0.00     0.211 HD
ENDBRANCH   3  13
BRANCH   4  15
ATOM     15  C   UNL     1      32.423   1.656  43.678  1.00  0.00     0.191 C 
BRANCH  15  16
ATOM     16  O   UNL     1      31.652   0.572  44.118  1.00  0.00    -0.394 OA
ATOM     17  H   UNL     1      32.240   0.037  44.710  1.00  0.00     0.210 HD
ENDBRANCH  15  16
ENDBRANCH   4  15
TORSDOF 7
ENDMDL
MODEL 6
REMARK VINA RESULT:    -4.450     15.835     16.967
REMARK INTER + INTRA:          -6.062
REMARK INTER:                  -5.934
REMARK INTRA:                  -0.128
REMARK UNBOUND:                -0.311
REMARK SMILES CO[C@]1(CO)O[C@H](CO)[C@H](O)[C@@H]1O
REMARK SMILES IDX 3 1 12 2 10 3 7 4 6 5 2 6 1 7 4 8 5 9 13 11 11 13 8 15 9 16
REMARK H PARENT 5 10 13 12 11 14 9 17
REMARK Flexibility Score: inf
ROOT
ATOM      1  C   UNL     1      37.811   7.267  44.278  1.00  0.00     0.221 C 
ATOM      2  C   UNL     1      37.165   8.272  45.256  1.00  0.00     0.207 C 
ATOM      3  C   UNL     1      36.291   9.128  44.359  1.00  0.00     0.180 C 
ATOM      4  C   UNL     1      36.876   8.893  42.955  1.00  0.00     0.179 C 
ATOM      5  O   UNL     1      37.906   7.927  43.031  1.00  0.00    -0.337 OA
ENDROOT
BRANCH   1   6
ATOM      6  O   UNL     1      39.139   6.923  44.671  1.00  0.00    -0.349 OA
ATOM      7  C   UNL     1      39.419   5.538  44.572  1.00  0.00     0.198 C 
ENDBRANCH   1   6
BRANCH   1   8
ATOM      8  C   UNL     1      36.918   6.008  44.077  1.00  0.00     0.224 C 
BRANCH   8   9
ATOM      9  O   UNL     1      36.080   5.813  45.185  1.00  0.00    -0.391 OA
ATOM     10  H   UNL     1      35.278   5.330  44.854  1.00  0.00     0.210 HD
ENDBRANCH   8   9
ENDBRANCH   1   8
BRANCH   2  11
ATOM     11  O   UNL     1      38.130   9.044  45.934  1.00  0.00    -0.385 OA
ATOM     12  H   UNL     1      39.012   8.881  45.509  1.00  0.00     0.211 HD
ENDBRANCH   2  11
BRANCH   3  13
ATOM     13  O   UNL     1      36.300  10.481  44.742  1.00  0.00    -0.387 OA
ATOM     14  H   UNL     1      36.890  10.545  45.538  1.00  0.00     0.211 HD
ENDBRANCH   3  13
BRANCH   4  15
ATOM     15  C   UNL     1      37.409  10.154  42.257  1.00  0.00     0.191 C 
BRANCH  15  16
ATOM     16  O   UNL     1      37.898   9.844  40.982  1.00  0.00    -0.394 OA
ATOM     17  H   UNL     1      38.807   9.471  41.119  1.00  0.00     0.210 HD
ENDBRANCH  15  16
ENDBRANCH   4  15
TORSDOF 7
ENDMDL
MODEL 7
REMARK VINA RESULT:    -4.212     15.018     17.439
REMARK INTER + INTRA:          -5.754
REMARK INTER:                  -5.239
REMARK INTRA:                  -0.515
REMARK UNBOUND:                -0.311
REMARK SMILES CO[C@]1(CO)O[C@H](CO)[C@H](O)[C@@H]1O
REMARK SMILES IDX 3 1 12 2 10 3 7 4 6 5 2 6 1 7 4 8 5 9 13 11 11 13 8 15 9 16
REMARK H PARENT 5 10 13 12 11 14 9 17
REMARK Flexibility Score: inf
ROOT
ATOM      1  C   UNL     1      37.791   4.567  42.913  1.00  0.00     0.221 C 
ATOM      2  C   UNL     1      38.626   5.521  43.796  1.00  0.00     0.207 C 
ATOM      3  C   UNL     1      39.772   4.650  44.275  1.00  0.00     0.180 C 
ATOM      4  C   UNL     1      39.249   3.218  44.065  1.00  0.00     0.179 C 
ATOM      5  O   UNL     1      37.982   3.269  43.439  1.00  0.00    -0.337 OA
ENDROOT
BRANCH   1   6
ATOM      6  O   UNL     1      36.396   4.852  42.998  1.00  0.00    -0.349 OA
ATOM      7  C   UNL     1      35.619   3.754  43.442  1.00  0.00     0.198 C 
ENDBRANCH   1   6
BRANCH   1   8
ATOM      8  C   UNL     1      38.298   4.559  41.441  1.00  0.00     0.224 C 
BRANCH   8   9
ATOM      9  O   UNL     1      38.855   5.800  41.102  1.00  0.00    -0.391 OA
ATOM     10  H   UNL     1      38.261   6.201  40.414  1.00  0.00     0.210 HD
ENDBRANCH   8   9
ENDBRANCH   1   8
BRANCH   2  11
ATOM     11  O   UNL     1      37.876   6.035  44.874  1.00  0.00    -0.385 OA
ATOM     12  H   UNL     1      37.675   5.288  45.495  1.00  0.00     0.211 HD
ENDBRANCH   2  11
BRANCH   3  13
ATOM     13  O   UNL     1      40.124   4.920  45.609  1.00  0.00    -0.387 OA
ATOM     14  H   UNL     1      41.050   4.584  45.731  1.00  0.00     0.211 HD
ENDBRANCH   3  13
BRANCH   4  15
ATOM     15  C   UNL     1      39.153   2.371  45.344  1.00  0.00     0.191 C 
BRANCH  15  16
ATOM     16  O   UNL     1      37.995   2.693  46.064  1.00  0.00    -0.394 OA
ATOM     17  H   UNL     1      38.043   2.176  46.909  1.00  0.00     0.210 HD
ENDBRANCH  15  16
ENDBRANCH   4  15
TORSDOF 7
ENDMDL
MODEL 8
REMARK VINA RESULT:    -4.128     10.306     11.547
REMARK INTER + INTRA:          -5.646
REMARK INTER:                  -5.226
REMARK INTRA:                  -0.420
REMARK UNBOUND:                -0.311
REMARK SMILES CO[C@]1(CO)O[C@H](CO)[C@H](O)[C@@H]1O
REMARK SMILES IDX 3 1 12 2 10 3 7 4 6 5 2 6 1 7 4 8 5 9 13 11 11 13 8 15 9 16
REMARK H PARENT 5 10 13 12 11 14 9 17
REMARK Flexibility Score: inf
ROOT
ATOM      1  C   UNL     1      32.360   2.457  40.902  1.00  0.00     0.221 C 
ATOM      2  C   UNL     1      31.946   2.905  39.483  1.00  0.00     0.207 C 
ATOM      3  C   UNL     1      32.416   1.764  38.600  1.00  0.00     0.180 C 
ATOM      4  C   UNL     1      33.463   1.043  39.468  1.00  0.00     0.179 C 
ATOM      5  O   UNL     1      33.508   1.648  40.746  1.00  0.00    -0.337 OA
ENDROOT
BRANCH   1   6
ATOM      6  O   UNL     1      32.737   3.565  41.718  1.00  0.00    -0.349 OA
ATOM      7  C   UNL     1      34.061   3.479  42.214  1.00  0.00     0.198 C 
ENDBRANCH   1   6
BRANCH   1   8
ATOM      8  C   UNL     1      31.257   1.586  41.572  1.00  0.00     0.224 C 
BRANCH   8   9
ATOM      9  O   UNL     1      31.810   0.768  42.569  1.00  0.00    -0.391 OA
ATOM     10  H   UNL     1      32.196  -0.021  42.108  1.00  0.00     0.210 HD
ENDBRANCH   8   9
ENDBRANCH   1   8
BRANCH   2  11
ATOM     11  O   UNL     1      32.546   4.127  39.119  1.00  0.00    -0.385 OA
ATOM     12  H   UNL     1      32.063   4.860  39.581  1.00  0.00     0.211 HD
ENDBRANCH   2  11
BRANCH   3  13
ATOM     13  O   UNL     1      32.933   2.219  37.374  1.00  0.00    -0.387 OA
ATOM     14  H   UNL     1      33.770   2.709  37.585  1.00  0.00     0.211 HD
ENDBRANCH   3  13
BRANCH   4  15
ATOM     15  C   UNL     1      34.878   1.001  38.873  1.00  0.00     0.191 C 
BRANCH  15  16
ATOM     16  O   UNL     1      34.959   0.038  37.858  1.00  0.00    -0.394 OA
ATOM     17  H   UNL     1      34.271  -0.644  38.070  1.00  0.00     0.210 HD
ENDBRANCH  15  16
ENDBRANCH   4  15
TORSDOF 7
ENDMDL
