MODEL 1
REMARK VINA RESULT:    -4.830      0.000      0.000
REMARK INTER + INTRA:         -10.245
REMARK INTER:                  -8.501
REMARK INTRA:                  -1.744
REMARK UNBOUND:                -1.744
REMARK SMILES CCCCCCCCCCCCCCC(=O)[O-]
REMARK SMILES IDX 9 1 10 2 11 3 12 4 13 5 14 6 15 7 16 8 17 9 8 10 7 11 6 12
REMARK SMILES IDX 5 13 4 14 3 15 2 16 1 17
REMARK H PARENT
REMARK Flexibility Score: inf
ROOT
ATOM      1  C   UNL     1      13.598  21.006  29.111  1.00  0.00     0.000 C 
ENDROOT
BRANCH   1   2
ATOM      2  C   UNL     1      13.774  22.100  30.180  1.00  0.00     0.000 C 
BRANCH   2   3
ATOM      3  C   UNL     1      13.845  23.510  29.574  1.00  0.00     0.000 C 
BRANCH   3   4
ATOM      4  C   UNL     1      13.043  24.544  30.381  1.00  0.00     0.000 C 
BRANCH   4   5
ATOM      5  C   UNL     1      12.039  23.854  31.312  1.00  0.00     0.006 C 
BRANCH   5   6
ATOM      6  C   UNL     1      10.601  24.234  30.950  1.00  0.00     0.053 C 
BRANCH   6   7
ATOM      7  C   UNL     1       9.819  23.019  30.565  1.00  0.00     0.041 C 
ATOM      8  O   UNL     1      10.175  22.322  29.579  1.00  0.00    -0.550 OA
ATOM      9  O   UNL     1       8.723  22.629  31.325  1.00  0.00    -0.550 OA
ENDBRANCH   6   7
ENDBRANCH   5   6
ENDBRANCH   4   5
ENDBRANCH   3   4
ENDBRANCH   2   3
ENDBRANCH   1   2
BRANCH   1  10
ATOM     10  C   UNL     1      14.824  20.085  29.006  1.00  0.00     0.000 C 
BRANCH  10  11
ATOM     11  C   UNL     1      15.930  20.449  30.012  1.00  0.00    -0.000 C 
BRANCH  11  12
ATOM     12  C   UNL     1      17.205  20.972  29.329  1.00  0.00    -0.000 C 
BRANCH  12  13
ATOM     13  C   UNL     1      17.018  21.449  27.875  1.00  0.00    -0.000 C 
BRANCH  13  14
ATOM     14  C   UNL     1      16.907  22.973  27.691  1.00  0.00    -0.000 C 
BRANCH  14  15
ATOM     15  C   UNL     1      16.099  23.366  26.444  1.00  0.00    -0.000 C 
BRANCH  15  16
ATOM     16  C   UNL     1      15.542  22.144  25.695  1.00  0.00    -0.003 C 
ATOM     17  C   UNL     1      15.932  22.126  24.218  1.00  0.00     0.004 C 
ENDBRANCH  15  16
ENDBRANCH  14  15
ENDBRANCH  13  14
ENDBRANCH  12  13
ENDBRANCH  11  12
ENDBRANCH  10  11
ENDBRANCH   1  10
TORSDOF 13
ENDMDL
MODEL 2
REMARK VINA RESULT:    -4.764      1.628      2.676
REMARK INTER + INTRA:         -10.129
REMARK INTER:                  -8.334
REMARK INTRA:                  -1.795
REMARK UNBOUND:                -1.744
REMARK SMILES CCCCCCCCCCCCCCC(=O)[O-]
REMARK SMILES IDX 9 1 10 2 11 3 12 4 13 5 14 6 15 7 16 8 17 9 8 10 7 11 6 12
REMARK SMILES IDX 5 13 4 14 3 15 2 16 1 17
REMARK H PARENT
REMARK Flexibility Score: inf
ROOT
ATOM      1  C   UNL     1      14.062  20.296  28.549  1.00  0.00     0.000 C 
ENDROOT
BRANCH   1   2
ATOM      2  C   UNL     1      12.976  19.267  28.908  1.00  0.00     0.000 C 
BRANCH   2   3
ATOM      3  C   UNL     1      11.909  19.842  29.853  1.00  0.00     0.000 C 
BRANCH   3   4
ATOM      4  C   UNL     1      10.678  20.375  29.104  1.00  0.00     0.000 C 
BRANCH   4   5
ATOM      5  C   UNL     1      10.086  21.595  29.821  1.00  0.00     0.006 C 
BRANCH   5   6
ATOM      6  C   UNL     1      10.954  22.837  29.601  1.00  0.00     0.053 C 
BRANCH   6   7
ATOM      7  C   UNL     1      10.779  23.805  30.727  1.00  0.00     0.041 C 
ATOM      8  O   UNL     1       9.644  23.980  31.243  1.00  0.00    -0.550 OA
ATOM      9  O   UNL     1      11.880  24.481  31.240  1.00  0.00    -0.550 OA
ENDBRANCH   6   7
ENDBRANCH   5   6
ENDBRANCH   4   5
ENDBRANCH   3   4
ENDBRANCH   2   3
ENDBRANCH   1   2
BRANCH   1  10
ATOM     10  C   UNL     1      15.291  20.200  29.466  1.00  0.00     0.000 C 
BRANCH  10  11
ATOM     11  C   UNL     1      15.648  21.544  30.125  1.00  0.00    -0.000 C 
BRANCH  11  12
ATOM     12  C   UNL     1      14.494  22.561  30.063  1.00  0.00    -0.000 C 
BRANCH  12  13
ATOM     13  C   UNL     1      14.760  23.796  29.178  1.00  0.00    -0.000 C 
BRANCH  13  14
ATOM     14  C   UNL     1      16.104  23.789  28.426  1.00  0.00    -0.000 C 
BRANCH  14  15
ATOM     15  C   UNL     1      15.935  23.909  26.902  1.00  0.00    -0.000 C 
BRANCH  15  16
ATOM     16  C   UNL     1      15.697  22.549  26.228  1.00  0.00    -0.003 C 
ATOM     17  C   UNL     1      16.927  21.643  26.272  1.00  0.00     0.004 C 
ENDBRANCH  15  16
ENDBRANCH  14  15
ENDBRANCH  13  14
ENDBRANCH  12  13
ENDBRANCH  11  12
ENDBRANCH  10  11
ENDBRANCH   1  10
TORSDOF 13
ENDMDL
MODEL 3
REMARK VINA RESULT:    -4.748      1.409      2.739
REMARK INTER + INTRA:         -10.100
REMARK INTER:                  -8.488
REMARK INTRA:                  -1.612
REMARK UNBOUND:                -1.744
REMARK SMILES CCCCCCCCCCCCCCC(=O)[O-]
REMARK SMILES IDX 9 1 10 2 11 3 12 4 13 5 14 6 15 7 16 8 17 9 8 10 7 11 6 12
REMARK SMILES IDX 5 13 4 14 3 15 2 16 1 17
REMARK H PARENT
REMARK Flexibility Score: inf
ROOT
ATOM      1  C   UNL     1      14.354  23.819  29.723  1.00  0.00     0.000 C 
ENDROOT
BRANCH   1   2
ATOM      2  C   UNL     1      13.240  24.483  30.551  1.00  0.00     0.000 C 
BRANCH   2   3
ATOM      3  C   UNL     1      11.843  23.949  30.197  1.00  0.00     0.000 C 
BRANCH   3   4
ATOM      4  C   UNL     1      10.750  24.476  31.139  1.00  0.00     0.000 C 
BRANCH   4   5
ATOM      5  C   UNL     1       9.729  23.378  31.463  1.00  0.00     0.006 C 
BRANCH   5   6
ATOM      6  C   UNL     1      10.236  22.005  31.015  1.00  0.00     0.053 C 
BRANCH   6   7
ATOM      7  C   UNL     1       9.156  21.252  30.306  1.00  0.00     0.041 C 
ATOM      8  O   UNL     1       8.009  21.757  30.181  1.00  0.00    -0.550 OA
ATOM      9  O   UNL     1       9.428  20.012  29.741  1.00  0.00    -0.550 OA
ENDBRANCH   6   7
ENDBRANCH   5   6
ENDBRANCH   4   5
ENDBRANCH   3   4
ENDBRANCH   2   3
ENDBRANCH   1   2
BRANCH   1  10
ATOM     10  C   UNL     1      15.136  22.767  30.526  1.00  0.00     0.000 C 
BRANCH  10  11
ATOM     11  C   UNL     1      16.597  22.631  30.061  1.00  0.00    -0.000 C 
BRANCH  11  12
ATOM     12  C   UNL     1      16.783  22.987  28.576  1.00  0.00    -0.000 C 
BRANCH  12  13
ATOM     13  C   UNL     1      16.544  21.825  27.591  1.00  0.00    -0.000 C 
BRANCH  13  14
ATOM     14  C   UNL     1      15.548  22.121  26.454  1.00  0.00    -0.000 C 
BRANCH  14  15
ATOM     15  C   UNL     1      14.189  21.432  26.659  1.00  0.00    -0.000 C 
BRANCH  15  16
ATOM     16  C   UNL     1      14.153  20.567  27.929  1.00  0.00    -0.003 C 
ATOM     17  C   UNL     1      12.797  20.605  28.633  1.00  0.00     0.004 C 
ENDBRANCH  15  16
ENDBRANCH  14  15
ENDBRANCH  13  14
ENDBRANCH  12  13
ENDBRANCH  11  12
ENDBRANCH  10  11
ENDBRANCH   1  10
TORSDOF 13
ENDMDL
MODEL 4
REMARK VINA RESULT:    -4.735      3.095      6.111
REMARK INTER + INTRA:         -10.078
REMARK INTER:                  -8.293
REMARK INTRA:                  -1.785
REMARK UNBOUND:                -1.744
REMARK SMILES CCCCCCCCCCCCCCC(=O)[O-]
REMARK SMILES IDX 9 1 10 2 11 3 12 4 13 5 14 6 15 7 16 8 17 9 8 10 7 11 6 12
REMARK SMILES IDX 5 13 4 14 3 15 2 16 1 17
REMARK H PARENT
REMARK Flexibility Score: inf
ROOT
ATOM      1  C   UNL     1      11.886  20.997  28.726  1.00  0.00     0.000 C 
ENDROOT
BRANCH   1   2
ATOM      2  C   UNL     1      13.060  20.005  28.788  1.00  0.00     0.000 C 
BRANCH   2   3
ATOM      3  C   UNL     1      14.318  20.534  28.081  1.00  0.00     0.000 C 
BRANCH   3   4
ATOM      4  C   UNL     1      13.989  21.487  26.920  1.00  0.00     0.000 C 
BRANCH   4   5
ATOM      5  C   UNL     1      15.244  21.800  26.096  1.00  0.00     0.006 C 
BRANCH   5   6
ATOM      6  C   UNL     1      16.430  22.136  27.005  1.00  0.00     0.053 C 
BRANCH   6   7
ATOM      7  C   UNL     1      16.630  23.616  27.080  1.00  0.00     0.041 C 
ATOM      8  O   UNL     1      17.415  24.107  27.934  1.00  0.00    -0.550 OA
ATOM      9  O   UNL     1      15.987  24.452  26.175  1.00  0.00    -0.550 OA
ENDBRANCH   6   7
ENDBRANCH   5   6
ENDBRANCH   4   5
ENDBRANCH   3   4
ENDBRANCH   2   3
ENDBRANCH   1   2
BRANCH   1  10
ATOM     10  C   UNL     1      10.699  20.561  29.600  1.00  0.00     0.000 C 
BRANCH  10  11
ATOM     11  C   UNL     1       9.870  21.752  30.113  1.00  0.00    -0.000 C 
BRANCH  11  12
ATOM     12  C   UNL     1      10.387  22.302  31.454  1.00  0.00    -0.000 C 
BRANCH  12  13
ATOM     13  C   UNL     1      10.682  23.816  31.468  1.00  0.00    -0.000 C 
BRANCH  13  14
ATOM     14  C   UNL     1      11.591  24.319  30.331  1.00  0.00    -0.000 C 
BRANCH  14  15
ATOM     15  C   UNL     1      13.051  24.510  30.776  1.00  0.00    -0.000 C 
BRANCH  15  16
ATOM     16  C   UNL     1      14.053  23.917  29.772  1.00  0.00    -0.003 C 
ATOM     17  C   UNL     1      15.052  22.964  30.427  1.00  0.00     0.004 C 
ENDBRANCH  15  16
ENDBRANCH  14  15
ENDBRANCH  13  14
ENDBRANCH  12  13
ENDBRANCH  11  12
ENDBRANCH  10  11
ENDBRANCH   1  10
TORSDOF 13
ENDMDL
MODEL 5
REMARK VINA RESULT:    -4.674      2.939      6.128
REMARK INTER + INTRA:          -9.971
REMARK INTER:                  -8.105
REMARK INTRA:                  -1.866
REMARK UNBOUND:                -1.744
REMARK SMILES CCCCCCCCCCCCCCC(=O)[O-]
REMARK SMILES IDX 9 1 10 2 11 3 12 4 13 5 14 6 15 7 16 8 17 9 8 10 7 11 6 12
REMARK SMILES IDX 5 13 4 14 3 15 2 16 1 17
REMARK H PARENT
REMARK Flexibility Score: inf
ROOT
ATOM      1  C   UNL     1      11.519  24.242  30.060  1.00  0.00     0.000 C 
ENDROOT
BRANCH   1   2
ATOM      2  C   UNL     1      12.941  23.953  30.572  1.00  0.00     0.000 C 
BRANCH   2   3
ATOM      3  C   UNL     1      14.027  24.397  29.579  1.00  0.00     0.000 C 
BRANCH   3   4
ATOM      4  C   UNL     1      14.964  23.250  29.171  1.00  0.00     0.000 C 
BRANCH   4   5
ATOM      5  C   UNL     1      16.180  23.781  28.403  1.00  0.00     0.006 C 
BRANCH   5   6
ATOM      6  C   UNL     1      15.935  23.746  26.892  1.00  0.00     0.053 C 
BRANCH   6   7
ATOM      7  C   UNL     1      15.935  22.337  26.392  1.00  0.00     0.041 C 
ATOM      8  O   UNL     1      16.969  21.627  26.499  1.00  0.00    -0.550 OA
ATOM      9  O   UNL     1      14.778  21.791  25.851  1.00  0.00    -0.550 OA
ENDBRANCH   6   7
ENDBRANCH   5   6
ENDBRANCH   4   5
ENDBRANCH   3   4
ENDBRANCH   2   3
ENDBRANCH   1   2
BRANCH   1  10
ATOM     10  C   UNL     1      10.438  23.884  31.092  1.00  0.00     0.000 C 
BRANCH  10  11
ATOM     11  C   UNL     1      10.828  22.681  31.968  1.00  0.00    -0.000 C 
BRANCH  11  12
ATOM     12  C   UNL     1       9.823  21.520  31.866  1.00  0.00    -0.000 C 
BRANCH  12  13
ATOM     13  C   UNL     1       9.307  21.228  30.443  1.00  0.00    -0.000 C 
BRANCH  13  14
ATOM     14  C   UNL     1      10.173  20.261  29.615  1.00  0.00    -0.000 C 
BRANCH  14  15
ATOM     15  C   UNL     1      11.150  20.991  28.677  1.00  0.00    -0.000 C 
BRANCH  15  16
ATOM     16  C   UNL     1      12.584  20.450  28.786  1.00  0.00    -0.003 C 
ATOM     17  C   UNL     1      13.023  20.224  30.232  1.00  0.00     0.004 C 
ENDBRANCH  15  16
ENDBRANCH  14  15
ENDBRANCH  13  14
ENDBRANCH  12  13
ENDBRANCH  11  12
ENDBRANCH  10  11
ENDBRANCH   1  10
TORSDOF 13
ENDMDL
MODEL 6
REMARK VINA RESULT:    -4.600     22.481     24.453
REMARK INTER + INTRA:          -9.840
REMARK INTER:                  -7.627
REMARK INTRA:                  -2.213
REMARK UNBOUND:                -1.744
REMARK SMILES CCCCCCCCCCCCCCC(=O)[O-]
REMARK SMILES IDX 9 1 10 2 11 3 12 4 13 5 14 6 15 7 16 8 17 9 8 10 7 11 6 12
REMARK SMILES IDX 5 13 4 14 3 15 2 16 1 17
REMARK H PARENT
REMARK Flexibility Score: inf
ROOT
ATOM      1  C   UNL     1       0.263  35.372  12.252  1.00  0.00     0.000 C 
ENDROOT
BRANCH   1   2
ATOM      2  C   UNL     1       0.953  36.695  11.875  1.00  0.00     0.000 C 
BRANCH   2   3
ATOM      3  C   UNL     1       2.025  37.112  12.894  1.00  0.00     0.000 C 
BRANCH   3   4
ATOM      4  C   UNL     1       2.342  36.003  13.910  1.00  0.00     0.000 C 
BRANCH   4   5
ATOM      5  C   UNL     1       2.605  36.591  15.301  1.00  0.00     0.006 C 
BRANCH   5   6
ATOM      6  C   UNL     1       3.875  37.447  15.306  1.00  0.00     0.053 C 
BRANCH   6   7
ATOM      7  C   UNL     1       5.069  36.612  15.642  1.00  0.00     0.041 C 
ATOM      8  O   UNL     1       4.934  35.554  16.312  1.00  0.00    -0.550 OA
ATOM      9  O   UNL     1       6.326  36.977  15.176  1.00  0.00    -0.550 OA
ENDBRANCH   6   7
ENDBRANCH   5   6
ENDBRANCH   4   5
ENDBRANCH   3   4
ENDBRANCH   2   3
ENDBRANCH   1   2
BRANCH   1  10
ATOM     10  C   UNL     1      -1.245  35.544  12.495  1.00  0.00     0.000 C 
BRANCH  10  11
ATOM     11  C   UNL     1      -1.658  37.018  12.650  1.00  0.00    -0.000 C 
BRANCH  11  12
ATOM     12  C   UNL     1      -2.081  37.369  14.088  1.00  0.00    -0.000 C 
BRANCH  12  13
ATOM     13  C   UNL     1      -0.916  37.616  15.068  1.00  0.00    -0.000 C 
BRANCH  13  14
ATOM     14  C   UNL     1      -0.983  36.818  16.383  1.00  0.00    -0.000 C 
BRANCH  14  15
ATOM     15  C   UNL     1      -1.554  35.403  16.193  1.00  0.00    -0.000 C 
BRANCH  15  16
ATOM     16  C   UNL     1      -0.457  34.355  15.942  1.00  0.00    -0.003 C 
ATOM     17  C   UNL     1       0.514  34.222  17.114  1.00  0.00     0.004 C 
ENDBRANCH  15  16
ENDBRANCH  14  15
ENDBRANCH  13  14
ENDBRANCH  12  13
ENDBRANCH  11  12
ENDBRANCH  10  11
ENDBRANCH   1  10
TORSDOF 13
ENDMDL
MODEL 7
REMARK VINA RESULT:    -4.597      1.313      2.662
REMARK INTER + INTRA:          -9.835
REMARK INTER:                  -8.320
REMARK INTRA:                  -1.515
REMARK UNBOUND:                -1.744
REMARK SMILES CCCCCCCCCCCCCCC(=O)[O-]
REMARK SMILES IDX 9 1 10 2 11 3 12 4 13 5 14 6 15 7 16 8 17 9 8 10 7 11 6 12
REMARK SMILES IDX 5 13 4 14 3 15 2 16 1 17
REMARK H PARENT
REMARK Flexibility Score: inf
ROOT
ATOM      1  C   UNL     1      13.655  23.703  29.908  1.00  0.00     0.000 C 
ENDROOT
BRANCH   1   2
ATOM      2  C   UNL     1      12.884  24.555  30.931  1.00  0.00     0.000 C 
BRANCH   2   3
ATOM      3  C   UNL     1      11.364  24.509  30.712  1.00  0.00     0.000 C 
BRANCH   3   4
ATOM      4  C   UNL     1      10.588  24.181  31.998  1.00  0.00     0.000 C 
BRANCH   4   5
ATOM      5  C   UNL     1       9.450  23.193  31.715  1.00  0.00     0.006 C 
BRANCH   5   6
ATOM      6  C   UNL     1       9.613  22.545  30.337  1.00  0.00     0.053 C 
BRANCH   6   7
ATOM      7  C   UNL     1       8.785  21.303  30.240  1.00  0.00     0.041 C 
ATOM      8  O   UNL     1       7.535  21.363  30.381  1.00  0.00    -0.550 OA
ATOM      9  O   UNL     1       9.388  20.086  29.947  1.00  0.00    -0.550 OA
ENDBRANCH   6   7
ENDBRANCH   5   6
ENDBRANCH   4   5
ENDBRANCH   3   4
ENDBRANCH   2   3
ENDBRANCH   1   2
BRANCH   1  10
ATOM     10  C   UNL     1      13.413  22.197  30.096  1.00  0.00     0.000 C 
BRANCH  10  11
ATOM     11  C   UNL     1      13.779  21.376  28.846  1.00  0.00    -0.000 C 
BRANCH  11  12
ATOM     12  C   UNL     1      14.665  20.161  29.172  1.00  0.00    -0.000 C 
BRANCH  12  13
ATOM     13  C   UNL     1      16.175  20.462  29.268  1.00  0.00    -0.000 C 
BRANCH  13  14
ATOM     14  C   UNL     1      16.711  21.472  28.238  1.00  0.00    -0.000 C 
BRANCH  14  15
ATOM     15  C   UNL     1      17.181  22.788  28.881  1.00  0.00    -0.000 C 
BRANCH  15  16
ATOM     16  C   UNL     1      16.782  24.021  28.055  1.00  0.00    -0.003 C 
ATOM     17  C   UNL     1      15.980  23.663  26.805  1.00  0.00     0.004 C 
ENDBRANCH  15  16
ENDBRANCH  14  15
ENDBRANCH  13  14
ENDBRANCH  12  13
ENDBRANCH  11  12
ENDBRANCH  10  11
ENDBRANCH   1  10
TORSDOF 13
ENDMDL
MODEL 8
REMARK VINA RESULT:    -4.553      2.898      6.512
REMARK INTER + INTRA:          -9.758
REMARK INTER:                  -8.321
REMARK INTRA:                  -1.437
REMARK UNBOUND:                -1.744
REMARK SMILES CCCCCCCCCCCCCCC(=O)[O-]
REMARK SMILES IDX 9 1 10 2 11 3 12 4 13 5 14 6 15 7 16 8 17 9 8 10 7 11 6 12
REMARK SMILES IDX 5 13 4 14 3 15 2 16 1 17
REMARK H PARENT
REMARK Flexibility Score: inf
ROOT
ATOM      1  C   UNL     1      13.252  21.356  28.695  1.00  0.00     0.000 C 
ENDROOT
BRANCH   1   2
ATOM      2  C   UNL     1      14.673  21.280  29.278  1.00  0.00     0.000 C 
BRANCH   2   3
ATOM      3  C   UNL     1      15.089  22.578  29.988  1.00  0.00     0.000 C 
BRANCH   3   4
ATOM      4  C   UNL     1      15.213  23.769  29.024  1.00  0.00     0.000 C 
BRANCH   4   5
ATOM      5  C   UNL     1      16.492  23.664  28.184  1.00  0.00     0.006 C 
BRANCH   5   6
ATOM      6  C   UNL     1      16.170  23.682  26.688  1.00  0.00     0.053 C 
BRANCH   6   7
ATOM      7  C   UNL     1      16.142  22.290  26.141  1.00  0.00     0.041 C 
ATOM      8  O   UNL     1      17.145  21.540  26.267  1.00  0.00    -0.550 OA
ATOM      9  O   UNL     1      14.990  21.805  25.534  1.00  0.00    -0.550 OA
ENDBRANCH   6   7
ENDBRANCH   5   6
ENDBRANCH   4   5
ENDBRANCH   3   4
ENDBRANCH   2   3
ENDBRANCH   1   2
BRANCH   1  10
ATOM     10  C   UNL     1      12.345  20.224  29.205  1.00  0.00     0.000 C 
BRANCH  10  11
ATOM     11  C   UNL     1      10.849  20.533  29.021  1.00  0.00    -0.000 C 
BRANCH  11  12
ATOM     12  C   UNL     1      10.061  20.464  30.342  1.00  0.00    -0.000 C 
BRANCH  12  13
ATOM     13  C   UNL     1       8.715  21.217  30.338  1.00  0.00    -0.000 C 
BRANCH  13  14
ATOM     14  C   UNL     1       8.591  22.347  31.377  1.00  0.00    -0.000 C 
BRANCH  14  15
ATOM     15  C   UNL     1       9.956  22.855  31.871  1.00  0.00    -0.000 C 
BRANCH  15  16
ATOM     16  C   UNL     1      10.372  24.171  31.195  1.00  0.00    -0.003 C 
ATOM     17  C   UNL     1      11.833  24.170  30.746  1.00  0.00     0.004 C 
ENDBRANCH  15  16
ENDBRANCH  14  15
ENDBRANCH  13  14
ENDBRANCH  12  13
ENDBRANCH  11  12
ENDBRANCH  10  11
ENDBRANCH   1  10
TORSDOF 13
ENDMDL
MODEL 9
REMARK VINA RESULT:    -4.476     22.409     23.959
REMARK INTER + INTRA:          -9.622
REMARK INTER:                  -8.191
REMARK INTRA:                  -1.431
REMARK UNBOUND:                -1.744
REMARK SMILES CCCCCCCCCCCCCCC(=O)[O-]
REMARK SMILES IDX 9 1 10 2 11 3 12 4 13 5 14 6 15 7 16 8 17 9 8 10 7 11 6 12
REMARK SMILES IDX 5 13 4 14 3 15 2 16 1 17
REMARK H PARENT
REMARK Flexibility Score: inf
ROOT
ATOM      1  C   UNL     1       0.113  38.739  13.241  1.00  0.00     0.000 C 
ENDROOT
BRANCH   1   2
ATOM      2  C   UNL     1       0.016  37.899  11.955  1.00  0.00     0.000 C 
BRANCH   2   3
ATOM      3  C   UNL     1       1.018  36.733  11.935  1.00  0.00     0.000 C 
BRANCH   3   4
ATOM      4  C   UNL     1       0.369  35.387  12.294  1.00  0.00     0.000 C 
BRANCH   4   5
ATOM      5  C   UNL     1       0.708  34.981  13.733  1.00  0.00     0.006 C 
BRANCH   5   6
ATOM      6  C   UNL     1      -0.404  35.398  14.699  1.00  0.00     0.053 C 
BRANCH   6   7
ATOM      7  C   UNL     1      -0.234  34.719  16.020  1.00  0.00     0.041 C 
ATOM      8  O   UNL     1      -1.230  34.227  16.613  1.00  0.00    -0.550 OA
ATOM      9  O   UNL     1       1.032  34.587  16.576  1.00  0.00    -0.550 OA
ENDBRANCH   6   7
ENDBRANCH   5   6
ENDBRANCH   4   5
ENDBRANCH   3   4
ENDBRANCH   2   3
ENDBRANCH   1   2
BRANCH   1  10
ATOM     10  C   UNL     1       1.563  38.919  13.717  1.00  0.00     0.000 C 
BRANCH  10  11
ATOM     11  C   UNL     1       1.757  38.527  15.193  1.00  0.00    -0.000 C 
BRANCH  11  12
ATOM     12  C   UNL     1       2.832  37.442  15.382  1.00  0.00    -0.000 C 
BRANCH  12  13
ATOM     13  C   UNL     1       4.269  37.880  15.037  1.00  0.00    -0.000 C 
BRANCH  13  14
ATOM     14  C   UNL     1       5.384  37.130  15.789  1.00  0.00    -0.000 C 
BRANCH  14  15
ATOM     15  C   UNL     1       6.727  37.879  15.765  1.00  0.00    -0.000 C 
BRANCH  15  16
ATOM     16  C   UNL     1       6.782  38.953  14.667  1.00  0.00    -0.003 C 
ATOM     17  C   UNL     1       7.630  38.531  13.468  1.00  0.00     0.004 C 
ENDBRANCH  15  16
ENDBRANCH  14  15
ENDBRANCH  13  14
ENDBRANCH  12  13
ENDBRANCH  11  12
ENDBRANCH  10  11
ENDBRANCH   1  10
TORSDOF 13
ENDMDL
