MODEL 1
REMARK VINA RESULT:    -4.046      0.000      0.000
REMARK INTER + INTRA:          -4.899
REMARK INTER:                  -4.755
REMARK INTRA:                  -0.144
REMARK UNBOUND:                -0.144
REMARK SMILES [NH3+][C@@H](CO)C(=O)[O-]
REMARK SMILES IDX 3 1 2 2 1 3 5 7 6 8 7 9 4 10
REMARK H PARENT 1 4 1 5 1 6 4 11
REMARK Flexibility Score: inf
ROOT
ATOM      1  C   UNL     1      16.377  20.749  30.861  1.00  0.00     0.227 C 
ENDROOT
BRANCH   1   2
ATOM      2  C   UNL     1      16.165  22.218  30.450  1.00  0.00     0.253 C 
BRANCH   2   3
ATOM      3  N   UNL     1      15.094  22.843  31.238  1.00  0.00    -0.348 N 
ATOM      4  H   UNL     1      14.320  23.147  30.604  1.00  0.00     0.345 HD
ATOM      5  H   UNL     1      14.705  22.150  31.918  1.00  0.00     0.345 HD
ATOM      6  H   UNL     1      15.451  23.675  31.764  1.00  0.00     0.345 HD
ENDBRANCH   2   3
BRANCH   2   7
ATOM      7  C   UNL     1      15.889  22.331  28.973  1.00  0.00     0.102 C 
ATOM      8  O   UNL     1      14.943  23.046  28.548  1.00  0.00    -0.544 OA
ATOM      9  O   UNL     1      16.653  21.601  28.071  1.00  0.00    -0.544 OA
ENDBRANCH   2   7
ENDBRANCH   1   2
BRANCH   1  10
ATOM     10  O   UNL     1      17.741  20.418  30.891  1.00  0.00    -0.390 OA
ATOM     11  H   UNL     1      17.911  19.978  31.765  1.00  0.00     0.210 HD
ENDBRANCH   1  10
TORSDOF 4
ENDMDL
MODEL 2
REMARK VINA RESULT:    -3.862      1.913      2.721
REMARK INTER + INTRA:          -4.683
REMARK INTER:                  -4.586
REMARK INTRA:                  -0.097
REMARK UNBOUND:                -0.144
REMARK SMILES [NH3+][C@@H](CO)C(=O)[O-]
REMARK SMILES IDX 3 1 2 2 1 3 5 7 6 8 7 9 4 10
REMARK H PARENT 1 4 1 5 1 6 4 11
REMARK Flexibility Score: inf
ROOT
ATOM      1  C   UNL     1      16.378  21.733  27.968  1.00  0.00     0.227 C 
ENDROOT
BRANCH   1   2
ATOM      2  C   UNL     1      16.552  22.704  29.150  1.00  0.00     0.253 C 
BRANCH   2   3
ATOM      3  N   UNL     1      17.952  23.125  29.294  1.00  0.00    -0.348 N 
ATOM      4  H   UNL     1      18.419  23.121  28.358  1.00  0.00     0.345 HD
ATOM      5  H   UNL     1      17.991  24.098  29.674  1.00  0.00     0.345 HD
ATOM      6  H   UNL     1      18.473  22.484  29.937  1.00  0.00     0.345 HD
ENDBRANCH   2   3
BRANCH   2   7
ATOM      7  C   UNL     1      16.033  22.097  30.427  1.00  0.00     0.102 C 
ATOM      8  O   UNL     1      15.347  22.780  31.233  1.00  0.00    -0.544 OA
ATOM      9  O   UNL     1      16.354  20.783  30.747  1.00  0.00    -0.544 OA
ENDBRANCH   2   7
ENDBRANCH   1   2
BRANCH   1  10
ATOM     10  O   UNL     1      17.577  21.068  27.671  1.00  0.00    -0.390 OA
ATOM     11  H   UNL     1      18.286  21.493  28.221  1.00  0.00     0.210 HD
ENDBRANCH   1  10
TORSDOF 4
ENDMDL
MODEL 3
REMARK VINA RESULT:    -3.835      1.877      2.459
REMARK INTER + INTRA:          -4.651
REMARK INTER:                  -4.425
REMARK INTRA:                  -0.226
REMARK UNBOUND:                -0.144
REMARK SMILES [NH3+][C@@H](CO)C(=O)[O-]
REMARK SMILES IDX 3 1 2 2 1 3 5 7 6 8 7 9 4 10
REMARK H PARENT 1 4 1 5 1 6 4 11
REMARK Flexibility Score: inf
ROOT
ATOM      1  C   UNL     1      17.661  22.025  28.726  1.00  0.00     0.227 C 
ENDROOT
BRANCH   1   2
ATOM      2  C   UNL     1      16.952  21.875  30.085  1.00  0.00     0.253 C 
BRANCH   2   3
ATOM      3  N   UNL     1      16.715  20.462  30.409  1.00  0.00    -0.348 N 
ATOM      4  H   UNL     1      17.606  19.923  30.313  1.00  0.00     0.345 HD
ATOM      5  H   UNL     1      16.387  20.377  31.399  1.00  0.00     0.345 HD
ATOM      6  H   UNL     1      15.995  20.046  29.773  1.00  0.00     0.345 HD
ENDBRANCH   2   3
BRANCH   2   7
ATOM      7  C   UNL     1      15.669  22.662  30.114  1.00  0.00     0.102 C 
ATOM      8  O   UNL     1      15.194  23.080  31.203  1.00  0.00    -0.544 OA
ATOM      9  O   UNL     1      14.972  22.891  28.933  1.00  0.00    -0.544 OA
ENDBRANCH   2   7
ENDBRANCH   1   2
BRANCH   1  10
ATOM     10  O   UNL     1      17.092  21.186  27.756  1.00  0.00    -0.390 OA
ATOM     11  H   UNL     1      17.737  20.447  27.600  1.00  0.00     0.210 HD
ENDBRANCH   1  10
TORSDOF 4
ENDMDL
MODEL 4
REMARK VINA RESULT:    -3.589     21.703     22.034
REMARK INTER + INTRA:          -4.362
REMARK INTER:                  -3.969
REMARK INTRA:                  -0.394
REMARK UNBOUND:                -0.144
REMARK SMILES [NH3+][C@@H](CO)C(=O)[O-]
REMARK SMILES IDX 3 1 2 2 1 3 5 7 6 8 7 9 4 10
REMARK H PARENT 1 4 1 5 1 6 4 11
REMARK Flexibility Score: inf
ROOT
ATOM      1  C   UNL     1       2.860   9.228  20.159  1.00  0.00     0.227 C 
ENDROOT
BRANCH   1   2
ATOM      2  C   UNL     1       2.119  10.054  19.092  1.00  0.00     0.253 C 
BRANCH   2   3
ATOM      3  N   UNL     1       1.096  10.915  19.698  1.00  0.00    -0.348 N 
ATOM      4  H   UNL     1       0.147  10.510  19.527  1.00  0.00     0.345 HD
ATOM      5  H   UNL     1       1.246  10.968  20.732  1.00  0.00     0.345 HD
ATOM      6  H   UNL     1       1.131  11.881  19.297  1.00  0.00     0.345 HD
ENDBRANCH   2   3
BRANCH   2   7
ATOM      7  C   UNL     1       1.522   9.159  18.037  1.00  0.00     0.102 C 
ATOM      8  O   UNL     1       0.342   8.733  18.148  1.00  0.00    -0.544 OA
ATOM      9  O   UNL     1       2.294   8.758  16.953  1.00  0.00    -0.544 OA
ENDBRANCH   2   7
ENDBRANCH   1   2
BRANCH   1  10
ATOM     10  O   UNL     1       2.790   7.854  19.884  1.00  0.00    -0.390 OA
ATOM     11  H   UNL     1       1.827   7.616  19.846  1.00  0.00     0.210 HD
ENDBRANCH   1  10
TORSDOF 4
ENDMDL
MODEL 5
REMARK VINA RESULT:    -3.555     21.292     21.716
REMARK INTER + INTRA:          -4.322
REMARK INTER:                  -4.099
REMARK INTRA:                  -0.223
REMARK UNBOUND:                -0.144
REMARK SMILES [NH3+][C@@H](CO)C(=O)[O-]
REMARK SMILES IDX 3 1 2 2 1 3 5 7 6 8 7 9 4 10
REMARK H PARENT 1 4 1 5 1 6 4 11
REMARK Flexibility Score: inf
ROOT
ATOM      1  C   UNL     1       1.491  10.917  18.309  1.00  0.00     0.227 C 
ENDROOT
BRANCH   1   2
ATOM      2  C   UNL     1       2.488   9.857  18.811  1.00  0.00     0.253 C 
BRANCH   2   3
ATOM      3  N   UNL     1       2.862   8.926  17.739  1.00  0.00    -0.348 N 
ATOM      4  H   UNL     1       3.013   7.971  18.137  1.00  0.00     0.345 HD
ATOM      5  H   UNL     1       2.090   8.867  17.036  1.00  0.00     0.345 HD
ATOM      6  H   UNL     1       3.739   9.237  17.259  1.00  0.00     0.345 HD
ENDBRANCH   2   3
BRANCH   2   7
ATOM      7  C   UNL     1       1.937   9.120  20.004  1.00  0.00     0.102 C 
ATOM      8  O   UNL     1       2.564   8.151  20.508  1.00  0.00    -0.544 OA
ATOM      9  O   UNL     1       0.700   9.479  20.526  1.00  0.00    -0.544 OA
ENDBRANCH   2   7
ENDBRANCH   1   2
BRANCH   1  10
ATOM     10  O   UNL     1       1.329  11.952  19.244  1.00  0.00    -0.390 OA
ATOM     11  H   UNL     1       0.370  12.208  19.227  1.00  0.00     0.210 HD
ENDBRANCH   1  10
TORSDOF 4
ENDMDL
MODEL 6
REMARK VINA RESULT:    -3.546      9.616     10.761
REMARK INTER + INTRA:          -4.311
REMARK INTER:                  -4.091
REMARK INTRA:                  -0.220
REMARK UNBOUND:                -0.144
REMARK SMILES [NH3+][C@@H](CO)C(=O)[O-]
REMARK SMILES IDX 3 1 2 2 1 3 5 7 6 8 7 9 4 10
REMARK H PARENT 1 4 1 5 1 6 4 11
REMARK Flexibility Score: inf
ROOT
ATOM      1  C   UNL     1      15.773  15.255  37.023  1.00  0.00     0.227 C 
ENDROOT
BRANCH   1   2
ATOM      2  C   UNL     1      17.058  14.564  36.530  1.00  0.00     0.253 C 
BRANCH   2   3
ATOM      3  N   UNL     1      17.333  14.889  35.125  1.00  0.00    -0.348 N 
ATOM      4  H   UNL     1      18.279  14.531  34.858  1.00  0.00     0.345 HD
ATOM      5  H   UNL     1      16.624  14.427  34.510  1.00  0.00     0.345 HD
ATOM      6  H   UNL     1      17.303  15.923  34.964  1.00  0.00     0.345 HD
ENDBRANCH   2   3
BRANCH   2   7
ATOM      7  C   UNL     1      16.984  13.074  36.740  1.00  0.00     0.102 C 
ATOM      8  O   UNL     1      18.034  12.383  36.822  1.00  0.00    -0.544 OA
ATOM      9  O   UNL     1      15.745  12.446  36.794  1.00  0.00    -0.544 OA
ENDBRANCH   2   7
ENDBRANCH   1   2
BRANCH   1  10
ATOM     10  O   UNL     1      14.761  15.206  36.052  1.00  0.00    -0.390 OA
ATOM     11  H   UNL     1      13.910  15.433  36.512  1.00  0.00     0.210 HD
ENDBRANCH   1  10
TORSDOF 4
ENDMDL
MODEL 7
REMARK VINA RESULT:    -3.529      1.951      2.794
REMARK INTER + INTRA:          -4.292
REMARK INTER:                  -4.042
REMARK INTRA:                  -0.250
REMARK UNBOUND:                -0.144
REMARK SMILES [NH3+][C@@H](CO)C(=O)[O-]
REMARK SMILES IDX 3 1 2 2 1 3 5 7 6 8 7 9 4 10
REMARK H PARENT 1 4 1 5 1 6 4 11
REMARK Flexibility Score: inf
ROOT
ATOM      1  C   UNL     1      17.426  23.027  28.886  1.00  0.00     0.227 C 
ENDROOT
BRANCH   1   2
ATOM      2  C   UNL     1      16.089  22.290  29.084  1.00  0.00     0.253 C 
BRANCH   2   3
ATOM      3  N   UNL     1      14.954  23.123  28.668  1.00  0.00    -0.348 N 
ATOM      4  H   UNL     1      14.253  23.177  29.443  1.00  0.00     0.345 HD
ATOM      5  H   UNL     1      15.285  24.093  28.459  1.00  0.00     0.345 HD
ATOM      6  H   UNL     1      14.490  22.729  27.816  1.00  0.00     0.345 HD
ENDBRANCH   2   3
BRANCH   2   7
ATOM      7  C   UNL     1      15.933  21.830  30.510  1.00  0.00     0.102 C 
ATOM      8  O   UNL     1      16.333  20.690  30.866  1.00  0.00    -0.544 OA
ATOM      9  O   UNL     1      15.296  22.651  31.434  1.00  0.00    -0.544 OA
ENDBRANCH   2   7
ENDBRANCH   1   2
BRANCH   1  10
ATOM     10  O   UNL     1      18.446  22.457  29.663  1.00  0.00    -0.390 OA
ATOM     11  H   UNL     1      18.655  21.574  29.261  1.00  0.00     0.210 HD
ENDBRANCH   1  10
TORSDOF 4
ENDMDL
MODEL 8
REMARK VINA RESULT:    -3.475     21.018     21.352
REMARK INTER + INTRA:          -4.228
REMARK INTER:                  -3.995
REMARK INTRA:                  -0.233
REMARK UNBOUND:                -0.144
REMARK SMILES [NH3+][C@@H](CO)C(=O)[O-]
REMARK SMILES IDX 3 1 2 2 1 3 5 7 6 8 7 9 4 10
REMARK H PARENT 1 4 1 5 1 6 4 11
REMARK Flexibility Score: inf
ROOT
ATOM      1  C   UNL     1       2.226  10.078  19.125  1.00  0.00     0.227 C 
ENDROOT
BRANCH   1   2
ATOM      2  C   UNL     1       2.440  10.061  17.600  1.00  0.00     0.253 C 
BRANCH   2   3
ATOM      3  N   UNL     1       3.274   8.924  17.191  1.00  0.00    -0.348 N 
ATOM      4  H   UNL     1       4.256   9.071  17.518  1.00  0.00     0.345 HD
ATOM      5  H   UNL     1       2.913   8.045  17.629  1.00  0.00     0.345 HD
ATOM      6  H   UNL     1       3.274   8.813  16.150  1.00  0.00     0.345 HD
ENDBRANCH   2   3
BRANCH   2   7
ATOM      7  C   UNL     1       3.026  11.364  17.123  1.00  0.00     0.102 C 
ATOM      8  O   UNL     1       4.269  11.492  16.967  1.00  0.00    -0.544 OA
ATOM      9  O   UNL     1       2.194  12.455  16.900  1.00  0.00    -0.544 OA
ENDBRANCH   2   7
ENDBRANCH   1   2
BRANCH   1  10
ATOM     10  O   UNL     1       1.403  11.146  19.515  1.00  0.00    -0.390 OA
ATOM     11  H   UNL     1       1.415  11.805  18.772  1.00  0.00     0.210 HD
ENDBRANCH   1  10
TORSDOF 4
ENDMDL
MODEL 9
REMARK VINA RESULT:    -3.418     21.266     21.637
REMARK INTER + INTRA:          -4.162
REMARK INTER:                  -3.942
REMARK INTRA:                  -0.219
REMARK UNBOUND:                -0.144
REMARK SMILES [NH3+][C@@H](CO)C(=O)[O-]
REMARK SMILES IDX 3 1 2 2 1 3 5 7 6 8 7 9 4 10
REMARK H PARENT 1 4 1 5 1 6 4 11
REMARK Flexibility Score: inf
ROOT
ATOM      1  C   UNL     1       2.876  10.192  18.010  1.00  0.00     0.227 C 
ENDROOT
BRANCH   1   2
ATOM      2  C   UNL     1       1.547  10.318  18.778  1.00  0.00     0.253 C 
BRANCH   2   3
ATOM      3  N   UNL     1       1.298  11.706  19.188  1.00  0.00    -0.348 N 
ATOM      4  H   UNL     1       2.099  12.311  18.894  1.00  0.00     0.345 HD
ATOM      5  H   UNL     1       0.432  12.063  18.721  1.00  0.00     0.345 HD
ATOM      6  H   UNL     1       1.181  11.777  20.226  1.00  0.00     0.345 HD
ENDBRANCH   2   3
BRANCH   2   7
ATOM      7  C   UNL     1       1.519   9.388  19.964  1.00  0.00     0.102 C 
ATOM      8  O   UNL     1       0.509   9.333  20.714  1.00  0.00    -0.544 OA
ATOM      9  O   UNL     1       2.637   8.619  20.264  1.00  0.00    -0.544 OA
ENDBRANCH   2   7
ENDBRANCH   1   2
BRANCH   1  10
ATOM     10  O   UNL     1       3.045   8.900  17.489  1.00  0.00    -0.390 OA
ATOM     11  H   UNL     1       2.502   8.289  18.052  1.00  0.00     0.210 HD
ENDBRANCH   1  10
TORSDOF 4
ENDMDL
