MODEL 1
REMARK VINA RESULT:    -7.015      0.000      0.000
REMARK INTER + INTRA:          -7.630
REMARK INTER:                  -7.630
REMARK INTRA:                   0.000
REMARK UNBOUND:                 0.000
REMARK SMILES Cc1cc(O)c2c(c1)C(=O)c1cc(O)cc(O)c1C2=O
REMARK SMILES IDX 1 1 2 2 8 3 7 4 6 5 4 6 3 7 19 8 20 9 18 10 11 11 9 12 10 13
REMARK SMILES IDX 12 14 13 15 15 16 16 17 5 18 17 20 14 22
REMARK H PARENT 5 19 17 21 14 23
REMARK Flexibility Score: inf
ROOT
ATOM      1  C   UNL     1     109.845  46.508 138.499  1.00  0.00     0.044 C 
ATOM      2  C   UNL     1     109.384  45.085 138.379  1.00  0.00    -0.047 A 
ATOM      3  C   UNL     1     108.365  44.748 137.481  1.00  0.00     0.016 A 
ATOM      4  C   UNL     1     107.957  43.412 137.330  1.00  0.00     0.038 A 
ATOM      5  C   UNL     1     108.598  42.392 138.068  1.00  0.00     0.076 A 
ATOM      6  C   UNL     1     109.598  42.745 139.011  1.00  0.00     0.127 A 
ATOM      7  C   UNL     1     110.001  44.078 139.130  1.00  0.00     0.050 A 
ATOM      8  C   UNL     1     108.240  40.981 137.772  1.00  0.00     0.201 C 
ATOM      9  O   UNL     1     109.098  40.070 137.927  1.00  0.00    -0.288 OA
ATOM     10  C   UNL     1     106.944  40.669 137.118  1.00  0.00     0.076 A 
ATOM     11  C   UNL     1     106.306  41.692 136.380  1.00  0.00     0.041 A 
ATOM     12  C   UNL     1     106.855  43.068 136.399  1.00  0.00     0.194 C 
ATOM     13  O   UNL     1     106.369  43.954 135.643  1.00  0.00    -0.289 OA
ATOM     14  C   UNL     1     105.151  41.400 135.633  1.00  0.00     0.059 A 
ATOM     15  C   UNL     1     104.619  40.109 135.629  1.00  0.00     0.120 A 
ATOM     16  C   UNL     1     105.222  39.107 136.388  1.00  0.00     0.093 A 
ATOM     17  C   UNL     1     106.360  39.376 137.155  1.00  0.00     0.131 A 
ENDROOT
BRANCH   6  18
ATOM     18  O   UNL     1     110.193  41.814 139.867  1.00  0.00    -0.507 OA
ATOM     19  H   UNL     1     110.407  40.865 139.596  1.00  0.00     0.293 HD
ENDBRANCH   6  18
BRANCH  17  20
ATOM     20  O   UNL     1     106.853  38.347 137.960  1.00  0.00    -0.507 OA
ATOM     21  H   UNL     1     106.443  38.086 138.846  1.00  0.00     0.293 HD
ENDBRANCH  17  20
BRANCH  15  22
ATOM     22  O   UNL     1     103.481  39.812 134.880  1.00  0.00    -0.508 OA
ATOM     23  H   UNL     1     103.389  40.109 133.916  1.00  0.00     0.293 HD
ENDBRANCH  15  22
TORSDOF 3
ENDMDL
MODEL 2
REMARK VINA RESULT:    -6.897     10.620     12.948
REMARK INTER + INTRA:          -7.501
REMARK INTER:                  -7.501
REMARK INTRA:                   0.000
REMARK UNBOUND:                 0.000
REMARK SMILES Cc1cc(O)c2c(c1)C(=O)c1cc(O)cc(O)c1C2=O
REMARK SMILES IDX 1 1 2 2 8 3 7 4 6 5 4 6 3 7 19 8 20 9 18 10 11 11 9 12 10 13
REMARK SMILES IDX 12 14 13 15 15 16 16 17 5 18 17 20 14 22
REMARK H PARENT 5 19 17 21 14 23
REMARK Flexibility Score: inf
ROOT
ATOM      1  C   UNL     1      97.875  44.640 132.948  1.00  0.00     0.044 C 
ATOM      2  C   UNL     1      98.737  45.739 132.397  1.00  0.00    -0.047 A 
ATOM      3  C   UNL     1      98.508  47.068 132.769  1.00  0.00     0.016 A 
ATOM      4  C   UNL     1      99.336  48.098 132.292  1.00  0.00     0.038 A 
ATOM      5  C   UNL     1     100.427  47.791 131.450  1.00  0.00     0.076 A 
ATOM      6  C   UNL     1     100.626  46.448 131.039  1.00  0.00     0.127 A 
ATOM      7  C   UNL     1      99.802  45.437 131.542  1.00  0.00     0.050 A 
ATOM      8  C   UNL     1     101.364  48.886 131.089  1.00  0.00     0.201 C 
ATOM      9  O   UNL     1     102.577  48.626 130.865  1.00  0.00    -0.288 OA
ATOM     10  C   UNL     1     100.916  50.299 131.175  1.00  0.00     0.076 A 
ATOM     11  C   UNL     1      99.824  50.603 132.019  1.00  0.00     0.041 A 
ATOM     12  C   UNL     1      99.066  49.507 132.668  1.00  0.00     0.194 C 
ATOM     13  O   UNL     1      98.175  49.774 133.521  1.00  0.00    -0.289 OA
ATOM     14  C   UNL     1      99.458  51.942 132.235  1.00  0.00     0.059 A 
ATOM     15  C   UNL     1     100.157  52.977 131.609  1.00  0.00     0.120 A 
ATOM     16  C   UNL     1     101.209  52.680 130.744  1.00  0.00     0.093 A 
ATOM     17  C   UNL     1     101.580  51.355 130.496  1.00  0.00     0.131 A 
ENDROOT
BRANCH   6  18
ATOM     18  O   UNL     1     101.605  46.078 130.112  1.00  0.00    -0.507 OA
ATOM     19  H   UNL     1     101.912  45.126 129.975  1.00  0.00     0.293 HD
ENDBRANCH   6  18
BRANCH  17  20
ATOM     20  O   UNL     1     102.582  51.132 129.549  1.00  0.00    -0.507 OA
ATOM     21  H   UNL     1     103.153  51.867 129.157  1.00  0.00     0.293 HD
ENDBRANCH  17  20
BRANCH  15  22
ATOM     22  O   UNL     1      99.805  54.308 131.830  1.00  0.00    -0.508 OA
ATOM     23  H   UNL     1      98.937  54.557 132.291  1.00  0.00     0.293 HD
ENDBRANCH  15  22
TORSDOF 3
ENDMDL
MODEL 3
REMARK VINA RESULT:    -6.599      1.896      6.226
REMARK INTER + INTRA:          -7.177
REMARK INTER:                  -7.177
REMARK INTRA:                   0.000
REMARK UNBOUND:                 0.000
REMARK SMILES Cc1cc(O)c2c(c1)C(=O)c1cc(O)cc(O)c1C2=O
REMARK SMILES IDX 1 1 2 2 8 3 7 4 6 5 4 6 3 7 19 8 20 9 18 10 11 11 9 12 10 13
REMARK SMILES IDX 12 14 13 15 15 16 16 17 5 18 17 20 14 22
REMARK H PARENT 5 19 17 21 14 23
REMARK Flexibility Score: inf
ROOT
ATOM      1  C   UNL     1     105.629  38.201 137.507  1.00  0.00     0.044 C 
ATOM      2  C   UNL     1     106.072  39.560 137.047  1.00  0.00    -0.047 A 
ATOM      3  C   UNL     1     106.750  40.414 137.923  1.00  0.00     0.016 A 
ATOM      4  C   UNL     1     107.206  41.670 137.489  1.00  0.00     0.038 A 
ATOM      5  C   UNL     1     107.006  42.067 136.149  1.00  0.00     0.076 A 
ATOM      6  C   UNL     1     106.277  41.216 135.277  1.00  0.00     0.127 A 
ATOM      7  C   UNL     1     105.850  39.963 135.726  1.00  0.00     0.050 A 
ATOM      8  C   UNL     1     107.632  43.335 135.691  1.00  0.00     0.201 C 
ATOM      9  O   UNL     1     107.986  43.461 134.488  1.00  0.00    -0.288 OA
ATOM     10  C   UNL     1     108.010  44.372 136.685  1.00  0.00     0.076 A 
ATOM     11  C   UNL     1     108.210  43.971 138.025  1.00  0.00     0.041 A 
ATOM     12  C   UNL     1     107.896  42.581 138.434  1.00  0.00     0.194 C 
ATOM     13  O   UNL     1     108.193  42.181 139.594  1.00  0.00    -0.289 OA
ATOM     14  C   UNL     1     108.701  44.892 138.966  1.00  0.00     0.059 A 
ATOM     15  C   UNL     1     108.978  46.209 138.589  1.00  0.00     0.120 A 
ATOM     16  C   UNL     1     108.744  46.619 137.277  1.00  0.00     0.093 A 
ATOM     17  C   UNL     1     108.237  45.727 136.327  1.00  0.00     0.131 A 
ENDROOT
BRANCH   6  18
ATOM     18  O   UNL     1     105.930  41.587 133.976  1.00  0.00    -0.507 OA
ATOM     19  H   UNL     1     106.274  42.422 133.522  1.00  0.00     0.293 HD
ENDBRANCH   6  18
BRANCH  17  20
ATOM     20  O   UNL     1     107.942  46.233 135.059  1.00  0.00    -0.507 OA
ATOM     21  H   UNL     1     108.230  45.788 134.200  1.00  0.00     0.293 HD
ENDBRANCH  17  20
BRANCH  15  22
ATOM     22  O   UNL     1     109.478  47.123 139.515  1.00  0.00    -0.508 OA
ATOM     23  H   UNL     1     110.166  47.819 139.254  1.00  0.00     0.293 HD
ENDBRANCH  15  22
TORSDOF 3
ENDMDL
MODEL 4
REMARK VINA RESULT:    -6.530      2.459      3.119
REMARK INTER + INTRA:          -7.103
REMARK INTER:                  -7.103
REMARK INTRA:                   0.000
REMARK UNBOUND:                 0.000
REMARK SMILES Cc1cc(O)c2c(c1)C(=O)c1cc(O)cc(O)c1C2=O
REMARK SMILES IDX 1 1 2 2 8 3 7 4 6 5 4 6 3 7 19 8 20 9 18 10 11 11 9 12 10 13
REMARK SMILES IDX 12 14 13 15 15 16 16 17 5 18 17 20 14 22
REMARK H PARENT 5 19 17 21 14 23
REMARK Flexibility Score: inf
ROOT
ATOM      1  C   UNL     1     107.284  48.744 138.974  1.00  0.00     0.044 C 
ATOM      2  C   UNL     1     107.725  47.313 138.876  1.00  0.00    -0.047 A 
ATOM      3  C   UNL     1     107.723  46.658 137.639  1.00  0.00     0.016 A 
ATOM      4  C   UNL     1     108.175  45.332 137.530  1.00  0.00     0.038 A 
ATOM      5  C   UNL     1     108.662  44.658 138.672  1.00  0.00     0.076 A 
ATOM      6  C   UNL     1     108.618  45.311 139.931  1.00  0.00     0.127 A 
ATOM      7  C   UNL     1     108.183  46.637 140.012  1.00  0.00     0.050 A 
ATOM      8  C   UNL     1     109.266  43.314 138.488  1.00  0.00     0.201 C 
ATOM      9  O   UNL     1     110.182  42.926 139.263  1.00  0.00    -0.288 OA
ATOM     10  C   UNL     1     108.928  42.510 137.286  1.00  0.00     0.076 A 
ATOM     11  C   UNL     1     108.441  43.188 136.145  1.00  0.00     0.041 A 
ATOM     12  C   UNL     1     108.140  44.637 136.221  1.00  0.00     0.194 C 
ATOM     13  O   UNL     1     107.829  45.273 135.176  1.00  0.00    -0.289 OA
ATOM     14  C   UNL     1     108.240  42.484 134.945  1.00  0.00     0.059 A 
ATOM     15  C   UNL     1     108.503  41.114 134.876  1.00  0.00     0.120 A 
ATOM     16  C   UNL     1     108.945  40.433 136.010  1.00  0.00     0.093 A 
ATOM     17  C   UNL     1     109.133  41.107 137.221  1.00  0.00     0.131 A 
ENDROOT
BRANCH   6  18
ATOM     18  O   UNL     1     108.965  44.673 141.125  1.00  0.00    -0.507 OA
ATOM     19  H   UNL     1     108.305  44.169 141.700  1.00  0.00     0.293 HD
ENDBRANCH   6  18
BRANCH  17  20
ATOM     20  O   UNL     1     109.489  40.343 138.335  1.00  0.00    -0.507 OA
ATOM     21  H   UNL     1     109.747  40.742 139.226  1.00  0.00     0.293 HD
ENDBRANCH  17  20
BRANCH  15  22
ATOM     22  O   UNL     1     108.317  40.414 133.685  1.00  0.00    -0.508 OA
ATOM     23  H   UNL     1     107.563  39.747 133.574  1.00  0.00     0.293 HD
ENDBRANCH  15  22
TORSDOF 3
ENDMDL
MODEL 5
REMARK VINA RESULT:    -6.180      2.609      5.455
REMARK INTER + INTRA:          -6.721
REMARK INTER:                  -6.721
REMARK INTRA:                   0.000
REMARK UNBOUND:                 0.000
REMARK SMILES Cc1cc(O)c2c(c1)C(=O)c1cc(O)cc(O)c1C2=O
REMARK SMILES IDX 1 1 2 2 8 3 7 4 6 5 4 6 3 7 19 8 20 9 18 10 11 11 9 12 10 13
REMARK SMILES IDX 12 14 13 15 15 16 16 17 5 18 17 20 14 22
REMARK H PARENT 5 19 17 21 14 23
REMARK Flexibility Score: inf
ROOT
ATOM      1  C   UNL     1     108.747  39.837 134.074  1.00  0.00     0.044 C 
ATOM      2  C   UNL     1     108.773  40.680 135.316  1.00  0.00    -0.047 A 
ATOM      3  C   UNL     1     108.302  41.997 135.283  1.00  0.00     0.016 A 
ATOM      4  C   UNL     1     108.282  42.779 136.450  1.00  0.00     0.038 A 
ATOM      5  C   UNL     1     108.717  42.227 137.675  1.00  0.00     0.076 A 
ATOM      6  C   UNL     1     109.237  40.907 137.693  1.00  0.00     0.127 A 
ATOM      7  C   UNL     1     109.228  40.141 136.524  1.00  0.00     0.050 A 
ATOM      8  C   UNL     1     108.542  43.035 138.910  1.00  0.00     0.201 C 
ATOM      9  O   UNL     1     108.356  42.459 140.016  1.00  0.00    -0.288 OA
ATOM     10  C   UNL     1     108.399  44.510 138.813  1.00  0.00     0.076 A 
ATOM     11  C   UNL     1     107.964  45.059 137.585  1.00  0.00     0.041 A 
ATOM     12  C   UNL     1     107.810  44.184 136.399  1.00  0.00     0.194 C 
ATOM     13  O   UNL     1     107.300  44.641 135.339  1.00  0.00    -0.289 OA
ATOM     14  C   UNL     1     107.683  46.433 137.493  1.00  0.00     0.059 A 
ATOM     15  C   UNL     1     107.847  47.265 138.604  1.00  0.00     0.120 A 
ATOM     16  C   UNL     1     108.315  46.734 139.805  1.00  0.00     0.093 A 
ATOM     17  C   UNL     1     108.620  45.374 139.917  1.00  0.00     0.131 A 
ENDROOT
BRANCH   6  18
ATOM     18  O   UNL     1     109.799  40.332 138.835  1.00  0.00    -0.507 OA
ATOM     19  H   UNL     1     110.788  40.157 138.944  1.00  0.00     0.293 HD
ENDBRANCH   6  18
BRANCH  17  20
ATOM     20  O   UNL     1     109.170  44.934 141.123  1.00  0.00    -0.507 OA
ATOM     21  H   UNL     1     109.389  43.967 141.316  1.00  0.00     0.293 HD
ENDBRANCH  17  20
BRANCH  15  22
ATOM     22  O   UNL     1     107.558  48.626 138.521  1.00  0.00    -0.508 OA
ATOM     23  H   UNL     1     107.784  49.166 137.693  1.00  0.00     0.293 HD
ENDBRANCH  15  22
TORSDOF 3
ENDMDL
MODEL 6
REMARK VINA RESULT:    -6.158      2.807      4.989
REMARK INTER + INTRA:          -6.698
REMARK INTER:                  -6.698
REMARK INTRA:                   0.000
REMARK UNBOUND:                 0.000
REMARK SMILES Cc1cc(O)c2c(c1)C(=O)c1cc(O)cc(O)c1C2=O
REMARK SMILES IDX 1 1 2 2 8 3 7 4 6 5 4 6 3 7 19 8 20 9 18 10 11 11 9 12 10 13
REMARK SMILES IDX 12 14 13 15 15 16 16 17 5 18 17 20 14 22
REMARK H PARENT 5 19 17 21 14 23
REMARK Flexibility Score: inf
ROOT
ATOM      1  C   UNL     1     104.705  48.454 138.768  1.00  0.00     0.044 C 
ATOM      2  C   UNL     1     105.014  47.259 137.914  1.00  0.00    -0.047 A 
ATOM      3  C   UNL     1     106.010  46.355 138.301  1.00  0.00     0.016 A 
ATOM      4  C   UNL     1     106.277  45.211 137.530  1.00  0.00     0.038 A 
ATOM      5  C   UNL     1     105.518  44.952 136.368  1.00  0.00     0.076 A 
ATOM      6  C   UNL     1     104.542  45.896 135.955  1.00  0.00     0.127 A 
ATOM      7  C   UNL     1     104.280  47.017 136.748  1.00  0.00     0.050 A 
ATOM      8  C   UNL     1     105.730  43.661 135.665  1.00  0.00     0.201 C 
ATOM      9  O   UNL     1     104.778  43.125 135.037  1.00  0.00    -0.288 OA
ATOM     10  C   UNL     1     107.000  42.914 135.859  1.00  0.00     0.076 A 
ATOM     11  C   UNL     1     107.756  43.176 137.023  1.00  0.00     0.041 A 
ATOM     12  C   UNL     1     107.355  44.276 137.932  1.00  0.00     0.194 C 
ATOM     13  O   UNL     1     107.948  44.431 139.036  1.00  0.00    -0.289 OA
ATOM     14  C   UNL     1     108.888  42.395 137.312  1.00  0.00     0.059 A 
ATOM     15  C   UNL     1     109.281  41.371 136.447  1.00  0.00     0.120 A 
ATOM     16  C   UNL     1     108.561  41.136 135.277  1.00  0.00     0.093 A 
ATOM     17  C   UNL     1     107.443  41.912 134.957  1.00  0.00     0.131 A 
ENDROOT
BRANCH   6  18
ATOM     18  O   UNL     1     103.836  45.777 134.755  1.00  0.00    -0.507 OA
ATOM     19  H   UNL     1     104.279  45.649 133.857  1.00  0.00     0.293 HD
ENDBRANCH   6  18
BRANCH  17  20
ATOM     20  O   UNL     1     106.827  41.679 133.724  1.00  0.00    -0.507 OA
ATOM     21  H   UNL     1     105.826  41.675 133.593  1.00  0.00     0.293 HD
ENDBRANCH  17  20
BRANCH  15  22
ATOM     22  O   UNL     1     110.396  40.585 136.736  1.00  0.00    -0.508 OA
ATOM     23  H   UNL     1     110.727  39.877 136.091  1.00  0.00     0.293 HD
ENDBRANCH  15  22
TORSDOF 3
ENDMDL
MODEL 7
REMARK VINA RESULT:    -6.069      2.477      4.475
REMARK INTER + INTRA:          -6.601
REMARK INTER:                  -6.601
REMARK INTRA:                   0.000
REMARK UNBOUND:                 0.000
REMARK SMILES Cc1cc(O)c2c(c1)C(=O)c1cc(O)cc(O)c1C2=O
REMARK SMILES IDX 1 1 2 2 8 3 7 4 6 5 4 6 3 7 19 8 20 9 18 10 11 11 9 12 10 13
REMARK SMILES IDX 12 14 13 15 15 16 16 17 5 18 17 20 14 22
REMARK H PARENT 5 19 17 21 14 23
REMARK Flexibility Score: inf
ROOT
ATOM      1  C   UNL     1     108.406  48.410 140.501  1.00  0.00     0.044 C 
ATOM      2  C   UNL     1     107.887  47.464 139.458  1.00  0.00    -0.047 A 
ATOM      3  C   UNL     1     108.551  46.259 139.206  1.00  0.00     0.016 A 
ATOM      4  C   UNL     1     108.049  45.348 138.262  1.00  0.00     0.038 A 
ATOM      5  C   UNL     1     106.847  45.634 137.578  1.00  0.00     0.076 A 
ATOM      6  C   UNL     1     106.203  46.878 137.803  1.00  0.00     0.127 A 
ATOM      7  C   UNL     1     106.710  47.760 138.761  1.00  0.00     0.050 A 
ATOM      8  C   UNL     1     106.271  44.583 136.700  1.00  0.00     0.201 C 
ATOM      9  O   UNL     1     105.023  44.515 136.537  1.00  0.00    -0.288 OA
ATOM     10  C   UNL     1     107.145  43.504 136.170  1.00  0.00     0.076 A 
ATOM     11  C   UNL     1     108.346  43.220 136.858  1.00  0.00     0.041 A 
ATOM     12  C   UNL     1     108.777  44.087 137.980  1.00  0.00     0.194 C 
ATOM     13  O   UNL     1     109.777  43.766 138.679  1.00  0.00    -0.289 OA
ATOM     14  C   UNL     1     109.130  42.120 136.471  1.00  0.00     0.059 A 
ATOM     15  C   UNL     1     108.738  41.312 135.401  1.00  0.00     0.120 A 
ATOM     16  C   UNL     1     107.574  41.613 134.694  1.00  0.00     0.093 A 
ATOM     17  C   UNL     1     106.788  42.714 135.046  1.00  0.00     0.131 A 
ENDROOT
BRANCH   6  18
ATOM     18  O   UNL     1     105.081  47.290 137.079  1.00  0.00    -0.507 OA
ATOM     19  H   UNL     1     104.140  46.985 137.286  1.00  0.00     0.293 HD
ENDBRANCH   6  18
BRANCH  17  20
ATOM     20  O   UNL     1     105.688  43.006 134.236  1.00  0.00    -0.507 OA
ATOM     21  H   UNL     1     105.616  42.722 133.269  1.00  0.00     0.293 HD
ENDBRANCH  17  20
BRANCH  15  22
ATOM     22  O   UNL     1     109.506  40.212 135.022  1.00  0.00    -0.508 OA
ATOM     23  H   UNL     1     109.311  39.283 135.375  1.00  0.00     0.293 HD
ENDBRANCH  15  22
TORSDOF 3
ENDMDL
MODEL 8
REMARK VINA RESULT:    -6.046      2.331      6.080
REMARK INTER + INTRA:          -6.576
REMARK INTER:                  -6.576
REMARK INTRA:                   0.000
REMARK UNBOUND:                 0.000
REMARK SMILES Cc1cc(O)c2c(c1)C(=O)c1cc(O)cc(O)c1C2=O
REMARK SMILES IDX 1 1 2 2 8 3 7 4 6 5 4 6 3 7 19 8 20 9 18 10 11 11 9 12 10 13
REMARK SMILES IDX 12 14 13 15 15 16 16 17 5 18 17 20 14 22
REMARK H PARENT 5 19 17 21 14 23
REMARK Flexibility Score: inf
ROOT
ATOM      1  C   UNL     1     101.716  43.137 135.118  1.00  0.00     0.044 C 
ATOM      2  C   UNL     1     103.075  43.631 135.519  1.00  0.00    -0.047 A 
ATOM      3  C   UNL     1     103.963  42.782 136.190  1.00  0.00     0.016 A 
ATOM      4  C   UNL     1     105.253  43.222 136.531  1.00  0.00     0.038 A 
ATOM      5  C   UNL     1     105.672  44.522 136.172  1.00  0.00     0.076 A 
ATOM      6  C   UNL     1     104.752  45.393 135.534  1.00  0.00     0.127 A 
ATOM      7  C   UNL     1     103.480  44.928 135.186  1.00  0.00     0.050 A 
ATOM      8  C   UNL     1     107.089  44.896 136.419  1.00  0.00     0.201 C 
ATOM      9  O   UNL     1     107.659  45.728 135.662  1.00  0.00    -0.288 OA
ATOM     10  C   UNL     1     107.883  44.154 137.431  1.00  0.00     0.076 A 
ATOM     11  C   UNL     1     107.460  42.853 137.788  1.00  0.00     0.041 A 
ATOM     12  C   UNL     1     106.176  42.326 137.269  1.00  0.00     0.194 C 
ATOM     13  O   UNL     1     105.856  41.123 137.478  1.00  0.00    -0.289 OA
ATOM     14  C   UNL     1     108.259  42.066 138.636  1.00  0.00     0.059 A 
ATOM     15  C   UNL     1     109.460  42.568 139.143  1.00  0.00     0.120 A 
ATOM     16  C   UNL     1     109.860  43.865 138.826  1.00  0.00     0.093 A 
ATOM     17  C   UNL     1     109.074  44.675 138.000  1.00  0.00     0.131 A 
ENDROOT
BRANCH   6  18
ATOM     18  O   UNL     1     105.045  46.731 135.256  1.00  0.00    -0.507 OA
ATOM     19  H   UNL     1     105.906  47.183 135.532  1.00  0.00     0.293 HD
ENDBRANCH   6  18
BRANCH  17  20
ATOM     20  O   UNL     1     109.493  45.993 137.802  1.00  0.00    -0.507 OA
ATOM     21  H   UNL     1     108.876  46.736 137.505  1.00  0.00     0.293 HD
ENDBRANCH  17  20
BRANCH  15  22
ATOM     22  O   UNL     1     110.261  41.786 139.974  1.00  0.00    -0.508 OA
ATOM     23  H   UNL     1     109.869  41.266 140.751  1.00  0.00     0.293 HD
ENDBRANCH  15  22
TORSDOF 3
ENDMDL
MODEL 9
REMARK VINA RESULT:    -5.969      8.852     10.633
REMARK INTER + INTRA:          -6.493
REMARK INTER:                  -6.493
REMARK INTRA:                   0.000
REMARK UNBOUND:                 0.000
REMARK SMILES Cc1cc(O)c2c(c1)C(=O)c1cc(O)cc(O)c1C2=O
REMARK SMILES IDX 1 1 2 2 8 3 7 4 6 5 4 6 3 7 19 8 20 9 18 10 11 11 9 12 10 13
REMARK SMILES IDX 12 14 13 15 15 16 16 17 5 18 17 20 14 22
REMARK H PARENT 5 19 17 21 14 23
REMARK Flexibility Score: inf
ROOT
ATOM      1  C   UNL     1     100.507  53.010 130.260  1.00  0.00     0.044 C 
ATOM      2  C   UNL     1     100.783  51.895 131.227  1.00  0.00    -0.047 A 
ATOM      3  C   UNL     1     100.419  50.582 130.910  1.00  0.00     0.016 A 
ATOM      4  C   UNL     1     100.712  49.526 131.789  1.00  0.00     0.038 A 
ATOM      5  C   UNL     1     101.405  49.783 132.992  1.00  0.00     0.076 A 
ATOM      6  C   UNL     1     101.730  51.123 133.330  1.00  0.00     0.127 A 
ATOM      7  C   UNL     1     101.446  52.155 132.431  1.00  0.00     0.050 A 
ATOM      8  C   UNL     1     101.826  48.625 133.821  1.00  0.00     0.201 C 
ATOM      9  O   UNL     1     102.866  48.704 134.528  1.00  0.00    -0.288 OA
ATOM     10  C   UNL     1     101.132  47.319 133.672  1.00  0.00     0.076 A 
ATOM     11  C   UNL     1     100.440  47.066 132.466  1.00  0.00     0.041 A 
ATOM     12  C   UNL     1     100.295  48.142 131.458  1.00  0.00     0.194 C 
ATOM     13  O   UNL     1      99.793  47.886 130.329  1.00  0.00    -0.289 OA
ATOM     14  C   UNL     1      99.889  45.794 132.230  1.00  0.00     0.059 A 
ATOM     15  C   UNL     1     100.006  44.783 133.187  1.00  0.00     0.120 A 
ATOM     16  C   UNL     1     100.653  45.042 134.395  1.00  0.00     0.093 A 
ATOM     17  C   UNL     1     101.192  46.304 134.662  1.00  0.00     0.131 A 
ENDROOT
BRANCH   6  18
ATOM     18  O   UNL     1     102.303  51.475 134.555  1.00  0.00    -0.507 OA
ATOM     19  H   UNL     1     102.330  52.422 134.906  1.00  0.00     0.293 HD
ENDBRANCH   6  18
BRANCH  17  20
ATOM     20  O   UNL     1     101.743  46.515 135.929  1.00  0.00    -0.507 OA
ATOM     21  H   UNL     1     102.691  46.829 136.079  1.00  0.00     0.293 HD
ENDBRANCH  17  20
BRANCH  15  22
ATOM     22  O   UNL     1      99.472  43.517 132.952  1.00  0.00    -0.508 OA
ATOM     23  H   UNL     1      99.451  42.808 133.675  1.00  0.00     0.293 HD
ENDBRANCH  15  22
TORSDOF 3
ENDMDL
