MODEL 1
REMARK VINA RESULT:    -3.271      0.000      0.000
REMARK INTER + INTRA:          -4.867
REMARK INTER:                  -4.418
REMARK INTRA:                  -0.449
REMARK UNBOUND:                -0.449
REMARK SMILES CCCCCCCC(=O)[O-]
REMARK SMILES IDX 5 1 6 2 7 3 8 4 9 5 10 6 4 7 3 8 2 9 1 10
REMARK H PARENT
REMARK Flexibility Score: inf
ROOT
ATOM      1  C   UNL     1    -104.654  30.103   3.246  1.00  0.00     0.000 C 
ENDROOT
BRANCH   1   2
ATOM      2  C   UNL     1    -105.141  31.271   4.125  1.00  0.00     0.006 C 
BRANCH   2   3
ATOM      3  C   UNL     1    -104.930  32.661   3.503  1.00  0.00     0.053 C 
BRANCH   3   4
ATOM      4  C   UNL     1    -106.227  33.318   3.145  1.00  0.00     0.041 C 
ATOM      5  O   UNL     1    -106.260  34.219   2.266  1.00  0.00    -0.550 OA
ATOM      6  O   UNL     1    -107.405  32.911   3.760  1.00  0.00    -0.550 OA
ENDBRANCH   3   4
ENDBRANCH   2   3
ENDBRANCH   1   2
BRANCH   1   7
ATOM      7  C   UNL     1    -105.612  28.903   3.268  1.00  0.00     0.000 C 
BRANCH   7   8
ATOM      8  C   UNL     1    -107.075  29.371   3.284  1.00  0.00    -0.000 C 
BRANCH   8   9
ATOM      9  C   UNL     1    -107.573  29.804   1.896  1.00  0.00    -0.003 C 
ATOM     10  C   UNL     1    -109.059  30.161   1.886  1.00  0.00     0.004 C 
ENDBRANCH   8   9
ENDBRANCH   7   8
ENDBRANCH   1   7
TORSDOF 6
ENDMDL
MODEL 2
REMARK VINA RESULT:    -2.938      1.772      3.906
REMARK INTER + INTRA:          -4.418
REMARK INTER:                  -4.175
REMARK INTRA:                  -0.243
REMARK UNBOUND:                -0.449
REMARK SMILES CCCCCCCC(=O)[O-]
REMARK SMILES IDX 5 1 6 2 7 3 8 4 9 5 10 6 4 7 3 8 2 9 1 10
REMARK H PARENT
REMARK Flexibility Score: inf
ROOT
ATOM      1  C   UNL     1    -104.911  30.337   3.617  1.00  0.00     0.000 C 
ENDROOT
BRANCH   1   2
ATOM      2  C   UNL     1    -105.809  29.499   2.688  1.00  0.00     0.006 C 
BRANCH   2   3
ATOM      3  C   UNL     1    -107.211  29.216   3.250  1.00  0.00     0.053 C 
BRANCH   3   4
ATOM      4  C   UNL     1    -108.275  29.962   2.504  1.00  0.00     0.041 C 
ATOM      5  O   UNL     1    -108.499  29.704   1.292  1.00  0.00    -0.550 OA
ATOM      6  O   UNL     1    -109.041  30.919   3.158  1.00  0.00    -0.550 OA
ENDBRANCH   3   4
ENDBRANCH   2   3
ENDBRANCH   1   2
BRANCH   1   7
ATOM      7  C   UNL     1    -105.488  31.732   3.903  1.00  0.00     0.000 C 
BRANCH   7   8
ATOM      8  C   UNL     1    -104.367  32.777   4.006  1.00  0.00    -0.000 C 
BRANCH   8   9
ATOM      9  C   UNL     1    -104.524  33.914   2.985  1.00  0.00    -0.003 C 
ATOM     10  C   UNL     1    -105.953  34.043   2.458  1.00  0.00     0.004 C 
ENDBRANCH   8   9
ENDBRANCH   7   8
ENDBRANCH   1   7
TORSDOF 6
ENDMDL
MODEL 3
REMARK VINA RESULT:    -2.880     11.957     13.869
REMARK INTER + INTRA:          -4.339
REMARK INTER:                  -4.163
REMARK INTRA:                  -0.176
REMARK UNBOUND:                -0.449
REMARK SMILES CCCCCCCC(=O)[O-]
REMARK SMILES IDX 5 1 6 2 7 3 8 4 9 5 10 6 4 7 3 8 2 9 1 10
REMARK H PARENT
REMARK Flexibility Score: inf
ROOT
ATOM      1  C   UNL     1    -111.695  44.447  -0.810  1.00  0.00     0.000 C 
ENDROOT
BRANCH   1   2
ATOM      2  C   UNL     1    -112.755  43.641  -1.585  1.00  0.00     0.006 C 
BRANCH   2   3
ATOM      3  C   UNL     1    -113.899  43.099  -0.713  1.00  0.00     0.053 C 
BRANCH   3   4
ATOM      4  C   UNL     1    -113.980  41.603  -0.761  1.00  0.00     0.041 C 
ATOM      5  O   UNL     1    -113.943  40.932   0.303  1.00  0.00    -0.550 OA
ATOM      6  O   UNL     1    -114.130  40.954  -1.980  1.00  0.00    -0.550 OA
ENDBRANCH   3   4
ENDBRANCH   2   3
ENDBRANCH   1   2
BRANCH   1   7
ATOM      7  C   UNL     1    -110.261  44.121  -1.251  1.00  0.00     0.000 C 
BRANCH   7   8
ATOM      8  C   UNL     1    -109.780  42.806  -0.620  1.00  0.00    -0.000 C 
BRANCH   8   9
ATOM      9  C   UNL     1    -108.397  42.937   0.039  1.00  0.00    -0.003 C 
ATOM     10  C   UNL     1    -107.320  42.128  -0.683  1.00  0.00     0.004 C 
ENDBRANCH   8   9
ENDBRANCH   7   8
ENDBRANCH   1   7
TORSDOF 6
ENDMDL
MODEL 4
REMARK VINA RESULT:    -2.871     12.290     13.638
REMARK INTER + INTRA:          -4.326
REMARK INTER:                  -4.080
REMARK INTRA:                  -0.246
REMARK UNBOUND:                -0.449
REMARK SMILES CCCCCCCC(=O)[O-]
REMARK SMILES IDX 5 1 6 2 7 3 8 4 9 5 10 6 4 7 3 8 2 9 1 10
REMARK H PARENT
REMARK Flexibility Score: inf
ROOT
ATOM      1  C   UNL     1    -111.476  44.662  -0.741  1.00  0.00     0.000 C 
ENDROOT
BRANCH   1   2
ATOM      2  C   UNL     1    -110.021  44.332  -1.125  1.00  0.00     0.006 C 
BRANCH   2   3
ATOM      3  C   UNL     1    -109.570  42.916  -0.732  1.00  0.00     0.053 C 
BRANCH   3   4
ATOM      4  C   UNL     1    -108.180  42.906  -0.173  1.00  0.00     0.041 C 
ATOM      5  O   UNL     1    -107.362  42.015  -0.526  1.00  0.00    -0.550 OA
ATOM      6  O   UNL     1    -107.778  43.899   0.711  1.00  0.00    -0.550 OA
ENDBRANCH   3   4
ENDBRANCH   2   3
ENDBRANCH   1   2
BRANCH   1   7
ATOM      7  C   UNL     1    -112.503  43.960  -1.642  1.00  0.00     0.000 C 
BRANCH   7   8
ATOM      8  C   UNL     1    -113.686  43.435  -0.816  1.00  0.00    -0.000 C 
BRANCH   8   9
ATOM      9  C   UNL     1    -113.677  41.904  -0.677  1.00  0.00    -0.003 C 
ATOM     10  C   UNL     1    -115.033  41.340  -0.257  1.00  0.00     0.004 C 
ENDBRANCH   8   9
ENDBRANCH   7   8
ENDBRANCH   1   7
TORSDOF 6
ENDMDL
MODEL 5
REMARK VINA RESULT:    -2.749     15.384     17.081
REMARK INTER + INTRA:          -4.162
REMARK INTER:                  -3.652
REMARK INTRA:                  -0.511
REMARK UNBOUND:                -0.449
REMARK SMILES CCCCCCCC(=O)[O-]
REMARK SMILES IDX 5 1 6 2 7 3 8 4 9 5 10 6 4 7 3 8 2 9 1 10
REMARK H PARENT
REMARK Flexibility Score: inf
ROOT
ATOM      1  C   UNL     1    -116.515  33.486  -9.385  1.00  0.00     0.000 C 
ENDROOT
BRANCH   1   2
ATOM      2  C   UNL     1    -116.862  33.976 -10.803  1.00  0.00     0.006 C 
BRANCH   2   3
ATOM      3  C   UNL     1    -115.648  34.425 -11.632  1.00  0.00     0.053 C 
BRANCH   3   4
ATOM      4  C   UNL     1    -115.357  33.480 -12.757  1.00  0.00     0.041 C 
ATOM      5  O   UNL     1    -115.939  32.365 -12.815  1.00  0.00    -0.550 OA
ATOM      6  O   UNL     1    -114.467  33.845 -13.759  1.00  0.00    -0.550 OA
ENDBRANCH   3   4
ENDBRANCH   2   3
ENDBRANCH   1   2
BRANCH   1   7
ATOM      7  C   UNL     1    -115.075  33.826  -8.974  1.00  0.00     0.000 C 
BRANCH   7   8
ATOM      8  C   UNL     1    -115.053  34.631  -7.667  1.00  0.00    -0.000 C 
BRANCH   8   9
ATOM      9  C   UNL     1    -115.963  35.869  -7.720  1.00  0.00    -0.003 C 
ATOM     10  C   UNL     1    -115.443  36.943  -8.674  1.00  0.00     0.004 C 
ENDBRANCH   8   9
ENDBRANCH   7   8
ENDBRANCH   1   7
TORSDOF 6
ENDMDL
MODEL 6
REMARK VINA RESULT:    -2.741     15.633     17.646
REMARK INTER + INTRA:          -4.151
REMARK INTER:                  -3.908
REMARK INTRA:                  -0.243
REMARK UNBOUND:                -0.449
REMARK SMILES CCCCCCCC(=O)[O-]
REMARK SMILES IDX 5 1 6 2 7 3 8 4 9 5 10 6 4 7 3 8 2 9 1 10
REMARK H PARENT
REMARK Flexibility Score: inf
ROOT
ATOM      1  C   UNL     1    -115.886  35.054 -11.370  1.00  0.00     0.000 C 
ENDROOT
BRANCH   1   2
ATOM      2  C   UNL     1    -115.375  33.696 -11.886  1.00  0.00     0.006 C 
BRANCH   2   3
ATOM      3  C   UNL     1    -116.474  32.777 -12.444  1.00  0.00     0.053 C 
BRANCH   3   4
ATOM      4  C   UNL     1    -115.925  31.761 -13.397  1.00  0.00     0.041 C 
ATOM      5  O   UNL     1    -115.063  32.095 -14.253  1.00  0.00    -0.550 OA
ATOM      6  O   UNL     1    -116.340  30.437 -13.319  1.00  0.00    -0.550 OA
ENDBRANCH   3   4
ENDBRANCH   2   3
ENDBRANCH   1   2
BRANCH   1   7
ATOM      7  C   UNL     1    -116.224  35.032  -9.873  1.00  0.00     0.000 C 
BRANCH   7   8
ATOM      8  C   UNL     1    -115.325  34.040  -9.122  1.00  0.00    -0.000 C 
BRANCH   8   9
ATOM      9  C   UNL     1    -114.923  34.543  -7.727  1.00  0.00    -0.003 C 
ATOM     10  C   UNL     1    -115.985  35.442  -7.095  1.00  0.00     0.004 C 
ENDBRANCH   8   9
ENDBRANCH   7   8
ENDBRANCH   1   7
TORSDOF 6
ENDMDL
MODEL 7
REMARK VINA RESULT:    -2.711     15.062     16.407
REMARK INTER + INTRA:          -4.111
REMARK INTER:                  -3.637
REMARK INTRA:                  -0.474
REMARK UNBOUND:                -0.449
REMARK SMILES CCCCCCCC(=O)[O-]
REMARK SMILES IDX 5 1 6 2 7 3 8 4 9 5 10 6 4 7 3 8 2 9 1 10
REMARK H PARENT
REMARK Flexibility Score: inf
ROOT
ATOM      1  C   UNL     1    -115.115  34.918  -7.506  1.00  0.00     0.000 C 
ENDROOT
BRANCH   1   2
ATOM      2  C   UNL     1    -114.967  33.866  -8.622  1.00  0.00     0.006 C 
BRANCH   2   3
ATOM      3  C   UNL     1    -116.113  33.865  -9.646  1.00  0.00     0.053 C 
BRANCH   3   4
ATOM      4  C   UNL     1    -115.656  34.317 -10.999  1.00  0.00     0.041 C 
ATOM      5  O   UNL     1    -115.048  33.521 -11.761  1.00  0.00    -0.550 OA
ATOM      6  O   UNL     1    -115.931  35.609 -11.430  1.00  0.00    -0.550 OA
ENDBRANCH   3   4
ENDBRANCH   2   3
ENDBRANCH   1   2
BRANCH   1   7
ATOM      7  C   UNL     1    -116.575  35.329  -7.266  1.00  0.00     0.000 C 
BRANCH   7   8
ATOM      8  C   UNL     1    -116.716  36.857  -7.239  1.00  0.00    -0.000 C 
BRANCH   8   9
ATOM      9  C   UNL     1    -116.577  37.489  -8.633  1.00  0.00    -0.003 C 
ATOM     10  C   UNL     1    -115.342  38.380  -8.759  1.00  0.00     0.004 C 
ENDBRANCH   8   9
ENDBRANCH   7   8
ENDBRANCH   1   7
TORSDOF 6
ENDMDL
MODEL 8
REMARK VINA RESULT:    -2.704     14.677     16.009
REMARK INTER + INTRA:          -4.101
REMARK INTER:                  -3.550
REMARK INTRA:                  -0.551
REMARK UNBOUND:                -0.449
REMARK SMILES CCCCCCCC(=O)[O-]
REMARK SMILES IDX 5 1 6 2 7 3 8 4 9 5 10 6 4 7 3 8 2 9 1 10
REMARK H PARENT
REMARK Flexibility Score: inf
ROOT
ATOM      1  C   UNL     1    -115.054  34.953  -7.595  1.00  0.00     0.000 C 
ENDROOT
BRANCH   1   2
ATOM      2  C   UNL     1    -116.406  35.655  -7.370  1.00  0.00     0.006 C 
BRANCH   2   3
ATOM      3  C   UNL     1    -116.385  37.168  -7.639  1.00  0.00     0.053 C 
BRANCH   3   4
ATOM      4  C   UNL     1    -115.706  37.498  -8.933  1.00  0.00     0.041 C 
ATOM      5  O   UNL     1    -114.614  38.125  -8.934  1.00  0.00    -0.550 OA
ATOM      6  O   UNL     1    -116.264  37.084 -10.136  1.00  0.00    -0.550 OA
ENDBRANCH   3   4
ENDBRANCH   2   3
ENDBRANCH   1   2
BRANCH   1   7
ATOM      7  C   UNL     1    -115.119  33.872  -8.684  1.00  0.00     0.000 C 
BRANCH   7   8
ATOM      8  C   UNL     1    -116.563  33.661  -9.160  1.00  0.00    -0.000 C 
BRANCH   8   9
ATOM      9  C   UNL     1    -116.670  33.538 -10.688  1.00  0.00    -0.003 C 
ATOM     10  C   UNL     1    -115.374  33.917 -11.404  1.00  0.00     0.004 C 
ENDBRANCH   8   9
ENDBRANCH   7   8
ENDBRANCH   1   7
TORSDOF 6
ENDMDL
MODEL 9
REMARK VINA RESULT:    -2.642     14.673     16.592
REMARK INTER + INTRA:          -4.017
REMARK INTER:                  -3.467
REMARK INTRA:                  -0.550
REMARK UNBOUND:                -0.449
REMARK SMILES CCCCCCCC(=O)[O-]
REMARK SMILES IDX 5 1 6 2 7 3 8 4 9 5 10 6 4 7 3 8 2 9 1 10
REMARK H PARENT
REMARK Flexibility Score: inf
ROOT
ATOM      1  C   UNL     1    -115.609  34.609 -11.091  1.00  0.00     0.000 C 
ENDROOT
BRANCH   1   2
ATOM      2  C   UNL     1    -115.995  36.013 -11.592  1.00  0.00     0.006 C 
BRANCH   2   3
ATOM      3  C   UNL     1    -116.434  36.981 -10.482  1.00  0.00     0.053 C 
BRANCH   3   4
ATOM      4  C   UNL     1    -115.374  37.991 -10.167  1.00  0.00     0.041 C 
ATOM      5  O   UNL     1    -114.788  37.968  -9.052  1.00  0.00    -0.550 OA
ATOM      6  O   UNL     1    -115.010  38.938 -11.117  1.00  0.00    -0.550 OA
ENDBRANCH   3   4
ENDBRANCH   2   3
ENDBRANCH   1   2
BRANCH   1   7
ATOM      7  C   UNL     1    -116.136  34.315  -9.678  1.00  0.00     0.000 C 
BRANCH   7   8
ATOM      8  C   UNL     1    -115.001  33.840  -8.759  1.00  0.00    -0.000 C 
BRANCH   8   9
ATOM      9  C   UNL     1    -114.859  34.707  -7.498  1.00  0.00    -0.003 C 
ATOM     10  C   UNL     1    -116.157  35.422  -7.124  1.00  0.00     0.004 C 
ENDBRANCH   8   9
ENDBRANCH   7   8
ENDBRANCH   1   7
TORSDOF 6
ENDMDL
