MODEL 1
REMARK VINA RESULT:    -3.614      0.000      0.000
REMARK INTER + INTRA:          -4.942
REMARK INTER:                  -5.093
REMARK INTRA:                   0.151
REMARK UNBOUND:                 0.151
REMARK SMILES CC1=CCC(=C(C)C)C(=O)CC(C)=CCC1
REMARK SMILES IDX 12 1 14 2 13 3 15 4 16 5 2 6 1 7 3 8 11 10 9 11 10 12 5 13
REMARK SMILES IDX 6 14 7 15 8 16 4 17
REMARK H PARENT
REMARK Flexibility Score: 60.00
ROOT
ATOM      1  C   UNL     1     -31.317  18.770  23.534  1.00  0.00    -0.070 C 
ATOM      2  C   UNL     1     -31.116  19.841  24.334  1.00  0.00    -0.027 C 
ATOM      3  C   UNL     1     -32.323  17.737  23.977  1.00  0.00     0.039 C 
ENDROOT
BRANCH   2   4
ATOM      4  C   UNL     1     -30.087  20.928  24.112  1.00  0.00     0.032 C 
BRANCH   4   5
ATOM      5  C   UNL     1     -28.670  20.592  24.617  1.00  0.00     0.034 C 
BRANCH   5   6
ATOM      6  C   UNL     1     -27.596  20.798  23.563  1.00  0.00    -0.077 C 
ATOM      7  C   UNL     1     -27.246  22.215  23.185  1.00  0.00     0.039 C 
ATOM      8  C   UNL     1     -26.981  19.793  22.892  1.00  0.00    -0.023 CG0
ATOM      9  G   UNL     1     -27.157  18.304  23.114  1.00  0.00     0.000 G0
ENDBRANCH   5   6
ENDBRANCH   4   5
ENDBRANCH   2   4
BRANCH   1  10
ATOM     10  C   UNL     1     -30.519  18.513  22.273  1.00  0.00     0.111 C 
BRANCH  10  11
ATOM     11  C   UNL     1     -29.476  17.447  22.483  1.00  0.00     0.163 C 
ATOM     12  O   UNL     1     -29.823  16.380  23.057  1.00  0.00    -0.294 OA
BRANCH  11  13
ATOM     13  C   UNL     1     -28.046  17.638  22.093  1.00  0.00    -0.002 C 
ATOM     14  C   UNL     1     -27.579  17.167  20.898  1.00  0.00    -0.069 C 
ATOM     15  C   UNL     1     -26.108  17.203  20.543  1.00  0.00     0.039 C 
ATOM     16  C   UNL     1     -28.516  16.581  19.865  1.00  0.00     0.039 C 
BRANCH  13  17
ATOM     17  C   UNL     1     -27.127  18.286  23.116  1.00  0.00     0.066 CG0
ATOM     18  G   UNL     1     -26.983  19.779  22.898  1.00  0.00     0.000 G0
ENDBRANCH  13  17
ENDBRANCH  11  13
ENDBRANCH  10  11
ENDBRANCH   1  10
TORSDOF 0
ENDMDL
MODEL 2
REMARK VINA RESULT:    -3.413      3.401      6.056
REMARK INTER + INTRA:          -4.658
REMARK INTER:                  -4.793
REMARK INTRA:                   0.135
REMARK UNBOUND:                 0.151
REMARK SMILES CC1=CCC(=C(C)C)C(=O)CC(C)=CCC1
REMARK SMILES IDX 12 1 14 2 13 3 15 4 16 5 2 6 1 7 3 8 11 10 9 11 10 12 5 13
REMARK SMILES IDX 6 14 7 15 8 16 4 17
REMARK H PARENT
REMARK Flexibility Score: 60.00
ROOT
ATOM      1  C   UNL     1     -29.318  21.265  23.687  1.00  0.00    -0.070 C 
ATOM      2  C   UNL     1     -30.053  20.471  22.877  1.00  0.00    -0.027 C 
ATOM      3  C   UNL     1     -28.021  21.816  23.148  1.00  0.00     0.039 C 
ENDROOT
BRANCH   2   4
ATOM      4  C   UNL     1     -31.325  19.749  23.264  1.00  0.00     0.032 C 
BRANCH   4   5
ATOM      5  C   UNL     1     -31.114  18.447  24.063  1.00  0.00     0.034 C 
BRANCH   5   6
ATOM      6  C   UNL     1     -31.961  18.375  25.322  1.00  0.00    -0.077 C 
ATOM      7  C   UNL     1     -33.457  18.285  25.156  1.00  0.00     0.039 C 
ATOM      8  C   UNL     1     -31.466  18.454  26.581  1.00  0.00    -0.023 CG0
ATOM      9  G   UNL     1     -30.008  18.528  26.988  1.00  0.00     0.000 G0
ENDBRANCH   5   6
ENDBRANCH   4   5
ENDBRANCH   2   4
BRANCH   1  10
ATOM     10  C   UNL     1     -29.685  21.548  25.128  1.00  0.00     0.111 C 
BRANCH  10  11
ATOM     11  C   UNL     1     -28.904  20.682  26.082  1.00  0.00     0.163 C 
ATOM     12  O   UNL     1     -27.675  20.512  25.859  1.00  0.00    -0.294 OA
BRANCH  11  13
ATOM     13  C   UNL     1     -29.545  19.977  27.232  1.00  0.00    -0.002 C 
ATOM     14  C   UNL     1     -29.636  20.578  28.456  1.00  0.00    -0.069 C 
ATOM     15  C   UNL     1     -30.134  19.836  29.677  1.00  0.00     0.039 C 
ATOM     16  C   UNL     1     -29.239  22.025  28.652  1.00  0.00     0.039 C 
BRANCH  13  17
ATOM     17  C   UNL     1     -29.998  18.543  27.004  1.00  0.00     0.066 CG0
ATOM     18  G   UNL     1     -31.456  18.457  26.601  1.00  0.00     0.000 G0
ENDBRANCH  13  17
ENDBRANCH  11  13
ENDBRANCH  10  11
ENDBRANCH   1  10
TORSDOF 0
ENDMDL
MODEL 3
REMARK VINA RESULT:    -3.320      2.163      4.890
REMARK INTER + INTRA:          -4.527
REMARK INTER:                  -4.700
REMARK INTRA:                   0.173
REMARK UNBOUND:                 0.151
REMARK SMILES CC1=CCC(=C(C)C)C(=O)CC(C)=CCC1
REMARK SMILES IDX 12 1 14 2 13 3 15 4 16 5 2 6 1 7 3 8 11 10 9 11 10 12 5 13
REMARK SMILES IDX 6 14 7 15 8 16 4 17
REMARK H PARENT
REMARK Flexibility Score: 60.00
ROOT
ATOM      1  C   UNL     1     -30.340  17.076  21.810  1.00  0.00    -0.070 C 
ATOM      2  C   UNL     1     -31.212  16.179  22.320  1.00  0.00    -0.027 C 
ATOM      3  C   UNL     1     -29.241  16.561  20.914  1.00  0.00     0.039 C 
ENDROOT
BRANCH   2   4
ATOM      4  C   UNL     1     -32.317  16.484  23.309  1.00  0.00     0.032 C 
BRANCH   4   5
ATOM      5  C   UNL     1     -31.858  16.604  24.776  1.00  0.00     0.034 C 
BRANCH   5   6
ATOM      6  C   UNL     1     -32.306  17.897  25.437  1.00  0.00    -0.077 C 
ATOM      7  C   UNL     1     -33.780  18.078  25.697  1.00  0.00     0.039 C 
ATOM      8  C   UNL     1     -31.477  18.923  25.746  1.00  0.00    -0.023 CG0
ATOM      9  G   UNL     1     -29.969  18.959  25.595  1.00  0.00     0.000 G0
ENDBRANCH   5   6
ENDBRANCH   4   5
ENDBRANCH   2   4
BRANCH   1  10
ATOM     10  C   UNL     1     -30.357  18.547  22.167  1.00  0.00     0.111 C 
BRANCH  10  11
ATOM     11  C   UNL     1     -29.254  18.898  23.131  1.00  0.00     0.163 C 
ATOM     12  O   UNL     1     -28.101  18.440  22.906  1.00  0.00    -0.294 OA
BRANCH  11  13
ATOM     13  C   UNL     1     -29.493  19.710  24.361  1.00  0.00    -0.002 C 
ATOM     14  C   UNL     1     -29.220  21.049  24.379  1.00  0.00    -0.069 C 
ATOM     15  C   UNL     1     -29.302  21.867  25.650  1.00  0.00     0.039 C 
ATOM     16  C   UNL     1     -28.820  21.785  23.119  1.00  0.00     0.039 C 
BRANCH  13  17
ATOM     17  C   UNL     1     -29.956  18.968  25.605  1.00  0.00     0.066 CG0
ATOM     18  G   UNL     1     -31.467  18.920  25.718  1.00  0.00     0.000 G0
ENDBRANCH  13  17
ENDBRANCH  11  13
ENDBRANCH  10  11
ENDBRANCH   1  10
TORSDOF 0
ENDMDL
MODEL 4
REMARK VINA RESULT:    -3.296      3.091      4.470
REMARK INTER + INTRA:          -4.494
REMARK INTER:                  -5.107
REMARK INTRA:                   0.613
REMARK UNBOUND:                 0.151
REMARK SMILES CC1=CCC(=C(C)C)C(=O)CC(C)=CCC1
REMARK SMILES IDX 12 1 14 2 13 3 15 4 16 5 2 6 1 7 3 8 11 10 9 11 10 12 5 13
REMARK SMILES IDX 6 14 7 15 8 16 4 17
REMARK H PARENT
REMARK Flexibility Score: 60.00
ROOT
ATOM      1  C   UNL     1     -34.095  17.359  25.250  1.00  0.00    -0.070 C 
ATOM      2  C   UNL     1     -33.793  18.651  25.508  1.00  0.00    -0.027 C 
ATOM      3  C   UNL     1     -34.635  16.520  26.381  1.00  0.00     0.039 C 
ENDROOT
BRANCH   2   4
ATOM      4  C   UNL     1     -33.154  19.620  24.537  1.00  0.00     0.032 C 
BRANCH   4   5
ATOM      5  C   UNL     1     -31.727  20.067  24.912  1.00  0.00     0.034 C 
BRANCH   5   6
ATOM      6  C   UNL     1     -30.655  19.431  24.043  1.00  0.00    -0.077 C 
ATOM      7  C   UNL     1     -30.145  20.223  22.866  1.00  0.00     0.039 C 
ATOM      8  C   UNL     1     -30.178  18.174  24.216  1.00  0.00    -0.023 CG0
ATOM      9  G   UNL     1     -30.527  17.209  25.331  1.00  0.00     0.000 G0
ENDBRANCH   5   6
ENDBRANCH   4   5
ENDBRANCH   2   4
BRANCH   1  10
ATOM     10  C   UNL     1     -33.830  16.695  23.915  1.00  0.00     0.111 C 
BRANCH  10  11
ATOM     11  C   UNL     1     -32.370  16.373  23.733  1.00  0.00     0.163 C 
ATOM     12  O   UNL     1     -31.920  16.294  22.558  1.00  0.00    -0.294 OA
BRANCH  11  13
ATOM     13  C   UNL     1     -31.465  16.083  24.886  1.00  0.00    -0.002 C 
ATOM     14  C   UNL     1     -31.546  14.895  25.556  1.00  0.00    -0.069 C 
ATOM     15  C   UNL     1     -30.757  14.634  26.821  1.00  0.00     0.039 C 
ATOM     16  C   UNL     1     -32.435  13.774  25.063  1.00  0.00     0.039 C 
BRANCH  13  17
ATOM     17  C   UNL     1     -30.531  17.197  25.333  1.00  0.00     0.066 CG0
ATOM     18  G   UNL     1     -30.206  18.162  24.210  1.00  0.00     0.000 G0
ENDBRANCH  13  17
ENDBRANCH  11  13
ENDBRANCH  10  11
ENDBRANCH   1  10
TORSDOF 0
ENDMDL
MODEL 5
REMARK VINA RESULT:    -3.289      3.265      5.718
REMARK INTER + INTRA:          -4.484
REMARK INTER:                  -4.976
REMARK INTRA:                   0.492
REMARK UNBOUND:                 0.151
REMARK SMILES CC1=CCC(=C(C)C)C(=O)CC(C)=CCC1
REMARK SMILES IDX 12 1 14 2 13 3 15 4 16 5 2 6 1 7 3 8 11 10 9 11 10 12 5 13
REMARK SMILES IDX 6 14 7 15 8 16 4 17
REMARK H PARENT
REMARK Flexibility Score: 60.00
ROOT
ATOM      1  C   UNL     1     -33.748  17.855  24.981  1.00  0.00    -0.070 C 
ATOM      2  C   UNL     1     -34.124  17.511  26.232  1.00  0.00    -0.027 C 
ATOM      3  C   UNL     1     -33.566  19.321  24.676  1.00  0.00     0.039 C 
ENDROOT
BRANCH   2   4
ATOM      4  C   UNL     1     -34.450  16.110  26.703  1.00  0.00     0.032 C 
BRANCH   4   5
ATOM      5  C   UNL     1     -33.305  15.395  27.449  1.00  0.00     0.034 C 
BRANCH   5   6
ATOM      6  C   UNL     1     -32.448  14.531  26.539  1.00  0.00    -0.077 C 
ATOM      7  C   UNL     1     -32.791  13.067  26.435  1.00  0.00     0.039 C 
ATOM      8  C   UNL     1     -31.357  14.976  25.869  1.00  0.00    -0.023 CG0
ATOM      9  G   UNL     1     -30.838  16.399  25.809  1.00  0.00     0.000 G0
ENDBRANCH   5   6
ENDBRANCH   4   5
ENDBRANCH   2   4
BRANCH   1  10
ATOM     10  C   UNL     1     -33.594  16.854  23.855  1.00  0.00     0.111 C 
BRANCH  10  11
ATOM     11  C   UNL     1     -32.146  16.534  23.589  1.00  0.00     0.163 C 
ATOM     12  O   UNL     1     -31.876  15.747  22.643  1.00  0.00    -0.294 OA
BRANCH  11  13
ATOM     13  C   UNL     1     -31.040  17.065  24.441  1.00  0.00    -0.002 C 
ATOM     14  C   UNL     1     -30.198  18.032  23.969  1.00  0.00    -0.069 C 
ATOM     15  C   UNL     1     -28.975  18.477  24.742  1.00  0.00     0.039 C 
ATOM     16  C   UNL     1     -30.448  18.710  22.639  1.00  0.00     0.039 C 
BRANCH  13  17
ATOM     17  C   UNL     1     -30.838  16.417  25.802  1.00  0.00     0.066 CG0
ATOM     18  G   UNL     1     -31.366  14.997  25.848  1.00  0.00     0.000 G0
ENDBRANCH  13  17
ENDBRANCH  11  13
ENDBRANCH  10  11
ENDBRANCH   1  10
TORSDOF 0
ENDMDL
MODEL 6
REMARK VINA RESULT:    -3.255      2.112      2.894
REMARK INTER + INTRA:          -4.436
REMARK INTER:                  -4.686
REMARK INTRA:                   0.250
REMARK UNBOUND:                 0.151
REMARK SMILES CC1=CCC(=C(C)C)C(=O)CC(C)=CCC1
REMARK SMILES IDX 12 1 14 2 13 3 15 4 16 5 2 6 1 7 3 8 11 10 9 11 10 12 5 13
REMARK SMILES IDX 6 14 7 15 8 16 4 17
REMARK H PARENT
REMARK Flexibility Score: 60.00
ROOT
ATOM      1  C   UNL     1     -33.550  17.562  24.993  1.00  0.00    -0.070 C 
ATOM      2  C   UNL     1     -33.333  18.869  25.255  1.00  0.00    -0.027 C 
ATOM      3  C   UNL     1     -34.273  16.744  26.034  1.00  0.00     0.039 C 
ENDROOT
BRANCH   2   4
ATOM      4  C   UNL     1     -32.547  19.826  24.386  1.00  0.00     0.032 C 
BRANCH   4   5
ATOM      5  C   UNL     1     -31.127  20.149  24.895  1.00  0.00     0.034 C 
BRANCH   5   6
ATOM      6  C   UNL     1     -30.058  19.983  23.829  1.00  0.00    -0.077 C 
ATOM      7  C   UNL     1     -29.709  21.187  22.993  1.00  0.00     0.039 C 
ATOM      8  C   UNL     1     -29.447  18.809  23.537  1.00  0.00    -0.023 CG0
ATOM      9  G   UNL     1     -29.624  17.483  24.251  1.00  0.00     0.000 G0
ENDBRANCH   5   6
ENDBRANCH   4   5
ENDBRANCH   2   4
BRANCH   1  10
ATOM     10  C   UNL     1     -33.025  16.864  23.756  1.00  0.00     0.111 C 
BRANCH  10  11
ATOM     11  C   UNL     1     -31.765  16.091  24.045  1.00  0.00     0.163 C 
ATOM     12  O   UNL     1     -31.835  15.118  24.843  1.00  0.00    -0.294 OA
BRANCH  11  13
ATOM     13  C   UNL     1     -30.440  16.477  23.474  1.00  0.00    -0.002 C 
ATOM     14  C   UNL     1     -29.966  15.876  22.341  1.00  0.00    -0.069 C 
ATOM     15  C   UNL     1     -28.565  16.129  21.827  1.00  0.00     0.039 C 
ATOM     16  C   UNL     1     -30.826  14.922  21.541  1.00  0.00     0.039 C 
BRANCH  13  17
ATOM     17  C   UNL     1     -29.612  17.485  24.256  1.00  0.00     0.066 CG0
ATOM     18  G   UNL     1     -29.475  18.807  23.527  1.00  0.00     0.000 G0
ENDBRANCH  13  17
ENDBRANCH  11  13
ENDBRANCH  10  11
ENDBRANCH   1  10
TORSDOF 0
ENDMDL
MODEL 7
REMARK VINA RESULT:    -3.241      1.789      4.673
REMARK INTER + INTRA:          -4.417
REMARK INTER:                  -4.914
REMARK INTRA:                   0.497
REMARK UNBOUND:                 0.151
REMARK SMILES CC1=CCC(=C(C)C)C(=O)CC(C)=CCC1
REMARK SMILES IDX 12 1 14 2 13 3 15 4 16 5 2 6 1 7 3 8 11 10 9 11 10 12 5 13
REMARK SMILES IDX 6 14 7 15 8 16 4 17
REMARK H PARENT
REMARK Flexibility Score: 60.00
ROOT
ATOM      1  C   UNL     1     -28.464  20.777  23.653  1.00  0.00    -0.070 C 
ATOM      2  C   UNL     1     -27.502  19.865  23.913  1.00  0.00    -0.027 C 
ATOM      3  C   UNL     1     -28.072  22.020  22.894  1.00  0.00     0.039 C 
ENDROOT
BRANCH   2   4
ATOM      4  C   UNL     1     -27.675  18.609  24.739  1.00  0.00     0.032 C 
BRANCH   4   5
ATOM      5  C   UNL     1     -27.502  17.290  23.958  1.00  0.00     0.034 C 
BRANCH   5   6
ATOM      6  C   UNL     1     -28.214  17.293  22.616  1.00  0.00    -0.077 C 
ATOM      7  C   UNL     1     -27.365  17.338  21.372  1.00  0.00     0.039 C 
ATOM      8  C   UNL     1     -29.561  17.327  22.467  1.00  0.00    -0.023 CG0
ATOM      9  G   UNL     1     -30.605  17.271  23.565  1.00  0.00     0.000 G0
ENDBRANCH   5   6
ENDBRANCH   4   5
ENDBRANCH   2   4
BRANCH   1  10
ATOM     10  C   UNL     1     -29.884  20.655  24.163  1.00  0.00     0.111 C 
BRANCH  10  11
ATOM     11  C   UNL     1     -30.734  19.812  23.249  1.00  0.00     0.163 C 
ATOM     12  O   UNL     1     -30.924  20.219  22.071  1.00  0.00    -0.294 OA
BRANCH  11  13
ATOM     13  C   UNL     1     -31.400  18.556  23.708  1.00  0.00    -0.002 C 
ATOM     14  C   UNL     1     -32.630  18.596  24.304  1.00  0.00    -0.069 C 
ATOM     15  C   UNL     1     -33.261  17.366  24.920  1.00  0.00     0.039 C 
ATOM     16  C   UNL     1     -33.425  19.881  24.378  1.00  0.00     0.039 C 
BRANCH  13  17
ATOM     17  C   UNL     1     -30.615  17.261  23.570  1.00  0.00     0.066 CG0
ATOM     18  G   UNL     1     -29.560  17.340  22.485  1.00  0.00     0.000 G0
ENDBRANCH  13  17
ENDBRANCH  11  13
ENDBRANCH  10  11
ENDBRANCH   1  10
TORSDOF 0
ENDMDL
MODEL 8
REMARK VINA RESULT:    -3.153      1.673      3.520
REMARK INTER + INTRA:          -4.293
REMARK INTER:                  -5.067
REMARK INTRA:                   0.774
REMARK UNBOUND:                 0.151
REMARK SMILES CC1=CCC(=C(C)C)C(=O)CC(C)=CCC1
REMARK SMILES IDX 12 1 14 2 13 3 15 4 16 5 2 6 1 7 3 8 11 10 9 11 10 12 5 13
REMARK SMILES IDX 6 14 7 15 8 16 4 17
REMARK H PARENT
REMARK Flexibility Score: 60.00
ROOT
ATOM      1  C   UNL     1     -28.462  21.303  23.897  1.00  0.00    -0.070 C 
ATOM      2  C   UNL     1     -29.786  21.039  23.841  1.00  0.00    -0.027 C 
ATOM      3  C   UNL     1     -27.986  22.315  24.909  1.00  0.00     0.039 C 
ENDROOT
BRANCH   2   4
ATOM      4  C   UNL     1     -30.465  20.134  22.837  1.00  0.00     0.032 C 
BRANCH   4   5
ATOM      5  C   UNL     1     -31.307  18.998  23.453  1.00  0.00     0.034 C 
BRANCH   5   6
ATOM      6  C   UNL     1     -30.466  17.951  24.164  1.00  0.00    -0.077 C 
ATOM      7  C   UNL     1     -30.820  17.617  25.591  1.00  0.00     0.039 C 
ATOM      8  C   UNL     1     -29.379  17.348  23.623  1.00  0.00    -0.023 CG0
ATOM      9  G   UNL     1     -28.851  17.512  22.212  1.00  0.00     0.000 G0
ENDBRANCH   5   6
ENDBRANCH   4   5
ENDBRANCH   2   4
BRANCH   1  10
ATOM     10  C   UNL     1     -27.455  20.705  22.937  1.00  0.00     0.111 C 
BRANCH  10  11
ATOM     11  C   UNL     1     -27.216  19.245  23.219  1.00  0.00     0.163 C 
ATOM     12  O   UNL     1     -26.739  18.927  24.342  1.00  0.00    -0.294 OA
BRANCH  11  13
ATOM     13  C   UNL     1     -27.464  18.182  22.200  1.00  0.00    -0.002 C 
ATOM     14  C   UNL     1     -26.525  17.893  21.249  1.00  0.00    -0.069 C 
ATOM     15  C   UNL     1     -26.806  16.937  20.110  1.00  0.00     0.039 C 
ATOM     16  C   UNL     1     -25.149  18.521  21.289  1.00  0.00     0.039 C 
BRANCH  13  17
ATOM     17  C   UNL     1     -28.830  17.514  22.209  1.00  0.00     0.066 CG0
ATOM     18  G   UNL     1     -29.376  17.340  23.612  1.00  0.00     0.000 G0
ENDBRANCH  13  17
ENDBRANCH  11  13
ENDBRANCH  10  11
ENDBRANCH   1  10
TORSDOF 0
ENDMDL
MODEL 9
REMARK VINA RESULT:    -3.103      3.520      5.463
REMARK INTER + INTRA:          -4.222
REMARK INTER:                  -4.359
REMARK INTRA:                   0.136
REMARK UNBOUND:                 0.151
REMARK SMILES CC1=CCC(=C(C)C)C(=O)CC(C)=CCC1
REMARK SMILES IDX 12 1 14 2 13 3 15 4 16 5 2 6 1 7 3 8 11 10 9 11 10 12 5 13
REMARK SMILES IDX 6 14 7 15 8 16 4 17
REMARK H PARENT
REMARK Flexibility Score: 60.00
ROOT
ATOM      1  C   UNL     1     -31.197  19.209  23.893  1.00  0.00    -0.070 C 
ATOM      2  C   UNL     1     -32.410  19.512  24.405  1.00  0.00    -0.027 C 
ATOM      3  C   UNL     1     -30.628  20.124  22.838  1.00  0.00     0.039 C 
ENDROOT
BRANCH   2   4
ATOM      4  C   UNL     1     -33.186  18.671  25.395  1.00  0.00     0.032 C 
BRANCH   4   5
ATOM      5  C   UNL     1     -33.936  17.472  24.780  1.00  0.00     0.034 C 
BRANCH   5   6
ATOM      6  C   UNL     1     -33.689  16.169  25.520  1.00  0.00    -0.077 C 
ATOM      7  C   UNL     1     -34.216  16.051  26.928  1.00  0.00     0.039 C 
ATOM      8  C   UNL     1     -32.969  15.134  25.024  1.00  0.00    -0.023 CG0
ATOM      9  G   UNL     1     -32.365  15.021  23.638  1.00  0.00     0.000 G0
ENDBRANCH   5   6
ENDBRANCH   4   5
ENDBRANCH   2   4
BRANCH   1  10
ATOM     10  C   UNL     1     -30.431  17.955  24.257  1.00  0.00     0.111 C 
BRANCH  10  11
ATOM     11  C   UNL     1     -30.619  16.870  23.230  1.00  0.00     0.163 C 
ATOM     12  O   UNL     1     -30.594  17.194  22.012  1.00  0.00    -0.294 OA
BRANCH  11  13
ATOM     13  C   UNL     1     -30.895  15.451  23.605  1.00  0.00    -0.002 C 
ATOM     14  C   UNL     1     -29.869  14.574  23.825  1.00  0.00    -0.069 C 
ATOM     15  C   UNL     1     -30.112  13.098  24.051  1.00  0.00     0.039 C 
ATOM     16  C   UNL     1     -28.430  15.042  23.853  1.00  0.00     0.039 C 
BRANCH  13  17
ATOM     17  C   UNL     1     -32.350  15.009  23.635  1.00  0.00     0.066 CG0
ATOM     18  G   UNL     1     -32.962  15.136  25.016  1.00  0.00     0.000 G0
ENDBRANCH  13  17
ENDBRANCH  11  13
ENDBRANCH  10  11
ENDBRANCH   1  10
TORSDOF 0
ENDMDL
