MODEL 1
REMARK VINA RESULT:    13.045      0.000      0.000
REMARK INTER + INTRA:          15.298
REMARK INTER:                  15.715
REMARK INTRA:                  -0.417
REMARK UNBOUND:                -0.417
REMARK SMILES O=c1c(O)c(-c2ccc(O)cc2O)oc2cc(O)cc(O)c12
REMARK SMILES IDX 5 1 3 2 2 3 1 4 22 5 20 6 19 7 17 8 16 9 15 10 14 11 6 12
REMARK SMILES IDX 8 13 7 14 9 15 11 16 12 17 10 18 13 20 4 22 21 24 18 26
REMARK H PARENT 10 19 13 21 4 23 21 25 18 27
REMARK Flexibility Score: inf
ROOT
ATOM      1  C   UNL     1     -19.556  -6.880  11.986  1.00  0.00     0.184 A 
ATOM      2  C   UNL     1     -20.389  -7.650  12.813  1.00  0.00     0.208 A 
ATOM      3  C   UNL     1     -20.641  -8.988  12.468  1.00  0.00     0.238 A 
ATOM      4  O   UNL     1     -21.343  -9.689  13.242  1.00  0.00    -0.285 OA
ATOM      5  C   UNL     1     -20.069  -9.530  11.291  1.00  0.00     0.111 A 
ATOM      6  C   UNL     1     -20.288 -10.862  10.824  1.00  0.00     0.134 A 
ATOM      7  C   UNL     1     -19.569 -11.331   9.718  1.00  0.00     0.093 A 
ATOM      8  C   UNL     1     -18.689 -10.502   9.025  1.00  0.00     0.123 A 
ATOM      9  C   UNL     1     -18.511  -9.181   9.438  1.00  0.00     0.094 A 
ATOM     10  C   UNL     1     -19.186  -8.693  10.559  1.00  0.00     0.146 A 
ATOM     11  O   UNL     1     -18.982  -7.434  10.926  1.00  0.00    -0.451 OA
ENDROOT
BRANCH   1  12
ATOM     12  C   UNL     1     -19.264  -5.462  12.283  1.00  0.00     0.063 A 
ATOM     13  C   UNL     1     -20.037  -3.158  12.380  1.00  0.00     0.047 A 
ATOM     14  C   UNL     1     -20.278  -4.507  12.104  1.00  0.00     0.020 A 
ATOM     15  C   UNL     1     -18.787  -2.750  12.851  1.00  0.00     0.119 A 
ATOM     16  C   UNL     1     -17.776  -3.697  13.056  1.00  0.00     0.093 A 
ATOM     17  C   UNL     1     -18.012  -5.054  12.786  1.00  0.00     0.130 A 
BRANCH  15  18
ATOM     18  O   UNL     1     -18.561  -1.401  13.119  1.00  0.00    -0.508 OA
ATOM     19  H   UNL     1     -19.315  -0.780  13.387  1.00  0.00     0.293 HD
ENDBRANCH  15  18
BRANCH  17  20
ATOM     20  O   UNL     1     -17.013  -5.995  13.039  1.00  0.00    -0.507 OA
ATOM     21  H   UNL     1     -16.419  -6.352  12.301  1.00  0.00     0.293 HD
ENDBRANCH  17  20
ENDBRANCH   1  12
BRANCH   2  22
ATOM     22  O   UNL     1     -20.925  -7.095  13.978  1.00  0.00    -0.502 OA
ATOM     23  H   UNL     1     -21.204  -7.660  14.770  1.00  0.00     0.293 HD
ENDBRANCH   2  22
BRANCH   6  24
ATOM     24  O   UNL     1     -21.214 -11.744  11.387  1.00  0.00    -0.507 OA
ATOM     25  H   UNL     1     -21.008 -12.690  11.669  1.00  0.00     0.293 HD
ENDBRANCH   6  24
BRANCH   8  26
ATOM     26  O   UNL     1     -18.002 -10.999   7.919  1.00  0.00    -0.508 OA
ATOM     27  H   UNL     1     -18.474 -11.185   7.041  1.00  0.00     0.293 HD
ENDBRANCH   8  26
TORSDOF 6
ENDMDL
MODEL 2
REMARK VINA RESULT:    13.798      1.175      2.806
REMARK INTER + INTRA:          16.205
REMARK INTER:                  16.469
REMARK INTRA:                  -0.264
REMARK UNBOUND:                -0.417
REMARK SMILES O=c1c(O)c(-c2ccc(O)cc2O)oc2cc(O)cc(O)c12
REMARK SMILES IDX 5 1 3 2 2 3 1 4 22 5 20 6 19 7 17 8 16 9 15 10 14 11 6 12
REMARK SMILES IDX 8 13 7 14 9 15 11 16 12 17 10 18 13 20 4 22 21 24 18 26
REMARK H PARENT 10 19 13 21 4 23 21 25 18 27
REMARK Flexibility Score: inf
ROOT
ATOM      1  C   UNL     1     -19.012  -6.830  11.340  1.00  0.00     0.184 A 
ATOM      2  C   UNL     1     -18.078  -7.188  10.355  1.00  0.00     0.208 A 
ATOM      3  C   UNL     1     -18.098  -8.496   9.843  1.00  0.00     0.238 A 
ATOM      4  O   UNL     1     -17.295  -8.796   8.923  1.00  0.00    -0.285 OA
ATOM      5  C   UNL     1     -19.041  -9.430  10.337  1.00  0.00     0.111 A 
ATOM      6  C   UNL     1     -19.125 -10.793   9.920  1.00  0.00     0.134 A 
ATOM      7  C   UNL     1     -20.180 -11.591  10.380  1.00  0.00     0.093 A 
ATOM      8  C   UNL     1     -21.114 -11.098  11.290  1.00  0.00     0.123 A 
ATOM      9  C   UNL     1     -21.006  -9.785  11.750  1.00  0.00     0.094 A 
ATOM     10  C   UNL     1     -19.987  -8.952  11.282  1.00  0.00     0.146 A 
ATOM     11  O   UNL     1     -19.926  -7.706  11.736  1.00  0.00    -0.451 OA
ENDROOT
BRANCH   1  12
ATOM     12  C   UNL     1     -19.034  -5.475  11.932  1.00  0.00     0.063 A 
ATOM     13  C   UNL     1     -20.242  -3.403  12.334  1.00  0.00     0.047 A 
ATOM     14  C   UNL     1     -20.186  -4.686  11.782  1.00  0.00     0.020 A 
ATOM     15  C   UNL     1     -19.156  -2.900  13.054  1.00  0.00     0.119 A 
ATOM     16  C   UNL     1     -18.011  -3.688  13.231  1.00  0.00     0.093 A 
ATOM     17  C   UNL     1     -17.949  -4.979  12.684  1.00  0.00     0.130 A 
BRANCH  15  18
ATOM     18  O   UNL     1     -19.225  -1.618  13.595  1.00  0.00    -0.508 OA
ATOM     19  H   UNL     1     -18.775  -0.829  13.147  1.00  0.00     0.293 HD
ENDBRANCH  15  18
BRANCH  17  20
ATOM     20  O   UNL     1     -16.824  -5.773  12.908  1.00  0.00    -0.507 OA
ATOM     21  H   UNL     1     -16.047  -5.447  13.470  1.00  0.00     0.293 HD
ENDBRANCH  17  20
ENDBRANCH   1  12
BRANCH   2  22
ATOM     22  O   UNL     1     -17.171  -6.241   9.874  1.00  0.00    -0.502 OA
ATOM     23  H   UNL     1     -17.160  -5.943   8.905  1.00  0.00     0.293 HD
ENDBRANCH   2  22
BRANCH   6  24
ATOM     24  O   UNL     1     -18.192 -11.413   9.085  1.00  0.00    -0.507 OA
ATOM     25  H   UNL     1     -18.078 -12.411   8.991  1.00  0.00     0.293 HD
ENDBRANCH   6  24
BRANCH   8  26
ATOM     26  O   UNL     1     -22.141 -11.926  11.738  1.00  0.00    -0.508 OA
ATOM     27  H   UNL     1     -22.460 -12.718  11.190  1.00  0.00     0.293 HD
ENDBRANCH   8  26
TORSDOF 6
ENDMDL
MODEL 3
REMARK VINA RESULT:    15.625      1.592      2.692
REMARK INTER + INTRA:          18.405
REMARK INTER:                  18.708
REMARK INTRA:                  -0.303
REMARK UNBOUND:                -0.417
REMARK SMILES O=c1c(O)c(-c2ccc(O)cc2O)oc2cc(O)cc(O)c12
REMARK SMILES IDX 5 1 3 2 2 3 1 4 22 5 20 6 19 7 17 8 16 9 15 10 14 11 6 12
REMARK SMILES IDX 8 13 7 14 9 15 11 16 12 17 10 18 13 20 4 22 21 24 18 26
REMARK H PARENT 10 19 13 21 4 23 21 25 18 27
REMARK Flexibility Score: inf
ROOT
ATOM      1  C   UNL     1     -19.063  -6.468  11.896  1.00  0.00     0.184 A 
ATOM      2  C   UNL     1     -19.388  -6.794  10.570  1.00  0.00     0.208 A 
ATOM      3  C   UNL     1     -19.500  -8.147  10.210  1.00  0.00     0.238 A 
ATOM      4  O   UNL     1     -19.844  -8.432   9.035  1.00  0.00    -0.285 OA
ATOM      5  C   UNL     1     -19.268  -9.153  11.180  1.00  0.00     0.111 A 
ATOM      6  C   UNL     1     -19.315 -10.556  10.917  1.00  0.00     0.134 A 
ATOM      7  C   UNL     1     -19.198 -11.461  11.979  1.00  0.00     0.093 A 
ATOM      8  C   UNL     1     -18.971 -11.019  13.282  1.00  0.00     0.123 A 
ATOM      9  C   UNL     1     -18.865  -9.651  13.540  1.00  0.00     0.094 A 
ATOM     10  C   UNL     1     -19.014  -8.722  12.509  1.00  0.00     0.146 A 
ATOM     11  O   UNL     1     -18.917  -7.430  12.798  1.00  0.00    -0.451 OA
ENDROOT
BRANCH   1  12
ATOM     12  C   UNL     1     -18.913  -5.064  12.336  1.00  0.00     0.063 A 
ATOM     13  C   UNL     1     -19.899  -2.860  12.618  1.00  0.00     0.047 A 
ATOM     14  C   UNL     1     -20.005  -4.191  12.207  1.00  0.00     0.020 A 
ATOM     15  C   UNL     1     -18.708  -2.389  13.176  1.00  0.00     0.119 A 
ATOM     16  C   UNL     1     -17.620  -3.258  13.332  1.00  0.00     0.093 A 
ATOM     17  C   UNL     1     -17.721  -4.598  12.926  1.00  0.00     0.130 A 
BRANCH  15  18
ATOM     18  O   UNL     1     -18.616  -1.058  13.578  1.00  0.00    -0.508 OA
ATOM     19  H   UNL     1     -18.416  -0.318  12.916  1.00  0.00     0.293 HD
ENDBRANCH  15  18
BRANCH  17  20
ATOM     20  O   UNL     1     -16.647  -5.466  13.131  1.00  0.00    -0.507 OA
ATOM     21  H   UNL     1     -16.574  -6.033  13.967  1.00  0.00     0.293 HD
ENDBRANCH  17  20
ENDBRANCH   1  12
BRANCH   2  22
ATOM     22  O   UNL     1     -19.628  -5.780   9.640  1.00  0.00    -0.502 OA
ATOM     23  H   UNL     1     -19.596  -5.942   8.640  1.00  0.00     0.293 HD
ENDBRANCH   2  22
BRANCH   6  24
ATOM     24  O   UNL     1     -19.445 -11.107   9.639  1.00  0.00    -0.507 OA
ATOM     25  H   UNL     1     -19.382 -10.585   8.779  1.00  0.00     0.293 HD
ENDBRANCH   6  24
BRANCH   8  26
ATOM     26  O   UNL     1     -18.845 -11.949  14.311  1.00  0.00    -0.508 OA
ATOM     27  H   UNL     1     -18.845 -11.665  15.285  1.00  0.00     0.293 HD
ENDBRANCH   8  26
TORSDOF 6
ENDMDL
