MODEL 1
REMARK VINA RESULT:    -5.052      0.000      0.000
REMARK INTER + INTRA:          -5.496
REMARK INTER:                  -5.496
REMARK INTRA:                   0.000
REMARK UNBOUND:                 0.000
REMARK SMILES Oc1cccc(O)c1O
REMARK SMILES IDX 4 1 5 2 6 3 8 4 2 5 3 6 7 7 1 9 9 11
REMARK H PARENT 7 8 1 10 9 12
REMARK Flexibility Score: inf
ROOT
ATOM      1  C   UNL     1      10.438 -54.880 -29.031  1.00  0.00     0.008 A 
ATOM      2  C   UNL     1       9.967 -54.132 -30.113  1.00  0.00     0.050 A 
ATOM      3  C   UNL     1       8.643 -54.282 -30.551  1.00  0.00     0.161 A 
ATOM      4  C   UNL     1       7.789 -55.189 -29.897  1.00  0.00     0.200 A 
ATOM      5  C   UNL     1       8.266 -55.938 -28.811  1.00  0.00     0.161 A 
ATOM      6  C   UNL     1       9.592 -55.780 -28.381  1.00  0.00     0.050 A 
ENDROOT
BRANCH   3   7
ATOM      7  O   UNL     1       8.175 -53.535 -31.631  1.00  0.00    -0.504 OA
ATOM      8  H   UNL     1       8.642 -52.689 -31.933  1.00  0.00     0.293 HD
ENDBRANCH   3   7
BRANCH   5   9
ATOM      9  O   UNL     1       7.419 -56.836 -28.165  1.00  0.00    -0.504 OA
ATOM     10  H   UNL     1       7.397 -56.912 -27.155  1.00  0.00     0.293 HD
ENDBRANCH   5   9
BRANCH   4  11
ATOM     11  O   UNL     1       6.469 -55.358 -30.313  1.00  0.00    -0.502 OA
ATOM     12  H   UNL     1       6.217 -55.989 -31.065  1.00  0.00     0.293 HD
ENDBRANCH   4  11
TORSDOF 3
ENDMDL
MODEL 2
REMARK VINA RESULT:    -5.049      0.054      2.799
REMARK INTER + INTRA:          -5.492
REMARK INTER:                  -5.492
REMARK INTRA:                   0.000
REMARK UNBOUND:                 0.000
REMARK SMILES Oc1cccc(O)c1O
REMARK SMILES IDX 4 1 5 2 6 3 8 4 2 5 3 6 7 7 1 9 9 11
REMARK H PARENT 7 8 1 10 9 12
REMARK Flexibility Score: inf
ROOT
ATOM      1  C   UNL     1      10.444 -54.866 -29.048  1.00  0.00     0.008 A 
ATOM      2  C   UNL     1       9.605 -55.782 -28.408  1.00  0.00     0.050 A 
ATOM      3  C   UNL     1       8.287 -55.960 -28.851  1.00  0.00     0.161 A 
ATOM      4  C   UNL     1       7.811 -55.214 -29.946  1.00  0.00     0.200 A 
ATOM      5  C   UNL     1       8.657 -54.296 -30.585  1.00  0.00     0.161 A 
ATOM      6  C   UNL     1       9.973 -54.126 -30.133  1.00  0.00     0.050 A 
ENDROOT
BRANCH   3   7
ATOM      7  O   UNL     1       7.451 -56.873 -28.211  1.00  0.00    -0.504 OA
ATOM      8  H   UNL     1       7.802 -57.752 -27.850  1.00  0.00     0.293 HD
ENDBRANCH   3   7
BRANCH   5   9
ATOM      9  O   UNL     1       8.183 -53.558 -31.669  1.00  0.00    -0.504 OA
ATOM     10  H   UNL     1       7.193 -53.498 -31.876  1.00  0.00     0.293 HD
ENDBRANCH   5   9
BRANCH   4  11
ATOM     11  O   UNL     1       6.504 -55.372 -30.407  1.00  0.00    -0.502 OA
ATOM     12  H   UNL     1       5.913 -54.581 -30.635  1.00  0.00     0.293 HD
ENDBRANCH   4  11
TORSDOF 3
ENDMDL
MODEL 3
REMARK VINA RESULT:    -4.986      1.903      3.111
REMARK INTER + INTRA:          -5.423
REMARK INTER:                  -5.423
REMARK INTRA:                   0.000
REMARK UNBOUND:                 0.000
REMARK SMILES Oc1cccc(O)c1O
REMARK SMILES IDX 4 1 5 2 6 3 8 4 2 5 3 6 7 7 1 9 9 11
REMARK H PARENT 7 8 1 10 9 12
REMARK Flexibility Score: inf
ROOT
ATOM      1  C   UNL     1       7.198 -56.085 -29.183  1.00  0.00     0.008 A 
ATOM      2  C   UNL     1       8.424 -55.451 -28.965  1.00  0.00     0.050 A 
ATOM      3  C   UNL     1       8.970 -54.613 -29.947  1.00  0.00     0.161 A 
ATOM      4  C   UNL     1       8.278 -54.410 -31.156  1.00  0.00     0.200 A 
ATOM      5  C   UNL     1       7.048 -55.048 -31.371  1.00  0.00     0.161 A 
ATOM      6  C   UNL     1       6.511 -55.884 -30.382  1.00  0.00     0.050 A 
ENDROOT
BRANCH   3   7
ATOM      7  O   UNL     1      10.193 -53.982 -29.727  1.00  0.00    -0.504 OA
ATOM      8  H   UNL     1      10.323 -52.995 -29.916  1.00  0.00     0.293 HD
ENDBRANCH   3   7
BRANCH   5   9
ATOM      9  O   UNL     1       6.365 -54.845 -32.569  1.00  0.00    -0.504 OA
ATOM     10  H   UNL     1       6.764 -54.294 -33.320  1.00  0.00     0.293 HD
ENDBRANCH   5   9
BRANCH   4  11
ATOM     11  O   UNL     1       8.799 -53.581 -32.149  1.00  0.00    -0.502 OA
ATOM     12  H   UNL     1       8.227 -53.215 -32.901  1.00  0.00     0.293 HD
ENDBRANCH   4  11
TORSDOF 3
ENDMDL
MODEL 4
REMARK VINA RESULT:    -4.928      1.724      2.765
REMARK INTER + INTRA:          -5.361
REMARK INTER:                  -5.361
REMARK INTRA:                   0.000
REMARK UNBOUND:                 0.000
REMARK SMILES Oc1cccc(O)c1O
REMARK SMILES IDX 4 1 5 2 6 3 8 4 2 5 3 6 7 7 1 9 9 11
REMARK H PARENT 7 8 1 10 9 12
REMARK Flexibility Score: inf
ROOT
ATOM      1  C   UNL     1       5.892 -55.445 -31.150  1.00  0.00     0.008 A 
ATOM      2  C   UNL     1       6.813 -54.687 -31.877  1.00  0.00     0.050 A 
ATOM      3  C   UNL     1       8.146 -54.599 -31.452  1.00  0.00     0.161 A 
ATOM      4  C   UNL     1       8.555 -55.278 -30.290  1.00  0.00     0.200 A 
ATOM      5  C   UNL     1       7.628 -56.038 -29.562  1.00  0.00     0.161 A 
ATOM      6  C   UNL     1       6.297 -56.119 -29.996  1.00  0.00     0.050 A 
ENDROOT
BRANCH   3   7
ATOM      7  O   UNL     1       9.064 -53.842 -32.180  1.00  0.00    -0.504 OA
ATOM      8  H   UNL     1       9.875 -54.265 -32.615  1.00  0.00     0.293 HD
ENDBRANCH   3   7
BRANCH   5   9
ATOM      9  O   UNL     1       8.036 -56.709 -28.411  1.00  0.00    -0.504 OA
ATOM     10  H   UNL     1       7.366 -57.121 -27.772  1.00  0.00     0.293 HD
ENDBRANCH   5   9
BRANCH   4  11
ATOM     11  O   UNL     1       9.876 -55.207 -29.845  1.00  0.00    -0.502 OA
ATOM     12  H   UNL     1      10.187 -54.498 -29.191  1.00  0.00     0.293 HD
ENDBRANCH   4  11
TORSDOF 3
ENDMDL
MODEL 5
REMARK VINA RESULT:    -4.922      1.724      3.922
REMARK INTER + INTRA:          -5.353
REMARK INTER:                  -5.353
REMARK INTRA:                   0.000
REMARK UNBOUND:                 0.000
REMARK SMILES Oc1cccc(O)c1O
REMARK SMILES IDX 4 1 5 2 6 3 8 4 2 5 3 6 7 7 1 9 9 11
REMARK H PARENT 7 8 1 10 9 12
REMARK Flexibility Score: inf
ROOT
ATOM      1  C   UNL     1       5.905 -55.411 -31.132  1.00  0.00     0.008 A 
ATOM      2  C   UNL     1       6.299 -56.099 -29.982  1.00  0.00     0.050 A 
ATOM      3  C   UNL     1       7.634 -56.055 -29.555  1.00  0.00     0.161 A 
ATOM      4  C   UNL     1       8.578 -55.312 -30.289  1.00  0.00     0.200 A 
ATOM      5  C   UNL     1       8.179 -54.623 -31.443  1.00  0.00     0.161 A 
ATOM      6  C   UNL     1       6.841 -54.674 -31.861  1.00  0.00     0.050 A 
ENDROOT
BRANCH   3   7
ATOM      7  O   UNL     1       8.024 -56.742 -28.407  1.00  0.00    -0.504 OA
ATOM      8  H   UNL     1       7.435 -57.450 -27.986  1.00  0.00     0.293 HD
ENDBRANCH   3   7
BRANCH   5   9
ATOM      9  O   UNL     1       9.116 -53.889 -32.168  1.00  0.00    -0.504 OA
ATOM     10  H   UNL     1      10.095 -54.150 -32.187  1.00  0.00     0.293 HD
ENDBRANCH   5   9
BRANCH   4  11
ATOM     11  O   UNL     1       9.911 -55.252 -29.886  1.00  0.00    -0.502 OA
ATOM     12  H   UNL     1      10.449 -54.393 -29.928  1.00  0.00     0.293 HD
ENDBRANCH   4  11
TORSDOF 3
ENDMDL
MODEL 6
REMARK VINA RESULT:    -4.896      1.389      2.706
REMARK INTER + INTRA:          -5.326
REMARK INTER:                  -5.326
REMARK INTRA:                   0.000
REMARK UNBOUND:                 0.000
REMARK SMILES Oc1cccc(O)c1O
REMARK SMILES IDX 4 1 5 2 6 3 8 4 2 5 3 6 7 7 1 9 9 11
REMARK H PARENT 7 8 1 10 9 12
REMARK Flexibility Score: inf
ROOT
ATOM      1  C   UNL     1       9.277 -54.248 -31.085  1.00  0.00     0.008 A 
ATOM      2  C   UNL     1      10.140 -54.556 -30.031  1.00  0.00     0.050 A 
ATOM      3  C   UNL     1       9.742 -55.456 -29.033  1.00  0.00     0.161 A 
ATOM      4  C   UNL     1       8.469 -56.052 -29.097  1.00  0.00     0.200 A 
ATOM      5  C   UNL     1       7.605 -55.741 -30.157  1.00  0.00     0.161 A 
ATOM      6  C   UNL     1       8.013 -54.839 -31.150  1.00  0.00     0.050 A 
ENDROOT
BRANCH   3   7
ATOM      7  O   UNL     1      10.605 -55.762 -27.981  1.00  0.00    -0.504 OA
ATOM      8  H   UNL     1      10.757 -56.717 -27.680  1.00  0.00     0.293 HD
ENDBRANCH   3   7
BRANCH   5   9
ATOM      9  O   UNL     1       6.344 -56.332 -30.218  1.00  0.00    -0.504 OA
ATOM     10  H   UNL     1       5.880 -56.676 -29.386  1.00  0.00     0.293 HD
ENDBRANCH   5   9
BRANCH   4  11
ATOM     11  O   UNL     1       8.048 -56.952 -28.117  1.00  0.00    -0.502 OA
ATOM     12  H   UNL     1       7.375 -56.696 -27.404  1.00  0.00     0.293 HD
ENDBRANCH   4  11
TORSDOF 3
ENDMDL
MODEL 7
REMARK VINA RESULT:    -4.882      1.893      2.913
REMARK INTER + INTRA:          -5.310
REMARK INTER:                  -5.310
REMARK INTRA:                   0.000
REMARK UNBOUND:                 0.000
REMARK SMILES Oc1cccc(O)c1O
REMARK SMILES IDX 4 1 5 2 6 3 8 4 2 5 3 6 7 7 1 9 9 11
REMARK H PARENT 7 8 1 10 9 12
REMARK Flexibility Score: inf
ROOT
ATOM      1  C   UNL     1       7.222 -56.120 -29.083  1.00  0.00     0.008 A 
ATOM      2  C   UNL     1       6.356 -55.863 -30.150  1.00  0.00     0.050 A 
ATOM      3  C   UNL     1       6.728 -54.964 -31.159  1.00  0.00     0.161 A 
ATOM      4  C   UNL     1       7.979 -54.322 -31.097  1.00  0.00     0.200 A 
ATOM      5  C   UNL     1       8.845 -54.584 -30.026  1.00  0.00     0.161 A 
ATOM      6  C   UNL     1       8.463 -55.484 -29.021  1.00  0.00     0.050 A 
ENDROOT
BRANCH   3   7
ATOM      7  O   UNL     1       5.863 -54.708 -32.222  1.00  0.00    -0.504 OA
ATOM      8  H   UNL     1       4.965 -54.262 -32.080  1.00  0.00     0.293 HD
ENDBRANCH   3   7
BRANCH   5   9
ATOM      9  O   UNL     1      10.083 -53.946 -29.966  1.00  0.00    -0.504 OA
ATOM     10  H   UNL     1      10.620 -53.751 -30.803  1.00  0.00     0.293 HD
ENDBRANCH   5   9
BRANCH   4  11
ATOM     11  O   UNL     1       8.374 -53.424 -32.089  1.00  0.00    -0.502 OA
ATOM     12  H   UNL     1       8.201 -52.428 -32.014  1.00  0.00     0.293 HD
ENDBRANCH   4  11
TORSDOF 3
ENDMDL
MODEL 8
REMARK VINA RESULT:    -4.877      1.369      2.515
REMARK INTER + INTRA:          -5.305
REMARK INTER:                  -5.305
REMARK INTRA:                   0.000
REMARK UNBOUND:                 0.000
REMARK SMILES Oc1cccc(O)c1O
REMARK SMILES IDX 4 1 5 2 6 3 8 4 2 5 3 6 7 7 1 9 9 11
REMARK H PARENT 7 8 1 10 9 12
REMARK Flexibility Score: inf
ROOT
ATOM      1  C   UNL     1       9.294 -54.246 -31.103  1.00  0.00     0.008 A 
ATOM      2  C   UNL     1       8.015 -54.805 -31.166  1.00  0.00     0.050 A 
ATOM      3  C   UNL     1       7.582 -55.692 -30.170  1.00  0.00     0.161 A 
ATOM      4  C   UNL     1       8.441 -56.017 -29.103  1.00  0.00     0.200 A 
ATOM      5  C   UNL     1       9.724 -55.454 -29.043  1.00  0.00     0.161 A 
ATOM      6  C   UNL     1      10.146 -54.569 -30.045  1.00  0.00     0.050 A 
ENDROOT
BRANCH   3   7
ATOM      7  O   UNL     1       6.306 -56.248 -30.235  1.00  0.00    -0.504 OA
ATOM      8  H   UNL     1       6.166 -57.249 -30.309  1.00  0.00     0.293 HD
ENDBRANCH   3   7
BRANCH   5   9
ATOM      9  O   UNL     1      10.572 -55.778 -27.986  1.00  0.00    -0.504 OA
ATOM     10  H   UNL     1      10.675 -55.169 -27.183  1.00  0.00     0.293 HD
ENDBRANCH   5   9
BRANCH   4  11
ATOM     11  O   UNL     1       8.035 -56.896 -28.099  1.00  0.00    -0.502 OA
ATOM     12  H   UNL     1       8.387 -57.845 -28.038  1.00  0.00     0.293 HD
ENDBRANCH   4  11
TORSDOF 3
ENDMDL
MODEL 9
REMARK VINA RESULT:    -4.703      2.543      4.059
REMARK INTER + INTRA:          -5.116
REMARK INTER:                  -5.116
REMARK INTRA:                   0.000
REMARK UNBOUND:                 0.000
REMARK SMILES Oc1cccc(O)c1O
REMARK SMILES IDX 4 1 5 2 6 3 8 4 2 5 3 6 7 7 1 9 9 11
REMARK H PARENT 7 8 1 10 9 12
REMARK Flexibility Score: inf
ROOT
ATOM      1  C   UNL     1       7.037 -55.003 -31.010  1.00  0.00     0.008 A 
ATOM      2  C   UNL     1       8.131 -55.168 -30.156  1.00  0.00     0.050 A 
ATOM      3  C   UNL     1       9.406 -55.417 -30.683  1.00  0.00     0.161 A 
ATOM      4  C   UNL     1       9.582 -55.499 -32.077  1.00  0.00     0.200 A 
ATOM      5  C   UNL     1       8.482 -55.332 -32.930  1.00  0.00     0.161 A 
ATOM      6  C   UNL     1       7.211 -55.084 -32.393  1.00  0.00     0.050 A 
ENDROOT
BRANCH   3   7
ATOM      7  O   UNL     1      10.496 -55.582 -29.830  1.00  0.00    -0.504 OA
ATOM      8  H   UNL     1      11.443 -55.641 -30.184  1.00  0.00     0.293 HD
ENDBRANCH   3   7
BRANCH   5   9
ATOM      9  O   UNL     1       8.659 -55.414 -34.310  1.00  0.00    -0.504 OA
ATOM     10  H   UNL     1       8.591 -54.595 -34.903  1.00  0.00     0.293 HD
ENDBRANCH   5   9
BRANCH   4  11
ATOM     11  O   UNL     1      10.840 -55.745 -32.627  1.00  0.00    -0.502 OA
ATOM     12  H   UNL     1      11.028 -55.630 -33.617  1.00  0.00     0.293 HD
ENDBRANCH   4  11
TORSDOF 3
ENDMDL
