MODEL 1
REMARK VINA RESULT:    15.427      0.000      0.000
REMARK INTER + INTRA:          17.635
REMARK INTER:                  17.681
REMARK INTRA:                  -0.046
REMARK UNBOUND:                -0.046
REMARK SMILES O=C([O-])c1cc(O)c(O)c(O)c1
REMARK SMILES IDX 4 1 5 2 12 3 6 4 10 5 8 6 2 7 1 8 3 9 7 10 11 12 9 14
REMARK H PARENT 7 11 11 13 9 15
REMARK Flexibility Score: inf
ROOT
ATOM      1  C   UNL     1      29.065   9.304   0.100  1.00  0.00     0.005 A 
ATOM      2  C   UNL     1      30.362   9.045  -0.376  1.00  0.00     0.060 A 
ATOM      3  C   UNL     1      28.552  10.609   0.005  1.00  0.00     0.060 A 
ATOM      4  C   UNL     1      31.134  10.071  -0.938  1.00  0.00     0.162 A 
ATOM      5  C   UNL     1      29.320  11.639  -0.556  1.00  0.00     0.162 A 
ATOM      6  C   UNL     1      30.615  11.369  -1.028  1.00  0.00     0.200 A 
ENDROOT
BRANCH   1   7
ATOM      7  C   UNL     1      28.249   8.223   0.694  1.00  0.00     0.072 C 
ATOM      8  O   UNL     1      27.875   7.244  -0.005  1.00  0.00    -0.545 OA
ATOM      9  O   UNL     1      27.881   8.271   2.035  1.00  0.00    -0.545 OA
ENDBRANCH   1   7
BRANCH   4  10
ATOM     10  O   UNL     1      32.419   9.808  -1.409  1.00  0.00    -0.504 OA
ATOM     11  H   UNL     1      33.242  10.032  -0.861  1.00  0.00     0.293 HD
ENDBRANCH   4  10
BRANCH   5  12
ATOM     12  O   UNL     1      28.801  12.930  -0.645  1.00  0.00    -0.504 OA
ATOM     13  H   UNL     1      28.817  13.450  -1.515  1.00  0.00     0.293 HD
ENDBRANCH   5  12
BRANCH   6  14
ATOM     14  O   UNL     1      31.398  12.378  -1.591  1.00  0.00    -0.502 OA
ATOM     15  H   UNL     1      31.025  13.296  -1.802  1.00  0.00     0.293 HD
ENDBRANCH   6  14
TORSDOF 4
ENDMDL
MODEL 2
REMARK VINA RESULT:    15.720      1.691      4.550
REMARK INTER + INTRA:          17.972
REMARK INTER:                  18.022
REMARK INTRA:                  -0.051
REMARK UNBOUND:                -0.046
REMARK SMILES O=C([O-])c1cc(O)c(O)c(O)c1
REMARK SMILES IDX 4 1 5 2 12 3 6 4 10 5 8 6 2 7 1 8 3 9 7 10 11 12 9 14
REMARK H PARENT 7 11 11 13 9 15
REMARK Flexibility Score: inf
ROOT
ATOM      1  C   UNL     1      31.701  11.734  -1.614  1.00  0.00     0.005 A 
ATOM      2  C   UNL     1      32.040  10.387  -1.405  1.00  0.00     0.060 A 
ATOM      3  C   UNL     1      30.442  12.195  -1.193  1.00  0.00     0.060 A 
ATOM      4  C   UNL     1      31.137   9.512  -0.785  1.00  0.00     0.162 A 
ATOM      5  C   UNL     1      29.536  11.324  -0.572  1.00  0.00     0.162 A 
ATOM      6  C   UNL     1      29.884   9.979  -0.368  1.00  0.00     0.200 A 
ENDROOT
BRANCH   1   7
ATOM      7  C   UNL     1      32.653  12.659  -2.269  1.00  0.00     0.072 C 
ATOM      8  O   UNL     1      33.896  12.479  -2.165  1.00  0.00    -0.545 OA
ATOM      9  O   UNL     1      32.189  13.741  -3.009  1.00  0.00    -0.545 OA
ENDBRANCH   1   7
BRANCH   4  10
ATOM     10  O   UNL     1      31.478   8.176  -0.580  1.00  0.00    -0.504 OA
ATOM     11  H   UNL     1      32.434   7.852  -0.671  1.00  0.00     0.293 HD
ENDBRANCH   4  10
BRANCH   5  12
ATOM     12  O   UNL     1      28.289  11.792  -0.157  1.00  0.00    -0.504 OA
ATOM     13  H   UNL     1      27.849  11.452   0.691  1.00  0.00     0.293 HD
ENDBRANCH   5  12
BRANCH   6  14
ATOM     14  O   UNL     1      28.998   9.093   0.248  1.00  0.00    -0.502 OA
ATOM     15  H   UNL     1      28.833   9.103   1.247  1.00  0.00     0.293 HD
ENDBRANCH   6  14
TORSDOF 4
ENDMDL
MODEL 3
REMARK VINA RESULT:    15.748      1.695      5.146
REMARK INTER + INTRA:          18.004
REMARK INTER:                  18.055
REMARK INTRA:                  -0.051
REMARK UNBOUND:                -0.046
REMARK SMILES O=C([O-])c1cc(O)c(O)c(O)c1
REMARK SMILES IDX 4 1 5 2 12 3 6 4 10 5 8 6 2 7 1 8 3 9 7 10 11 12 9 14
REMARK H PARENT 7 11 11 13 9 15
REMARK Flexibility Score: inf
ROOT
ATOM      1  C   UNL     1      31.705  11.733  -1.610  1.00  0.00     0.005 A 
ATOM      2  C   UNL     1      30.448  12.201  -1.189  1.00  0.00     0.060 A 
ATOM      3  C   UNL     1      32.033  10.382  -1.406  1.00  0.00     0.060 A 
ATOM      4  C   UNL     1      29.534  11.334  -0.574  1.00  0.00     0.162 A 
ATOM      5  C   UNL     1      31.122   9.511  -0.791  1.00  0.00     0.162 A 
ATOM      6  C   UNL     1      29.869   9.989  -0.374  1.00  0.00     0.200 A 
ENDROOT
BRANCH   1   7
ATOM      7  C   UNL     1      32.672  12.646  -2.258  1.00  0.00     0.072 C 
ATOM      8  O   UNL     1      33.912  12.455  -2.141  1.00  0.00    -0.545 OA
ATOM      9  O   UNL     1      32.226  13.731  -3.005  1.00  0.00    -0.545 OA
ENDBRANCH   1   7
BRANCH   4  10
ATOM     10  O   UNL     1      28.289  11.803  -0.159  1.00  0.00    -0.504 OA
ATOM     11  H   UNL     1      27.995  11.746   0.808  1.00  0.00     0.293 HD
ENDBRANCH   4  10
BRANCH   5  12
ATOM     12  O   UNL     1      31.459   8.172  -0.594  1.00  0.00    -0.504 OA
ATOM     13  H   UNL     1      31.580   7.786   0.335  1.00  0.00     0.293 HD
ENDBRANCH   5  12
BRANCH   6  14
ATOM     14  O   UNL     1      28.946   9.141   0.239  1.00  0.00    -0.502 OA
ATOM     15  H   UNL     1      29.225   8.282   0.699  1.00  0.00     0.293 HD
ENDBRANCH   6  14
TORSDOF 4
ENDMDL
MODEL 4
REMARK VINA RESULT:    16.907      2.208      3.013
REMARK INTER + INTRA:          19.332
REMARK INTER:                  19.380
REMARK INTRA:                  -0.048
REMARK UNBOUND:                -0.046
REMARK SMILES O=C([O-])c1cc(O)c(O)c(O)c1
REMARK SMILES IDX 4 1 5 2 12 3 6 4 10 5 8 6 2 7 1 8 3 9 7 10 11 12 9 14
REMARK H PARENT 7 11 11 13 9 15
REMARK Flexibility Score: inf
ROOT
ATOM      1  C   UNL     1      30.879  10.164  -0.434  1.00  0.00     0.005 A 
ATOM      2  C   UNL     1      31.119  11.077  -1.475  1.00  0.00     0.060 A 
ATOM      3  C   UNL     1      31.531  10.348   0.798  1.00  0.00     0.060 A 
ATOM      4  C   UNL     1      31.995  12.156  -1.290  1.00  0.00     0.162 A 
ATOM      5  C   UNL     1      32.407  11.425   0.987  1.00  0.00     0.162 A 
ATOM      6  C   UNL     1      32.640  12.332  -0.059  1.00  0.00     0.200 A 
ENDROOT
BRANCH   1   7
ATOM      7  C   UNL     1      29.956   9.024  -0.627  1.00  0.00     0.072 C 
ATOM      8  O   UNL     1      30.020   8.317  -1.668  1.00  0.00    -0.545 OA
ATOM      9  O   UNL     1      29.002   8.717   0.337  1.00  0.00    -0.545 OA
ENDBRANCH   1   7
BRANCH   4  10
ATOM     10  O   UNL     1      32.228  13.059  -2.326  1.00  0.00    -0.504 OA
ATOM     11  H   UNL     1      32.935  12.887  -3.031  1.00  0.00     0.293 HD
ENDBRANCH   4  10
BRANCH   5  12
ATOM     12  O   UNL     1      33.048  11.597   2.214  1.00  0.00    -0.504 OA
ATOM     13  H   UNL     1      34.052  11.726   2.276  1.00  0.00     0.293 HD
ENDBRANCH   5  12
BRANCH   6  14
ATOM     14  O   UNL     1      33.508  13.412   0.106  1.00  0.00    -0.502 OA
ATOM     15  H   UNL     1      33.509  14.205  -0.524  1.00  0.00     0.293 HD
ENDBRANCH   6  14
TORSDOF 4
ENDMDL
