MODEL 1
REMARK VINA RESULT:    -4.209      0.000      0.000
REMARK INTER + INTRA:         -10.227
REMARK INTER:                  -7.899
REMARK INTRA:                  -2.327
REMARK UNBOUND:                -2.327
REMARK SMILES O=C([O-])CCCCCCCCCCCCCCC(=O)[O-]
REMARK SMILES IDX 10 1 9 2 8 3 7 4 6 5 5 6 4 7 2 8 1 9 3 10 11 11 12 12 13 13
REMARK SMILES IDX 14 14 15 15 16 16 17 17 18 18 19 19 20 20
REMARK H PARENT
REMARK Flexibility Score: inf
ROOT
ATOM      1  C   UNL     1      -2.222  59.061  48.913  1.00  0.00     0.000 C 
ENDROOT
BRANCH   1   2
ATOM      2  C   UNL     1      -3.295  60.162  48.908  1.00  0.00     0.000 C 
BRANCH   2   3
ATOM      3  C   UNL     1      -4.018  60.286  47.555  1.00  0.00     0.000 C 
BRANCH   3   4
ATOM      4  C   UNL     1      -3.744  61.617  46.826  1.00  0.00     0.000 C 
BRANCH   4   5
ATOM      5  C   UNL     1      -4.024  61.523  45.318  1.00  0.00     0.000 C 
BRANCH   5   6
ATOM      6  C   UNL     1      -3.169  62.525  44.534  1.00  0.00     0.006 C 
BRANCH   6   7
ATOM      7  C   UNL     1      -1.954  62.969  45.352  1.00  0.00     0.053 C 
BRANCH   7   8
ATOM      8  C   UNL     1      -0.787  63.236  44.454  1.00  0.00     0.041 C 
ATOM      9  O   UNL     1       0.282  63.707  44.926  1.00  0.00    -0.550 OA
ATOM     10  O   UNL     1      -0.861  62.916  43.104  1.00  0.00    -0.550 OA
ENDBRANCH   7   8
ENDBRANCH   6   7
ENDBRANCH   5   6
ENDBRANCH   4   5
ENDBRANCH   3   4
ENDBRANCH   2   3
ENDBRANCH   1   2
BRANCH   1  11
ATOM     11  C   UNL     1      -2.829  57.648  48.943  1.00  0.00     0.000 C 
BRANCH  11  12
ATOM     12  C   UNL     1      -1.886  56.590  48.345  1.00  0.00     0.000 C 
BRANCH  12  13
ATOM     13  C   UNL     1      -2.291  56.168  46.921  1.00  0.00     0.000 C 
BRANCH  13  14
ATOM     14  C   UNL     1      -3.482  56.942  46.318  1.00  0.00     0.000 C 
BRANCH  14  15
ATOM     15  C   UNL     1      -3.142  57.827  45.106  1.00  0.00     0.000 C 
BRANCH  15  16
ATOM     16  C   UNL     1      -1.628  57.942  44.857  1.00  0.00     0.006 C 
BRANCH  16  17
ATOM     17  C   UNL     1      -1.075  59.310  45.282  1.00  0.00     0.053 C 
BRANCH  17  18
ATOM     18  C   UNL     1       0.235  59.609  44.619  1.00  0.00     0.041 C 
ATOM     19  O   UNL     1       1.061  60.385  45.168  1.00  0.00    -0.550 OA
ATOM     20  O   UNL     1       0.554  59.011  43.407  1.00  0.00    -0.550 OA
ENDBRANCH  17  18
ENDBRANCH  16  17
ENDBRANCH  15  16
ENDBRANCH  14  15
ENDBRANCH  13  14
ENDBRANCH  12  13
ENDBRANCH  11  12
ENDBRANCH   1  11
TORSDOF 15
ENDMDL
MODEL 2
REMARK VINA RESULT:    -4.045      1.272      4.286
REMARK INTER + INTRA:          -9.920
REMARK INTER:                  -7.937
REMARK INTRA:                  -1.982
REMARK UNBOUND:                -2.327
REMARK SMILES O=C([O-])CCCCCCCCCCCCCCC(=O)[O-]
REMARK SMILES IDX 10 1 9 2 8 3 7 4 6 5 5 6 4 7 2 8 1 9 3 10 11 11 12 12 13 13
REMARK SMILES IDX 14 14 15 15 16 16 17 17 18 18 19 19 20 20
REMARK H PARENT
REMARK Flexibility Score: inf
ROOT
ATOM      1  C   UNL     1      -2.102  58.848  48.768  1.00  0.00     0.000 C 
ENDROOT
BRANCH   1   2
ATOM      2  C   UNL     1      -2.267  57.408  49.281  1.00  0.00     0.000 C 
BRANCH   2   3
ATOM      3  C   UNL     1      -2.731  56.433  48.185  1.00  0.00     0.000 C 
BRANCH   3   4
ATOM      4  C   UNL     1      -2.010  56.630  46.835  1.00  0.00     0.000 C 
BRANCH   4   5
ATOM      5  C   UNL     1      -2.967  57.103  45.730  1.00  0.00     0.000 C 
BRANCH   5   6
ATOM      6  C   UNL     1      -2.260  58.056  44.759  1.00  0.00     0.006 C 
BRANCH   6   7
ATOM      7  C   UNL     1      -0.793  58.252  45.152  1.00  0.00     0.053 C 
BRANCH   7   8
ATOM      8  C   UNL     1       0.087  58.176  43.944  1.00  0.00     0.041 C 
ATOM      9  O   UNL     1       1.173  58.813  43.910  1.00  0.00    -0.550 OA
ATOM     10  O   UNL     1      -0.266  57.362  42.876  1.00  0.00    -0.550 OA
ENDBRANCH   7   8
ENDBRANCH   6   7
ENDBRANCH   5   6
ENDBRANCH   4   5
ENDBRANCH   3   4
ENDBRANCH   2   3
ENDBRANCH   1   2
BRANCH   1  11
ATOM     11  C   UNL     1      -3.397  59.668  48.887  1.00  0.00     0.000 C 
BRANCH  11  12
ATOM     12  C   UNL     1      -4.031  59.968  47.518  1.00  0.00     0.000 C 
BRANCH  12  13
ATOM     13  C   UNL     1      -3.623  61.345  46.962  1.00  0.00     0.000 C 
BRANCH  13  14
ATOM     14  C   UNL     1      -3.652  61.468  45.425  1.00  0.00     0.000 C 
BRANCH  14  15
ATOM     15  C   UNL     1      -2.278  61.660  44.757  1.00  0.00     0.000 C 
BRANCH  15  16
ATOM     16  C   UNL     1      -1.452  62.787  45.403  1.00  0.00     0.006 C 
BRANCH  16  17
ATOM     17  C   UNL     1      -0.062  62.922  44.768  1.00  0.00     0.053 C 
BRANCH  17  18
ATOM     18  C   UNL     1       1.020  62.465  45.698  1.00  0.00     0.041 C 
ATOM     19  O   UNL     1       1.111  61.251  46.018  1.00  0.00    -0.550 OA
ATOM     20  O   UNL     1       1.945  63.377  46.191  1.00  0.00    -0.550 OA
ENDBRANCH  17  18
ENDBRANCH  16  17
ENDBRANCH  15  16
ENDBRANCH  14  15
ENDBRANCH  13  14
ENDBRANCH  12  13
ENDBRANCH  11  12
ENDBRANCH   1  11
TORSDOF 15
ENDMDL
MODEL 3
REMARK VINA RESULT:    -4.016     14.214     16.026
REMARK INTER + INTRA:          -9.864
REMARK INTER:                  -8.697
REMARK INTRA:                  -1.167
REMARK UNBOUND:                -2.327
REMARK SMILES O=C([O-])CCCCCCCCCCCCCCC(=O)[O-]
REMARK SMILES IDX 10 1 9 2 8 3 7 4 6 5 5 6 4 7 2 8 1 9 3 10 11 11 12 12 13 13
REMARK SMILES IDX 14 14 15 15 16 16 17 17 18 18 19 19 20 20
REMARK H PARENT
REMARK Flexibility Score: inf
ROOT
ATOM      1  C   UNL     1       7.731  62.302  58.991  1.00  0.00     0.000 C 
ENDROOT
BRANCH   1   2
ATOM      2  C   UNL     1       6.574  61.319  59.235  1.00  0.00     0.000 C 
BRANCH   2   3
ATOM      3  C   UNL     1       5.963  60.780  57.931  1.00  0.00     0.000 C 
BRANCH   3   4
ATOM      4  C   UNL     1       5.772  59.249  57.922  1.00  0.00     0.000 C 
BRANCH   4   5
ATOM      5  C   UNL     1       6.527  58.576  56.765  1.00  0.00     0.000 C 
BRANCH   5   6
ATOM      6  C   UNL     1       7.838  59.309  56.462  1.00  0.00     0.006 C 
BRANCH   6   7
ATOM      7  C   UNL     1       8.081  59.400  54.953  1.00  0.00     0.053 C 
BRANCH   7   8
ATOM      8  C   UNL     1       8.274  60.824  54.538  1.00  0.00     0.041 C 
ATOM      9  O   UNL     1       7.807  61.234  53.443  1.00  0.00    -0.550 OA
ATOM     10  O   UNL     1       8.926  61.713  55.384  1.00  0.00    -0.550 OA
ENDBRANCH   7   8
ENDBRANCH   6   7
ENDBRANCH   5   6
ENDBRANCH   4   5
ENDBRANCH   3   4
ENDBRANCH   2   3
ENDBRANCH   1   2
BRANCH   1  11
ATOM     11  C   UNL     1       8.788  62.256  60.107  1.00  0.00     0.000 C 
BRANCH  11  12
ATOM     12  C   UNL     1      10.042  63.077  59.762  1.00  0.00     0.000 C 
BRANCH  12  13
ATOM     13  C   UNL     1       9.767  64.175  58.719  1.00  0.00     0.000 C 
BRANCH  13  14
ATOM     14  C   UNL     1      10.596  64.074  57.422  1.00  0.00     0.000 C 
BRANCH  14  15
ATOM     15  C   UNL     1      10.325  65.178  56.383  1.00  0.00     0.000 C 
BRANCH  15  16
ATOM     16  C   UNL     1      11.609  65.683  55.701  1.00  0.00     0.006 C 
BRANCH  16  17
ATOM     17  C   UNL     1      11.489  65.681  54.171  1.00  0.00     0.053 C 
BRANCH  17  18
ATOM     18  C   UNL     1      11.700  64.313  53.599  1.00  0.00     0.041 C 
ATOM     19  O   UNL     1      10.712  63.595  53.290  1.00  0.00    -0.550 OA
ATOM     20  O   UNL     1      12.988  63.840  53.382  1.00  0.00    -0.550 OA
ENDBRANCH  17  18
ENDBRANCH  16  17
ENDBRANCH  15  16
ENDBRANCH  14  15
ENDBRANCH  13  14
ENDBRANCH  12  13
ENDBRANCH  11  12
ENDBRANCH   1  11
TORSDOF 15
ENDMDL
MODEL 4
REMARK VINA RESULT:    -3.902      1.256      2.181
REMARK INTER + INTRA:          -9.651
REMARK INTER:                  -7.739
REMARK INTRA:                  -1.912
REMARK UNBOUND:                -2.327
REMARK SMILES O=C([O-])CCCCCCCCCCCCCCC(=O)[O-]
REMARK SMILES IDX 10 1 9 2 8 3 7 4 6 5 5 6 4 7 2 8 1 9 3 10 11 11 12 12 13 13
REMARK SMILES IDX 14 14 15 15 16 16 17 17 18 18 19 19 20 20
REMARK H PARENT
REMARK Flexibility Score: inf
ROOT
ATOM      1  C   UNL     1      -2.644  57.341  49.124  1.00  0.00     0.000 C 
ENDROOT
BRANCH   1   2
ATOM      2  C   UNL     1      -2.263  58.818  48.933  1.00  0.00     0.000 C 
BRANCH   2   3
ATOM      3  C   UNL     1      -3.487  59.731  48.747  1.00  0.00     0.000 C 
BRANCH   3   4
ATOM      4  C   UNL     1      -4.011  59.778  47.297  1.00  0.00     0.000 C 
BRANCH   4   5
ATOM      5  C   UNL     1      -3.718  61.124  46.616  1.00  0.00     0.000 C 
BRANCH   5   6
ATOM      6  C   UNL     1      -2.327  61.124  45.972  1.00  0.00     0.006 C 
BRANCH   6   7
ATOM      7  C   UNL     1      -2.344  61.858  44.628  1.00  0.00     0.053 C 
BRANCH   7   8
ATOM      8  C   UNL     1      -1.848  63.260  44.789  1.00  0.00     0.041 C 
ATOM      9  O   UNL     1      -2.497  64.222  44.300  1.00  0.00    -0.550 OA
ATOM     10  O   UNL     1      -0.695  63.510  45.523  1.00  0.00    -0.550 OA
ENDBRANCH   7   8
ENDBRANCH   6   7
ENDBRANCH   5   6
ENDBRANCH   4   5
ENDBRANCH   3   4
ENDBRANCH   2   3
ENDBRANCH   1   2
BRANCH   1  11
ATOM     11  C   UNL     1      -1.896  56.411  48.154  1.00  0.00     0.000 C 
BRANCH  11  12
ATOM     12  C   UNL     1      -2.274  56.668  46.685  1.00  0.00     0.000 C 
BRANCH  12  13
ATOM     13  C   UNL     1      -1.171  57.410  45.908  1.00  0.00     0.000 C 
BRANCH  13  14
ATOM     14  C   UNL     1      -1.556  57.851  44.481  1.00  0.00     0.000 C 
BRANCH  14  15
ATOM     15  C   UNL     1      -0.421  57.773  43.443  1.00  0.00     0.000 C 
BRANCH  15  16
ATOM     16  C   UNL     1       0.865  58.479  43.911  1.00  0.00     0.006 C 
BRANCH  16  17
ATOM     17  C   UNL     1       1.016  59.875  43.292  1.00  0.00     0.053 C 
BRANCH  17  18
ATOM     18  C   UNL     1       1.363  60.905  44.322  1.00  0.00     0.041 C 
ATOM     19  O   UNL     1       1.145  60.681  45.541  1.00  0.00    -0.550 OA
ATOM     20  O   UNL     1       1.954  62.102  43.937  1.00  0.00    -0.550 OA
ENDBRANCH  17  18
ENDBRANCH  16  17
ENDBRANCH  15  16
ENDBRANCH  14  15
ENDBRANCH  13  14
ENDBRANCH  12  13
ENDBRANCH  11  12
ENDBRANCH   1  11
TORSDOF 15
ENDMDL
MODEL 5
REMARK VINA RESULT:    -3.807      2.530      5.547
REMARK INTER + INTRA:          -9.472
REMARK INTER:                  -7.675
REMARK INTRA:                  -1.797
REMARK UNBOUND:                -2.327
REMARK SMILES O=C([O-])CCCCCCCCCCCCCCC(=O)[O-]
REMARK SMILES IDX 10 1 9 2 8 3 7 4 6 5 5 6 4 7 2 8 1 9 3 10 11 11 12 12 13 13
REMARK SMILES IDX 14 14 15 15 16 16 17 17 18 18 19 19 20 20
REMARK H PARENT
REMARK Flexibility Score: inf
ROOT
ATOM      1  C   UNL     1      -1.545  58.188  44.941  1.00  0.00     0.000 C 
ENDROOT
BRANCH   1   2
ATOM      2  C   UNL     1      -3.037  57.886  44.728  1.00  0.00     0.000 C 
BRANCH   2   3
ATOM      3  C   UNL     1      -3.958  58.868  45.471  1.00  0.00     0.000 C 
BRANCH   3   4
ATOM      4  C   UNL     1      -3.258  60.179  45.888  1.00  0.00     0.000 C 
BRANCH   4   5
ATOM      5  C   UNL     1      -3.368  60.442  47.398  1.00  0.00     0.000 C 
BRANCH   5   6
ATOM      6  C   UNL     1      -3.731  59.160  48.156  1.00  0.00     0.006 C 
BRANCH   6   7
ATOM      7  C   UNL     1      -2.493  58.539  48.808  1.00  0.00     0.053 C 
BRANCH   7   8
ATOM      8  C   UNL     1      -2.584  57.045  48.789  1.00  0.00     0.041 C 
ATOM      9  O   UNL     1      -2.532  56.420  47.697  1.00  0.00    -0.550 OA
ATOM     10  O   UNL     1      -2.674  56.339  49.982  1.00  0.00    -0.550 OA
ENDBRANCH   7   8
ENDBRANCH   6   7
ENDBRANCH   5   6
ENDBRANCH   4   5
ENDBRANCH   3   4
ENDBRANCH   2   3
ENDBRANCH   1   2
BRANCH   1  11
ATOM     11  C   UNL     1      -0.681  57.759  43.743  1.00  0.00     0.000 C 
BRANCH  11  12
ATOM     12  C   UNL     1       0.810  58.079  43.950  1.00  0.00     0.000 C 
BRANCH  12  13
ATOM     13  C   UNL     1       1.215  59.441  43.358  1.00  0.00     0.000 C 
BRANCH  13  14
ATOM     14  C   UNL     1       1.884  60.416  44.348  1.00  0.00     0.000 C 
BRANCH  14  15
ATOM     15  C   UNL     1       0.930  61.080  45.358  1.00  0.00     0.000 C 
BRANCH  15  16
ATOM     16  C   UNL     1      -0.283  61.745  44.685  1.00  0.00     0.006 C 
BRANCH  16  17
ATOM     17  C   UNL     1      -0.426  63.221  45.080  1.00  0.00     0.053 C 
BRANCH  17  18
ATOM     18  C   UNL     1      -1.859  63.656  45.095  1.00  0.00     0.041 C 
ATOM     19  O   UNL     1      -2.511  63.658  46.173  1.00  0.00    -0.550 OA
ATOM     20  O   UNL     1      -2.468  64.085  43.923  1.00  0.00    -0.550 OA
ENDBRANCH  17  18
ENDBRANCH  16  17
ENDBRANCH  15  16
ENDBRANCH  14  15
ENDBRANCH  13  14
ENDBRANCH  12  13
ENDBRANCH  11  12
ENDBRANCH   1  11
TORSDOF 15
ENDMDL
MODEL 6
REMARK VINA RESULT:    -3.799     13.297     14.801
REMARK INTER + INTRA:          -9.457
REMARK INTER:                  -7.778
REMARK INTRA:                  -1.679
REMARK UNBOUND:                -2.327
REMARK SMILES O=C([O-])CCCCCCCCCCCCCCC(=O)[O-]
REMARK SMILES IDX 10 1 9 2 8 3 7 4 6 5 5 6 4 7 2 8 1 9 3 10 11 11 12 12 13 13
REMARK SMILES IDX 14 14 15 15 16 16 17 17 18 18 19 19 20 20
REMARK H PARENT
REMARK Flexibility Score: inf
ROOT
ATOM      1  C   UNL     1       5.536  62.227  59.122  1.00  0.00     0.000 C 
ENDROOT
BRANCH   1   2
ATOM      2  C   UNL     1       6.968  61.892  59.571  1.00  0.00     0.000 C 
BRANCH   2   3
ATOM      3  C   UNL     1       8.013  62.877  59.020  1.00  0.00     0.000 C 
BRANCH   3   4
ATOM      4  C   UNL     1       9.257  62.190  58.420  1.00  0.00     0.000 C 
BRANCH   4   5
ATOM      5  C   UNL     1      10.513  63.070  58.522  1.00  0.00     0.000 C 
BRANCH   5   6
ATOM      6  C   UNL     1      10.553  64.106  57.393  1.00  0.00     0.006 C 
BRANCH   6   7
ATOM      7  C   UNL     1      10.463  63.430  56.023  1.00  0.00     0.053 C 
BRANCH   7   8
ATOM      8  C   UNL     1      10.981  64.339  54.954  1.00  0.00     0.041 C 
ATOM      9  O   UNL     1      10.992  65.586  55.131  1.00  0.00    -0.550 OA
ATOM     10  O   UNL     1      11.501  63.807  53.780  1.00  0.00    -0.550 OA
ENDBRANCH   7   8
ENDBRANCH   6   7
ENDBRANCH   5   6
ENDBRANCH   4   5
ENDBRANCH   3   4
ENDBRANCH   2   3
ENDBRANCH   1   2
BRANCH   1  11
ATOM     11  C   UNL     1       4.817  61.019  58.499  1.00  0.00     0.000 C 
BRANCH  11  12
ATOM     12  C   UNL     1       5.364  60.664  57.106  1.00  0.00     0.000 C 
BRANCH  12  13
ATOM     13  C   UNL     1       6.201  59.372  57.105  1.00  0.00     0.000 C 
BRANCH  13  14
ATOM     14  C   UNL     1       7.594  59.491  56.452  1.00  0.00     0.000 C 
BRANCH  14  15
ATOM     15  C   UNL     1       7.783  60.707  55.528  1.00  0.00     0.000 C 
BRANCH  15  16
ATOM     16  C   UNL     1       8.268  60.317  54.120  1.00  0.00     0.006 C 
BRANCH  16  17
ATOM     17  C   UNL     1       8.722  61.537  53.307  1.00  0.00     0.053 C 
BRANCH  17  18
ATOM     18  C   UNL     1       7.813  61.802  52.147  1.00  0.00     0.041 C 
ATOM     19  O   UNL     1       8.283  61.921  50.986  1.00  0.00    -0.550 OA
ATOM     20  O   UNL     1       6.441  61.892  52.346  1.00  0.00    -0.550 OA
ENDBRANCH  17  18
ENDBRANCH  16  17
ENDBRANCH  15  16
ENDBRANCH  14  15
ENDBRANCH  13  14
ENDBRANCH  12  13
ENDBRANCH  11  12
ENDBRANCH   1  11
TORSDOF 15
ENDMDL
MODEL 7
REMARK VINA RESULT:    -3.798     13.401     15.055
REMARK INTER + INTRA:          -9.456
REMARK INTER:                  -8.173
REMARK INTRA:                  -1.283
REMARK UNBOUND:                -2.327
REMARK SMILES O=C([O-])CCCCCCCCCCCCCCC(=O)[O-]
REMARK SMILES IDX 10 1 9 2 8 3 7 4 6 5 5 6 4 7 2 8 1 9 3 10 11 11 12 12 13 13
REMARK SMILES IDX 14 14 15 15 16 16 17 17 18 18 19 19 20 20
REMARK H PARENT
REMARK Flexibility Score: inf
ROOT
ATOM      1  C   UNL     1       5.594  60.314  57.213  1.00  0.00     0.000 C 
ENDROOT
BRANCH   1   2
ATOM      2  C   UNL     1       4.925  60.391  58.595  1.00  0.00     0.000 C 
BRANCH   2   3
ATOM      3  C   UNL     1       5.740  61.213  59.608  1.00  0.00     0.000 C 
BRANCH   3   4
ATOM      4  C   UNL     1       6.649  62.275  58.955  1.00  0.00     0.000 C 
BRANCH   4   5
ATOM      5  C   UNL     1       8.118  62.122  59.379  1.00  0.00     0.000 C 
BRANCH   5   6
ATOM      6  C   UNL     1       9.023  63.072  58.586  1.00  0.00     0.006 C 
BRANCH   6   7
ATOM      7  C   UNL     1      10.499  62.808  58.892  1.00  0.00     0.053 C 
BRANCH   7   8
ATOM      8  C   UNL     1      10.755  62.898  60.364  1.00  0.00     0.041 C 
ATOM      9  O   UNL     1      10.934  61.852  61.041  1.00  0.00    -0.550 OA
ATOM     10  O   UNL     1      10.845  64.140  60.979  1.00  0.00    -0.550 OA
ENDBRANCH   7   8
ENDBRANCH   6   7
ENDBRANCH   5   6
ENDBRANCH   4   5
ENDBRANCH   3   4
ENDBRANCH   2   3
ENDBRANCH   1   2
BRANCH   1  11
ATOM     11  C   UNL     1       6.437  59.040  57.038  1.00  0.00     0.000 C 
BRANCH  11  12
ATOM     12  C   UNL     1       7.835  59.334  56.467  1.00  0.00     0.000 C 
BRANCH  12  13
ATOM     13  C   UNL     1       7.901  60.678  55.718  1.00  0.00     0.000 C 
BRANCH  13  14
ATOM     14  C   UNL     1       7.998  60.571  54.182  1.00  0.00     0.000 C 
BRANCH  14  15
ATOM     15  C   UNL     1       9.040  61.496  53.526  1.00  0.00     0.000 C 
BRANCH  15  16
ATOM     16  C   UNL     1       8.654  61.909  52.095  1.00  0.00     0.006 C 
BRANCH  16  17
ATOM     17  C   UNL     1       7.143  61.798  51.850  1.00  0.00     0.053 C 
BRANCH  17  18
ATOM     18  C   UNL     1       6.754  62.360  50.517  1.00  0.00     0.041 C 
ATOM     19  O   UNL     1       7.449  62.113  49.497  1.00  0.00    -0.550 OA
ATOM     20  O   UNL     1       5.608  63.137  50.398  1.00  0.00    -0.550 OA
ENDBRANCH  17  18
ENDBRANCH  16  17
ENDBRANCH  15  16
ENDBRANCH  14  15
ENDBRANCH  13  14
ENDBRANCH  12  13
ENDBRANCH  11  12
ENDBRANCH   1  11
TORSDOF 15
ENDMDL
MODEL 8
REMARK VINA RESULT:    -3.754      1.382      2.327
REMARK INTER + INTRA:          -9.374
REMARK INTER:                  -7.351
REMARK INTRA:                  -2.023
REMARK UNBOUND:                -2.327
REMARK SMILES O=C([O-])CCCCCCCCCCCCCCC(=O)[O-]
REMARK SMILES IDX 10 1 9 2 8 3 7 4 6 5 5 6 4 7 2 8 1 9 3 10 11 11 12 12 13 13
REMARK SMILES IDX 14 14 15 15 16 16 17 17 18 18 19 19 20 20
REMARK H PARENT
REMARK Flexibility Score: inf
ROOT
ATOM      1  C   UNL     1      -3.325  60.759  47.589  1.00  0.00     0.000 C 
ENDROOT
BRANCH   1   2
ATOM      2  C   UNL     1      -4.125  60.626  46.283  1.00  0.00     0.000 C 
BRANCH   2   3
ATOM      3  C   UNL     1      -3.398  61.237  45.073  1.00  0.00     0.000 C 
BRANCH   3   4
ATOM      4  C   UNL     1      -1.928  61.608  45.356  1.00  0.00     0.000 C 
BRANCH   4   5
ATOM      5  C   UNL     1      -1.268  62.320  44.165  1.00  0.00     0.000 C 
BRANCH   5   6
ATOM      6  C   UNL     1      -1.246  63.839  44.374  1.00  0.00     0.006 C 
BRANCH   6   7
ATOM      7  C   UNL     1      -1.378  64.192  45.857  1.00  0.00     0.053 C 
BRANCH   7   8
ATOM      8  C   UNL     1      -0.295  65.138  46.270  1.00  0.00     0.041 C 
ATOM      9  O   UNL     1       0.848  65.060  45.749  1.00  0.00    -0.550 OA
ATOM     10  O   UNL     1      -0.563  66.140  47.195  1.00  0.00    -0.550 OA
ENDBRANCH   7   8
ENDBRANCH   6   7
ENDBRANCH   5   6
ENDBRANCH   4   5
ENDBRANCH   3   4
ENDBRANCH   2   3
ENDBRANCH   1   2
BRANCH   1  11
ATOM     11  C   UNL     1      -3.624  59.622  48.580  1.00  0.00     0.000 C 
BRANCH  11  12
ATOM     12  C   UNL     1      -2.387  58.755  48.870  1.00  0.00     0.000 C 
BRANCH  12  13
ATOM     13  C   UNL     1      -2.657  57.251  48.683  1.00  0.00     0.000 C 
BRANCH  13  14
ATOM     14  C   UNL     1      -2.247  56.673  47.312  1.00  0.00     0.000 C 
BRANCH  14  15
ATOM     15  C   UNL     1      -3.140  57.094  46.131  1.00  0.00     0.000 C 
BRANCH  15  16
ATOM     16  C   UNL     1      -2.339  57.689  44.959  1.00  0.00     0.006 C 
BRANCH  16  17
ATOM     17  C   UNL     1      -0.879  57.967  45.341  1.00  0.00     0.053 C 
BRANCH  17  18
ATOM     18  C   UNL     1      -0.059  58.360  44.150  1.00  0.00     0.041 C 
ATOM     19  O   UNL     1       0.727  59.342  44.217  1.00  0.00    -0.550 OA
ATOM     20  O   UNL     1      -0.143  57.625  42.975  1.00  0.00    -0.550 OA
ENDBRANCH  17  18
ENDBRANCH  16  17
ENDBRANCH  15  16
ENDBRANCH  14  15
ENDBRANCH  13  14
ENDBRANCH  12  13
ENDBRANCH  11  12
ENDBRANCH   1  11
TORSDOF 15
ENDMDL
MODEL 9
REMARK VINA RESULT:    -3.723      1.439      2.157
REMARK INTER + INTRA:          -9.314
REMARK INTER:                  -7.369
REMARK INTRA:                  -1.946
REMARK UNBOUND:                -2.327
REMARK SMILES O=C([O-])CCCCCCCCCCCCCCC(=O)[O-]
REMARK SMILES IDX 10 1 9 2 8 3 7 4 6 5 5 6 4 7 2 8 1 9 3 10 11 11 12 12 13 13
REMARK SMILES IDX 14 14 15 15 16 16 17 17 18 18 19 19 20 20
REMARK H PARENT
REMARK Flexibility Score: inf
ROOT
ATOM      1  C   UNL     1      -2.750  60.372  47.703  1.00  0.00     0.000 C 
ENDROOT
BRANCH   1   2
ATOM      2  C   UNL     1      -3.925  61.089  47.018  1.00  0.00     0.000 C 
BRANCH   2   3
ATOM      3  C   UNL     1      -3.879  60.979  45.485  1.00  0.00     0.000 C 
BRANCH   3   4
ATOM      4  C   UNL     1      -3.009  62.061  44.811  1.00  0.00     0.000 C 
BRANCH   4   5
ATOM      5  C   UNL     1      -1.535  61.639  44.706  1.00  0.00     0.000 C 
BRANCH   5   6
ATOM      6  C   UNL     1      -0.601  62.820  44.993  1.00  0.00     0.006 C 
BRANCH   6   7
ATOM      7  C   UNL     1       0.753  62.335  45.517  1.00  0.00     0.053 C 
BRANCH   7   8
ATOM      8  C   UNL     1       1.829  62.597  44.511  1.00  0.00     0.041 C 
ATOM      9  O   UNL     1       2.928  63.093  44.873  1.00  0.00    -0.550 OA
ATOM     10  O   UNL     1       1.637  62.247  43.180  1.00  0.00    -0.550 OA
ENDBRANCH   7   8
ENDBRANCH   6   7
ENDBRANCH   5   6
ENDBRANCH   4   5
ENDBRANCH   3   4
ENDBRANCH   2   3
ENDBRANCH   1   2
BRANCH   1  11
ATOM     11  C   UNL     1      -3.216  59.381  48.784  1.00  0.00     0.000 C 
BRANCH  11  12
ATOM     12  C   UNL     1      -2.294  58.154  48.891  1.00  0.00     0.000 C 
BRANCH  12  13
ATOM     13  C   UNL     1      -2.967  56.859  48.400  1.00  0.00     0.000 C 
BRANCH  13  14
ATOM     14  C   UNL     1      -2.638  56.456  46.948  1.00  0.00     0.000 C 
BRANCH  14  15
ATOM     15  C   UNL     1      -3.393  57.244  45.862  1.00  0.00     0.000 C 
BRANCH  15  16
ATOM     16  C   UNL     1      -2.456  57.835  44.794  1.00  0.00     0.006 C 
BRANCH  16  17
ATOM     17  C   UNL     1      -0.986  57.800  45.231  1.00  0.00     0.053 C 
BRANCH  17  18
ATOM     18  C   UNL     1      -0.060  58.101  44.093  1.00  0.00     0.041 C 
ATOM     19  O   UNL     1      -0.174  57.482  43.002  1.00  0.00    -0.550 OA
ATOM     20  O   UNL     1       0.913  59.083  44.228  1.00  0.00    -0.550 OA
ENDBRANCH  17  18
ENDBRANCH  16  17
ENDBRANCH  15  16
ENDBRANCH  14  15
ENDBRANCH  13  14
ENDBRANCH  12  13
ENDBRANCH  11  12
ENDBRANCH   1  11
TORSDOF 15
ENDMDL
