MODEL 1
REMARK VINA RESULT:    -3.684      0.000      0.000
REMARK INTER + INTRA:          -6.446
REMARK INTER:                  -5.838
REMARK INTRA:                  -0.607
REMARK UNBOUND:                -0.607
REMARK SMILES CCCCCCCCCCCC(=O)[O-]
REMARK SMILES IDX 7 1 8 2 9 3 10 4 11 5 12 6 13 7 14 8 6 9 5 10 4 11 3 12 2 13
REMARK SMILES IDX 1 14
REMARK H PARENT
REMARK Flexibility Score: inf
ROOT
ATOM      1  C   UNL     1       8.918  -5.407  -7.319  1.00  0.00     0.000 C 
ENDROOT
BRANCH   1   2
ATOM      2  C   UNL     1       8.747  -6.614  -6.377  1.00  0.00     0.000 C 
BRANCH   2   3
ATOM      3  C   UNL     1      10.024  -7.441  -6.138  1.00  0.00     0.000 C 
BRANCH   3   4
ATOM      4  C   UNL     1      11.311  -6.591  -6.063  1.00  0.00     0.006 C 
BRANCH   4   5
ATOM      5  C   UNL     1      11.774  -6.353  -4.619  1.00  0.00     0.053 C 
BRANCH   5   6
ATOM      6  C   UNL     1      11.094  -5.150  -4.046  1.00  0.00     0.041 C 
ATOM      7  O   UNL     1      10.562  -5.205  -2.906  1.00  0.00    -0.550 OA
ATOM      8  O   UNL     1      11.006  -3.980  -4.790  1.00  0.00    -0.550 OA
ENDBRANCH   5   6
ENDBRANCH   4   5
ENDBRANCH   3   4
ENDBRANCH   2   3
ENDBRANCH   1   2
BRANCH   1   9
ATOM      9  C   UNL     1       8.144  -5.505  -8.647  1.00  0.00     0.000 C 
BRANCH   9  10
ATOM     10  C   UNL     1       8.464  -4.355  -9.614  1.00  0.00    -0.000 C 
BRANCH  10  11
ATOM     11  C   UNL     1       7.241  -3.448  -9.813  1.00  0.00    -0.000 C 
BRANCH  11  12
ATOM     12  C   UNL     1       5.939  -4.091  -9.311  1.00  0.00    -0.000 C 
BRANCH  12  13
ATOM     13  C   UNL     1       4.688  -3.312  -9.746  1.00  0.00    -0.003 C 
ATOM     14  C   UNL     1       3.490  -4.243  -9.909  1.00  0.00     0.004 C 
ENDBRANCH  12  13
ENDBRANCH  11  12
ENDBRANCH  10  11
ENDBRANCH   9  10
ENDBRANCH   1   9
TORSDOF 10
ENDMDL
MODEL 2
REMARK VINA RESULT:    -3.608      3.437      6.992
REMARK INTER + INTRA:          -6.324
REMARK INTER:                  -5.691
REMARK INTRA:                  -0.633
REMARK UNBOUND:                -0.607
REMARK SMILES CCCCCCCCCCCC(=O)[O-]
REMARK SMILES IDX 7 1 8 2 9 3 10 4 11 5 12 6 13 7 14 8 6 9 5 10 4 11 3 12 2 13
REMARK SMILES IDX 1 14
REMARK H PARENT
REMARK Flexibility Score: inf
ROOT
ATOM      1  C   UNL     1       8.170  -5.785  -6.967  1.00  0.00     0.000 C 
ENDROOT
BRANCH   1   2
ATOM      2  C   UNL     1       8.797  -4.907  -8.067  1.00  0.00     0.000 C 
BRANCH   2   3
ATOM      3  C   UNL     1       7.864  -4.572  -9.247  1.00  0.00     0.000 C 
BRANCH   3   4
ATOM      4  C   UNL     1       6.381  -4.426  -8.845  1.00  0.00     0.006 C 
BRANCH   4   5
ATOM      5  C   UNL     1       5.618  -3.458  -9.759  1.00  0.00     0.053 C 
BRANCH   5   6
ATOM      6  C   UNL     1       4.186  -3.360  -9.336  1.00  0.00     0.041 C 
ATOM      7  O   UNL     1       3.809  -2.419  -8.588  1.00  0.00    -0.550 OA
ATOM      8  O   UNL     1       3.277  -4.334  -9.728  1.00  0.00    -0.550 OA
ENDBRANCH   5   6
ENDBRANCH   4   5
ENDBRANCH   3   4
ENDBRANCH   2   3
ENDBRANCH   1   2
BRANCH   1   9
ATOM      9  C   UNL     1       9.051  -6.954  -6.489  1.00  0.00     0.000 C 
BRANCH   9  10
ATOM     10  C   UNL     1      10.494  -6.868  -7.005  1.00  0.00    -0.000 C 
BRANCH  10  11
ATOM     11  C   UNL     1      11.495  -6.861  -5.839  1.00  0.00    -0.000 C 
BRANCH  11  12
ATOM     12  C   UNL     1      12.043  -5.458  -5.537  1.00  0.00    -0.000 C 
BRANCH  12  13
ATOM     13  C   UNL     1      11.087  -4.622  -4.672  1.00  0.00    -0.003 C 
ATOM     14  C   UNL     1      11.823  -3.465  -4.003  1.00  0.00     0.004 C 
ENDBRANCH  12  13
ENDBRANCH  11  12
ENDBRANCH  10  11
ENDBRANCH   9  10
ENDBRANCH   1   9
TORSDOF 10
ENDMDL
MODEL 3
REMARK VINA RESULT:    -3.393      2.718      6.627
REMARK INTER + INTRA:          -5.984
REMARK INTER:                  -5.211
REMARK INTRA:                  -0.773
REMARK UNBOUND:                -0.607
REMARK SMILES CCCCCCCCCCCC(=O)[O-]
REMARK SMILES IDX 7 1 8 2 9 3 10 4 11 5 12 6 13 7 14 8 6 9 5 10 4 11 3 12 2 13
REMARK SMILES IDX 1 14
REMARK H PARENT
REMARK Flexibility Score: inf
ROOT
ATOM      1  C   UNL     1       8.877  -6.638  -6.374  1.00  0.00     0.000 C 
ENDROOT
BRANCH   1   2
ATOM      2  C   UNL     1       9.280  -5.272  -6.960  1.00  0.00     0.000 C 
BRANCH   2   3
ATOM      3  C   UNL     1       9.690  -5.294  -8.445  1.00  0.00     0.000 C 
BRANCH   3   4
ATOM      4  C   UNL     1       8.509  -5.515  -9.414  1.00  0.00     0.006 C 
BRANCH   4   5
ATOM      5  C   UNL     1       7.768  -4.212  -9.743  1.00  0.00     0.053 C 
BRANCH   5   6
ATOM      6  C   UNL     1       6.357  -4.276  -9.252  1.00  0.00     0.041 C 
ATOM      7  O   UNL     1       5.399  -4.224 -10.068  1.00  0.00    -0.550 OA
ATOM      8  O   UNL     1       6.096  -4.346  -7.890  1.00  0.00    -0.550 OA
ENDBRANCH   5   6
ENDBRANCH   4   5
ENDBRANCH   3   4
ENDBRANCH   2   3
ENDBRANCH   1   2
BRANCH   1   9
ATOM      9  C   UNL     1       9.938  -7.745  -6.518  1.00  0.00     0.000 C 
BRANCH   9  10
ATOM     10  C   UNL     1      10.748  -7.971  -5.233  1.00  0.00    -0.000 C 
BRANCH  10  11
ATOM     11  C   UNL     1      11.587  -6.732  -4.887  1.00  0.00    -0.000 C 
BRANCH  11  12
ATOM     12  C   UNL     1      11.605  -6.430  -3.381  1.00  0.00    -0.000 C 
BRANCH  12  13
ATOM     13  C   UNL     1      11.013  -5.052  -3.046  1.00  0.00    -0.003 C 
ATOM     14  C   UNL     1      11.721  -3.946  -3.823  1.00  0.00     0.004 C 
ENDBRANCH  12  13
ENDBRANCH  11  12
ENDBRANCH  10  11
ENDBRANCH   9  10
ENDBRANCH   1   9
TORSDOF 10
ENDMDL
MODEL 4
REMARK VINA RESULT:    -3.232     14.672     16.284
REMARK INTER + INTRA:          -5.728
REMARK INTER:                  -4.314
REMARK INTRA:                  -1.414
REMARK UNBOUND:                -0.607
REMARK SMILES CCCCCCCCCCCC(=O)[O-]
REMARK SMILES IDX 7 1 8 2 9 3 10 4 11 5 12 6 13 7 14 8 6 9 5 10 4 11 3 12 2 13
REMARK SMILES IDX 1 14
REMARK H PARENT
REMARK Flexibility Score: inf
ROOT
ATOM      1  C   UNL     1      -6.066  -4.770  -4.802  1.00  0.00     0.000 C 
ENDROOT
BRANCH   1   2
ATOM      2  C   UNL     1      -7.592  -4.637  -4.968  1.00  0.00     0.000 C 
BRANCH   2   3
ATOM      3  C   UNL     1      -8.049  -3.908  -6.245  1.00  0.00     0.000 C 
BRANCH   3   4
ATOM      4  C   UNL     1      -7.240  -2.630  -6.556  1.00  0.00     0.006 C 
BRANCH   4   5
ATOM      5  C   UNL     1      -6.599  -2.665  -7.949  1.00  0.00     0.053 C 
BRANCH   5   6
ATOM      6  C   UNL     1      -7.558  -2.156  -8.978  1.00  0.00     0.041 C 
ATOM      7  O   UNL     1      -7.984  -2.922  -9.882  1.00  0.00    -0.550 OA
ATOM      8  O   UNL     1      -7.946  -0.822  -8.968  1.00  0.00    -0.550 OA
ENDBRANCH   5   6
ENDBRANCH   4   5
ENDBRANCH   3   4
ENDBRANCH   2   3
ENDBRANCH   1   2
BRANCH   1   9
ATOM      9  C   UNL     1      -5.482  -6.129  -5.231  1.00  0.00     0.000 C 
BRANCH   9  10
ATOM     10  C   UNL     1      -4.787  -6.079  -6.599  1.00  0.00    -0.000 C 
BRANCH  10  11
ATOM     11  C   UNL     1      -5.318  -7.184  -7.525  1.00  0.00    -0.000 C 
BRANCH  11  12
ATOM     12  C   UNL     1      -6.833  -7.088  -7.754  1.00  0.00    -0.000 C 
BRANCH  12  13
ATOM     13  C   UNL     1      -7.197  -6.188  -8.944  1.00  0.00    -0.003 C 
ATOM     14  C   UNL     1      -6.039  -6.088  -9.932  1.00  0.00     0.004 C 
ENDBRANCH  12  13
ENDBRANCH  11  12
ENDBRANCH  10  11
ENDBRANCH   9  10
ENDBRANCH   1   9
TORSDOF 10
ENDMDL
MODEL 5
REMARK VINA RESULT:    -3.040     14.215     15.870
REMARK INTER + INTRA:          -5.425
REMARK INTER:                  -4.139
REMARK INTRA:                  -1.286
REMARK UNBOUND:                -0.607
REMARK SMILES CCCCCCCCCCCC(=O)[O-]
REMARK SMILES IDX 7 1 8 2 9 3 10 4 11 5 12 6 13 7 14 8 6 9 5 10 4 11 3 12 2 13
REMARK SMILES IDX 1 14
REMARK H PARENT
REMARK Flexibility Score: inf
ROOT
ATOM      1  C   UNL     1      -7.246  -4.371  -5.004  1.00  0.00     0.000 C 
ENDROOT
BRANCH   1   2
ATOM      2  C   UNL     1      -8.013  -5.706  -4.960  1.00  0.00     0.000 C 
BRANCH   2   3
ATOM      3  C   UNL     1      -8.061  -6.475  -6.295  1.00  0.00     0.000 C 
BRANCH   3   4
ATOM      4  C   UNL     1      -7.407  -7.873  -6.231  1.00  0.00     0.006 C 
BRANCH   4   5
ATOM      5  C   UNL     1      -5.948  -7.816  -5.760  1.00  0.00     0.053 C 
BRANCH   5   6
ATOM      6  C   UNL     1      -5.108  -7.072  -6.749  1.00  0.00     0.041 C 
ATOM      7  O   UNL     1      -5.021  -7.477  -7.939  1.00  0.00    -0.550 OA
ATOM      8  O   UNL     1      -4.385  -5.956  -6.348  1.00  0.00    -0.550 OA
ENDBRANCH   5   6
ENDBRANCH   4   5
ENDBRANCH   3   4
ENDBRANCH   2   3
ENDBRANCH   1   2
BRANCH   1   9
ATOM      9  C   UNL     1      -8.125  -3.113  -4.873  1.00  0.00     0.000 C 
BRANCH   9  10
ATOM     10  C   UNL     1      -7.912  -2.111  -6.017  1.00  0.00    -0.000 C 
BRANCH  10  11
ATOM     11  C   UNL     1      -7.876  -2.828  -7.375  1.00  0.00    -0.000 C 
BRANCH  11  12
ATOM     12  C   UNL     1      -6.617  -2.494  -8.188  1.00  0.00    -0.000 C 
BRANCH  12  13
ATOM     13  C   UNL     1      -5.864  -3.748  -8.657  1.00  0.00    -0.003 C 
ATOM     14  C   UNL     1      -6.821  -4.768  -9.266  1.00  0.00     0.004 C 
ENDBRANCH  12  13
ENDBRANCH  11  12
ENDBRANCH  10  11
ENDBRANCH   9  10
ENDBRANCH   1   9
TORSDOF 10
ENDMDL
MODEL 6
REMARK VINA RESULT:    -3.020     14.867     16.301
REMARK INTER + INTRA:          -5.393
REMARK INTER:                  -4.113
REMARK INTRA:                  -1.280
REMARK UNBOUND:                -0.607
REMARK SMILES CCCCCCCCCCCC(=O)[O-]
REMARK SMILES IDX 7 1 8 2 9 3 10 4 11 5 12 6 13 7 14 8 6 9 5 10 4 11 3 12 2 13
REMARK SMILES IDX 1 14
REMARK H PARENT
REMARK Flexibility Score: inf
ROOT
ATOM      1  C   UNL     1      -5.888  -4.930  -5.305  1.00  0.00     0.000 C 
ENDROOT
BRANCH   1   2
ATOM      2  C   UNL     1      -7.369  -4.647  -4.988  1.00  0.00     0.000 C 
BRANCH   2   3
ATOM      3  C   UNL     1      -8.104  -3.778  -6.027  1.00  0.00     0.000 C 
BRANCH   3   4
ATOM      4  C   UNL     1      -7.344  -2.489  -6.410  1.00  0.00     0.006 C 
BRANCH   4   5
ATOM      5  C   UNL     1      -7.873  -1.859  -7.705  1.00  0.00     0.053 C 
BRANCH   5   6
ATOM      6  C   UNL     1      -6.930  -2.125  -8.836  1.00  0.00     0.041 C 
ATOM      7  O   UNL     1      -5.839  -2.719  -8.627  1.00  0.00    -0.550 OA
ATOM      8  O   UNL     1      -7.233  -1.674 -10.115  1.00  0.00    -0.550 OA
ENDBRANCH   5   6
ENDBRANCH   4   5
ENDBRANCH   3   4
ENDBRANCH   2   3
ENDBRANCH   1   2
BRANCH   1   9
ATOM      9  C   UNL     1      -5.541  -6.417  -5.510  1.00  0.00     0.000 C 
BRANCH   9  10
ATOM     10  C   UNL     1      -6.777  -7.291  -5.767  1.00  0.00    -0.000 C 
BRANCH  10  11
ATOM     11  C   UNL     1      -6.898  -7.647  -7.256  1.00  0.00    -0.000 C 
BRANCH  11  12
ATOM     12  C   UNL     1      -5.717  -7.125  -8.088  1.00  0.00    -0.000 C 
BRANCH  12  13
ATOM     13  C   UNL     1      -6.163  -6.240  -9.262  1.00  0.00    -0.003 C 
ATOM     14  C   UNL     1      -7.608  -5.782  -9.086  1.00  0.00     0.004 C 
ENDBRANCH  12  13
ENDBRANCH  11  12
ENDBRANCH  10  11
ENDBRANCH   9  10
ENDBRANCH   1   9
TORSDOF 10
ENDMDL
MODEL 7
REMARK VINA RESULT:    -2.968     14.386     15.618
REMARK INTER + INTRA:          -5.310
REMARK INTER:                  -4.123
REMARK INTRA:                  -1.187
REMARK UNBOUND:                -0.607
REMARK SMILES CCCCCCCCCCCC(=O)[O-]
REMARK SMILES IDX 7 1 8 2 9 3 10 4 11 5 12 6 13 7 14 8 6 9 5 10 4 11 3 12 2 13
REMARK SMILES IDX 1 14
REMARK H PARENT
REMARK Flexibility Score: inf
ROOT
ATOM      1  C   UNL     1      -7.040  -3.359  -6.529  1.00  0.00     0.000 C 
ENDROOT
BRANCH   1   2
ATOM      2  C   UNL     1      -7.789  -3.728  -5.235  1.00  0.00     0.000 C 
BRANCH   2   3
ATOM      3  C   UNL     1      -7.963  -5.239  -4.990  1.00  0.00     0.000 C 
BRANCH   3   4
ATOM      4  C   UNL     1      -7.570  -6.115  -6.199  1.00  0.00     0.006 C 
BRANCH   4   5
ATOM      5  C   UNL     1      -6.714  -7.323  -5.794  1.00  0.00     0.053 C 
BRANCH   5   6
ATOM      6  C   UNL     1      -5.307  -6.895  -5.515  1.00  0.00     0.041 C 
ATOM      7  O   UNL     1      -4.711  -7.309  -4.485  1.00  0.00    -0.550 OA
ATOM      8  O   UNL     1      -4.670  -6.002  -6.366  1.00  0.00    -0.550 OA
ENDBRANCH   5   6
ENDBRANCH   4   5
ENDBRANCH   3   4
ENDBRANCH   2   3
ENDBRANCH   1   2
BRANCH   1   9
ATOM      9  C   UNL     1      -7.596  -2.131  -7.274  1.00  0.00     0.000 C 
BRANCH   9  10
ATOM     10  C   UNL     1      -7.193  -2.094  -8.755  1.00  0.00    -0.000 C 
BRANCH  10  11
ATOM     11  C   UNL     1      -5.890  -2.872  -8.990  1.00  0.00    -0.000 C 
BRANCH  11  12
ATOM     12  C   UNL     1      -6.016  -3.918 -10.107  1.00  0.00    -0.000 C 
BRANCH  12  13
ATOM     13  C   UNL     1      -6.160  -5.349  -9.566  1.00  0.00    -0.003 C 
ATOM     14  C   UNL     1      -7.525  -5.934  -9.914  1.00  0.00     0.004 C 
ENDBRANCH  12  13
ENDBRANCH  11  12
ENDBRANCH  10  11
ENDBRANCH   9  10
ENDBRANCH   1   9
TORSDOF 10
ENDMDL
MODEL 8
REMARK VINA RESULT:    -2.965     14.373     15.821
REMARK INTER + INTRA:          -5.306
REMARK INTER:                  -4.173
REMARK INTRA:                  -1.133
REMARK UNBOUND:                -0.607
REMARK SMILES CCCCCCCCCCCC(=O)[O-]
REMARK SMILES IDX 7 1 8 2 9 3 10 4 11 5 12 6 13 7 14 8 6 9 5 10 4 11 3 12 2 13
REMARK SMILES IDX 1 14
REMARK H PARENT
REMARK Flexibility Score: inf
ROOT
ATOM      1  C   UNL     1      -8.055  -4.067  -6.159  1.00  0.00     0.000 C 
ENDROOT
BRANCH   1   2
ATOM      2  C   UNL     1      -7.383  -5.020  -5.154  1.00  0.00     0.000 C 
BRANCH   2   3
ATOM      3  C   UNL     1      -5.843  -4.986  -5.150  1.00  0.00     0.000 C 
BRANCH   3   4
ATOM      4  C   UNL     1      -5.190  -6.317  -5.580  1.00  0.00     0.006 C 
BRANCH   4   5
ATOM      5  C   UNL     1      -6.224  -7.370  -5.999  1.00  0.00     0.053 C 
BRANCH   5   6
ATOM      6  C   UNL     1      -6.037  -7.743  -7.435  1.00  0.00     0.041 C 
ATOM      7  O   UNL     1      -4.896  -7.671  -7.966  1.00  0.00    -0.550 OA
ATOM      8  O   UNL     1      -7.129  -8.125  -8.203  1.00  0.00    -0.550 OA
ENDBRANCH   5   6
ENDBRANCH   4   5
ENDBRANCH   3   4
ENDBRANCH   2   3
ENDBRANCH   1   2
BRANCH   1   9
ATOM      9  C   UNL     1      -7.515  -2.624  -6.146  1.00  0.00     0.000 C 
BRANCH   9  10
ATOM     10  C   UNL     1      -8.125  -1.745  -7.248  1.00  0.00    -0.000 C 
BRANCH  10  11
ATOM     11  C   UNL     1      -8.061  -2.450  -8.611  1.00  0.00    -0.000 C 
BRANCH  11  12
ATOM     12  C   UNL     1      -6.786  -2.108  -9.396  1.00  0.00    -0.000 C 
BRANCH  12  13
ATOM     13  C   UNL     1      -5.653  -3.117  -9.158  1.00  0.00    -0.003 C 
ATOM     14  C   UNL     1      -6.154  -4.551  -9.308  1.00  0.00     0.004 C 
ENDBRANCH  12  13
ENDBRANCH  11  12
ENDBRANCH  10  11
ENDBRANCH   9  10
ENDBRANCH   1   9
TORSDOF 10
ENDMDL
MODEL 9
REMARK VINA RESULT:    -1.585      3.513      6.990
REMARK INTER + INTRA:          -3.120
REMARK INTER:                  -2.426
REMARK INTRA:                  -0.694
REMARK UNBOUND:                -0.607
REMARK SMILES CCCCCCCCCCCC(=O)[O-]
REMARK SMILES IDX 7 1 8 2 9 3 10 4 11 5 12 6 13 7 14 8 6 9 5 10 4 11 3 12 2 13
REMARK SMILES IDX 1 14
REMARK H PARENT
REMARK Flexibility Score: inf
ROOT
ATOM      1  C   UNL     1       8.384  -6.170  -6.540  1.00  0.00     0.000 C 
ENDROOT
BRANCH   1   2
ATOM      2  C   UNL     1       8.468  -4.967  -7.497  1.00  0.00     0.000 C 
BRANCH   2   3
ATOM      3  C   UNL     1       7.975  -5.238  -8.932  1.00  0.00     0.000 C 
BRANCH   3   4
ATOM      4  C   UNL     1       7.038  -4.143  -9.485  1.00  0.00     0.006 C 
BRANCH   4   5
ATOM      5  C   UNL     1       5.744  -4.011  -8.671  1.00  0.00     0.053 C 
BRANCH   5   6
ATOM      6  C   UNL     1       4.646  -3.458  -9.523  1.00  0.00     0.041 C 
ATOM      7  O   UNL     1       3.604  -4.135  -9.733  1.00  0.00    -0.550 OA
ATOM      8  O   UNL     1       4.791  -2.215 -10.125  1.00  0.00    -0.550 OA
ENDBRANCH   5   6
ENDBRANCH   4   5
ENDBRANCH   3   4
ENDBRANCH   2   3
ENDBRANCH   1   2
BRANCH   1   9
ATOM      9  C   UNL     1       9.705  -6.940  -6.348  1.00  0.00     0.000 C 
BRANCH   9  10
ATOM     10  C   UNL     1      10.935  -6.144  -6.806  1.00  0.00    -0.000 C 
BRANCH  10  11
ATOM     11  C   UNL     1      11.949  -5.993  -5.662  1.00  0.00    -0.000 C 
BRANCH  11  12
ATOM     12  C   UNL     1      11.396  -6.476  -4.313  1.00  0.00    -0.000 C 
BRANCH  12  13
ATOM     13  C   UNL     1      11.498  -5.408  -3.214  1.00  0.00    -0.003 C 
ATOM     14  C   UNL     1      11.390  -4.004  -3.801  1.00  0.00     0.004 C 
ENDBRANCH  12  13
ENDBRANCH  11  12
ENDBRANCH  10  11
ENDBRANCH   9  10
ENDBRANCH   1   9
TORSDOF 10
ENDMDL
