MODEL 1
REMARK VINA RESULT:    -3.792      0.000      0.000
REMARK INTER + INTRA:          -3.903
REMARK INTER:                  -3.903
REMARK INTRA:                   0.000
REMARK UNBOUND:                 0.000
REMARK SMILES CC1(C)[C@@H]2CC[C@@](C)(C2)[C@H]1O
REMARK SMILES IDX 1 1 2 2 4 3 5 4 6 5 7 6 9 7 10 8 8 9 3 10 11 11
REMARK H PARENT 11 12
REMARK Flexibility Score: inf
ROOT
ATOM      1  C   UNL     1      -2.952   2.587  -6.088  1.00  0.00     0.014 C 
ATOM      2  C   UNL     1      -1.838   3.429  -5.419  1.00  0.00    -0.006 C 
ATOM      3  C   UNL     1      -1.068   4.355  -6.424  1.00  0.00    -0.002 C 
ATOM      4  C   UNL     1      -0.618   3.574  -7.677  1.00  0.00     0.005 C 
ATOM      5  C   UNL     1       0.466   2.633  -7.124  1.00  0.00     0.010 C 
ATOM      6  C   UNL     1       0.566   3.061  -5.641  1.00  0.00    -0.006 C 
ATOM      7  C   UNL     1       0.276   4.544  -5.739  1.00  0.00     0.013 C 
ATOM      8  C   UNL     1      -0.683   2.514  -4.884  1.00  0.00     0.126 C 
ATOM      9  C   UNL     1       1.920   2.716  -5.007  1.00  0.00     0.014 C 
ATOM     10  C   UNL     1      -2.515   4.293  -4.322  1.00  0.00     0.014 C 
ENDROOT
BRANCH   8  11
ATOM     11  O   UNL     1      -0.547   2.545  -3.480  1.00  0.00    -0.392 OA
ATOM     12  H   UNL     1       0.300   2.098  -3.227  1.00  0.00     0.211 HD
ENDBRANCH   8  11
TORSDOF 1
ENDMDL
MODEL 2
REMARK VINA RESULT:    -3.591      1.366      3.089
REMARK INTER + INTRA:          -3.696
REMARK INTER:                  -3.696
REMARK INTRA:                   0.000
REMARK UNBOUND:                 0.000
REMARK SMILES CC1(C)[C@@H]2CC[C@@](C)(C2)[C@H]1O
REMARK SMILES IDX 1 1 2 2 4 3 5 4 6 5 7 6 9 7 10 8 8 9 3 10 11 11
REMARK H PARENT 11 12
REMARK Flexibility Score: inf
ROOT
ATOM      1  C   UNL     1       0.335   2.537  -6.579  1.00  0.00     0.014 C 
ATOM      2  C   UNL     1      -0.342   2.996  -5.263  1.00  0.00    -0.006 C 
ATOM      3  C   UNL     1      -1.908   2.918  -5.308  1.00  0.00    -0.002 C 
ATOM      4  C   UNL     1      -2.468   3.582  -6.584  1.00  0.00     0.005 C 
ATOM      5  C   UNL     1      -2.171   5.073  -6.355  1.00  0.00     0.010 C 
ATOM      6  C   UNL     1      -1.562   5.086  -4.932  1.00  0.00    -0.006 C 
ATOM      7  C   UNL     1      -2.321   3.952  -4.274  1.00  0.00     0.013 C 
ATOM      8  C   UNL     1      -0.109   4.526  -5.013  1.00  0.00     0.126 C 
ATOM      9  C   UNL     1      -1.704   6.443  -4.231  1.00  0.00     0.014 C 
ATOM     10  C   UNL     1       0.198   2.083  -4.130  1.00  0.00     0.014 C 
ENDROOT
BRANCH   8  11
ATOM     11  O   UNL     1       0.661   4.795  -3.861  1.00  0.00    -0.392 OA
ATOM     12  H   UNL     1       0.417   5.688  -3.511  1.00  0.00     0.211 HD
ENDBRANCH   8  11
TORSDOF 1
ENDMDL
MODEL 3
REMARK VINA RESULT:    -3.353      1.128      3.173
REMARK INTER + INTRA:          -3.451
REMARK INTER:                  -3.451
REMARK INTRA:                   0.000
REMARK UNBOUND:                 0.000
REMARK SMILES CC1(C)[C@@H]2CC[C@@](C)(C2)[C@H]1O
REMARK SMILES IDX 1 1 2 2 4 3 5 4 6 5 7 6 9 7 10 8 8 9 3 10 11 11
REMARK H PARENT 11 12
REMARK Flexibility Score: inf
ROOT
ATOM      1  C   UNL     1       2.116   4.674  -4.660  1.00  0.00     0.014 C 
ATOM      2  C   UNL     1       1.215   3.457  -4.987  1.00  0.00    -0.006 C 
ATOM      3  C   UNL     1       1.060   3.192  -6.526  1.00  0.00    -0.002 C 
ATOM      4  C   UNL     1       0.694   4.486  -7.285  1.00  0.00     0.005 C 
ATOM      5  C   UNL     1      -0.738   4.772  -6.806  1.00  0.00     0.010 C 
ATOM      6  C   UNL     1      -1.047   3.553  -5.903  1.00  0.00    -0.006 C 
ATOM      7  C   UNL     1      -0.269   2.460  -6.605  1.00  0.00     0.013 C 
ATOM      8  C   UNL     1      -0.270   3.724  -4.562  1.00  0.00     0.126 C 
ATOM      9  C   UNL     1      -2.550   3.278  -5.760  1.00  0.00     0.014 C 
ATOM     10  C   UNL     1       1.854   2.219  -4.303  1.00  0.00     0.014 C 
ENDROOT
BRANCH   8  11
ATOM     11  O   UNL     1      -0.723   2.864  -3.538  1.00  0.00    -0.392 OA
ATOM     12  H   UNL     1      -0.960   1.988  -3.933  1.00  0.00     0.211 HD
ENDBRANCH   8  11
TORSDOF 1
ENDMDL
MODEL 4
REMARK VINA RESULT:    -3.329     10.552     11.825
REMARK INTER + INTRA:          -3.426
REMARK INTER:                  -3.426
REMARK INTRA:                   0.000
REMARK UNBOUND:                 0.000
REMARK SMILES CC1(C)[C@@H]2CC[C@@](C)(C2)[C@H]1O
REMARK SMILES IDX 1 1 2 2 4 3 5 4 6 5 7 6 9 7 10 8 8 9 3 10 11 11
REMARK H PARENT 11 12
REMARK Flexibility Score: inf
ROOT
ATOM      1  C   UNL     1       0.529  -4.536  -0.212  1.00  0.00     0.014 C 
ATOM      2  C   UNL     1       0.905  -5.968   0.245  1.00  0.00    -0.006 C 
ATOM      3  C   UNL     1       2.140  -6.008   1.212  1.00  0.00    -0.002 C 
ATOM      4  C   UNL     1       3.318  -5.180   0.656  1.00  0.00     0.005 C 
ATOM      5  C   UNL     1       3.768  -6.000  -0.565  1.00  0.00     0.010 C 
ATOM      6  C   UNL     1       2.851  -7.244  -0.498  1.00  0.00    -0.006 C 
ATOM      7  C   UNL     1       2.684  -7.411   0.998  1.00  0.00     0.013 C 
ATOM      8  C   UNL     1       1.421  -6.828  -0.961  1.00  0.00     0.126 C 
ATOM      9  C   UNL     1       3.442  -8.465  -1.216  1.00  0.00     0.014 C 
ATOM     10  C   UNL     1      -0.339  -6.562   0.956  1.00  0.00     0.014 C 
ENDROOT
BRANCH   8  11
ATOM     11  O   UNL     1       0.586  -7.925  -1.264  1.00  0.00    -0.392 OA
ATOM     12  H   UNL     1       0.976  -8.745  -0.868  1.00  0.00     0.211 HD
ENDBRANCH   8  11
TORSDOF 1
ENDMDL
MODEL 5
REMARK VINA RESULT:    -3.322     12.599     13.838
REMARK INTER + INTRA:          -3.419
REMARK INTER:                  -3.419
REMARK INTRA:                   0.000
REMARK UNBOUND:                 0.000
REMARK SMILES CC1(C)[C@@H]2CC[C@@](C)(C2)[C@H]1O
REMARK SMILES IDX 1 1 2 2 4 3 5 4 6 5 7 6 9 7 10 8 8 9 3 10 11 11
REMARK H PARENT 11 12
REMARK Flexibility Score: inf
ROOT
ATOM      1  C   UNL     1      -1.559   1.797   9.992  1.00  0.00     0.014 C 
ATOM      2  C   UNL     1      -0.893   1.712   8.595  1.00  0.00    -0.006 C 
ATOM      3  C   UNL     1      -1.893   1.962   7.412  1.00  0.00    -0.002 C 
ATOM      4  C   UNL     1      -3.173   1.113   7.567  1.00  0.00     0.005 C 
ATOM      5  C   UNL     1      -2.664  -0.319   7.335  1.00  0.00     0.010 C 
ATOM      6  C   UNL     1      -1.174  -0.101   6.982  1.00  0.00    -0.006 C 
ATOM      7  C   UNL     1      -1.231   1.228   6.258  1.00  0.00     0.013 C 
ATOM      8  C   UNL     1      -0.404   0.253   8.292  1.00  0.00     0.126 C 
ATOM      9  C   UNL     1      -0.576  -1.251   6.161  1.00  0.00     0.014 C 
ATOM     10  C   UNL     1       0.237   2.774   8.563  1.00  0.00     0.014 C 
ENDROOT
BRANCH   8  11
ATOM     11  O   UNL     1       0.997   0.147   8.166  1.00  0.00    -0.392 OA
ATOM     12  H   UNL     1       1.244  -0.810   8.101  1.00  0.00     0.211 HD
ENDBRANCH   8  11
TORSDOF 1
ENDMDL
MODEL 6
REMARK VINA RESULT:    -3.305     12.527     13.828
REMARK INTER + INTRA:          -3.402
REMARK INTER:                  -3.402
REMARK INTRA:                   0.000
REMARK UNBOUND:                 0.000
REMARK SMILES CC1(C)[C@@H]2CC[C@@](C)(C2)[C@H]1O
REMARK SMILES IDX 1 1 2 2 4 3 5 4 6 5 7 6 9 7 10 8 8 9 3 10 11 11
REMARK H PARENT 11 12
REMARK Flexibility Score: inf
ROOT
ATOM      1  C   UNL     1      -1.766   2.492   9.631  1.00  0.00     0.014 C 
ATOM      2  C   UNL     1      -2.373   1.690   8.453  1.00  0.00    -0.006 C 
ATOM      3  C   UNL     1      -2.277   0.136   8.642  1.00  0.00    -0.002 C 
ATOM      4  C   UNL     1      -0.851  -0.295   9.046  1.00  0.00     0.005 C 
ATOM      5  C   UNL     1      -0.036  -0.020   7.772  1.00  0.00     0.010 C 
ATOM      6  C   UNL     1      -1.117   0.446   6.768  1.00  0.00    -0.006 C 
ATOM      7  C   UNL     1      -2.309  -0.376   7.212  1.00  0.00     0.013 C 
ATOM      8  C   UNL     1      -1.542   1.899   7.140  1.00  0.00     0.126 C 
ATOM      9  C   UNL     1      -0.706   0.238   5.304  1.00  0.00     0.014 C 
ATOM     10  C   UNL     1      -3.861   2.114   8.330  1.00  0.00     0.014 C 
ENDROOT
BRANCH   8  11
ATOM     11  O   UNL     1      -2.263   2.553   6.118  1.00  0.00    -0.392 OA
ATOM     12  H   UNL     1      -1.706   3.282   5.745  1.00  0.00     0.211 HD
ENDBRANCH   8  11
TORSDOF 1
ENDMDL
MODEL 7
REMARK VINA RESULT:    -3.290      1.446      2.557
REMARK INTER + INTRA:          -3.387
REMARK INTER:                  -3.387
REMARK INTRA:                   0.000
REMARK UNBOUND:                 0.000
REMARK SMILES CC1(C)[C@@H]2CC[C@@](C)(C2)[C@H]1O
REMARK SMILES IDX 1 1 2 2 4 3 5 4 6 5 7 6 9 7 10 8 8 9 3 10 11 11
REMARK H PARENT 11 12
REMARK Flexibility Score: inf
ROOT
ATOM      1  C   UNL     1      -1.411   5.971  -5.650  1.00  0.00     0.014 C 
ATOM      2  C   UNL     1      -0.245   4.973  -5.859  1.00  0.00    -0.006 C 
ATOM      3  C   UNL     1      -0.625   3.754  -6.772  1.00  0.00    -0.002 C 
ATOM      4  C   UNL     1      -1.953   3.108  -6.324  1.00  0.00     0.005 C 
ATOM      5  C   UNL     1      -1.585   2.468  -4.975  1.00  0.00     0.010 C 
ATOM      6  C   UNL     1      -0.068   2.749  -4.865  1.00  0.00    -0.006 C 
ATOM      7  C   UNL     1       0.353   2.683  -6.318  1.00  0.00     0.013 C 
ATOM      8  C   UNL     1       0.131   4.255  -4.516  1.00  0.00     0.126 C 
ATOM      9  C   UNL     1       0.660   1.761  -3.943  1.00  0.00     0.014 C 
ATOM     10  C   UNL     1       0.926   5.765  -6.499  1.00  0.00     0.014 C 
ENDROOT
BRANCH   8  11
ATOM     11  O   UNL     1       1.433   4.560  -4.064  1.00  0.00    -0.392 OA
ATOM     12  H   UNL     1       2.066   4.474  -4.820  1.00  0.00     0.211 HD
ENDBRANCH   8  11
TORSDOF 1
ENDMDL
MODEL 8
REMARK VINA RESULT:    -3.262      1.765      3.678
REMARK INTER + INTRA:          -3.357
REMARK INTER:                  -3.357
REMARK INTRA:                   0.000
REMARK UNBOUND:                 0.000
REMARK SMILES CC1(C)[C@@H]2CC[C@@](C)(C2)[C@H]1O
REMARK SMILES IDX 1 1 2 2 4 3 5 4 6 5 7 6 9 7 10 8 8 9 3 10 11 11
REMARK H PARENT 11 12
REMARK Flexibility Score: inf
ROOT
ATOM      1  C   UNL     1      -0.397   2.099  -4.530  1.00  0.00     0.014 C 
ATOM      2  C   UNL     1      -0.732   2.943  -5.786  1.00  0.00    -0.006 C 
ATOM      3  C   UNL     1      -0.698   4.489  -5.525  1.00  0.00    -0.002 C 
ATOM      4  C   UNL     1      -1.504   4.865  -4.263  1.00  0.00     0.005 C 
ATOM      5  C   UNL     1      -2.955   4.587  -4.689  1.00  0.00     0.010 C 
ATOM      6  C   UNL     1      -2.805   4.176  -6.173  1.00  0.00    -0.006 C 
ATOM      7  C   UNL     1      -1.628   5.028  -6.599  1.00  0.00     0.013 C 
ATOM      8  C   UNL     1      -2.222   2.730  -6.227  1.00  0.00     0.126 C 
ATOM      9  C   UNL     1      -4.084   4.398  -6.990  1.00  0.00     0.014 C 
ATOM     10  C   UNL     1       0.307   2.570  -6.877  1.00  0.00     0.014 C 
ENDROOT
BRANCH   8  11
ATOM     11  O   UNL     1      -2.350   2.120  -7.493  1.00  0.00    -0.392 OA
ATOM     12  H   UNL     1      -2.556   2.816  -8.167  1.00  0.00     0.211 HD
ENDBRANCH   8  11
TORSDOF 1
ENDMDL
MODEL 9
REMARK VINA RESULT:    -3.230      1.707      3.050
REMARK INTER + INTRA:          -3.325
REMARK INTER:                  -3.325
REMARK INTRA:                   0.000
REMARK UNBOUND:                 0.000
REMARK SMILES CC1(C)[C@@H]2CC[C@@](C)(C2)[C@H]1O
REMARK SMILES IDX 1 1 2 2 4 3 5 4 6 5 7 6 9 7 10 8 8 9 3 10 11 11
REMARK H PARENT 11 12
REMARK Flexibility Score: inf
ROOT
ATOM      1  C   UNL     1      -1.647   5.302  -7.650  1.00  0.00     0.014 C 
ATOM      2  C   UNL     1      -1.850   3.842  -7.174  1.00  0.00    -0.006 C 
ATOM      3  C   UNL     1      -2.908   3.702  -6.024  1.00  0.00    -0.002 C 
ATOM      4  C   UNL     1      -2.644   4.717  -4.891  1.00  0.00     0.005 C 
ATOM      5  C   UNL     1      -1.338   4.201  -4.266  1.00  0.00     0.010 C 
ATOM      6  C   UNL     1      -1.067   2.901  -5.060  1.00  0.00    -0.006 C 
ATOM      7  C   UNL     1      -2.478   2.420  -5.331  1.00  0.00     0.013 C 
ATOM      8  C   UNL     1      -0.556   3.289  -6.481  1.00  0.00     0.126 C 
ATOM      9  C   UNL     1      -0.187   1.903  -4.297  1.00  0.00     0.014 C 
ATOM     10  C   UNL     1      -2.303   3.018  -8.409  1.00  0.00     0.014 C 
ENDROOT
BRANCH   8  11
ATOM     11  O   UNL     1       0.037   2.214  -7.178  1.00  0.00    -0.392 OA
ATOM     12  H   UNL     1       0.790   1.859  -6.642  1.00  0.00     0.211 HD
ENDBRANCH   8  11
TORSDOF 1
ENDMDL
