MODEL 1
REMARK VINA RESULT:    -4.741      0.000      0.000
REMARK INTER + INTRA:          -5.185
REMARK INTER:                  -5.156
REMARK INTRA:                  -0.029
REMARK UNBOUND:                -0.029
REMARK SMILES O=C([O-])c1ccc(O)cc1
REMARK SMILES IDX 4 1 5 2 10 3 6 4 9 5 7 6 2 7 1 8 3 9 8 10
REMARK H PARENT 8 11
REMARK Flexibility Score: inf
ROOT
ATOM      1  C   UNL     1      11.930 -16.939   7.491  1.00  0.00    -0.003 A 
ATOM      2  C   UNL     1      13.188 -17.348   7.015  1.00  0.00     0.014 A 
ATOM      3  C   UNL     1      11.717 -15.578   7.775  1.00  0.00     0.014 A 
ATOM      4  C   UNL     1      14.211 -16.414   6.827  1.00  0.00     0.047 A 
ATOM      5  C   UNL     1      12.743 -14.646   7.586  1.00  0.00     0.047 A 
ATOM      6  C   UNL     1      13.991 -15.060   7.112  1.00  0.00     0.115 A 
ENDROOT
BRANCH   1   7
ATOM      7  C   UNL     1      10.848 -17.929   7.690  1.00  0.00     0.071 C 
ATOM      8  O   UNL     1      10.410 -18.603   6.719  1.00  0.00    -0.545 OA
ATOM      9  O   UNL     1      10.302 -18.131   8.951  1.00  0.00    -0.545 OA
ENDBRANCH   1   7
BRANCH   6  10
ATOM     10  O   UNL     1      15.004 -14.121   6.929  1.00  0.00    -0.508 OA
ATOM     11  H   UNL     1      15.103 -13.613   6.058  1.00  0.00     0.293 HD
ENDBRANCH   6  10
TORSDOF 2
ENDMDL
MODEL 2
REMARK VINA RESULT:    -4.136      1.746      2.540
REMARK INTER + INTRA:          -4.528
REMARK INTER:                  -4.499
REMARK INTRA:                  -0.028
REMARK UNBOUND:                -0.029
REMARK SMILES O=C([O-])c1ccc(O)cc1
REMARK SMILES IDX 4 1 5 2 10 3 6 4 9 5 7 6 2 7 1 8 3 9 8 10
REMARK H PARENT 8 11
REMARK Flexibility Score: inf
ROOT
ATOM      1  C   UNL     1      10.745 -16.639   7.893  1.00  0.00    -0.003 A 
ATOM      2  C   UNL     1      11.442 -15.437   7.683  1.00  0.00     0.014 A 
ATOM      3  C   UNL     1      11.470 -17.804   8.204  1.00  0.00     0.014 A 
ATOM      4  C   UNL     1      12.836 -15.400   7.782  1.00  0.00     0.047 A 
ATOM      5  C   UNL     1      12.865 -17.764   8.302  1.00  0.00     0.047 A 
ATOM      6  C   UNL     1      13.552 -16.565   8.092  1.00  0.00     0.115 A 
ENDROOT
BRANCH   1   7
ATOM      7  C   UNL     1       9.269 -16.675   7.787  1.00  0.00     0.071 C 
ATOM      8  O   UNL     1       8.553 -16.030   8.599  1.00  0.00    -0.545 OA
ATOM      9  O   UNL     1       8.653 -17.420   6.789  1.00  0.00    -0.545 OA
ENDBRANCH   1   7
BRANCH   6  10
ATOM     10  O   UNL     1      14.941 -16.540   8.193  1.00  0.00    -0.508 OA
ATOM     11  H   UNL     1      15.408 -16.049   8.946  1.00  0.00     0.293 HD
ENDBRANCH   6  10
TORSDOF 2
ENDMDL
MODEL 3
REMARK VINA RESULT:    -4.104      1.405      4.446
REMARK INTER + INTRA:          -4.492
REMARK INTER:                  -4.461
REMARK INTRA:                  -0.031
REMARK UNBOUND:                -0.029
REMARK SMILES O=C([O-])c1ccc(O)cc1
REMARK SMILES IDX 4 1 5 2 10 3 6 4 9 5 7 6 2 7 1 8 3 9 8 10
REMARK H PARENT 8 11
REMARK Flexibility Score: inf
ROOT
ATOM      1  C   UNL     1      12.430 -16.425   7.532  1.00  0.00    -0.003 A 
ATOM      2  C   UNL     1      11.308 -15.623   7.802  1.00  0.00     0.014 A 
ATOM      3  C   UNL     1      12.238 -17.782   7.215  1.00  0.00     0.014 A 
ATOM      4  C   UNL     1      10.021 -16.166   7.758  1.00  0.00     0.047 A 
ATOM      5  C   UNL     1      10.948 -18.323   7.171  1.00  0.00     0.047 A 
ATOM      6  C   UNL     1       9.837 -17.519   7.441  1.00  0.00     0.115 A 
ENDROOT
BRANCH   1   7
ATOM      7  C   UNL     1      13.791 -15.847   7.580  1.00  0.00     0.071 C 
ATOM      8  O   UNL     1      14.735 -16.477   8.129  1.00  0.00    -0.545 OA
ATOM      9  O   UNL     1      14.048 -14.602   7.019  1.00  0.00    -0.545 OA
ENDBRANCH   1   7
BRANCH   6  10
ATOM     10  O   UNL     1       8.560 -18.071   7.393  1.00  0.00    -0.508 OA
ATOM     11  H   UNL     1       7.769 -17.546   7.041  1.00  0.00     0.293 HD
ENDBRANCH   6  10
TORSDOF 2
ENDMDL
MODEL 4
REMARK VINA RESULT:    -4.063      1.866      2.412
REMARK INTER + INTRA:          -4.448
REMARK INTER:                  -4.420
REMARK INTRA:                  -0.027
REMARK UNBOUND:                -0.029
REMARK SMILES O=C([O-])c1ccc(O)cc1
REMARK SMILES IDX 4 1 5 2 10 3 6 4 9 5 7 6 2 7 1 8 3 9 8 10
REMARK H PARENT 8 11
REMARK Flexibility Score: inf
ROOT
ATOM      1  C   UNL     1      10.423 -16.571   7.812  1.00  0.00    -0.003 A 
ATOM      2  C   UNL     1      11.106 -17.764   8.106  1.00  0.00     0.014 A 
ATOM      3  C   UNL     1      11.165 -15.391   7.618  1.00  0.00     0.014 A 
ATOM      4  C   UNL     1      12.500 -17.777   8.204  1.00  0.00     0.047 A 
ATOM      5  C   UNL     1      12.560 -15.407   7.717  1.00  0.00     0.047 A 
ATOM      6  C   UNL     1      13.231 -16.597   8.009  1.00  0.00     0.115 A 
ENDROOT
BRANCH   1   7
ATOM      7  C   UNL     1       8.947 -16.560   7.709  1.00  0.00     0.071 C 
ATOM      8  O   UNL     1       8.244 -16.081   8.638  1.00  0.00    -0.545 OA
ATOM      9  O   UNL     1       8.316 -17.077   6.584  1.00  0.00    -0.545 OA
ENDBRANCH   1   7
BRANCH   6  10
ATOM     10  O   UNL     1      14.621 -16.598   8.105  1.00  0.00    -0.508 OA
ATOM     11  H   UNL     1      15.198 -17.082   7.427  1.00  0.00     0.293 HD
ENDBRANCH   6  10
TORSDOF 2
ENDMDL
MODEL 5
REMARK VINA RESULT:    -3.934      1.883      4.293
REMARK INTER + INTRA:          -4.308
REMARK INTER:                  -4.280
REMARK INTRA:                  -0.028
REMARK UNBOUND:                -0.029
REMARK SMILES O=C([O-])c1ccc(O)cc1
REMARK SMILES IDX 4 1 5 2 10 3 6 4 9 5 7 6 2 7 1 8 3 9 8 10
REMARK H PARENT 8 11
REMARK Flexibility Score: inf
ROOT
ATOM      1  C   UNL     1      11.565 -16.447   7.869  1.00  0.00    -0.003 A 
ATOM      2  C   UNL     1      11.616 -17.800   7.492  1.00  0.00     0.014 A 
ATOM      3  C   UNL     1      10.325 -15.782   7.855  1.00  0.00     0.014 A 
ATOM      4  C   UNL     1      10.453 -18.474   7.109  1.00  0.00     0.047 A 
ATOM      5  C   UNL     1       9.162 -16.459   7.472  1.00  0.00     0.047 A 
ATOM      6  C   UNL     1       9.222 -17.805   7.099  1.00  0.00     0.115 A 
ENDROOT
BRANCH   1   7
ATOM      7  C   UNL     1      12.798 -15.736   8.273  1.00  0.00     0.071 C 
ATOM      8  O   UNL     1      13.230 -14.767   7.593  1.00  0.00    -0.545 OA
ATOM      9  O   UNL     1      13.495 -16.126   9.409  1.00  0.00    -0.545 OA
ENDBRANCH   1   7
BRANCH   6  10
ATOM     10  O   UNL     1       8.056 -18.466   6.719  1.00  0.00    -0.508 OA
ATOM     11  H   UNL     1       7.292 -17.976   6.269  1.00  0.00     0.293 HD
ENDBRANCH   6  10
TORSDOF 2
ENDMDL
MODEL 6
REMARK VINA RESULT:    -3.858      2.450      5.167
REMARK INTER + INTRA:          -4.225
REMARK INTER:                  -4.197
REMARK INTRA:                  -0.028
REMARK UNBOUND:                -0.029
REMARK SMILES O=C([O-])c1ccc(O)cc1
REMARK SMILES IDX 4 1 5 2 10 3 6 4 9 5 7 6 2 7 1 8 3 9 8 10
REMARK H PARENT 8 11
REMARK Flexibility Score: inf
ROOT
ATOM      1  C   UNL     1      10.420 -16.727   7.904  1.00  0.00    -0.003 A 
ATOM      2  C   UNL     1       9.175 -16.127   8.162  1.00  0.00     0.014 A 
ATOM      3  C   UNL     1      10.453 -18.034   7.383  1.00  0.00     0.014 A 
ATOM      4  C   UNL     1       7.988 -16.819   7.906  1.00  0.00     0.047 A 
ATOM      5  C   UNL     1       9.263 -18.724   7.128  1.00  0.00     0.047 A 
ATOM      6  C   UNL     1       8.029 -18.121   7.388  1.00  0.00     0.115 A 
ENDROOT
BRANCH   1   7
ATOM      7  C   UNL     1      11.675 -15.992   8.176  1.00  0.00     0.071 C 
ATOM      8  O   UNL     1      12.474 -16.395   9.063  1.00  0.00    -0.545 OA
ATOM      9  O   UNL     1      11.991 -14.847   7.455  1.00  0.00    -0.545 OA
ENDBRANCH   1   7
BRANCH   6  10
ATOM     10  O   UNL     1       6.852 -18.820   7.129  1.00  0.00    -0.508 OA
ATOM     11  H   UNL     1       6.109 -18.878   7.814  1.00  0.00     0.293 HD
ENDBRANCH   6  10
TORSDOF 2
ENDMDL
MODEL 7
REMARK VINA RESULT:    -3.690      3.189      5.604
REMARK INTER + INTRA:          -4.043
REMARK INTER:                  -4.007
REMARK INTRA:                  -0.036
REMARK UNBOUND:                -0.029
REMARK SMILES O=C([O-])c1ccc(O)cc1
REMARK SMILES IDX 4 1 5 2 10 3 6 4 9 5 7 6 2 7 1 8 3 9 8 10
REMARK H PARENT 8 11
REMARK Flexibility Score: inf
ROOT
ATOM      1  C   UNL     1       9.397 -17.142   8.114  1.00  0.00    -0.003 A 
ATOM      2  C   UNL     1       8.915 -18.458   7.999  1.00  0.00     0.014 A 
ATOM      3  C   UNL     1       8.505 -16.119   8.486  1.00  0.00     0.014 A 
ATOM      4  C   UNL     1       7.570 -18.744   8.250  1.00  0.00     0.047 A 
ATOM      5  C   UNL     1       7.160 -16.409   8.736  1.00  0.00     0.047 A 
ATOM      6  C   UNL     1       6.688 -17.720   8.620  1.00  0.00     0.115 A 
ENDROOT
BRANCH   1   7
ATOM      7  C   UNL     1      10.821 -16.842   7.847  1.00  0.00     0.071 C 
ATOM      8  O   UNL     1      11.664 -17.773   7.743  1.00  0.00    -0.545 OA
ATOM      9  O   UNL     1      11.248 -15.527   7.707  1.00  0.00    -0.545 OA
ENDBRANCH   1   7
BRANCH   6  10
ATOM     10  O   UNL     1       5.346 -17.994   8.872  1.00  0.00    -0.508 OA
ATOM     11  H   UNL     1       4.705 -17.269   9.172  1.00  0.00     0.293 HD
ENDBRANCH   6  10
TORSDOF 2
ENDMDL
MODEL 8
REMARK VINA RESULT:    -3.620      3.871      5.191
REMARK INTER + INTRA:          -3.966
REMARK INTER:                  -3.938
REMARK INTRA:                  -0.027
REMARK UNBOUND:                -0.029
REMARK SMILES O=C([O-])c1ccc(O)cc1
REMARK SMILES IDX 4 1 5 2 10 3 6 4 9 5 7 6 2 7 1 8 3 9 8 10
REMARK H PARENT 8 11
REMARK Flexibility Score: inf
ROOT
ATOM      1  C   UNL     1       6.939 -18.155   8.380  1.00  0.00    -0.003 A 
ATOM      2  C   UNL     1       7.977 -18.914   7.813  1.00  0.00     0.014 A 
ATOM      3  C   UNL     1       7.158 -16.790   8.646  1.00  0.00     0.014 A 
ATOM      4  C   UNL     1       9.208 -18.322   7.517  1.00  0.00     0.047 A 
ATOM      5  C   UNL     1       8.391 -16.201   8.349  1.00  0.00     0.047 A 
ATOM      6  C   UNL     1       9.419 -16.963   7.785  1.00  0.00     0.115 A 
ENDROOT
BRANCH   1   7
ATOM      7  C   UNL     1       5.637 -18.784   8.692  1.00  0.00     0.071 C 
ATOM      8  O   UNL     1       4.805 -19.024   7.776  1.00  0.00    -0.545 OA
ATOM      9  O   UNL     1       5.313 -19.121  10.001  1.00  0.00    -0.545 OA
ENDBRANCH   1   7
BRANCH   6  10
ATOM     10  O   UNL     1      10.641 -16.362   7.494  1.00  0.00    -0.508 OA
ATOM     11  H   UNL     1      11.288 -16.771   6.831  1.00  0.00     0.293 HD
ENDBRANCH   6  10
TORSDOF 2
ENDMDL
MODEL 9
REMARK VINA RESULT:    -3.461      2.728      4.134
REMARK INTER + INTRA:          -3.793
REMARK INTER:                  -3.758
REMARK INTRA:                  -0.035
REMARK UNBOUND:                -0.029
REMARK SMILES O=C([O-])c1ccc(O)cc1
REMARK SMILES IDX 4 1 5 2 10 3 6 4 9 5 7 6 2 7 1 8 3 9 8 10
REMARK H PARENT 8 11
REMARK Flexibility Score: inf
ROOT
ATOM      1  C   UNL     1       8.499 -17.148   8.082  1.00  0.00    -0.003 A 
ATOM      2  C   UNL     1       9.440 -16.112   8.218  1.00  0.00     0.014 A 
ATOM      3  C   UNL     1       8.892 -18.350   7.465  1.00  0.00     0.014 A 
ATOM      4  C   UNL     1      10.746 -16.275   7.746  1.00  0.00     0.047 A 
ATOM      5  C   UNL     1      10.199 -18.510   6.994  1.00  0.00     0.047 A 
ATOM      6  C   UNL     1      11.129 -17.476   7.133  1.00  0.00     0.115 A 
ENDROOT
BRANCH   1   7
ATOM      7  C   UNL     1       7.118 -16.973   8.582  1.00  0.00     0.071 C 
ATOM      8  O   UNL     1       6.683 -15.827   8.876  1.00  0.00    -0.545 OA
ATOM      9  O   UNL     1       6.279 -18.070   8.732  1.00  0.00    -0.545 OA
ENDBRANCH   1   7
BRANCH   6  10
ATOM     10  O   UNL     1      12.427 -17.649   6.659  1.00  0.00    -0.508 OA
ATOM     11  H   UNL     1      12.966 -16.873   6.293  1.00  0.00     0.293 HD
ENDBRANCH   6  10
TORSDOF 2
ENDMDL
