MODEL 1
REMARK VINA RESULT:    -4.982      0.000      0.000
REMARK INTER + INTRA:         -12.005
REMARK INTER:                  -9.641
REMARK INTRA:                  -2.363
REMARK UNBOUND:                -2.363
REMARK SMILES CCCCCC=CCC=CCCCCCCCCOC(C)=O
REMARK SMILES IDX 12 1 11 2 10 3 9 4 8 5 7 6 6 7 5 8 4 9 3 10 2 11 1 12 13 13
REMARK SMILES IDX 14 14 15 15 16 16 17 17 18 18 19 19 20 20 22 21 21 22
REMARK H PARENT
REMARK Flexibility Score: inf
ROOT
ATOM      1  C   UNL     1     136.669   1.141  94.263  1.00  0.00     0.004 C 
ENDROOT
BRANCH   1   2
ATOM      2  C   UNL     1     136.450  -0.181  95.016  1.00  0.00     0.027 C 
BRANCH   2   3
ATOM      3  C   UNL     1     135.291  -0.083  95.981  1.00  0.00    -0.031 C 
ATOM      4  C   UNL     1     134.016  -0.407  95.693  1.00  0.00    -0.027 C 
BRANCH   4   5
ATOM      5  C   UNL     1     133.543  -0.909  94.352  1.00  0.00     0.054 C 
BRANCH   5   6
ATOM      6  C   UNL     1     132.939   0.198  93.533  1.00  0.00    -0.027 C 
ATOM      7  C   UNL     1     132.452  -0.047  92.309  1.00  0.00    -0.031 C 
BRANCH   7   8
ATOM      8  C   UNL     1     131.865   1.048  91.459  1.00  0.00     0.027 C 
BRANCH   8   9
ATOM      9  C   UNL     1     132.010   2.439  92.099  1.00  0.00     0.004 C 
BRANCH   9  10
ATOM     10  C   UNL     1     130.724   3.288  92.082  1.00  0.00     0.000 C 
BRANCH  10  11
ATOM     11  C   UNL     1     130.212   3.717  93.469  1.00  0.00    -0.003 C 
ATOM     12  C   UNL     1     130.190   2.570  94.478  1.00  0.00     0.004 C 
ENDBRANCH  10  11
ENDBRANCH   9  10
ENDBRANCH   8   9
ENDBRANCH   7   8
ENDBRANCH   5   6
ENDBRANCH   4   5
ENDBRANCH   2   3
ENDBRANCH   1   2
BRANCH   1  13
ATOM     13  C   UNL     1     137.146   2.294  95.165  1.00  0.00     0.000 C 
BRANCH  13  14
ATOM     14  C   UNL     1     136.062   3.368  95.367  1.00  0.00     0.000 C 
BRANCH  14  15
ATOM     15  C   UNL     1     134.919   3.251  94.346  1.00  0.00     0.000 C 
BRANCH  15  16
ATOM     16  C   UNL     1     133.780   4.245  94.617  1.00  0.00     0.003 C 
BRANCH  16  17
ATOM     17  C   UNL     1     134.288   5.458  95.409  1.00  0.00     0.042 C 
BRANCH  17  18
ATOM     18  C   UNL     1     133.831   6.779  94.778  1.00  0.00     0.233 C 
BRANCH  18  19
ATOM     19  O   UNL     1     132.729   7.339  95.491  1.00  0.00    -0.466 OA
BRANCH  19  20
ATOM     20  C   UNL     1     131.722   8.098  94.885  1.00  0.00     0.302 C 
ATOM     21  O   UNL     1     131.050   7.631  93.926  1.00  0.00    -0.253 OA
ATOM     22  C   UNL     1     131.473   9.492  95.351  1.00  0.00     0.139 C 
ENDBRANCH  19  20
ENDBRANCH  18  19
ENDBRANCH  17  18
ENDBRANCH  16  17
ENDBRANCH  15  16
ENDBRANCH  14  15
ENDBRANCH  13  14
ENDBRANCH   1  13
TORSDOF 16
ENDMDL
MODEL 2
REMARK VINA RESULT:    -4.954      2.611      5.578
REMARK INTER + INTRA:         -11.951
REMARK INTER:                  -9.178
REMARK INTRA:                  -2.772
REMARK UNBOUND:                -2.363
REMARK SMILES CCCCCC=CCC=CCCCCCCCCOC(C)=O
REMARK SMILES IDX 12 1 11 2 10 3 9 4 8 5 7 6 6 7 5 8 4 9 3 10 2 11 1 12 13 13
REMARK SMILES IDX 14 14 15 15 16 16 17 17 18 18 19 19 20 20 22 21 21 22
REMARK H PARENT
REMARK Flexibility Score: inf
ROOT
ATOM      1  C   UNL     1     133.968  -0.375  94.658  1.00  0.00     0.004 C 
ENDROOT
BRANCH   1   2
ATOM      2  C   UNL     1     135.214  -0.009  95.480  1.00  0.00     0.027 C 
BRANCH   2   3
ATOM      3  C   UNL     1     136.336   0.485  94.596  1.00  0.00    -0.031 C 
ATOM      4  C   UNL     1     136.922   1.693  94.694  1.00  0.00    -0.027 C 
BRANCH   4   5
ATOM      5  C   UNL     1     136.542   2.750  95.698  1.00  0.00     0.054 C 
BRANCH   5   6
ATOM      6  C   UNL     1     136.038   3.995  95.021  1.00  0.00    -0.027 C 
ATOM      7  C   UNL     1     136.051   5.172  95.660  1.00  0.00    -0.031 C 
BRANCH   7   8
ATOM      8  C   UNL     1     135.528   6.428  95.015  1.00  0.00     0.027 C 
BRANCH   8   9
ATOM      9  C   UNL     1     134.063   6.297  94.564  1.00  0.00     0.004 C 
BRANCH   9  10
ATOM     10  C   UNL     1     133.055   6.113  95.715  1.00  0.00     0.000 C 
BRANCH  10  11
ATOM     11  C   UNL     1     131.646   6.669  95.438  1.00  0.00    -0.003 C 
ATOM     12  C   UNL     1     131.587   7.546  94.189  1.00  0.00     0.004 C 
ENDBRANCH  10  11
ENDBRANCH   9  10
ENDBRANCH   8   9
ENDBRANCH   7   8
ENDBRANCH   5   6
ENDBRANCH   4   5
ENDBRANCH   2   3
ENDBRANCH   1   2
BRANCH   1  13
ATOM     13  C   UNL     1     133.538   0.723  93.668  1.00  0.00     0.000 C 
BRANCH  13  14
ATOM     14  C   UNL     1     132.979   1.969  94.379  1.00  0.00     0.000 C 
BRANCH  14  15
ATOM     15  C   UNL     1     132.692   3.123  93.406  1.00  0.00     0.000 C 
BRANCH  15  16
ATOM     16  C   UNL     1     131.229   3.592  93.461  1.00  0.00     0.003 C 
BRANCH  16  17
ATOM     17  C   UNL     1     130.349   2.559  94.178  1.00  0.00     0.042 C 
BRANCH  17  18
ATOM     18  C   UNL     1     129.424   1.826  93.200  1.00  0.00     0.233 C 
BRANCH  18  19
ATOM     19  O   UNL     1     130.128   0.813  92.483  1.00  0.00    -0.466 OA
BRANCH  19  20
ATOM     20  C   UNL     1     130.214   0.774  91.087  1.00  0.00     0.302 C 
ATOM     21  O   UNL     1     129.324   0.203  90.400  1.00  0.00    -0.253 OA
ATOM     22  C   UNL     1     131.396   1.377  90.408  1.00  0.00     0.139 C 
ENDBRANCH  19  20
ENDBRANCH  18  19
ENDBRANCH  17  18
ENDBRANCH  16  17
ENDBRANCH  15  16
ENDBRANCH  14  15
ENDBRANCH  13  14
ENDBRANCH   1  13
TORSDOF 16
ENDMDL
MODEL 3
REMARK VINA RESULT:    -4.898      2.513      5.651
REMARK INTER + INTRA:         -11.843
REMARK INTER:                  -9.038
REMARK INTRA:                  -2.805
REMARK UNBOUND:                -2.363
REMARK SMILES CCCCCC=CCC=CCCCCCCCCOC(C)=O
REMARK SMILES IDX 12 1 11 2 10 3 9 4 8 5 7 6 6 7 5 8 4 9 3 10 2 11 1 12 13 13
REMARK SMILES IDX 14 14 15 15 16 16 17 17 18 18 19 19 20 20 22 21 21 22
REMARK H PARENT
REMARK Flexibility Score: inf
ROOT
ATOM      1  C   UNL     1     132.679   0.354  93.624  1.00  0.00     0.004 C 
ENDROOT
BRANCH   1   2
ATOM      2  C   UNL     1     133.599  -0.779  94.106  1.00  0.00     0.027 C 
BRANCH   2   3
ATOM      3  C   UNL     1     134.095  -0.530  95.511  1.00  0.00    -0.031 C 
ATOM      4  C   UNL     1     135.337  -0.117  95.830  1.00  0.00    -0.027 C 
BRANCH   4   5
ATOM      5  C   UNL     1     136.433   0.152  94.831  1.00  0.00     0.054 C 
BRANCH   5   6
ATOM      6  C   UNL     1     136.714   1.623  94.706  1.00  0.00    -0.027 C 
ATOM      7  C   UNL     1     136.229   2.490  95.606  1.00  0.00    -0.031 C 
BRANCH   7   8
ATOM      8  C   UNL     1     136.474   3.970  95.490  1.00  0.00     0.027 C 
BRANCH   8   9
ATOM      9  C   UNL     1     135.216   4.805  95.785  1.00  0.00     0.004 C 
BRANCH   9  10
ATOM     10  C   UNL     1     135.122   6.122  94.990  1.00  0.00     0.000 C 
BRANCH  10  11
ATOM     11  C   UNL     1     133.699   6.519  94.559  1.00  0.00    -0.003 C 
ATOM     12  C   UNL     1     132.643   6.186  95.611  1.00  0.00     0.004 C 
ENDBRANCH  10  11
ENDBRANCH   9  10
ENDBRANCH   8   9
ENDBRANCH   7   8
ENDBRANCH   5   6
ENDBRANCH   4   5
ENDBRANCH   2   3
ENDBRANCH   1   2
BRANCH   1  13
ATOM     13  C   UNL     1     133.440   1.602  93.139  1.00  0.00     0.000 C 
BRANCH  13  14
ATOM     14  C   UNL     1     132.882   2.902  93.747  1.00  0.00     0.000 C 
BRANCH  14  15
ATOM     15  C   UNL     1     131.437   2.747  94.246  1.00  0.00     0.000 C 
BRANCH  15  16
ATOM     16  C   UNL     1     130.428   3.518  93.382  1.00  0.00     0.003 C 
BRANCH  16  17
ATOM     17  C   UNL     1     129.768   2.593  92.351  1.00  0.00     0.042 C 
BRANCH  17  18
ATOM     18  C   UNL     1     130.206   2.932  90.922  1.00  0.00     0.233 C 
BRANCH  18  19
ATOM     19  O   UNL     1     131.345   2.164  90.535  1.00  0.00    -0.466 OA
BRANCH  19  20
ATOM     20  C   UNL     1     131.271   1.031  89.717  1.00  0.00     0.302 C 
ATOM     21  O   UNL     1     130.228   0.780  89.055  1.00  0.00    -0.253 OA
ATOM     22  C   UNL     1     132.423   0.087  89.665  1.00  0.00     0.139 C 
ENDBRANCH  19  20
ENDBRANCH  18  19
ENDBRANCH  17  18
ENDBRANCH  16  17
ENDBRANCH  15  16
ENDBRANCH  14  15
ENDBRANCH  13  14
ENDBRANCH   1  13
TORSDOF 16
ENDMDL
MODEL 4
REMARK VINA RESULT:    -4.864      2.447      5.693
REMARK INTER + INTRA:         -11.776
REMARK INTER:                  -9.590
REMARK INTRA:                  -2.186
REMARK UNBOUND:                -2.363
REMARK SMILES CCCCCC=CCC=CCCCCCCCCOC(C)=O
REMARK SMILES IDX 12 1 11 2 10 3 9 4 8 5 7 6 6 7 5 8 4 9 3 10 2 11 1 12 13 13
REMARK SMILES IDX 14 14 15 15 16 16 17 17 18 18 19 19 20 20 22 21 21 22
REMARK H PARENT
REMARK Flexibility Score: inf
ROOT
ATOM      1  C   UNL     1     136.418   0.750  94.609  1.00  0.00     0.004 C 
ENDROOT
BRANCH   1   2
ATOM      2  C   UNL     1     136.961   2.128  95.020  1.00  0.00     0.027 C 
BRANCH   2   3
ATOM      3  C   UNL     1     136.008   2.846  95.947  1.00  0.00    -0.031 C 
ATOM      4  C   UNL     1     135.426   4.032  95.690  1.00  0.00    -0.027 C 
BRANCH   4   5
ATOM      5  C   UNL     1     135.645   4.839  94.435  1.00  0.00     0.054 C 
BRANCH   5   6
ATOM      6  C   UNL     1     134.780   6.069  94.415  1.00  0.00    -0.027 C 
ATOM      7  C   UNL     1     133.619   6.099  95.084  1.00  0.00    -0.031 C 
BRANCH   7   8
ATOM      8  C   UNL     1     132.723   7.308  95.059  1.00  0.00     0.027 C 
BRANCH   8   9
ATOM      9  C   UNL     1     131.298   7.000  95.547  1.00  0.00     0.004 C 
BRANCH   9  10
ATOM     10  C   UNL     1     130.342   8.209  95.532  1.00  0.00     0.000 C 
BRANCH  10  11
ATOM     11  C   UNL     1     130.501   9.146  94.322  1.00  0.00    -0.003 C 
ATOM     12  C   UNL     1     130.417  10.624  94.698  1.00  0.00     0.004 C 
ENDBRANCH  10  11
ENDBRANCH   9  10
ENDBRANCH   8   9
ENDBRANCH   7   8
ENDBRANCH   5   6
ENDBRANCH   4   5
ENDBRANCH   2   3
ENDBRANCH   1   2
BRANCH   1  13
ATOM     13  C   UNL     1     135.355   0.193  95.574  1.00  0.00     0.000 C 
BRANCH  13  14
ATOM     14  C   UNL     1     134.048  -0.184  94.852  1.00  0.00     0.000 C 
BRANCH  14  15
ATOM     15  C   UNL     1     133.684   0.808  93.737  1.00  0.00     0.000 C 
BRANCH  15  16
ATOM     16  C   UNL     1     132.819   1.973  94.241  1.00  0.00     0.003 C 
BRANCH  16  17
ATOM     17  C   UNL     1     132.647   3.040  93.152  1.00  0.00     0.042 C 
BRANCH  17  18
ATOM     18  C   UNL     1     131.231   3.026  92.563  1.00  0.00     0.233 C 
BRANCH  18  19
ATOM     19  O   UNL     1     130.987   1.825  91.833  1.00  0.00    -0.466 OA
BRANCH  19  20
ATOM     20  C   UNL     1     131.457   1.602  90.534  1.00  0.00     0.302 C 
ATOM     21  O   UNL     1     132.531   0.973  90.335  1.00  0.00    -0.253 OA
ATOM     22  C   UNL     1     130.700   2.155  89.375  1.00  0.00     0.139 C 
ENDBRANCH  19  20
ENDBRANCH  18  19
ENDBRANCH  17  18
ENDBRANCH  16  17
ENDBRANCH  15  16
ENDBRANCH  14  15
ENDBRANCH  13  14
ENDBRANCH   1  13
TORSDOF 16
ENDMDL
MODEL 5
REMARK VINA RESULT:    -4.849      2.422      5.301
REMARK INTER + INTRA:         -11.748
REMARK INTER:                  -9.078
REMARK INTRA:                  -2.670
REMARK UNBOUND:                -2.363
REMARK SMILES CCCCCC=CCC=CCCCCCCCCOC(C)=O
REMARK SMILES IDX 12 1 11 2 10 3 9 4 8 5 7 6 6 7 5 8 4 9 3 10 2 11 1 12 13 13
REMARK SMILES IDX 14 14 15 15 16 16 17 17 18 18 19 19 20 20 22 21 21 22
REMARK H PARENT
REMARK Flexibility Score: inf
ROOT
ATOM      1  C   UNL     1     136.435   0.007  95.008  1.00  0.00     0.004 C 
ENDROOT
BRANCH   1   2
ATOM      2  C   UNL     1     136.779   1.339  94.321  1.00  0.00     0.027 C 
BRANCH   2   3
ATOM      3  C   UNL     1     136.961   2.450  95.328  1.00  0.00    -0.031 C 
ATOM      4  C   UNL     1     136.279   3.611  95.330  1.00  0.00    -0.027 C 
BRANCH   4   5
ATOM      5  C   UNL     1     135.231   3.989  94.315  1.00  0.00     0.054 C 
BRANCH   5   6
ATOM      6  C   UNL     1     134.165   4.858  94.924  1.00  0.00    -0.027 C 
ATOM      7  C   UNL     1     134.064   6.151  94.588  1.00  0.00    -0.031 C 
BRANCH   7   8
ATOM      8  C   UNL     1     133.023   7.048  95.201  1.00  0.00     0.027 C 
BRANCH   8   9
ATOM      9  C   UNL     1     131.594   6.504  95.028  1.00  0.00     0.004 C 
BRANCH   9  10
ATOM     10  C   UNL     1     131.137   6.364  93.563  1.00  0.00     0.000 C 
BRANCH  10  11
ATOM     11  C   UNL     1     130.829   4.924  93.115  1.00  0.00    -0.003 C 
ATOM     12  C   UNL     1     130.685   3.953  94.286  1.00  0.00     0.004 C 
ENDBRANCH  10  11
ENDBRANCH   9  10
ENDBRANCH   8   9
ENDBRANCH   7   8
ENDBRANCH   5   6
ENDBRANCH   4   5
ENDBRANCH   2   3
ENDBRANCH   1   2
BRANCH   1  13
ATOM     13  C   UNL     1     135.133   0.053  95.827  1.00  0.00     0.000 C 
BRANCH  13  14
ATOM     14  C   UNL     1     134.089  -0.962  95.327  1.00  0.00     0.000 C 
BRANCH  14  15
ATOM     15  C   UNL     1     133.420  -0.522  94.015  1.00  0.00     0.000 C 
BRANCH  15  16
ATOM     16  C   UNL     1     132.854   0.905  94.091  1.00  0.00     0.003 C 
BRANCH  16  17
ATOM     17  C   UNL     1     133.074   1.653  92.769  1.00  0.00     0.042 C 
BRANCH  17  18
ATOM     18  C   UNL     1     132.263   1.032  91.625  1.00  0.00     0.233 C 
BRANCH  18  19
ATOM     19  O   UNL     1     131.009   1.694  91.462  1.00  0.00    -0.466 OA
BRANCH  19  20
ATOM     20  C   UNL     1     129.775   1.074  91.687  1.00  0.00     0.302 C 
ATOM     21  O   UNL     1     128.940   0.939  90.752  1.00  0.00    -0.253 OA
ATOM     22  C   UNL     1     129.427   0.609  93.059  1.00  0.00     0.139 C 
ENDBRANCH  19  20
ENDBRANCH  18  19
ENDBRANCH  17  18
ENDBRANCH  16  17
ENDBRANCH  15  16
ENDBRANCH  14  15
ENDBRANCH  13  14
ENDBRANCH   1  13
TORSDOF 16
ENDMDL
MODEL 6
REMARK VINA RESULT:    -4.804      1.475      2.782
REMARK INTER + INTRA:         -11.661
REMARK INTER:                  -9.573
REMARK INTRA:                  -2.088
REMARK UNBOUND:                -2.363
REMARK SMILES CCCCCC=CCC=CCCCCCCCCOC(C)=O
REMARK SMILES IDX 12 1 11 2 10 3 9 4 8 5 7 6 6 7 5 8 4 9 3 10 2 11 1 12 13 13
REMARK SMILES IDX 14 14 15 15 16 16 17 17 18 18 19 19 20 20 22 21 21 22
REMARK H PARENT
REMARK Flexibility Score: inf
ROOT
ATOM      1  C   UNL     1     135.677   3.881  95.606  1.00  0.00     0.004 C 
ENDROOT
BRANCH   1   2
ATOM      2  C   UNL     1     136.894   2.952  95.745  1.00  0.00     0.027 C 
BRANCH   2   3
ATOM      3  C   UNL     1     136.924   1.912  94.649  1.00  0.00    -0.031 C 
ATOM      4  C   UNL     1     136.196   0.779  94.638  1.00  0.00    -0.027 C 
BRANCH   4   5
ATOM      5  C   UNL     1     135.241   0.365  95.728  1.00  0.00     0.054 C 
BRANCH   5   6
ATOM      6  C   UNL     1     133.813   0.623  95.335  1.00  0.00    -0.027 C 
ATOM      7  C   UNL     1     133.523   1.211  94.166  1.00  0.00    -0.031 C 
BRANCH   7   8
ATOM      8  C   UNL     1     132.103   1.504  93.760  1.00  0.00     0.027 C 
BRANCH   8   9
ATOM      9  C   UNL     1     131.510   0.415  92.850  1.00  0.00     0.004 C 
BRANCH   9  10
ATOM     10  C   UNL     1     132.334   0.124  91.581  1.00  0.00     0.000 C 
BRANCH  10  11
ATOM     11  C   UNL     1     131.608   0.416  90.255  1.00  0.00    -0.003 C 
ATOM     12  C   UNL     1     131.173   1.874  90.123  1.00  0.00     0.004 C 
ENDBRANCH  10  11
ENDBRANCH   9  10
ENDBRANCH   8   9
ENDBRANCH   7   8
ENDBRANCH   5   6
ENDBRANCH   4   5
ENDBRANCH   2   3
ENDBRANCH   1   2
BRANCH   1  13
ATOM     13  C   UNL     1     136.051   5.358  95.388  1.00  0.00     0.000 C 
BRANCH  13  14
ATOM     14  C   UNL     1     135.298   5.984  94.199  1.00  0.00     0.000 C 
BRANCH  14  15
ATOM     15  C   UNL     1     134.342   4.992  93.518  1.00  0.00     0.000 C 
BRANCH  15  16
ATOM     16  C   UNL     1     132.898   5.513  93.454  1.00  0.00     0.003 C 
BRANCH  16  17
ATOM     17  C   UNL     1     132.102   5.076  94.692  1.00  0.00     0.042 C 
BRANCH  17  18
ATOM     18  C   UNL     1     131.967   6.215  95.709  1.00  0.00     0.233 C 
BRANCH  18  19
ATOM     19  O   UNL     1     132.209   7.483  95.101  1.00  0.00    -0.466 OA
BRANCH  19  20
ATOM     20  C   UNL     1     131.462   8.631  95.388  1.00  0.00     0.302 C 
ATOM     21  O   UNL     1     132.026   9.685  95.789  1.00  0.00    -0.253 OA
ATOM     22  C   UNL     1     129.978   8.592  95.258  1.00  0.00     0.139 C 
ENDBRANCH  19  20
ENDBRANCH  18  19
ENDBRANCH  17  18
ENDBRANCH  16  17
ENDBRANCH  15  16
ENDBRANCH  14  15
ENDBRANCH  13  14
ENDBRANCH   1  13
TORSDOF 16
ENDMDL
MODEL 7
REMARK VINA RESULT:    -4.745      1.722      4.515
REMARK INTER + INTRA:         -11.546
REMARK INTER:                  -9.239
REMARK INTRA:                  -2.307
REMARK UNBOUND:                -2.363
REMARK SMILES CCCCCC=CCC=CCCCCCCCCOC(C)=O
REMARK SMILES IDX 12 1 11 2 10 3 9 4 8 5 7 6 6 7 5 8 4 9 3 10 2 11 1 12 13 13
REMARK SMILES IDX 14 14 15 15 16 16 17 17 18 18 19 19 20 20 22 21 21 22
REMARK H PARENT
REMARK Flexibility Score: inf
ROOT
ATOM      1  C   UNL     1     134.012  -0.122  94.523  1.00  0.00     0.004 C 
ENDROOT
BRANCH   1   2
ATOM      2  C   UNL     1     135.384  -0.161  95.216  1.00  0.00     0.027 C 
BRANCH   2   3
ATOM      3  C   UNL     1     136.442   0.533  94.390  1.00  0.00    -0.031 C 
ATOM      4  C   UNL     1     136.948   1.753  94.649  1.00  0.00    -0.027 C 
BRANCH   4   5
ATOM      5  C   UNL     1     136.526   2.627  95.803  1.00  0.00     0.054 C 
BRANCH   5   6
ATOM      6  C   UNL     1     136.397   4.065  95.384  1.00  0.00    -0.027 C 
ATOM      7  C   UNL     1     135.366   4.465  94.627  1.00  0.00    -0.031 C 
BRANCH   7   8
ATOM      8  C   UNL     1     135.227   5.893  94.173  1.00  0.00     0.027 C 
BRANCH   8   9
ATOM      9  C   UNL     1     134.199   6.682  95.003  1.00  0.00     0.004 C 
BRANCH   9  10
ATOM     10  C   UNL     1     132.799   6.774  94.365  1.00  0.00     0.000 C 
BRANCH  10  11
ATOM     11  C   UNL     1     131.684   7.247  95.315  1.00  0.00    -0.003 C 
ATOM     12  C   UNL     1     131.578   8.768  95.401  1.00  0.00     0.004 C 
ENDBRANCH  10  11
ENDBRANCH   9  10
ENDBRANCH   8   9
ENDBRANCH   7   8
ENDBRANCH   5   6
ENDBRANCH   4   5
ENDBRANCH   2   3
ENDBRANCH   1   2
BRANCH   1  13
ATOM     13  C   UNL     1     133.380   1.281  94.485  1.00  0.00     0.000 C 
BRANCH  13  14
ATOM     14  C   UNL     1     132.938   1.687  93.068  1.00  0.00     0.000 C 
BRANCH  14  15
ATOM     15  C   UNL     1     132.442   3.141  92.999  1.00  0.00     0.000 C 
BRANCH  15  16
ATOM     16  C   UNL     1     131.348   3.441  94.035  1.00  0.00     0.003 C 
BRANCH  16  17
ATOM     17  C   UNL     1     129.981   2.942  93.549  1.00  0.00     0.042 C 
BRANCH  17  18
ATOM     18  C   UNL     1     129.233   4.020  92.755  1.00  0.00     0.233 C 
BRANCH  18  19
ATOM     19  O   UNL     1     129.905   5.277  92.830  1.00  0.00    -0.466 OA
BRANCH  19  20
ATOM     20  C   UNL     1     129.997   6.168  91.756  1.00  0.00     0.302 C 
ATOM     21  O   UNL     1     130.062   5.746  90.569  1.00  0.00    -0.253 OA
ATOM     22  C   UNL     1     130.064   7.633  92.022  1.00  0.00     0.139 C 
ENDBRANCH  19  20
ENDBRANCH  18  19
ENDBRANCH  17  18
ENDBRANCH  16  17
ENDBRANCH  15  16
ENDBRANCH  14  15
ENDBRANCH  13  14
ENDBRANCH   1  13
TORSDOF 16
ENDMDL
MODEL 8
REMARK VINA RESULT:    -4.720      1.444      2.688
REMARK INTER + INTRA:         -11.498
REMARK INTER:                  -9.273
REMARK INTRA:                  -2.225
REMARK UNBOUND:                -2.363
REMARK SMILES CCCCCC=CCC=CCCCCCCCCOC(C)=O
REMARK SMILES IDX 12 1 11 2 10 3 9 4 8 5 7 6 6 7 5 8 4 9 3 10 2 11 1 12 13 13
REMARK SMILES IDX 14 14 15 15 16 16 17 17 18 18 19 19 20 20 22 21 21 22
REMARK H PARENT
REMARK Flexibility Score: inf
ROOT
ATOM      1  C   UNL     1     135.875   4.177  94.811  1.00  0.00     0.004 C 
ENDROOT
BRANCH   1   2
ATOM      2  C   UNL     1     136.784   3.198  95.570  1.00  0.00     0.027 C 
BRANCH   2   3
ATOM      3  C   UNL     1     136.997   1.922  94.790  1.00  0.00    -0.031 C 
ATOM      4  C   UNL     1     136.229   0.820  94.886  1.00  0.00    -0.027 C 
BRANCH   4   5
ATOM      5  C   UNL     1     135.038   0.684  95.800  1.00  0.00     0.054 C 
BRANCH   5   6
ATOM      6  C   UNL     1     133.782   1.184  95.143  1.00  0.00    -0.027 C 
ATOM      7  C   UNL     1     133.751   1.430  93.826  1.00  0.00    -0.031 C 
BRANCH   7   8
ATOM      8  C   UNL     1     132.514   1.955  93.149  1.00  0.00     0.027 C 
BRANCH   8   9
ATOM      9  C   UNL     1     131.436   2.407  94.149  1.00  0.00     0.004 C 
BRANCH   9  10
ATOM     10  C   UNL     1     130.253   3.165  93.515  1.00  0.00     0.000 C 
BRANCH  10  11
ATOM     11  C   UNL     1     130.329   3.322  91.986  1.00  0.00    -0.003 C 
ATOM     12  C   UNL     1     129.948   4.724  91.512  1.00  0.00     0.004 C 
ENDBRANCH  10  11
ENDBRANCH   9  10
ENDBRANCH   8   9
ENDBRANCH   7   8
ENDBRANCH   5   6
ENDBRANCH   4   5
ENDBRANCH   2   3
ENDBRANCH   1   2
BRANCH   1  13
ATOM     13  C   UNL     1     135.884   5.603  95.391  1.00  0.00     0.000 C 
BRANCH  13  14
ATOM     14  C   UNL     1     134.608   6.389  95.038  1.00  0.00     0.000 C 
BRANCH  14  15
ATOM     15  C   UNL     1     133.607   5.552  94.225  1.00  0.00     0.000 C 
BRANCH  15  16
ATOM     16  C   UNL     1     132.305   6.312  93.928  1.00  0.00     0.003 C 
BRANCH  16  17
ATOM     17  C   UNL     1     131.376   6.306  95.149  1.00  0.00     0.042 C 
BRANCH  17  18
ATOM     18  C   UNL     1     131.010   7.729  95.591  1.00  0.00     0.233 C 
BRANCH  18  19
ATOM     19  O   UNL     1     130.058   8.316  94.705  1.00  0.00    -0.466 OA
BRANCH  19  20
ATOM     20  C   UNL     1     130.375   9.329  93.793  1.00  0.00     0.302 C 
ATOM     21  O   UNL     1     130.393   9.099  92.553  1.00  0.00    -0.253 OA
ATOM     22  C   UNL     1     130.739  10.683  94.297  1.00  0.00     0.139 C 
ENDBRANCH  19  20
ENDBRANCH  18  19
ENDBRANCH  17  18
ENDBRANCH  16  17
ENDBRANCH  15  16
ENDBRANCH  14  15
ENDBRANCH  13  14
ENDBRANCH   1  13
TORSDOF 16
ENDMDL
MODEL 9
REMARK VINA RESULT:    -4.613      1.784      4.544
REMARK INTER + INTRA:         -11.291
REMARK INTER:                  -8.669
REMARK INTRA:                  -2.622
REMARK UNBOUND:                -2.363
REMARK SMILES CCCCCC=CCC=CCCCCCCCCOC(C)=O
REMARK SMILES IDX 12 1 11 2 10 3 9 4 8 5 7 6 6 7 5 8 4 9 3 10 2 11 1 12 13 13
REMARK SMILES IDX 14 14 15 15 16 16 17 17 18 18 19 19 20 20 22 21 21 22
REMARK H PARENT
REMARK Flexibility Score: inf
ROOT
ATOM      1  C   UNL     1     132.987   0.878  92.617  1.00  0.00     0.004 C 
ENDROOT
BRANCH   1   2
ATOM      2  C   UNL     1     131.855   0.053  93.249  1.00  0.00     0.027 C 
BRANCH   2   3
ATOM      3  C   UNL     1     130.510   0.422  92.668  1.00  0.00    -0.031 C 
ATOM      4  C   UNL     1     129.744   1.448  93.085  1.00  0.00    -0.027 C 
BRANCH   4   5
ATOM      5  C   UNL     1     130.105   2.385  94.209  1.00  0.00     0.054 C 
BRANCH   5   6
ATOM      6  C   UNL     1     130.119   3.816  93.748  1.00  0.00    -0.027 C 
ATOM      7  C   UNL     1     131.069   4.255  92.911  1.00  0.00    -0.031 C 
BRANCH   7   8
ATOM      8  C   UNL     1     131.120   5.689  92.456  1.00  0.00     0.027 C 
BRANCH   8   9
ATOM      9  C   UNL     1     130.165   6.598  93.248  1.00  0.00     0.004 C 
BRANCH   9  10
ATOM     10  C   UNL     1     130.763   7.961  93.646  1.00  0.00     0.000 C 
BRANCH  10  11
ATOM     11  C   UNL     1     130.807   8.233  95.160  1.00  0.00    -0.003 C 
ATOM     12  C   UNL     1     131.491   9.554  95.509  1.00  0.00     0.004 C 
ENDBRANCH  10  11
ENDBRANCH   9  10
ENDBRANCH   8   9
ENDBRANCH   7   8
ENDBRANCH   5   6
ENDBRANCH   4   5
ENDBRANCH   2   3
ENDBRANCH   1   2
BRANCH   1  13
ATOM     13  C   UNL     1     133.689   1.823  93.609  1.00  0.00     0.000 C 
BRANCH  13  14
ATOM     14  C   UNL     1     133.740   1.245  95.035  1.00  0.00     0.000 C 
BRANCH  14  15
ATOM     15  C   UNL     1     135.168   1.197  95.601  1.00  0.00     0.000 C 
BRANCH  15  16
ATOM     16  C   UNL     1     136.202   1.816  94.648  1.00  0.00     0.003 C 
BRANCH  16  17
ATOM     17  C   UNL     1     137.053   2.870  95.370  1.00  0.00     0.042 C 
BRANCH  17  18
ATOM     18  C   UNL     1     136.197   4.035  95.881  1.00  0.00     0.233 C 
BRANCH  18  19
ATOM     19  O   UNL     1     135.997   5.015  94.863  1.00  0.00    -0.466 OA
BRANCH  19  20
ATOM     20  C   UNL     1     134.745   5.310  94.312  1.00  0.00     0.302 C 
ATOM     21  O   UNL     1     134.545   5.211  93.071  1.00  0.00    -0.253 OA
ATOM     22  C   UNL     1     133.647   5.789  95.200  1.00  0.00     0.139 C 
ENDBRANCH  19  20
ENDBRANCH  18  19
ENDBRANCH  17  18
ENDBRANCH  16  17
ENDBRANCH  15  16
ENDBRANCH  14  15
ENDBRANCH  13  14
ENDBRANCH   1  13
TORSDOF 16
ENDMDL
