MODEL 1
REMARK VINA RESULT:    -4.798      0.000      0.000
REMARK INTER + INTRA:          -5.947
REMARK INTER:                  -5.920
REMARK INTRA:                  -0.027
REMARK UNBOUND:                -0.027
REMARK SMILES O=c1c(O)c(-c2cc(O)c(O)c(O)c2)oc2cc(O)cc(O)c12
REMARK SMILES IDX 5 1 3 2 2 3 1 4 23 5 21 6 20 7 18 8 17 9 16 10 15 11 6 12
REMARK SMILES IDX 7 13 8 14 14 15 10 16 12 17 9 18 11 20 13 22 4 24 22 26
REMARK SMILES IDX 19 28
REMARK H PARENT 9 19 11 21 13 23 4 25 22 27 19 29
REMARK Flexibility Score: inf
ROOT
ATOM      1  C   UNL     1     -12.661 -16.402  32.062  1.00  0.00     0.180 A 
ATOM      2  C   UNL     1     -12.448 -17.792  31.999  1.00  0.00     0.208 A 
ATOM      3  C   UNL     1     -12.693 -18.462  30.791  1.00  0.00     0.238 A 
ATOM      4  O   UNL     1     -12.517 -19.710  30.726  1.00  0.00    -0.285 OA
ATOM      5  C   UNL     1     -13.126 -17.732  29.665  1.00  0.00     0.111 A 
ATOM      6  C   UNL     1     -13.392 -18.331  28.409  1.00  0.00     0.134 A 
ATOM      7  C   UNL     1     -13.809 -17.534  27.333  1.00  0.00     0.093 A 
ATOM      8  C   UNL     1     -13.967 -16.152  27.489  1.00  0.00     0.123 A 
ATOM      9  C   UNL     1     -13.706 -15.558  28.724  1.00  0.00     0.094 A 
ATOM     10  C   UNL     1     -13.291 -16.335  29.809  1.00  0.00     0.146 A 
ATOM     11  O   UNL     1     -13.055 -15.744  30.975  1.00  0.00    -0.452 OA
ENDROOT
BRANCH   1  12
ATOM     12  C   UNL     1     -12.443 -15.628  33.306  1.00  0.00     0.029 A 
ATOM     13  C   UNL     1     -11.248 -15.733  34.031  1.00  0.00     0.062 A 
ATOM     14  C   UNL     1     -11.070 -15.010  35.218  1.00  0.00     0.162 A 
ATOM     15  C   UNL     1     -13.473 -14.817  33.803  1.00  0.00     0.062 A 
ATOM     16  C   UNL     1     -12.092 -14.181  35.701  1.00  0.00     0.200 A 
ATOM     17  C   UNL     1     -13.310 -14.088  34.986  1.00  0.00     0.162 A 
BRANCH  14  18
ATOM     18  O   UNL     1      -9.875 -15.114  35.929  1.00  0.00    -0.504 OA
ATOM     19  H   UNL     1      -9.481 -16.013  36.178  1.00  0.00     0.293 HD
ENDBRANCH  14  18
BRANCH  16  20
ATOM     20  O   UNL     1     -11.861 -13.476  36.885  1.00  0.00    -0.502 OA
ATOM     21  H   UNL     1     -11.380 -13.859  37.686  1.00  0.00     0.293 HD
ENDBRANCH  16  20
BRANCH  17  22
ATOM     22  O   UNL     1     -14.377 -13.293  35.413  1.00  0.00    -0.504 OA
ATOM     23  H   UNL     1     -14.322 -12.293  35.535  1.00  0.00     0.293 HD
ENDBRANCH  17  22
ENDBRANCH   1  12
BRANCH   2  24
ATOM     24  O   UNL     1     -11.973 -18.485  33.116  1.00  0.00    -0.502 OA
ATOM     25  H   UNL     1     -11.619 -19.432  33.057  1.00  0.00     0.293 HD
ENDBRANCH   2  24
BRANCH   6  26
ATOM     26  O   UNL     1     -13.243 -19.706  28.223  1.00  0.00    -0.507 OA
ATOM     27  H   UNL     1     -13.270 -20.125  27.301  1.00  0.00     0.293 HD
ENDBRANCH   6  26
BRANCH   8  28
ATOM     28  O   UNL     1     -14.381 -15.361  26.420  1.00  0.00    -0.508 OA
ATOM     29  H   UNL     1     -14.528 -15.750  25.496  1.00  0.00     0.293 HD
ENDBRANCH   8  28
TORSDOF 7
ENDMDL
MODEL 2
REMARK VINA RESULT:    -4.791      0.430      1.811
REMARK INTER + INTRA:          -5.939
REMARK INTER:                  -6.036
REMARK INTRA:                   0.097
REMARK UNBOUND:                -0.027
REMARK SMILES O=c1c(O)c(-c2cc(O)c(O)c(O)c2)oc2cc(O)cc(O)c12
REMARK SMILES IDX 5 1 3 2 2 3 1 4 23 5 21 6 20 7 18 8 17 9 16 10 15 11 6 12
REMARK SMILES IDX 7 13 8 14 14 15 10 16 12 17 9 18 11 20 13 22 4 24 22 26
REMARK SMILES IDX 19 28
REMARK H PARENT 9 19 11 21 13 23 4 25 22 27 19 29
REMARK Flexibility Score: inf
ROOT
ATOM      1  C   UNL     1     -12.643 -16.107  32.234  1.00  0.00     0.180 A 
ATOM      2  C   UNL     1     -12.234 -17.444  32.070  1.00  0.00     0.208 A 
ATOM      3  C   UNL     1     -12.427 -18.065  30.826  1.00  0.00     0.238 A 
ATOM      4  O   UNL     1     -12.075 -19.266  30.671  1.00  0.00    -0.285 OA
ATOM      5  C   UNL     1     -13.004 -17.336  29.766  1.00  0.00     0.111 A 
ATOM      6  C   UNL     1     -13.230 -17.886  28.481  1.00  0.00     0.134 A 
ATOM      7  C   UNL     1     -13.800 -17.092  27.475  1.00  0.00     0.093 A 
ATOM      8  C   UNL     1     -14.150 -15.762  27.730  1.00  0.00     0.123 A 
ATOM      9  C   UNL     1     -13.930 -15.215  28.995  1.00  0.00     0.094 A 
ATOM     10  C   UNL     1     -13.364 -15.990  30.011  1.00  0.00     0.146 A 
ATOM     11  O   UNL     1     -13.170 -15.447  31.207  1.00  0.00    -0.452 OA
ENDROOT
BRANCH   1  12
ATOM     12  C   UNL     1     -12.490 -15.390  33.521  1.00  0.00     0.029 A 
ATOM     13  C   UNL     1     -13.504 -14.559  34.019  1.00  0.00     0.062 A 
ATOM     14  C   UNL     1     -13.331 -13.872  35.228  1.00  0.00     0.162 A 
ATOM     15  C   UNL     1     -11.285 -15.496  34.231  1.00  0.00     0.062 A 
ATOM     16  C   UNL     1     -12.135 -13.998  35.948  1.00  0.00     0.200 A 
ATOM     17  C   UNL     1     -11.098 -14.816  35.440  1.00  0.00     0.162 A 
BRANCH  14  18
ATOM     18  O   UNL     1     -14.347 -13.054  35.720  1.00  0.00    -0.504 OA
ATOM     19  H   UNL     1     -15.308 -13.160  35.417  1.00  0.00     0.293 HD
ENDBRANCH  14  18
BRANCH  16  20
ATOM     20  O   UNL     1     -12.016 -13.296  37.151  1.00  0.00    -0.502 OA
ATOM     21  H   UNL     1     -12.428 -12.390  37.319  1.00  0.00     0.293 HD
ENDBRANCH  16  20
BRANCH  17  22
ATOM     22  O   UNL     1      -9.876 -14.980  36.096  1.00  0.00    -0.504 OA
ATOM     23  H   UNL     1      -9.750 -15.541  36.925  1.00  0.00     0.293 HD
ENDBRANCH  17  22
ENDBRANCH   1  12
BRANCH   2  24
ATOM     24  O   UNL     1     -11.620 -18.129  33.122  1.00  0.00    -0.502 OA
ATOM     25  H   UNL     1     -12.149 -18.590  33.852  1.00  0.00     0.293 HD
ENDBRANCH   2  24
BRANCH   6  26
ATOM     26  O   UNL     1     -12.891 -19.210  28.196  1.00  0.00    -0.507 OA
ATOM     27  H   UNL     1     -13.460 -19.986  28.512  1.00  0.00     0.293 HD
ENDBRANCH   6  26
BRANCH   8  28
ATOM     28  O   UNL     1     -14.716 -14.973  26.730  1.00  0.00    -0.508 OA
ATOM     29  H   UNL     1     -14.156 -14.335  26.177  1.00  0.00     0.293 HD
ENDBRANCH   8  28
TORSDOF 7
ENDMDL
MODEL 3
REMARK VINA RESULT:    -4.778      1.631      7.190
REMARK INTER + INTRA:          -5.923
REMARK INTER:                  -5.789
REMARK INTRA:                  -0.134
REMARK UNBOUND:                -0.027
REMARK SMILES O=c1c(O)c(-c2cc(O)c(O)c(O)c2)oc2cc(O)cc(O)c12
REMARK SMILES IDX 5 1 3 2 2 3 1 4 23 5 21 6 20 7 18 8 17 9 16 10 15 11 6 12
REMARK SMILES IDX 7 13 8 14 14 15 10 16 12 17 9 18 11 20 13 22 4 24 22 26
REMARK SMILES IDX 19 28
REMARK H PARENT 9 19 11 21 13 23 4 25 22 27 19 29
REMARK Flexibility Score: inf
ROOT
ATOM      1  C   UNL     1     -13.306 -16.527  32.574  1.00  0.00     0.180 A 
ATOM      2  C   UNL     1     -14.444 -15.706  32.683  1.00  0.00     0.208 A 
ATOM      3  C   UNL     1     -14.463 -14.698  33.659  1.00  0.00     0.238 A 
ATOM      4  O   UNL     1     -15.482 -13.964  33.774  1.00  0.00    -0.285 OA
ATOM      5  C   UNL     1     -13.342 -14.516  34.495  1.00  0.00     0.111 A 
ATOM      6  C   UNL     1     -13.279 -13.522  35.501  1.00  0.00     0.134 A 
ATOM      7  C   UNL     1     -12.122 -13.398  36.284  1.00  0.00     0.093 A 
ATOM      8  C   UNL     1     -11.029 -14.247  36.082  1.00  0.00     0.123 A 
ATOM      9  C   UNL     1     -11.086 -15.229  35.091  1.00  0.00     0.094 A 
ATOM     10  C   UNL     1     -12.231 -15.370  34.301  1.00  0.00     0.146 A 
ATOM     11  O   UNL     1     -12.260 -16.316  33.369  1.00  0.00    -0.452 OA
ENDROOT
BRANCH   1  12
ATOM     12  C   UNL     1     -13.218 -17.623  31.582  1.00  0.00     0.029 A 
ATOM     13  C   UNL     1     -13.003 -18.951  31.977  1.00  0.00     0.062 A 
ATOM     14  C   UNL     1     -12.900 -19.970  31.021  1.00  0.00     0.162 A 
ATOM     15  C   UNL     1     -13.293 -17.322  30.214  1.00  0.00     0.062 A 
ATOM     16  C   UNL     1     -13.000 -19.671  29.655  1.00  0.00     0.200 A 
ATOM     17  C   UNL     1     -13.193 -18.330  29.248  1.00  0.00     0.162 A 
BRANCH  14  18
ATOM     18  O   UNL     1     -12.695 -21.289  31.424  1.00  0.00    -0.504 OA
ATOM     19  H   UNL     1     -12.483 -21.524  32.386  1.00  0.00     0.293 HD
ENDBRANCH  14  18
BRANCH  16  20
ATOM     20  O   UNL     1     -12.898 -20.726  28.744  1.00  0.00    -0.502 OA
ATOM     21  H   UNL     1     -12.916 -21.701  29.004  1.00  0.00     0.293 HD
ENDBRANCH  16  20
BRANCH  17  22
ATOM     22  O   UNL     1     -13.289 -17.955  27.905  1.00  0.00    -0.504 OA
ATOM     23  H   UNL     1     -13.392 -17.002  27.590  1.00  0.00     0.293 HD
ENDBRANCH  17  22
ENDBRANCH   1  12
BRANCH   2  24
ATOM     24  O   UNL     1     -15.522 -15.875  31.811  1.00  0.00    -0.502 OA
ATOM     25  H   UNL     1     -15.967 -15.097  31.338  1.00  0.00     0.293 HD
ENDBRANCH   2  24
BRANCH   6  26
ATOM     26  O   UNL     1     -14.353 -12.658  35.726  1.00  0.00    -0.507 OA
ATOM     27  H   UNL     1     -14.839 -12.203  34.963  1.00  0.00     0.293 HD
ENDBRANCH   6  26
BRANCH   8  28
ATOM     28  O   UNL     1      -9.880 -14.123  36.860  1.00  0.00    -0.508 OA
ATOM     29  H   UNL     1      -9.587 -14.857  37.493  1.00  0.00     0.293 HD
ENDBRANCH   8  28
TORSDOF 7
ENDMDL
MODEL 4
REMARK VINA RESULT:    -4.569      1.282      1.282
REMARK INTER + INTRA:          -5.665
REMARK INTER:                  -5.354
REMARK INTRA:                  -0.311
REMARK UNBOUND:                -0.027
REMARK SMILES O=c1c(O)c(-c2cc(O)c(O)c(O)c2)oc2cc(O)cc(O)c12
REMARK SMILES IDX 5 1 3 2 2 3 1 4 23 5 21 6 20 7 18 8 17 9 16 10 15 11 6 12
REMARK SMILES IDX 7 13 8 14 14 15 10 16 12 17 9 18 11 20 13 22 4 24 22 26
REMARK SMILES IDX 19 28
REMARK H PARENT 9 19 11 21 13 23 4 25 22 27 19 29
REMARK Flexibility Score: inf
ROOT
ATOM      1  C   UNL     1     -12.602 -16.478  32.175  1.00  0.00     0.180 A 
ATOM      2  C   UNL     1     -13.325 -17.685  32.217  1.00  0.00     0.208 A 
ATOM      3  C   UNL     1     -13.474 -18.428  31.036  1.00  0.00     0.238 A 
ATOM      4  O   UNL     1     -14.131 -19.505  31.060  1.00  0.00    -0.285 OA
ATOM      5  C   UNL     1     -12.884 -17.966  29.842  1.00  0.00     0.111 A 
ATOM      6  C   UNL     1     -12.984 -18.657  28.611  1.00  0.00     0.134 A 
ATOM      7  C   UNL     1     -12.359 -18.135  27.468  1.00  0.00     0.093 A 
ATOM      8  C   UNL     1     -11.638 -16.938  27.534  1.00  0.00     0.123 A 
ATOM      9  C   UNL     1     -11.537 -16.253  28.746  1.00  0.00     0.094 A 
ATOM     10  C   UNL     1     -12.154 -16.756  29.895  1.00  0.00     0.146 A 
ATOM     11  O   UNL     1     -12.046 -16.080  31.034  1.00  0.00    -0.452 OA
ENDROOT
BRANCH   1  12
ATOM     12  C   UNL     1     -12.418 -15.629  33.374  1.00  0.00     0.029 A 
ATOM     13  C   UNL     1     -11.221 -15.646  34.105  1.00  0.00     0.062 A 
ATOM     14  C   UNL     1     -11.075 -14.853  35.250  1.00  0.00     0.162 A 
ATOM     15  C   UNL     1     -13.480 -14.834  33.826  1.00  0.00     0.062 A 
ATOM     16  C   UNL     1     -12.130 -14.039  35.686  1.00  0.00     0.200 A 
ATOM     17  C   UNL     1     -13.349 -14.034  34.967  1.00  0.00     0.162 A 
BRANCH  14  18
ATOM     18  O   UNL     1      -9.878 -14.870  35.966  1.00  0.00    -0.504 OA
ATOM     19  H   UNL     1      -9.352 -15.725  36.102  1.00  0.00     0.293 HD
ENDBRANCH  14  18
BRANCH  16  20
ATOM     20  O   UNL     1     -11.930 -13.262  36.830  1.00  0.00    -0.502 OA
ATOM     21  H   UNL     1     -12.670 -12.967  37.450  1.00  0.00     0.293 HD
ENDBRANCH  16  20
BRANCH  17  22
ATOM     22  O   UNL     1     -14.447 -13.259  35.349  1.00  0.00    -0.504 OA
ATOM     23  H   UNL     1     -15.250 -13.089  34.762  1.00  0.00     0.293 HD
ENDBRANCH  17  22
ENDBRANCH   1  12
BRANCH   2  24
ATOM     24  O   UNL     1     -13.859 -18.146  33.423  1.00  0.00    -0.502 OA
ATOM     25  H   UNL     1     -14.579 -18.858  33.462  1.00  0.00     0.293 HD
ENDBRANCH   2  24
BRANCH   6  26
ATOM     26  O   UNL     1     -13.695 -19.854  28.514  1.00  0.00    -0.507 OA
ATOM     27  H   UNL     1     -13.236 -20.754  28.583  1.00  0.00     0.293 HD
ENDBRANCH   6  26
BRANCH   8  28
ATOM     28  O   UNL     1     -11.017 -16.421  26.399  1.00  0.00    -0.508 OA
ATOM     29  H   UNL     1     -11.503 -16.351  25.513  1.00  0.00     0.293 HD
ENDBRANCH   8  28
TORSDOF 7
ENDMDL
MODEL 5
REMARK VINA RESULT:    -4.241      1.213      6.917
REMARK INTER + INTRA:          -5.260
REMARK INTER:                  -5.192
REMARK INTRA:                  -0.068
REMARK UNBOUND:                -0.027
REMARK SMILES O=c1c(O)c(-c2cc(O)c(O)c(O)c2)oc2cc(O)cc(O)c12
REMARK SMILES IDX 5 1 3 2 2 3 1 4 23 5 21 6 20 7 18 8 17 9 16 10 15 11 6 12
REMARK SMILES IDX 7 13 8 14 14 15 10 16 12 17 9 18 11 20 13 22 4 24 22 26
REMARK SMILES IDX 19 28
REMARK H PARENT 9 19 11 21 13 23 4 25 22 27 19 29
REMARK Flexibility Score: inf
ROOT
ATOM      1  C   UNL     1     -12.566 -16.192  32.211  1.00  0.00     0.180 A 
ATOM      2  C   UNL     1     -11.362 -16.650  32.779  1.00  0.00     0.208 A 
ATOM      3  C   UNL     1     -10.959 -16.136  34.021  1.00  0.00     0.238 A 
ATOM      4  O   UNL     1      -9.876 -16.530  34.534  1.00  0.00    -0.285 OA
ATOM      5  C   UNL     1     -11.773 -15.192  34.682  1.00  0.00     0.111 A 
ATOM      6  C   UNL     1     -11.441 -14.628  35.937  1.00  0.00     0.134 A 
ATOM      7  C   UNL     1     -12.309 -13.702  36.534  1.00  0.00     0.093 A 
ATOM      8  C   UNL     1     -13.499 -13.330  35.901  1.00  0.00     0.123 A 
ATOM      9  C   UNL     1     -13.830 -13.883  34.663  1.00  0.00     0.094 A 
ATOM     10  C   UNL     1     -12.978 -14.806  34.051  1.00  0.00     0.146 A 
ATOM     11  O   UNL     1     -13.315 -15.312  32.870  1.00  0.00    -0.452 OA
ENDROOT
BRANCH   1  12
ATOM     12  C   UNL     1     -13.047 -16.672  30.895  1.00  0.00     0.029 A 
ATOM     13  C   UNL     1     -13.198 -18.040  30.627  1.00  0.00     0.062 A 
ATOM     14  C   UNL     1     -13.633 -18.475  29.369  1.00  0.00     0.162 A 
ATOM     15  C   UNL     1     -13.303 -15.746  29.874  1.00  0.00     0.062 A 
ATOM     16  C   UNL     1     -13.912 -17.546  28.357  1.00  0.00     0.200 A 
ATOM     17  C   UNL     1     -13.740 -16.165  28.612  1.00  0.00     0.162 A 
BRANCH  14  18
ATOM     18  O   UNL     1     -13.789 -19.837  29.114  1.00  0.00    -0.504 OA
ATOM     19  H   UNL     1     -14.216 -20.459  29.790  1.00  0.00     0.293 HD
ENDBRANCH  14  18
BRANCH  16  20
ATOM     20  O   UNL     1     -14.350 -18.032  27.122  1.00  0.00    -0.502 OA
ATOM     21  H   UNL     1     -14.532 -19.007  26.931  1.00  0.00     0.293 HD
ENDBRANCH  16  20
BRANCH  17  22
ATOM     22  O   UNL     1     -13.985 -15.183  27.649  1.00  0.00    -0.504 OA
ATOM     23  H   UNL     1     -13.320 -14.904  26.944  1.00  0.00     0.293 HD
ENDBRANCH  17  22
ENDBRANCH   1  12
BRANCH   2  24
ATOM     24  O   UNL     1     -10.598 -17.622  32.127  1.00  0.00    -0.502 OA
ATOM     25  H   UNL     1     -10.829 -18.608  32.163  1.00  0.00     0.293 HD
ENDBRANCH   2  24
BRANCH   6  26
ATOM     26  O   UNL     1     -10.261 -14.981  36.595  1.00  0.00    -0.507 OA
ATOM     27  H   UNL     1      -9.814 -15.877  36.443  1.00  0.00     0.293 HD
ENDBRANCH   6  26
BRANCH   8  28
ATOM     28  O   UNL     1     -14.362 -12.410  36.495  1.00  0.00    -0.508 OA
ATOM     29  H   UNL     1     -14.777 -12.582  37.402  1.00  0.00     0.293 HD
ENDBRANCH   8  28
TORSDOF 7
ENDMDL
MODEL 6
REMARK VINA RESULT:    -4.002      1.457      3.588
REMARK INTER + INTRA:          -4.965
REMARK INTER:                  -4.938
REMARK INTRA:                  -0.027
REMARK UNBOUND:                -0.027
REMARK SMILES O=c1c(O)c(-c2cc(O)c(O)c(O)c2)oc2cc(O)cc(O)c12
REMARK SMILES IDX 5 1 3 2 2 3 1 4 23 5 21 6 20 7 18 8 17 9 16 10 15 11 6 12
REMARK SMILES IDX 7 13 8 14 14 15 10 16 12 17 9 18 11 20 13 22 4 24 22 26
REMARK SMILES IDX 19 28
REMARK H PARENT 9 19 11 21 13 23 4 25 22 27 19 29
REMARK Flexibility Score: inf
ROOT
ATOM      1  C   UNL     1     -12.950 -16.231  32.676  1.00  0.00     0.180 A 
ATOM      2  C   UNL     1     -13.430 -15.726  31.453  1.00  0.00     0.208 A 
ATOM      3  C   UNL     1     -13.634 -16.615  30.386  1.00  0.00     0.238 A 
ATOM      4  O   UNL     1     -14.052 -16.172  29.281  1.00  0.00    -0.285 OA
ATOM      5  C   UNL     1     -13.375 -17.989  30.564  1.00  0.00     0.111 A 
ATOM      6  C   UNL     1     -13.557 -18.951  29.541  1.00  0.00     0.134 A 
ATOM      7  C   UNL     1     -13.287 -20.303  29.801  1.00  0.00     0.093 A 
ATOM      8  C   UNL     1     -12.838 -20.710  31.062  1.00  0.00     0.123 A 
ATOM      9  C   UNL     1     -12.656 -19.766  32.073  1.00  0.00     0.094 A 
ATOM     10  C   UNL     1     -12.918 -18.414  31.834  1.00  0.00     0.146 A 
ATOM     11  O   UNL     1     -12.731 -17.536  32.813  1.00  0.00    -0.452 OA
ENDROOT
BRANCH   1  12
ATOM     12  C   UNL     1     -12.692 -15.354  33.842  1.00  0.00     0.029 A 
ATOM     13  C   UNL     1     -13.659 -14.449  34.303  1.00  0.00     0.062 A 
ATOM     14  C   UNL     1     -13.386 -13.612  35.393  1.00  0.00     0.162 A 
ATOM     15  C   UNL     1     -11.435 -15.385  34.463  1.00  0.00     0.062 A 
ATOM     16  C   UNL     1     -12.138 -13.662  36.029  1.00  0.00     0.200 A 
ATOM     17  C   UNL     1     -11.150 -14.556  35.554  1.00  0.00     0.162 A 
BRANCH  14  18
ATOM     18  O   UNL     1     -14.356 -12.721  35.851  1.00  0.00    -0.504 OA
ATOM     19  H   UNL     1     -14.823 -12.075  35.225  1.00  0.00     0.293 HD
ENDBRANCH  14  18
BRANCH  16  20
ATOM     20  O   UNL     1     -11.921 -12.811  37.116  1.00  0.00    -0.502 OA
ATOM     21  H   UNL     1     -11.584 -11.863  37.033  1.00  0.00     0.293 HD
ENDBRANCH  16  20
BRANCH  17  22
ATOM     22  O   UNL     1      -9.879 -14.652  36.128  1.00  0.00    -0.504 OA
ATOM     23  H   UNL     1      -9.690 -14.505  37.109  1.00  0.00     0.293 HD
ENDBRANCH  17  22
ENDBRANCH   1  12
BRANCH   2  24
ATOM     24  O   UNL     1     -13.725 -14.367  31.317  1.00  0.00    -0.502 OA
ATOM     25  H   UNL     1     -14.480 -14.032  30.731  1.00  0.00     0.293 HD
ENDBRANCH   2  24
BRANCH   6  26
ATOM     26  O   UNL     1     -14.006 -18.575  28.273  1.00  0.00    -0.507 OA
ATOM     27  H   UNL     1     -13.371 -18.481  27.490  1.00  0.00     0.293 HD
ENDBRANCH   6  26
BRANCH   8  28
ATOM     28  O   UNL     1     -12.571 -22.053  31.320  1.00  0.00    -0.508 OA
ATOM     29  H   UNL     1     -12.054 -22.342  32.142  1.00  0.00     0.293 HD
ENDBRANCH   8  28
TORSDOF 7
ENDMDL
MODEL 7
REMARK VINA RESULT:    -2.892      1.659      7.279
REMARK INTER + INTRA:          -3.596
REMARK INTER:                  -3.454
REMARK INTRA:                  -0.142
REMARK UNBOUND:                -0.027
REMARK SMILES O=c1c(O)c(-c2cc(O)c(O)c(O)c2)oc2cc(O)cc(O)c12
REMARK SMILES IDX 5 1 3 2 2 3 1 4 23 5 21 6 20 7 18 8 17 9 16 10 15 11 6 12
REMARK SMILES IDX 7 13 8 14 14 15 10 16 12 17 9 18 11 20 13 22 4 24 22 26
REMARK SMILES IDX 19 28
REMARK H PARENT 9 19 11 21 13 23 4 25 22 27 19 29
REMARK Flexibility Score: inf
ROOT
ATOM      1  C   UNL     1     -13.242 -16.554  32.563  1.00  0.00     0.180 A 
ATOM      2  C   UNL     1     -14.396 -15.756  32.673  1.00  0.00     0.208 A 
ATOM      3  C   UNL     1     -14.437 -14.755  33.656  1.00  0.00     0.238 A 
ATOM      4  O   UNL     1     -15.471 -14.041  33.772  1.00  0.00    -0.285 OA
ATOM      5  C   UNL     1     -13.322 -14.556  34.495  1.00  0.00     0.111 A 
ATOM      6  C   UNL     1     -13.281 -13.567  35.508  1.00  0.00     0.134 A 
ATOM      7  C   UNL     1     -12.129 -13.425  36.295  1.00  0.00     0.093 A 
ATOM      8  C   UNL     1     -11.020 -14.252  36.090  1.00  0.00     0.123 A 
ATOM      9  C   UNL     1     -11.055 -15.229  35.093  1.00  0.00     0.094 A 
ATOM     10  C   UNL     1     -12.194 -15.387  34.299  1.00  0.00     0.146 A 
ATOM     11  O   UNL     1     -12.203 -16.328  33.362  1.00  0.00    -0.452 OA
ENDROOT
BRANCH   1  12
ATOM     12  C   UNL     1     -13.130 -17.642  31.564  1.00  0.00     0.029 A 
ATOM     13  C   UNL     1     -13.234 -17.386  30.189  1.00  0.00     0.062 A 
ATOM     14  C   UNL     1     -13.149 -18.432  29.262  1.00  0.00     0.162 A 
ATOM     15  C   UNL     1     -12.976 -18.966  32.001  1.00  0.00     0.062 A 
ATOM     16  C   UNL     1     -12.970 -19.752  29.699  1.00  0.00     0.200 A 
ATOM     17  C   UNL     1     -12.888 -20.022  31.086  1.00  0.00     0.162 A 
BRANCH  14  18
ATOM     18  O   UNL     1     -13.244 -18.167  27.896  1.00  0.00    -0.504 OA
ATOM     19  H   UNL     1     -13.766 -18.771  27.273  1.00  0.00     0.293 HD
ENDBRANCH  14  18
BRANCH  16  20
ATOM     20  O   UNL     1     -12.884 -20.758  28.732  1.00  0.00    -0.502 OA
ATOM     21  H   UNL     1     -13.539 -20.868  27.972  1.00  0.00     0.293 HD
ENDBRANCH  16  20
BRANCH  17  22
ATOM     22  O   UNL     1     -12.724 -21.312  31.596  1.00  0.00    -0.504 OA
ATOM     23  H   UNL     1     -13.486 -21.911  31.874  1.00  0.00     0.293 HD
ENDBRANCH  17  22
ENDBRANCH   1  12
BRANCH   2  24
ATOM     24  O   UNL     1     -15.469 -15.941  31.797  1.00  0.00    -0.502 OA
ATOM     25  H   UNL     1     -15.830 -16.860  31.567  1.00  0.00     0.293 HD
ENDBRANCH   2  24
BRANCH   6  26
ATOM     26  O   UNL     1     -14.372 -12.726  35.735  1.00  0.00    -0.507 OA
ATOM     27  H   UNL     1     -14.263 -11.722  35.817  1.00  0.00     0.293 HD
ENDBRANCH   6  26
BRANCH   8  28
ATOM     28  O   UNL     1      -9.875 -14.110  36.872  1.00  0.00    -0.508 OA
ATOM     29  H   UNL     1      -8.949 -14.116  36.462  1.00  0.00     0.293 HD
ENDBRANCH   8  28
TORSDOF 7
ENDMDL
MODEL 8
REMARK VINA RESULT:    -2.645      1.922      6.699
REMARK INTER + INTRA:          -3.290
REMARK INTER:                  -3.611
REMARK INTRA:                   0.320
REMARK UNBOUND:                -0.027
REMARK SMILES O=c1c(O)c(-c2cc(O)c(O)c(O)c2)oc2cc(O)cc(O)c12
REMARK SMILES IDX 5 1 3 2 2 3 1 4 23 5 21 6 20 7 18 8 17 9 16 10 15 11 6 12
REMARK SMILES IDX 7 13 8 14 14 15 10 16 12 17 9 18 11 20 13 22 4 24 22 26
REMARK SMILES IDX 19 28
REMARK H PARENT 9 19 11 21 13 23 4 25 22 27 19 29
REMARK Flexibility Score: inf
ROOT
ATOM      1  C   UNL     1     -12.307 -16.731  30.345  1.00  0.00     0.180 A 
ATOM      2  C   UNL     1     -12.032 -18.109  30.444  1.00  0.00     0.208 A 
ATOM      3  C   UNL     1     -11.332 -18.581  31.565  1.00  0.00     0.238 A 
ATOM      4  O   UNL     1     -11.070 -19.812  31.659  1.00  0.00    -0.285 OA
ATOM      5  C   UNL     1     -10.936 -17.677  32.571  1.00  0.00     0.111 A 
ATOM      6  C   UNL     1     -10.229 -18.073  33.733  1.00  0.00     0.134 A 
ATOM      7  C   UNL     1      -9.880 -17.113  34.695  1.00  0.00     0.093 A 
ATOM      8  C   UNL     1     -10.222 -15.768  34.517  1.00  0.00     0.123 A 
ATOM      9  C   UNL     1     -10.918 -15.374  33.373  1.00  0.00     0.094 A 
ATOM     10  C   UNL     1     -11.274 -16.314  32.403  1.00  0.00     0.146 A 
ATOM     11  O   UNL     1     -11.931 -15.910  31.321  1.00  0.00    -0.452 OA
ENDROOT
BRANCH   1  12
ATOM     12  C   UNL     1     -13.024 -16.154  29.185  1.00  0.00     0.029 A 
ATOM     13  C   UNL     1     -13.807 -14.998  29.312  1.00  0.00     0.062 A 
ATOM     14  C   UNL     1     -14.497 -14.481  28.207  1.00  0.00     0.162 A 
ATOM     15  C   UNL     1     -12.969 -16.808  27.945  1.00  0.00     0.062 A 
ATOM     16  C   UNL     1     -14.421 -15.122  26.962  1.00  0.00     0.200 A 
ATOM     17  C   UNL     1     -13.651 -16.302  26.832  1.00  0.00     0.162 A 
BRANCH  14  18
ATOM     18  O   UNL     1     -15.267 -13.326  28.340  1.00  0.00    -0.504 OA
ATOM     19  H   UNL     1     -16.081 -13.160  27.761  1.00  0.00     0.293 HD
ENDBRANCH  14  18
BRANCH  16  20
ATOM     20  O   UNL     1     -15.122 -14.561  25.891  1.00  0.00    -0.502 OA
ATOM     21  H   UNL     1     -16.075 -14.233  25.950  1.00  0.00     0.293 HD
ENDBRANCH  16  20
BRANCH  17  22
ATOM     22  O   UNL     1     -13.539 -17.001  25.628  1.00  0.00    -0.504 OA
ATOM     23  H   UNL     1     -14.258 -17.027  24.920  1.00  0.00     0.293 HD
ENDBRANCH  17  22
ENDBRANCH   1  12
BRANCH   2  24
ATOM     24  O   UNL     1     -12.478 -18.990  29.457  1.00  0.00    -0.502 OA
ATOM     25  H   UNL     1     -13.255 -19.624  29.605  1.00  0.00     0.293 HD
ENDBRANCH   2  24
BRANCH   6  26
ATOM     26  O   UNL     1      -9.875 -19.407  33.940  1.00  0.00    -0.507 OA
ATOM     27  H   UNL     1      -9.300 -19.915  33.278  1.00  0.00     0.293 HD
ENDBRANCH   6  26
BRANCH   8  28
ATOM     28  O   UNL     1      -9.875 -14.815  35.472  1.00  0.00    -0.508 OA
ATOM     29  H   UNL     1      -8.907 -14.606  35.686  1.00  0.00     0.293 HD
ENDBRANCH   8  28
TORSDOF 7
ENDMDL
