MODEL 1
REMARK VINA RESULT:    50.197      0.000      0.000
REMARK INTER + INTRA:          68.990
REMARK INTER:                  67.804
REMARK INTRA:                   1.186
REMARK UNBOUND:                 1.186
REMARK SMILES O=c1c(-c2ccc(O)cc2)coc2c([C@H]3O[C@@H](CO)[C@H](O)[C@@H](O)[C@@H]3O)c(O)ccc12
REMARK SMILES IDX 3 1 11 2 12 3 13 4 30 5 2 6 1 7 29 8 28 9 26 10 14 11 4 12
REMARK SMILES IDX 5 13 6 14 7 15 10 16 9 17 8 18 15 20 24 21 16 22 22 23 17 24
REMARK SMILES IDX 20 25 25 26 23 28 18 30 19 31 21 33 27 35
REMARK H PARENT 8 19 25 27 23 29 19 32 21 34 27 36
REMARK Flexibility Score: inf
ROOT
ATOM      1  C   UNL     1       9.912  10.571  31.137  1.00  0.00     0.065 A 
ATOM      2  C   UNL     1      10.031  10.645  29.745  1.00  0.00     0.208 A 
ATOM      3  O   UNL     1      10.777  11.583  29.178  1.00  0.00    -0.463 OA
ATOM      4  C   UNL     1      11.456  12.504  29.854  1.00  0.00     0.147 A 
ATOM      5  C   UNL     1      11.394  12.496  31.276  1.00  0.00     0.066 A 
ATOM      6  C   UNL     1      10.620  11.509  31.915  1.00  0.00     0.200 A 
ATOM      7  O   UNL     1      10.556  11.468  33.176  1.00  0.00    -0.288 OA
ATOM      8  C   UNL     1      12.082  13.473  32.013  1.00  0.00     0.020 A 
ATOM      9  C   UNL     1      12.786  14.470  31.352  1.00  0.00     0.047 A 
ATOM     10  C   UNL     1      12.841  14.503  29.949  1.00  0.00     0.125 A 
ATOM     11  C   UNL     1      12.227  13.491  29.167  1.00  0.00     0.069 A 
ENDROOT
BRANCH   1  12
ATOM     12  C   UNL     1       9.083   9.500  31.742  1.00  0.00    -0.011 A 
ATOM     13  C   UNL     1       9.577   8.190  31.872  1.00  0.00     0.013 A 
ATOM     14  C   UNL     1       8.819   7.208  32.523  1.00  0.00     0.047 A 
ATOM     15  C   UNL     1       7.547   7.516  33.029  1.00  0.00     0.115 A 
ATOM     16  C   UNL     1       7.813   9.809  32.268  1.00  0.00     0.013 A 
ATOM     17  C   UNL     1       7.047   8.820  32.895  1.00  0.00     0.047 A 
BRANCH  15  18
ATOM     18  O   UNL     1       6.788   6.547  33.684  1.00  0.00    -0.508 OA
ATOM     19  H   UNL     1       5.812   6.395  33.435  1.00  0.00     0.293 HD
ENDBRANCH  15  18
ENDBRANCH   1  12
BRANCH  11  20
ATOM     20  C   UNL     1      12.459  13.553  27.632  1.00  0.00     0.188 C 
ATOM     21  C   UNL     1      13.296  14.771  27.111  1.00  0.00     0.179 C 
ATOM     22  O   UNL     1      11.164  13.401  27.016  1.00  0.00    -0.362 OA
ATOM     23  C   UNL     1      13.269  14.979  25.569  1.00  0.00     0.177 C 
ATOM     24  C   UNL     1      11.013  13.821  25.658  1.00  0.00     0.176 C 
ATOM     25  C   UNL     1      12.319  14.010  24.859  1.00  0.00     0.177 C 
BRANCH  21  26
ATOM     26  O   UNL     1      14.638  14.592  27.506  1.00  0.00    -0.387 OA
ATOM     27  H   UNL     1      14.700  13.699  27.935  1.00  0.00     0.211 HD
ENDBRANCH  21  26
BRANCH  23  28
ATOM     28  O   UNL     1      12.887  16.299  25.269  1.00  0.00    -0.387 OA
ATOM     29  H   UNL     1      13.558  16.662  24.635  1.00  0.00     0.211 HD
ENDBRANCH  23  28
BRANCH  24  30
ATOM     30  C   UNL     1      10.082  15.056  25.606  1.00  0.00     0.191 C 
BRANCH  30  31
ATOM     31  O   UNL     1      10.102  15.655  24.336  1.00  0.00    -0.394 OA
ATOM     32  H   UNL     1      10.747  15.120  23.788  1.00  0.00     0.210 HD
ENDBRANCH  30  31
ENDBRANCH  24  30
BRANCH  25  33
ATOM     33  O   UNL     1      12.919  12.768  24.565  1.00  0.00    -0.388 OA
ATOM     34  H   UNL     1      12.754  12.138  25.305  1.00  0.00     0.211 HD
ENDBRANCH  25  33
ENDBRANCH  11  20
BRANCH  10  35
ATOM     35  O   UNL     1      13.531  15.541  29.331  1.00  0.00    -0.507 OA
ATOM     36  H   UNL     1      13.642  15.567  28.320  1.00  0.00     0.293 HD
ENDBRANCH  10  35
TORSDOF 9
ENDMDL
