MODEL 1
REMARK VINA RESULT:    -4.492      0.000      0.000
REMARK INTER + INTRA:          -7.020
REMARK INTER:                  -6.856
REMARK INTRA:                  -0.164
REMARK UNBOUND:                -0.164
REMARK SMILES CC1=CCC[C@H](C)C(=O)C[C@H](C(C)C)C(=O)C1
REMARK SMILES IDX 8 1 9 2 6 3 7 4 5 5 4 6 3 7 2 8 1 9 10 11 11 12 15 13 16 14
REMARK SMILES IDX 17 15 12 17 13 18 14 19
REMARK H PARENT
REMARK Flexibility Score: 70.00
ROOT
ATOM      1  C   UNL     1      20.541  27.415 -15.515  1.00  0.00     0.136 C 
ATOM      2  O   UNL     1      20.054  26.650 -16.335  1.00  0.00    -0.299 OA
ENDROOT
BRANCH   1   3
ATOM      3  C   UNL     1      19.643  28.363 -14.741  1.00  0.00     0.053 C 
ATOM      4  C   UNL     1      18.194  28.213 -15.217  1.00  0.00     0.016 C 
BRANCH   3   5
ATOM      5  C   UNL     1      19.730  28.159 -13.208  1.00  0.00     0.015 C 
BRANCH   5   6
ATOM      6  C   UNL     1      20.473  29.265 -12.429  1.00  0.00     0.028 C 
BRANCH   6   7
ATOM      7  C   UNL     1      21.751  28.774 -11.787  1.00  0.00    -0.028 C 
ATOM      8  C   UNL     1      23.004  29.112 -12.175  1.00  0.00    -0.070 CG0
ATOM      9  C   UNL     1      24.162  28.553 -11.386  1.00  0.00     0.039 C 
ATOM     10  G   UNL     1      23.296  29.993 -13.379  1.00  0.00     0.000 G0
ENDBRANCH   6   7
ENDBRANCH   5   6
ENDBRANCH   3   5
ENDBRANCH   1   3
BRANCH   1  11
ATOM     11  C   UNL     1      22.044  27.462 -15.327  1.00  0.00     0.087 C 
BRANCH  11  12
ATOM     12  C   UNL     1      22.713  28.826 -15.674  1.00  0.00     0.066 C 
BRANCH  12  13
ATOM     13  C   UNL     1      23.728  29.209 -14.605  1.00  0.00     0.140 C 
ATOM     14  O   UNL     1      24.898  28.875 -14.735  1.00  0.00    -0.299 OA
BRANCH  13  15
ATOM     15  C   UNL     1      23.331  29.996 -13.381  1.00  0.00     0.106 CG0
ATOM     16  G   UNL     1      22.999  29.109 -12.192  1.00  0.00     0.000 G0
ENDBRANCH  13  15
ENDBRANCH  12  13
BRANCH  12  17
ATOM     17  C   UNL     1      23.334  28.890 -17.111  1.00  0.00    -0.006 C 
ATOM     18  C   UNL     1      22.251  29.200 -18.164  1.00  0.00     0.008 C 
ATOM     19  C   UNL     1      24.043  27.582 -17.513  1.00  0.00     0.008 C 
ENDBRANCH  12  17
ENDBRANCH  11  12
ENDBRANCH   1  11
TORSDOF 1
ENDMDL
MODEL 2
REMARK VINA RESULT:    -4.347      8.605     10.850
REMARK INTER + INTRA:          -6.799
REMARK INTER:                  -6.608
REMARK INTRA:                  -0.191
REMARK UNBOUND:                -0.164
REMARK SMILES CC1=CCC[C@H](C)C(=O)C[C@H](C(C)C)C(=O)C1
REMARK SMILES IDX 8 1 9 2 6 3 7 4 5 5 4 6 3 7 2 8 1 9 10 11 11 12 15 13 16 14
REMARK SMILES IDX 17 15 12 17 13 18 14 19
REMARK H PARENT
REMARK Flexibility Score: 70.00
ROOT
ATOM      1  C   UNL     1      33.514  31.894 -14.743  1.00  0.00     0.136 C 
ATOM      2  O   UNL     1      33.909  32.718 -15.555  1.00  0.00    -0.299 OA
ENDROOT
BRANCH   1   3
ATOM      3  C   UNL     1      34.491  30.907 -14.131  1.00  0.00     0.053 C 
ATOM      4  C   UNL     1      35.929  31.380 -14.374  1.00  0.00     0.016 C 
BRANCH   3   5
ATOM      5  C   UNL     1      34.250  30.676 -12.619  1.00  0.00     0.015 C 
BRANCH   5   6
ATOM      6  C   UNL     1      33.758  29.266 -12.231  1.00  0.00     0.028 C 
BRANCH   6   7
ATOM      7  C   UNL     1      32.459  29.288 -11.457  1.00  0.00    -0.028 C 
ATOM      8  C   UNL     1      31.236  29.015 -11.971  1.00  0.00    -0.070 CG0
ATOM      9  C   UNL     1      30.054  29.050 -11.034  1.00  0.00     0.039 C 
ATOM     10  G   UNL     1      30.995  28.714 -13.442  1.00  0.00     0.000 G0
ENDBRANCH   6   7
ENDBRANCH   5   6
ENDBRANCH   3   5
ENDBRANCH   1   3
BRANCH   1  11
ATOM     11  C   UNL     1      32.039  31.818 -14.402  1.00  0.00     0.087 C 
BRANCH  11  12
ATOM     12  C   UNL     1      31.237  30.727 -15.172  1.00  0.00     0.066 C 
BRANCH  12  13
ATOM     13  C   UNL     1      30.398  29.901 -14.205  1.00  0.00     0.140 C 
ATOM     14  O   UNL     1      29.223  30.189 -14.025  1.00  0.00    -0.299 OA
BRANCH  13  15
ATOM     15  C   UNL     1      30.978  28.726 -13.456  1.00  0.00     0.106 CG0
ATOM     16  G   UNL     1      31.224  29.028 -11.987  1.00  0.00     0.000 G0
ENDBRANCH  13  15
ENDBRANCH  12  13
BRANCH  12  17
ATOM     17  C   UNL     1      30.377  31.279 -16.359  1.00  0.00    -0.006 C 
ATOM     18  C   UNL     1      31.144  31.168 -17.691  1.00  0.00     0.008 C 
ATOM     19  C   UNL     1      29.957  32.748 -16.159  1.00  0.00     0.008 C 
ENDBRANCH  12  17
ENDBRANCH  11  12
ENDBRANCH   1  11
TORSDOF 1
ENDMDL
MODEL 3
REMARK VINA RESULT:    -4.163      8.770     11.414
REMARK INTER + INTRA:          -6.517
REMARK INTER:                  -6.134
REMARK INTRA:                  -0.383
REMARK UNBOUND:                -0.164
REMARK SMILES CC1=CCC[C@H](C)C(=O)C[C@H](C(C)C)C(=O)C1
REMARK SMILES IDX 8 1 9 2 6 3 7 4 5 5 4 6 3 7 2 8 1 9 10 11 11 12 15 13 16 14
REMARK SMILES IDX 17 15 12 17 13 18 14 19
REMARK H PARENT
REMARK Flexibility Score: 70.00
ROOT
ATOM      1  C   UNL     1      32.810  29.334 -12.788  1.00  0.00     0.136 C 
ATOM      2  O   UNL     1      32.972  28.203 -12.355  1.00  0.00    -0.299 OA
ENDROOT
BRANCH   1   3
ATOM      3  C   UNL     1      33.790  30.433 -12.419  1.00  0.00     0.053 C 
ATOM      4  C   UNL     1      34.434  30.122 -11.063  1.00  0.00     0.016 C 
BRANCH   3   5
ATOM      5  C   UNL     1      34.882  30.653 -13.495  1.00  0.00     0.015 C 
BRANCH   5   6
ATOM      6  C   UNL     1      34.652  31.849 -14.443  1.00  0.00     0.028 C 
BRANCH   6   7
ATOM      7  C   UNL     1      34.023  31.445 -15.758  1.00  0.00    -0.028 C 
ATOM      8  C   UNL     1      32.787  31.805 -16.180  1.00  0.00    -0.070 CG0
ATOM      9  C   UNL     1      32.343  31.336 -17.543  1.00  0.00     0.039 C 
ATOM     10  G   UNL     1      31.822  32.622 -15.337  1.00  0.00     0.000 G0
ENDBRANCH   6   7
ENDBRANCH   5   6
ENDBRANCH   3   5
ENDBRANCH   1   3
BRANCH   1  11
ATOM     11  C   UNL     1      31.593  29.650 -13.635  1.00  0.00     0.087 C 
BRANCH  11  12
ATOM     12  C   UNL     1      30.949  31.044 -13.374  1.00  0.00     0.066 C 
BRANCH  12  13
ATOM     13  C   UNL     1      30.732  31.785 -14.688  1.00  0.00     0.140 C 
ATOM     14  O   UNL     1      29.653  31.702 -15.258  1.00  0.00    -0.299 OA
BRANCH  13  15
ATOM     15  C   UNL     1      31.818  32.625 -15.312  1.00  0.00     0.106 CG0
ATOM     16  G   UNL     1      32.762  31.815 -16.186  1.00  0.00     0.000 G0
ENDBRANCH  13  15
ENDBRANCH  12  13
BRANCH  12  17
ATOM     17  C   UNL     1      29.640  30.998 -12.514  1.00  0.00    -0.006 C 
ATOM     18  C   UNL     1      29.924  31.423 -11.059  1.00  0.00     0.008 C 
ATOM     19  C   UNL     1      28.988  29.602 -12.496  1.00  0.00     0.008 C 
ENDBRANCH  12  17
ENDBRANCH  11  12
ENDBRANCH   1  11
TORSDOF 1
ENDMDL
MODEL 4
REMARK VINA RESULT:    -4.130      8.218     11.235
REMARK INTER + INTRA:          -6.467
REMARK INTER:                  -5.967
REMARK INTRA:                  -0.500
REMARK UNBOUND:                -0.164
REMARK SMILES CC1=CCC[C@H](C)C(=O)C[C@H](C(C)C)C(=O)C1
REMARK SMILES IDX 8 1 9 2 6 3 7 4 5 5 4 6 3 7 2 8 1 9 10 11 11 12 15 13 16 14
REMARK SMILES IDX 17 15 12 17 13 18 14 19
REMARK H PARENT
REMARK Flexibility Score: 70.00
ROOT
ATOM      1  C   UNL     1      33.402  29.598 -12.093  1.00  0.00     0.136 C 
ATOM      2  O   UNL     1      34.070  28.631 -12.429  1.00  0.00    -0.299 OA
ENDROOT
BRANCH   1   3
ATOM      3  C   UNL     1      33.618  30.939 -12.771  1.00  0.00     0.053 C 
ATOM      4  C   UNL     1      35.115  31.270 -12.801  1.00  0.00     0.016 C 
BRANCH   3   5
ATOM      5  C   UNL     1      33.026  30.995 -14.201  1.00  0.00     0.015 C 
BRANCH   5   6
ATOM      6  C   UNL     1      31.652  31.686 -14.327  1.00  0.00     0.028 C 
BRANCH   6   7
ATOM      7  C   UNL     1      30.495  30.722 -14.191  1.00  0.00    -0.028 C 
ATOM      8  C   UNL     1      29.623  30.684 -13.154  1.00  0.00    -0.070 CG0
ATOM      9  C   UNL     1      28.504  29.674 -13.211  1.00  0.00     0.039 C 
ATOM     10  G   UNL     1      29.739  31.580 -11.932  1.00  0.00     0.000 G0
ENDBRANCH   6   7
ENDBRANCH   5   6
ENDBRANCH   3   5
ENDBRANCH   1   3
BRANCH   1  11
ATOM     11  C   UNL     1      32.409  29.470 -10.955  1.00  0.00     0.087 C 
BRANCH  11  12
ATOM     12  C   UNL     1      31.806  30.814 -10.448  1.00  0.00     0.066 C 
BRANCH  12  13
ATOM     13  C   UNL     1      30.307  30.859 -10.715  1.00  0.00     0.140 C 
ATOM     14  O   UNL     1      29.538  30.304  -9.941  1.00  0.00    -0.299 OA
BRANCH  13  15
ATOM     15  C   UNL     1      29.736  31.574 -11.914  1.00  0.00     0.106 CG0
ATOM     16  G   UNL     1      29.620  30.677 -13.136  1.00  0.00     0.000 G0
ENDBRANCH  13  15
ENDBRANCH  12  13
BRANCH  12  17
ATOM     17  C   UNL     1      32.138  31.144  -8.953  1.00  0.00    -0.006 C 
ATOM     18  C   UNL     1      31.828  32.621  -8.635  1.00  0.00     0.008 C 
ATOM     19  C   UNL     1      33.610  30.867  -8.593  1.00  0.00     0.008 C 
ENDBRANCH  12  17
ENDBRANCH  11  12
ENDBRANCH   1  11
TORSDOF 1
ENDMDL
MODEL 5
REMARK VINA RESULT:    -4.127      9.111     11.306
REMARK INTER + INTRA:          -6.463
REMARK INTER:                  -6.229
REMARK INTRA:                  -0.234
REMARK UNBOUND:                -0.164
REMARK SMILES CC1=CCC[C@H](C)C(=O)C[C@H](C(C)C)C(=O)C1
REMARK SMILES IDX 8 1 9 2 6 3 7 4 5 5 4 6 3 7 2 8 1 9 10 11 11 12 15 13 16 14
REMARK SMILES IDX 17 15 12 17 13 18 14 19
REMARK H PARENT
REMARK Flexibility Score: 70.00
ROOT
ATOM      1  C   UNL     1      30.751  31.900 -14.673  1.00  0.00     0.136 C 
ATOM      2  O   UNL     1      30.004  32.794 -15.043  1.00  0.00    -0.299 OA
ENDROOT
BRANCH   1   3
ATOM      3  C   UNL     1      31.722  31.270 -15.655  1.00  0.00     0.053 C 
ATOM      4  C   UNL     1      31.067  31.162 -17.037  1.00  0.00     0.016 C 
BRANCH   3   5
ATOM      5  C   UNL     1      33.063  32.038 -15.754  1.00  0.00     0.015 C 
BRANCH   5   6
ATOM      6  C   UNL     1      34.323  31.229 -15.377  1.00  0.00     0.028 C 
BRANCH   6   7
ATOM      7  C   UNL     1      34.990  31.733 -14.118  1.00  0.00    -0.028 C 
ATOM      8  C   UNL     1      34.904  31.151 -12.897  1.00  0.00    -0.070 CG0
ATOM      9  C   UNL     1      35.673  31.778 -11.761  1.00  0.00     0.039 C 
ATOM     10  G   UNL     1      34.048  29.926 -12.615  1.00  0.00     0.000 G0
ENDBRANCH   6   7
ENDBRANCH   5   6
ENDBRANCH   3   5
ENDBRANCH   1   3
BRANCH   1  11
ATOM     11  C   UNL     1      30.656  31.378 -13.253  1.00  0.00     0.087 C 
BRANCH  11  12
ATOM     12  C   UNL     1      31.413  30.043 -12.986  1.00  0.00     0.066 C 
BRANCH  12  13
ATOM     13  C   UNL     1      32.647  30.294 -12.127  1.00  0.00     0.140 C 
ATOM     14  O   UNL     1      32.521  30.800 -11.021  1.00  0.00    -0.299 OA
BRANCH  13  15
ATOM     15  C   UNL     1      34.031  29.931 -12.604  1.00  0.00     0.106 CG0
ATOM     16  G   UNL     1      34.897  31.150 -12.882  1.00  0.00     0.000 G0
ENDBRANCH  13  15
ENDBRANCH  12  13
BRANCH  12  17
ATOM     17  C   UNL     1      30.518  28.903 -12.393  1.00  0.00    -0.006 C 
ATOM     18  C   UNL     1      31.035  27.517 -12.825  1.00  0.00     0.008 C 
ATOM     19  C   UNL     1      29.040  29.024 -12.814  1.00  0.00     0.008 C 
ENDBRANCH  12  17
ENDBRANCH  11  12
ENDBRANCH   1  11
TORSDOF 1
ENDMDL
MODEL 6
REMARK VINA RESULT:    -4.100      9.517     11.513
REMARK INTER + INTRA:          -6.422
REMARK INTER:                  -6.138
REMARK INTRA:                  -0.284
REMARK UNBOUND:                -0.164
REMARK SMILES CC1=CCC[C@H](C)C(=O)C[C@H](C(C)C)C(=O)C1
REMARK SMILES IDX 8 1 9 2 6 3 7 4 5 5 4 6 3 7 2 8 1 9 10 11 11 12 15 13 16 14
REMARK SMILES IDX 17 15 12 17 13 18 14 19
REMARK H PARENT
REMARK Flexibility Score: 70.00
ROOT
ATOM      1  C   UNL     1      31.718  29.798 -13.235  1.00  0.00     0.136 C 
ATOM      2  O   UNL     1      31.167  30.744 -13.779  1.00  0.00    -0.299 OA
ENDROOT
BRANCH   1   3
ATOM      3  C   UNL     1      30.883  28.700 -12.602  1.00  0.00     0.053 C 
ATOM      4  C   UNL     1      31.716  27.418 -12.480  1.00  0.00     0.016 C 
BRANCH   3   5
ATOM      5  C   UNL     1      30.307  29.100 -11.220  1.00  0.00     0.015 C 
BRANCH   5   6
ATOM      6  C   UNL     1      31.269  28.938 -10.025  1.00  0.00     0.028 C 
BRANCH   6   7
ATOM      7  C   UNL     1      31.681  30.260  -9.418  1.00  0.00    -0.028 C 
ATOM      8  C   UNL     1      32.888  30.854  -9.578  1.00  0.00    -0.070 CG0
ATOM      9  C   UNL     1      33.105  32.197  -8.925  1.00  0.00     0.039 C 
ATOM     10  G   UNL     1      34.037  30.220 -10.346  1.00  0.00     0.000 G0
ENDBRANCH   6   7
ENDBRANCH   5   6
ENDBRANCH   3   5
ENDBRANCH   1   3
BRANCH   1  11
ATOM     11  C   UNL     1      33.230  29.761 -13.134  1.00  0.00     0.087 C 
BRANCH  11  12
ATOM     12  C   UNL     1      33.906  31.127 -12.815  1.00  0.00     0.066 C 
BRANCH  12  13
ATOM     13  C   UNL     1      34.578  31.083 -11.448  1.00  0.00     0.140 C 
ATOM     14  O   UNL     1      35.571  31.765 -11.240  1.00  0.00    -0.299 OA
BRANCH  13  15
ATOM     15  C   UNL     1      34.049  30.215 -10.333  1.00  0.00     0.106 CG0
ATOM     16  G   UNL     1      32.895  30.859  -9.582  1.00  0.00     0.000 G0
ENDBRANCH  13  15
ENDBRANCH  12  13
BRANCH  12  17
ATOM     17  C   UNL     1      34.887  31.635 -13.926  1.00  0.00    -0.006 C 
ATOM     18  C   UNL     1      34.120  32.368 -15.044  1.00  0.00     0.008 C 
ATOM     19  C   UNL     1      35.707  30.495 -14.563  1.00  0.00     0.008 C 
ENDBRANCH  12  17
ENDBRANCH  11  12
ENDBRANCH   1  11
TORSDOF 1
ENDMDL
MODEL 7
REMARK VINA RESULT:    -4.097      1.654      4.077
REMARK INTER + INTRA:          -6.417
REMARK INTER:                  -6.520
REMARK INTRA:                   0.103
REMARK UNBOUND:                -0.164
REMARK SMILES CC1=CCC[C@H](C)C(=O)C[C@H](C(C)C)C(=O)C1
REMARK SMILES IDX 8 1 9 2 6 3 7 4 5 5 4 6 3 7 2 8 1 9 10 11 11 12 15 13 16 14
REMARK SMILES IDX 17 15 12 17 13 18 14 19
REMARK H PARENT
REMARK Flexibility Score: 70.00
ROOT
ATOM      1  C   UNL     1      20.803  27.621 -15.968  1.00  0.00     0.136 C 
ATOM      2  O   UNL     1      20.273  26.666 -16.517  1.00  0.00    -0.299 OA
ENDROOT
BRANCH   1   3
ATOM      3  C   UNL     1      22.283  27.887 -16.176  1.00  0.00     0.053 C 
ATOM      4  C   UNL     1      22.476  29.240 -16.870  1.00  0.00     0.016 C 
BRANCH   3   5
ATOM      5  C   UNL     1      23.096  27.838 -14.858  1.00  0.00     0.015 C 
BRANCH   5   6
ATOM      6  C   UNL     1      23.266  29.187 -14.129  1.00  0.00     0.028 C 
BRANCH   6   7
ATOM      7  C   UNL     1      23.205  29.054 -12.624  1.00  0.00    -0.028 C 
ATOM      8  C   UNL     1      22.081  29.151 -11.874  1.00  0.00    -0.070 CG0
ATOM      9  C   UNL     1      22.208  28.951 -10.384  1.00  0.00     0.039 C 
ATOM     10  G   UNL     1      20.715  29.482 -12.453  1.00  0.00     0.000 G0
ENDBRANCH   6   7
ENDBRANCH   5   6
ENDBRANCH   3   5
ENDBRANCH   1   3
BRANCH   1  11
ATOM     11  C   UNL     1      19.996  28.494 -15.027  1.00  0.00     0.087 C 
BRANCH  11  12
ATOM     12  C   UNL     1      19.311  27.741 -13.849  1.00  0.00     0.066 C 
BRANCH  12  13
ATOM     13  C   UNL     1      19.774  28.308 -12.513  1.00  0.00     0.140 C 
ATOM     14  O   UNL     1      19.390  27.794 -11.472  1.00  0.00    -0.299 OA
BRANCH  13  15
ATOM     15  C   UNL     1      20.701  29.496 -12.435  1.00  0.00     0.106 CG0
ATOM     16  G   UNL     1      22.063  29.143 -11.858  1.00  0.00     0.000 G0
ENDBRANCH  13  15
ENDBRANCH  12  13
BRANCH  12  17
ATOM     17  C   UNL     1      17.747  27.687 -13.944  1.00  0.00    -0.006 C 
ATOM     18  C   UNL     1      17.221  26.293 -13.546  1.00  0.00     0.008 C 
ATOM     19  C   UNL     1      17.223  28.022 -15.354  1.00  0.00     0.008 C 
ENDBRANCH  12  17
ENDBRANCH  11  12
ENDBRANCH   1  11
TORSDOF 1
ENDMDL
MODEL 8
REMARK VINA RESULT:    -4.066      9.349     12.175
REMARK INTER + INTRA:          -6.369
REMARK INTER:                  -6.182
REMARK INTRA:                  -0.187
REMARK UNBOUND:                -0.164
REMARK SMILES CC1=CCC[C@H](C)C(=O)C[C@H](C(C)C)C(=O)C1
REMARK SMILES IDX 8 1 9 2 6 3 7 4 5 5 4 6 3 7 2 8 1 9 10 11 11 12 15 13 16 14
REMARK SMILES IDX 17 15 12 17 13 18 14 19
REMARK H PARENT
REMARK Flexibility Score: 70.00
ROOT
ATOM      1  C   UNL     1      35.016  31.471 -13.079  1.00  0.00     0.136 C 
ATOM      2  O   UNL     1      35.629  32.072 -12.209  1.00  0.00    -0.299 OA
ENDROOT
BRANCH   1   3
ATOM      3  C   UNL     1      35.132  31.912 -14.527  1.00  0.00     0.053 C 
ATOM      4  C   UNL     1      35.611  30.740 -15.391  1.00  0.00     0.016 C 
BRANCH   3   5
ATOM      5  C   UNL     1      33.809  32.490 -15.090  1.00  0.00     0.015 C 
BRANCH   5   6
ATOM      6  C   UNL     1      32.937  31.500 -15.890  1.00  0.00     0.028 C 
BRANCH   6   7
ATOM      7  C   UNL     1      31.465  31.619 -15.568  1.00  0.00    -0.028 C 
ATOM      8  C   UNL     1      30.808  30.903 -14.624  1.00  0.00    -0.070 CG0
ATOM      9  C   UNL     1      29.341  31.188 -14.417  1.00  0.00     0.039 C 
ATOM     10  G   UNL     1      31.466  29.811 -13.796  1.00  0.00     0.000 G0
ENDBRANCH   6   7
ENDBRANCH   5   6
ENDBRANCH   3   5
ENDBRANCH   1   3
BRANCH   1  11
ATOM     11  C   UNL     1      34.089  30.333 -12.701  1.00  0.00     0.087 C 
BRANCH  11  12
ATOM     12  C   UNL     1      32.902  30.726 -11.773  1.00  0.00     0.066 C 
BRANCH  12  13
ATOM     13  C   UNL     1      31.591  30.181 -12.326  1.00  0.00     0.140 C 
ATOM     14  O   UNL     1      30.632  30.040 -11.580  1.00  0.00    -0.299 OA
BRANCH  13  15
ATOM     15  C   UNL     1      31.438  29.808 -13.780  1.00  0.00     0.106 CG0
ATOM     16  G   UNL     1      30.812  30.918 -14.610  1.00  0.00     0.000 G0
ENDBRANCH  13  15
ENDBRANCH  12  13
BRANCH  12  17
ATOM     17  C   UNL     1      33.103  30.334 -10.269  1.00  0.00    -0.006 C 
ATOM     18  C   UNL     1      33.036  31.580  -9.363  1.00  0.00     0.008 C 
ATOM     19  C   UNL     1      34.443  29.617 -10.014  1.00  0.00     0.008 C 
ENDBRANCH  12  17
ENDBRANCH  11  12
ENDBRANCH   1  11
TORSDOF 1
ENDMDL
MODEL 9
REMARK VINA RESULT:    -4.032      8.911     10.795
REMARK INTER + INTRA:          -6.318
REMARK INTER:                  -6.311
REMARK INTRA:                  -0.007
REMARK UNBOUND:                -0.164
REMARK SMILES CC1=CCC[C@H](C)C(=O)C[C@H](C(C)C)C(=O)C1
REMARK SMILES IDX 8 1 9 2 6 3 7 4 5 5 4 6 3 7 2 8 1 9 10 11 11 12 15 13 16 14
REMARK SMILES IDX 17 15 12 17 13 18 14 19
REMARK H PARENT
REMARK Flexibility Score: 70.00
ROOT
ATOM      1  C   UNL     1      31.983  32.062 -14.946  1.00  0.00     0.136 C 
ATOM      2  O   UNL     1      32.631  33.012 -15.361  1.00  0.00    -0.299 OA
ENDROOT
BRANCH   1   3
ATOM      3  C   UNL     1      30.470  32.153 -14.874  1.00  0.00     0.053 C 
ATOM      4  C   UNL     1      29.877  32.097 -16.286  1.00  0.00     0.016 C 
BRANCH   3   5
ATOM      5  C   UNL     1      29.840  31.054 -13.982  1.00  0.00     0.015 C 
BRANCH   5   6
ATOM      6  C   UNL     1      29.681  31.416 -12.491  1.00  0.00     0.028 C 
BRANCH   6   7
ATOM      7  C   UNL     1      29.797  30.216 -11.579  1.00  0.00    -0.028 C 
ATOM      8  C   UNL     1      30.898  29.879 -10.864  1.00  0.00    -0.070 CG0
ATOM      9  C   UNL     1      30.815  28.663  -9.974  1.00  0.00     0.039 C 
ATOM     10  G   UNL     1      32.211  30.640 -10.942  1.00  0.00     0.000 G0
ENDBRANCH   6   7
ENDBRANCH   5   6
ENDBRANCH   3   5
ENDBRANCH   1   3
BRANCH   1  11
ATOM     11  C   UNL     1      32.697  30.824 -14.441  1.00  0.00     0.087 C 
BRANCH  11  12
ATOM     12  C   UNL     1      33.578  31.038 -13.175  1.00  0.00     0.066 C 
BRANCH  12  13
ATOM     13  C   UNL     1      33.117  30.128 -12.044  1.00  0.00     0.140 C 
ATOM     14  O   UNL     1      33.486  28.961 -12.018  1.00  0.00    -0.299 OA
BRANCH  13  15
ATOM     15  C   UNL     1      32.211  30.625 -10.945  1.00  0.00     0.106 CG0
ATOM     16  G   UNL     1      30.892  29.872 -10.882  1.00  0.00     0.000 G0
ENDBRANCH  13  15
ENDBRANCH  12  13
BRANCH  12  17
ATOM     17  C   UNL     1      35.118  30.905 -13.433  1.00  0.00    -0.006 C 
ATOM     18  C   UNL     1      35.907  31.929 -12.592  1.00  0.00     0.008 C 
ATOM     19  C   UNL     1      35.494  31.100 -14.915  1.00  0.00     0.008 C 
ENDBRANCH  12  17
ENDBRANCH  11  12
ENDBRANCH   1  11
TORSDOF 1
ENDMDL
