MODEL 1
REMARK VINA RESULT:    -3.445      0.000      0.000
REMARK INTER + INTRA:          -3.495
REMARK INTER:                  -4.250
REMARK INTRA:                   0.756
REMARK UNBOUND:                 0.756
REMARK SMILES CC1=CC=CC(C)(C)CC1=O
REMARK SMILES IDX 1 1 2 2 3 3 10 4 11 5 9 6 4 8 5 9 6 10 7 11 8 12
REMARK H PARENT
REMARK Flexibility Score: 80.00
ROOT
ATOM      1  C   UNL     1      -5.357 -20.670 -18.037  1.00  0.00     0.048 C 
ATOM      2  C   UNL     1      -6.633 -21.427 -17.760  1.00  0.00    -0.008 C 
ATOM      3  C   UNL     1      -7.573 -21.448 -18.730  1.00  0.00     0.007 C 
ENDROOT
BRANCH   2   4
ATOM      4  C   UNL     1      -6.721 -22.152 -16.468  1.00  0.00     0.159 C 
ATOM      5  O   UNL     1      -5.680 -22.273 -15.765  1.00  0.00    -0.295 OA
BRANCH   4   6
ATOM      6  C   UNL     1      -7.990 -22.745 -15.937  1.00  0.00     0.091 CG0
ATOM      7  G   UNL     1      -8.600 -23.814 -16.871  1.00  0.00     0.000 G0
ENDBRANCH   4   6
ENDBRANCH   2   4
BRANCH   3   8
ATOM      8  C   UNL     1      -8.894 -22.117 -18.760  1.00  0.00    -0.003 C 
ATOM      9  C   UNL     1      -9.351 -23.120 -17.998  1.00  0.00    -0.020 C 
BRANCH   9  10
ATOM     10  C   UNL     1      -8.607 -23.803 -16.875  1.00  0.00    -0.010 CG0
ATOM     11  C   UNL     1      -9.624 -24.627 -16.051  1.00  0.00     0.016 C 
ATOM     12  C   UNL     1      -7.559 -24.782 -17.453  1.00  0.00     0.016 C 
ATOM     13  G   UNL     1      -7.981 -22.742 -15.943  1.00  0.00     0.000 G0
ENDBRANCH   9  10
ENDBRANCH   3   8
TORSDOF 0
ENDMDL
MODEL 2
REMARK VINA RESULT:    -3.379      1.667      2.562
REMARK INTER + INTRA:          -3.413
REMARK INTER:                  -4.168
REMARK INTRA:                   0.755
REMARK UNBOUND:                 0.756
REMARK SMILES CC1=CC=CC(C)(C)CC1=O
REMARK SMILES IDX 1 1 2 2 3 3 10 4 11 5 9 6 4 8 5 9 6 10 7 11 8 12
REMARK H PARENT
REMARK Flexibility Score: 80.00
ROOT
ATOM      1  C   UNL     1      -5.627 -19.937 -18.493  1.00  0.00     0.048 C 
ATOM      2  C   UNL     1      -6.042 -21.290 -17.967  1.00  0.00    -0.008 C 
ATOM      3  C   UNL     1      -5.222 -21.896 -17.079  1.00  0.00     0.007 C 
ENDROOT
BRANCH   2   4
ATOM      4  C   UNL     1      -7.358 -21.813 -18.412  1.00  0.00     0.159 C 
ATOM      5  O   UNL     1      -8.139 -21.043 -19.035  1.00  0.00    -0.295 OA
BRANCH   4   6
ATOM      6  C   UNL     1      -7.812 -23.220 -18.173  1.00  0.00     0.091 CG0
ATOM      7  G   UNL     1      -7.868 -23.596 -16.675  1.00  0.00     0.000 G0
ENDBRANCH   4   6
ENDBRANCH   2   4
BRANCH   3   8
ATOM      8  C   UNL     1      -5.371 -23.193 -16.380  1.00  0.00    -0.003 C 
ATOM      9  C   UNL     1      -6.476 -23.925 -16.183  1.00  0.00    -0.020 C 
BRANCH   9  10
ATOM     10  C   UNL     1      -7.867 -23.598 -16.672  1.00  0.00    -0.010 CG0
ATOM     11  C   UNL     1      -8.739 -24.869 -16.536  1.00  0.00     0.016 C 
ATOM     12  C   UNL     1      -8.492 -22.495 -15.788  1.00  0.00     0.016 C 
ATOM     13  G   UNL     1      -7.816 -23.208 -18.166  1.00  0.00     0.000 G0
ENDBRANCH   9  10
ENDBRANCH   3   8
TORSDOF 0
ENDMDL
MODEL 3
REMARK VINA RESULT:    -3.310      5.655      7.447
REMARK INTER + INTRA:          -3.328
REMARK INTER:                  -4.087
REMARK INTRA:                   0.759
REMARK UNBOUND:                 0.756
REMARK SMILES CC1=CC=CC(C)(C)CC1=O
REMARK SMILES IDX 1 1 2 2 3 3 10 4 11 5 9 6 4 8 5 9 6 10 7 11 8 12
REMARK H PARENT
REMARK Flexibility Score: 80.00
ROOT
ATOM      1  C   UNL     1     -10.346 -29.637 -20.626  1.00  0.00     0.048 C 
ATOM      2  C   UNL     1      -8.900 -29.515 -20.209  1.00  0.00    -0.008 C 
ATOM      3  C   UNL     1      -7.989 -29.256 -21.174  1.00  0.00     0.007 C 
ENDROOT
BRANCH   2   4
ATOM      4  C   UNL     1      -8.604 -29.615 -18.758  1.00  0.00     0.159 C 
ATOM      5  O   UNL     1      -9.561 -29.570 -17.937  1.00  0.00    -0.295 OA
BRANCH   4   6
ATOM      6  C   UNL     1      -7.221 -29.780 -18.206  1.00  0.00     0.091 CG0
ATOM      7  G   UNL     1      -6.279 -28.609 -18.562  1.00  0.00     0.000 G0
ENDBRANCH   4   6
ENDBRANCH   2   4
BRANCH   3   8
ATOM      8  C   UNL     1      -6.525 -29.059 -21.071  1.00  0.00    -0.003 C 
ATOM      9  C   UNL     1      -5.784 -28.775 -19.992  1.00  0.00    -0.020 C 
BRANCH   9  10
ATOM     10  C   UNL     1      -6.287 -28.613 -18.577  1.00  0.00    -0.010 CG0
ATOM     11  C   UNL     1      -5.071 -28.666 -17.622  1.00  0.00     0.016 C 
ATOM     12  C   UNL     1      -6.964 -27.233 -18.411  1.00  0.00     0.016 C 
ATOM     13  G   UNL     1      -7.228 -29.785 -18.221  1.00  0.00     0.000 G0
ENDBRANCH   9  10
ENDBRANCH   3   8
TORSDOF 0
ENDMDL
MODEL 4
REMARK VINA RESULT:    -3.302      2.364      3.450
REMARK INTER + INTRA:          -3.318
REMARK INTER:                  -4.080
REMARK INTRA:                   0.762
REMARK UNBOUND:                 0.756
REMARK SMILES CC1=CC=CC(C)(C)CC1=O
REMARK SMILES IDX 1 1 2 2 3 3 10 4 11 5 9 6 4 8 5 9 6 10 7 11 8 12
REMARK H PARENT
REMARK Flexibility Score: 80.00
ROOT
ATOM      1  C   UNL     1      -7.751 -19.706 -19.204  1.00  0.00     0.048 C 
ATOM      2  C   UNL     1      -6.744 -20.703 -18.683  1.00  0.00    -0.008 C 
ATOM      3  C   UNL     1      -5.505 -20.248 -18.390  1.00  0.00     0.007 C 
ENDROOT
BRANCH   2   4
ATOM      4  C   UNL     1      -7.220 -22.091 -18.461  1.00  0.00     0.159 C 
ATOM      5  O   UNL     1      -8.459 -22.324 -18.504  1.00  0.00    -0.295 OA
BRANCH   4   6
ATOM      6  C   UNL     1      -6.304 -23.247 -18.200  1.00  0.00     0.091 CG0
ATOM      7  G   UNL     1      -5.440 -23.066 -16.933  1.00  0.00     0.000 G0
ENDBRANCH   4   6
ENDBRANCH   2   4
BRANCH   3   8
ATOM      8  C   UNL     1      -4.332 -20.969 -17.846  1.00  0.00    -0.003 C 
ATOM      9  C   UNL     1      -4.283 -22.150 -17.214  1.00  0.00    -0.020 C 
BRANCH   9  10
ATOM     10  C   UNL     1      -5.453 -23.060 -16.925  1.00  0.00    -0.010 CG0
ATOM     11  C   UNL     1      -4.898 -24.445 -16.514  1.00  0.00     0.016 C 
ATOM     12  C   UNL     1      -6.275 -22.505 -15.740  1.00  0.00     0.016 C 
ATOM     13  G   UNL     1      -6.300 -23.243 -18.204  1.00  0.00     0.000 G0
ENDBRANCH   9  10
ENDBRANCH   3   8
TORSDOF 0
ENDMDL
MODEL 5
REMARK VINA RESULT:    -3.288      2.379      4.125
REMARK INTER + INTRA:          -3.301
REMARK INTER:                  -4.051
REMARK INTRA:                   0.750
REMARK UNBOUND:                 0.756
REMARK SMILES CC1=CC=CC(C)(C)CC1=O
REMARK SMILES IDX 1 1 2 2 3 3 10 4 11 5 9 6 4 8 5 9 6 10 7 11 8 12
REMARK H PARENT
REMARK Flexibility Score: 80.00
ROOT
ATOM      1  C   UNL     1      -9.324 -27.698 -18.622  1.00  0.00     0.048 C 
ATOM      2  C   UNL     1      -8.710 -26.460 -18.015  1.00  0.00    -0.008 C 
ATOM      3  C   UNL     1      -7.505 -26.064 -18.481  1.00  0.00     0.007 C 
ENDROOT
BRANCH   2   4
ATOM      4  C   UNL     1      -9.517 -25.732 -17.004  1.00  0.00     0.159 C 
ATOM      5  O   UNL     1     -10.726 -26.053 -16.844  1.00  0.00    -0.295 OA
BRANCH   4   6
ATOM      6  C   UNL     1      -8.969 -24.634 -16.144  1.00  0.00     0.091 CG0
ATOM      7  G   UNL     1      -8.419 -23.441 -16.956  1.00  0.00     0.000 G0
ENDBRANCH   4   6
ENDBRANCH   2   4
BRANCH   3   8
ATOM      8  C   UNL     1      -6.677 -24.895 -18.107  1.00  0.00    -0.003 C 
ATOM      9  C   UNL     1      -7.040 -23.769 -17.478  1.00  0.00    -0.020 C 
BRANCH   9  10
ATOM     10  C   UNL     1      -8.421 -23.434 -16.964  1.00  0.00    -0.010 CG0
ATOM     11  C   UNL     1      -8.301 -22.226 -16.006  1.00  0.00     0.016 C 
ATOM     12  C   UNL     1      -9.337 -23.022 -18.139  1.00  0.00     0.016 C 
ATOM     13  G   UNL     1      -8.982 -24.629 -16.162  1.00  0.00     0.000 G0
ENDBRANCH   9  10
ENDBRANCH   3   8
TORSDOF 0
ENDMDL
MODEL 6
REMARK VINA RESULT:    -3.255      2.185      3.876
REMARK INTER + INTRA:          -3.260
REMARK INTER:                  -4.011
REMARK INTRA:                   0.751
REMARK UNBOUND:                 0.756
REMARK SMILES CC1=CC=CC(C)(C)CC1=O
REMARK SMILES IDX 1 1 2 2 3 3 10 4 11 5 9 6 4 8 5 9 6 10 7 11 8 12
REMARK H PARENT
REMARK Flexibility Score: 80.00
ROOT
ATOM      1  C   UNL     1     -10.145 -25.139 -15.809  1.00  0.00     0.048 C 
ATOM      2  C   UNL     1      -9.032 -24.315 -16.409  1.00  0.00    -0.008 C 
ATOM      3  C   UNL     1      -8.807 -23.089 -15.887  1.00  0.00     0.007 C 
ENDROOT
BRANCH   2   4
ATOM      4  C   UNL     1      -8.222 -24.951 -17.478  1.00  0.00     0.159 C 
ATOM      5  O   UNL     1      -8.359 -26.187 -17.692  1.00  0.00    -0.295 OA
BRANCH   4   6
ATOM      6  C   UNL     1      -7.250 -24.201 -18.336  1.00  0.00     0.091 CG0
ATOM      7  G   UNL     1      -6.121 -23.524 -17.528  1.00  0.00     0.000 G0
ENDBRANCH   4   6
ENDBRANCH   2   4
BRANCH   3   8
ATOM      8  C   UNL     1      -7.786 -22.077 -16.243  1.00  0.00    -0.003 C 
ATOM      9  C   UNL     1      -6.642 -22.232 -16.923  1.00  0.00    -0.020 C 
BRANCH   9  10
ATOM     10  C   UNL     1      -6.127 -23.516 -17.528  1.00  0.00    -0.010 CG0
ATOM     11  C   UNL     1      -4.990 -23.164 -18.516  1.00  0.00     0.016 C 
ATOM     12  C   UNL     1      -5.536 -24.422 -16.424  1.00  0.00     0.016 C 
ATOM     13  G   UNL     1      -7.257 -24.208 -18.324  1.00  0.00     0.000 G0
ENDBRANCH   9  10
ENDBRANCH   3   8
TORSDOF 0
ENDMDL
MODEL 7
REMARK VINA RESULT:    -3.254      1.293      1.577
REMARK INTER + INTRA:          -3.259
REMARK INTER:                  -4.013
REMARK INTRA:                   0.754
REMARK UNBOUND:                 0.756
REMARK SMILES CC1=CC=CC(C)(C)CC1=O
REMARK SMILES IDX 1 1 2 2 3 3 10 4 11 5 9 6 4 8 5 9 6 10 7 11 8 12
REMARK H PARENT
REMARK Flexibility Score: 80.00
ROOT
ATOM      1  C   UNL     1      -3.873 -20.243 -17.975  1.00  0.00     0.048 C 
ATOM      2  C   UNL     1      -5.158 -20.981 -17.685  1.00  0.00    -0.008 C 
ATOM      3  C   UNL     1      -6.241 -20.672 -18.434  1.00  0.00     0.007 C 
ENDROOT
BRANCH   2   4
ATOM      4  C   UNL     1      -5.109 -22.042 -16.649  1.00  0.00     0.159 C 
ATOM      5  O   UNL     1      -3.985 -22.421 -16.219  1.00  0.00    -0.295 OA
BRANCH   4   6
ATOM      6  C   UNL     1      -6.330 -22.688 -16.069  1.00  0.00     0.091 CG0
ATOM      7  G   UNL     1      -7.201 -23.404 -17.125  1.00  0.00     0.000 G0
ENDBRANCH   4   6
ENDBRANCH   2   4
BRANCH   3   8
ATOM      8  C   UNL     1      -7.610 -21.235 -18.402  1.00  0.00    -0.003 C 
ATOM      9  C   UNL     1      -8.038 -22.388 -17.871  1.00  0.00    -0.020 C 
BRANCH   9  10
ATOM     10  C   UNL     1      -7.197 -23.401 -17.132  1.00  0.00    -0.010 CG0
ATOM     11  C   UNL     1      -8.147 -24.373 -16.393  1.00  0.00     0.016 C 
ATOM     12  C   UNL     1      -6.359 -24.225 -18.135  1.00  0.00     0.016 C 
ATOM     13  G   UNL     1      -6.327 -22.685 -16.075  1.00  0.00     0.000 G0
ENDBRANCH   9  10
ENDBRANCH   3   8
TORSDOF 0
ENDMDL
MODEL 8
REMARK VINA RESULT:    -3.152      1.441      3.599
REMARK INTER + INTRA:          -3.133
REMARK INTER:                  -3.894
REMARK INTRA:                   0.761
REMARK UNBOUND:                 0.756
REMARK SMILES CC1=CC=CC(C)(C)CC1=O
REMARK SMILES IDX 1 1 2 2 3 3 10 4 11 5 9 6 4 8 5 9 6 10 7 11 8 12
REMARK H PARENT
REMARK Flexibility Score: 80.00
ROOT
ATOM      1  C   UNL     1      -9.556 -24.674 -16.028  1.00  0.00     0.048 C 
ATOM      2  C   UNL     1      -8.363 -24.061 -16.720  1.00  0.00    -0.008 C 
ATOM      3  C   UNL     1      -7.873 -24.698 -17.806  1.00  0.00     0.007 C 
ENDROOT
BRANCH   2   4
ATOM      4  C   UNL     1      -7.870 -22.764 -16.194  1.00  0.00     0.159 C 
ATOM      5  O   UNL     1      -8.576 -22.138 -15.357  1.00  0.00    -0.295 OA
BRANCH   4   6
ATOM      6  C   UNL     1      -6.562 -22.153 -16.594  1.00  0.00     0.091 CG0
ATOM      7  G   UNL     1      -6.457 -21.879 -18.111  1.00  0.00     0.000 G0
ENDBRANCH   4   6
ENDBRANCH   2   4
BRANCH   3   8
ATOM      8  C   UNL     1      -6.747 -24.333 -18.696  1.00  0.00    -0.003 C 
ATOM      9  C   UNL     1      -6.143 -23.146 -18.851  1.00  0.00    -0.020 C 
BRANCH   9  10
ATOM     10  C   UNL     1      -6.467 -21.872 -18.108  1.00  0.00    -0.010 CG0
ATOM     11  C   UNL     1      -5.309 -20.872 -18.335  1.00  0.00     0.016 C 
ATOM     12  C   UNL     1      -7.759 -21.242 -18.676  1.00  0.00     0.016 C 
ATOM     13  G   UNL     1      -6.561 -22.162 -16.593  1.00  0.00     0.000 G0
ENDBRANCH   9  10
ENDBRANCH   3   8
TORSDOF 0
ENDMDL
MODEL 9
REMARK VINA RESULT:    -3.108     16.418     17.222
REMARK INTER + INTRA:          -3.079
REMARK INTER:                  -3.829
REMARK INTRA:                   0.750
REMARK UNBOUND:                 0.756
REMARK SMILES CC1=CC=CC(C)(C)CC1=O
REMARK SMILES IDX 1 1 2 2 3 3 10 4 11 5 9 6 4 8 5 9 6 10 7 11 8 12
REMARK H PARENT
REMARK Flexibility Score: 80.00
ROOT
ATOM      1  C   UNL     1     -11.562 -31.929  -4.505  1.00  0.00     0.048 C 
ATOM      2  C   UNL     1     -10.682 -33.137  -4.720  1.00  0.00    -0.008 C 
ATOM      3  C   UNL     1     -10.748 -33.754  -5.920  1.00  0.00     0.007 C 
ENDROOT
BRANCH   2   4
ATOM      4  C   UNL     1      -9.757 -33.503  -3.618  1.00  0.00     0.159 C 
ATOM      5  O   UNL     1      -9.610 -32.702  -2.655  1.00  0.00    -0.295 OA
BRANCH   4   6
ATOM      6  C   UNL     1      -8.989 -34.789  -3.577  1.00  0.00     0.091 CG0
ATOM      7  G   UNL     1      -8.055 -34.980  -4.792  1.00  0.00     0.000 G0
ENDBRANCH   4   6
ENDBRANCH   2   4
BRANCH   3   8
ATOM      8  C   UNL     1      -9.999 -34.927  -6.427  1.00  0.00    -0.003 C 
ATOM      9  C   UNL     1      -8.856 -35.460  -5.977  1.00  0.00    -0.020 C 
BRANCH   9  10
ATOM     10  C   UNL     1      -8.054 -34.987  -4.788  1.00  0.00    -0.010 CG0
ATOM     11  C   UNL     1      -7.036 -36.092  -4.419  1.00  0.00     0.016 C 
ATOM     12  C   UNL     1      -7.260 -33.713  -5.158  1.00  0.00     0.016 C 
ATOM     13  G   UNL     1      -8.991 -34.774  -3.578  1.00  0.00     0.000 G0
ENDBRANCH   9  10
ENDBRANCH   3   8
TORSDOF 0
ENDMDL
