MODEL 1
REMARK VINA RESULT:    -3.378      0.000      0.000
REMARK INTER + INTRA:          -5.363
REMARK INTER:                  -5.155
REMARK INTRA:                  -0.208
REMARK UNBOUND:                -0.208
REMARK SMILES CC1=CCC[C@H](C)C(=O)C[C@H](C(C)C)C(=O)C1
REMARK SMILES IDX 8 1 9 2 6 3 7 4 5 5 4 6 3 7 2 8 1 9 10 11 11 12 15 13 16 14
REMARK SMILES IDX 17 15 12 17 13 18 14 19
REMARK H PARENT
REMARK Flexibility Score: 70.00
ROOT
ATOM      1  C   UNL     1       3.514  25.168   4.720  1.00  0.00     0.136 C 
ATOM      2  O   UNL     1       4.176  26.003   4.122  1.00  0.00    -0.299 OA
ENDROOT
BRANCH   1   3
ATOM      3  C   UNL     1       3.561  25.106   6.241  1.00  0.00     0.053 C 
ATOM      4  C   UNL     1       2.765  26.247   6.896  1.00  0.00     0.016 C 
BRANCH   3   5
ATOM      5  C   UNL     1       3.111  23.727   6.770  1.00  0.00     0.015 C 
BRANCH   5   6
ATOM      6  C   UNL     1       4.279  22.743   6.967  1.00  0.00     0.028 C 
BRANCH   6   7
ATOM      7  C   UNL     1       3.858  21.296   6.999  1.00  0.00    -0.028 C 
ATOM      8  C   UNL     1       3.649  20.489   5.926  1.00  0.00    -0.070 CG0
ATOM      9  C   UNL     1       3.076  19.119   6.201  1.00  0.00     0.039 C 
ATOM     10  G   UNL     1       4.050  20.821   4.490  1.00  0.00     0.000 G0
ENDBRANCH   6   7
ENDBRANCH   5   6
ENDBRANCH   3   5
ENDBRANCH   1   3
BRANCH   1  11
ATOM     11  C   UNL     1       2.661  24.192   3.939  1.00  0.00     0.087 C 
BRANCH  11  12
ATOM     12  C   UNL     1       3.429  23.045   3.214  1.00  0.00     0.066 C 
BRANCH  12  13
ATOM     13  C   UNL     1       3.040  21.651   3.691  1.00  0.00     0.140 C 
ATOM     14  O   UNL     1       1.978  21.152   3.347  1.00  0.00    -0.299 OA
BRANCH  13  15
ATOM     15  C   UNL     1       4.036  20.827   4.469  1.00  0.00     0.106 CG0
ATOM     16  G   UNL     1       3.644  20.493   5.907  1.00  0.00     0.000 G0
ENDBRANCH  13  15
ENDBRANCH  12  13
BRANCH  12  17
ATOM     17  C   UNL     1       3.498  23.160   1.654  1.00  0.00    -0.006 C 
ATOM     18  C   UNL     1       3.881  24.555   1.137  1.00  0.00     0.008 C 
ATOM     19  C   UNL     1       4.439  22.105   1.046  1.00  0.00     0.008 C 
ENDBRANCH  12  17
ENDBRANCH  11  12
ENDBRANCH   1  11
TORSDOF 1
ENDMDL
MODEL 2
REMARK VINA RESULT:    -3.338      2.055      3.809
REMARK INTER + INTRA:          -5.302
REMARK INTER:                  -5.125
REMARK INTRA:                  -0.177
REMARK UNBOUND:                -0.208
REMARK SMILES CC1=CCC[C@H](C)C(=O)C[C@H](C(C)C)C(=O)C1
REMARK SMILES IDX 8 1 9 2 6 3 7 4 5 5 4 6 3 7 2 8 1 9 10 11 11 12 15 13 16 14
REMARK SMILES IDX 17 15 12 17 13 18 14 19
REMARK H PARENT
REMARK Flexibility Score: 70.00
ROOT
ATOM      1  C   UNL     1       4.910  20.348   4.781  1.00  0.00     0.136 C 
ATOM      2  O   UNL     1       5.755  19.474   4.905  1.00  0.00    -0.299 OA
ENDROOT
BRANCH   1   3
ATOM      3  C   UNL     1       3.779  20.463   5.796  1.00  0.00     0.053 C 
ATOM      4  C   UNL     1       3.304  19.089   6.296  1.00  0.00     0.016 C 
BRANCH   3   5
ATOM      5  C   UNL     1       4.159  21.392   6.969  1.00  0.00     0.015 C 
BRANCH   5   6
ATOM      6  C   UNL     1       4.032  22.887   6.622  1.00  0.00     0.028 C 
BRANCH   6   7
ATOM      7  C   UNL     1       2.651  23.294   6.176  1.00  0.00    -0.028 C 
ATOM      8  C   UNL     1       2.284  23.683   4.927  1.00  0.00    -0.070 CG0
ATOM      9  C   UNL     1       0.875  24.199   4.757  1.00  0.00     0.039 C 
ATOM     10  G   UNL     1       3.149  23.536   3.677  1.00  0.00     0.000 G0
ENDBRANCH   6   7
ENDBRANCH   5   6
ENDBRANCH   3   5
ENDBRANCH   1   3
BRANCH   1  11
ATOM     11  C   UNL     1       4.990  21.305   3.611  1.00  0.00     0.087 C 
BRANCH  11  12
ATOM     12  C   UNL     1       3.800  21.251   2.606  1.00  0.00     0.066 C 
BRANCH  12  13
ATOM     13  C   UNL     1       2.828  22.416   2.745  1.00  0.00     0.140 C 
ATOM     14  O   UNL     1       1.733  22.378   2.202  1.00  0.00    -0.299 OA
BRANCH  13  15
ATOM     15  C   UNL     1       3.161  23.554   3.678  1.00  0.00     0.106 CG0
ATOM     16  G   UNL     1       2.263  23.693   4.905  1.00  0.00     0.000 G0
ENDBRANCH  13  15
ENDBRANCH  12  13
BRANCH  12  17
ATOM     17  C   UNL     1       4.187  20.953   1.118  1.00  0.00    -0.006 C 
ATOM     18  C   UNL     1       4.917  22.105   0.410  1.00  0.00     0.008 C 
ATOM     19  C   UNL     1       5.012  19.660   0.991  1.00  0.00     0.008 C 
ENDBRANCH  12  17
ENDBRANCH  11  12
ENDBRANCH   1  11
TORSDOF 1
ENDMDL
MODEL 3
REMARK VINA RESULT:    -3.299      2.309      5.291
REMARK INTER + INTRA:          -5.243
REMARK INTER:                  -4.807
REMARK INTRA:                  -0.436
REMARK UNBOUND:                -0.208
REMARK SMILES CC1=CCC[C@H](C)C(=O)C[C@H](C(C)C)C(=O)C1
REMARK SMILES IDX 8 1 9 2 6 3 7 4 5 5 4 6 3 7 2 8 1 9 10 11 11 12 15 13 16 14
REMARK SMILES IDX 17 15 12 17 13 18 14 19
REMARK H PARENT
REMARK Flexibility Score: 70.00
ROOT
ATOM      1  C   UNL     1       4.065  20.737   4.471  1.00  0.00     0.136 C 
ATOM      2  O   UNL     1       4.089  19.903   5.364  1.00  0.00    -0.299 OA
ENDROOT
BRANCH   1   3
ATOM      3  C   UNL     1       5.284  20.932   3.579  1.00  0.00     0.053 C 
ATOM      4  C   UNL     1       6.507  20.148   4.084  1.00  0.00     0.016 C 
BRANCH   3   5
ATOM      5  C   UNL     1       4.969  20.601   2.104  1.00  0.00     0.015 C 
BRANCH   5   6
ATOM      6  C   UNL     1       5.016  21.835   1.184  1.00  0.00     0.028 C 
BRANCH   6   7
ATOM      7  C   UNL     1       3.692  22.168   0.544  1.00  0.00    -0.028 C 
ATOM      8  C   UNL     1       2.795  23.095   0.972  1.00  0.00    -0.070 CG0
ATOM      9  C   UNL     1       1.465  23.140   0.260  1.00  0.00     0.039 C 
ATOM     10  G   UNL     1       3.074  24.154   2.037  1.00  0.00     0.000 G0
ENDBRANCH   6   7
ENDBRANCH   5   6
ENDBRANCH   3   5
ENDBRANCH   1   3
BRANCH   1  11
ATOM     11  C   UNL     1       2.824  21.579   4.268  1.00  0.00     0.087 C 
BRANCH  11  12
ATOM     12  C   UNL     1       3.004  23.116   4.463  1.00  0.00     0.066 C 
BRANCH  12  13
ATOM     13  C   UNL     1       2.364  23.952   3.362  1.00  0.00     0.140 C 
ATOM     14  O   UNL     1       1.331  24.570   3.574  1.00  0.00    -0.299 OA
BRANCH  13  15
ATOM     15  C   UNL     1       3.090  24.135   2.051  1.00  0.00     0.106 CG0
ATOM     16  G   UNL     1       2.781  23.100   0.971  1.00  0.00     0.000 G0
ENDBRANCH  13  15
ENDBRANCH  12  13
BRANCH  12  17
ATOM     17  C   UNL     1       2.691  23.655   5.899  1.00  0.00    -0.006 C 
ATOM     18  C   UNL     1       2.044  22.624   6.836  1.00  0.00     0.008 C 
ATOM     19  C   UNL     1       3.941  24.252   6.570  1.00  0.00     0.008 C 
ENDBRANCH  12  17
ENDBRANCH  11  12
ENDBRANCH   1  11
TORSDOF 1
ENDMDL
MODEL 4
REMARK VINA RESULT:    -3.293      1.601      4.082
REMARK INTER + INTRA:          -5.232
REMARK INTER:                  -4.987
REMARK INTRA:                  -0.245
REMARK UNBOUND:                -0.208
REMARK SMILES CC1=CCC[C@H](C)C(=O)C[C@H](C(C)C)C(=O)C1
REMARK SMILES IDX 8 1 9 2 6 3 7 4 5 5 4 6 3 7 2 8 1 9 10 11 11 12 15 13 16 14
REMARK SMILES IDX 17 15 12 17 13 18 14 19
REMARK H PARENT
REMARK Flexibility Score: 70.00
ROOT
ATOM      1  C   UNL     1       3.522  24.389   6.272  1.00  0.00     0.136 C 
ATOM      2  O   UNL     1       3.995  25.471   6.588  1.00  0.00    -0.299 OA
ENDROOT
BRANCH   1   3
ATOM      3  C   UNL     1       2.212  24.330   5.496  1.00  0.00     0.053 C 
ATOM      4  C   UNL     1       1.115  25.194   6.138  1.00  0.00     0.016 C 
BRANCH   3   5
ATOM      5  C   UNL     1       2.415  24.687   4.008  1.00  0.00     0.015 C 
BRANCH   5   6
ATOM      6  C   UNL     1       1.931  23.583   3.049  1.00  0.00     0.028 C 
BRANCH   6   7
ATOM      7  C   UNL     1       3.011  23.043   2.145  1.00  0.00    -0.028 C 
ATOM      8  C   UNL     1       3.841  22.000   2.407  1.00  0.00    -0.070 CG0
ATOM      9  C   UNL     1       4.951  21.744   1.417  1.00  0.00     0.039 C 
ATOM     10  G   UNL     1       3.667  21.013   3.559  1.00  0.00     0.000 G0
ENDBRANCH   6   7
ENDBRANCH   5   6
ENDBRANCH   3   5
ENDBRANCH   1   3
BRANCH   1  11
ATOM     11  C   UNL     1       4.239  23.116   6.665  1.00  0.00     0.087 C 
BRANCH  11  12
ATOM     12  C   UNL     1       3.669  21.799   6.055  1.00  0.00     0.066 C 
BRANCH  12  13
ATOM     13  C   UNL     1       4.426  21.318   4.823  1.00  0.00     0.140 C 
ATOM     14  O   UNL     1       5.620  21.065   4.888  1.00  0.00    -0.299 OA
BRANCH  13  15
ATOM     15  C   UNL     1       3.665  21.011   3.557  1.00  0.00     0.106 CG0
ATOM     16  G   UNL     1       3.846  22.008   2.414  1.00  0.00     0.000 G0
ENDBRANCH  13  15
ENDBRANCH  12  13
BRANCH  12  17
ATOM     17  C   UNL     1       3.379  20.651   7.080  1.00  0.00    -0.006 C 
ATOM     18  C   UNL     1       2.259  20.966   8.084  1.00  0.00     0.008 C 
ATOM     19  C   UNL     1       3.081  19.317   6.373  1.00  0.00     0.008 C 
ENDBRANCH  12  17
ENDBRANCH  11  12
ENDBRANCH   1  11
TORSDOF 1
ENDMDL
MODEL 5
REMARK VINA RESULT:    -3.147      1.795      2.478
REMARK INTER + INTRA:          -5.010
REMARK INTER:                  -4.405
REMARK INTRA:                  -0.605
REMARK UNBOUND:                -0.208
REMARK SMILES CC1=CCC[C@H](C)C(=O)C[C@H](C(C)C)C(=O)C1
REMARK SMILES IDX 8 1 9 2 6 3 7 4 5 5 4 6 3 7 2 8 1 9 10 11 11 12 15 13 16 14
REMARK SMILES IDX 17 15 12 17 13 18 14 19
REMARK H PARENT
REMARK Flexibility Score: 70.00
ROOT
ATOM      1  C   UNL     1       2.015  23.492   5.656  1.00  0.00     0.136 C 
ATOM      2  O   UNL     1       1.267  23.249   6.591  1.00  0.00    -0.299 OA
ENDROOT
BRANCH   1   3
ATOM      3  C   UNL     1       3.454  23.914   5.923  1.00  0.00     0.053 C 
ATOM      4  C   UNL     1       3.546  25.325   6.525  1.00  0.00     0.016 C 
BRANCH   3   5
ATOM      5  C   UNL     1       4.199  22.878   6.793  1.00  0.00     0.015 C 
BRANCH   5   6
ATOM      6  C   UNL     1       4.105  21.444   6.240  1.00  0.00     0.028 C 
BRANCH   6   7
ATOM      7  C   UNL     1       5.016  21.182   5.067  1.00  0.00    -0.028 C 
ATOM      8  C   UNL     1       4.636  20.864   3.802  1.00  0.00    -0.070 CG0
ATOM      9  C   UNL     1       5.732  20.490   2.832  1.00  0.00     0.039 C 
ATOM     10  G   UNL     1       3.209  20.963   3.266  1.00  0.00     0.000 G0
ENDBRANCH   6   7
ENDBRANCH   5   6
ENDBRANCH   3   5
ENDBRANCH   1   3
BRANCH   1  11
ATOM     11  C   UNL     1       1.499  23.380   4.238  1.00  0.00     0.087 C 
BRANCH  11  12
ATOM     12  C   UNL     1       2.570  23.513   3.112  1.00  0.00     0.066 C 
BRANCH  12  13
ATOM     13  C   UNL     1       2.896  22.195   2.419  1.00  0.00     0.140 C 
ATOM     14  O   UNL     1       3.031  22.150   1.205  1.00  0.00    -0.299 OA
BRANCH  13  15
ATOM     15  C   UNL     1       3.198  20.974   3.252  1.00  0.00     0.106 CG0
ATOM     16  G   UNL     1       4.625  20.872   3.788  1.00  0.00     0.000 G0
ENDBRANCH  13  15
ENDBRANCH  12  13
BRANCH  12  17
ATOM     17  C   UNL     1       2.349  24.693   2.107  1.00  0.00    -0.006 C 
ATOM     18  C   UNL     1       1.062  25.497   2.345  1.00  0.00     0.008 C 
ATOM     19  C   UNL     1       3.557  25.647   2.073  1.00  0.00     0.008 C 
ENDBRANCH  12  17
ENDBRANCH  11  12
ENDBRANCH   1  11
TORSDOF 1
ENDMDL
MODEL 6
REMARK VINA RESULT:    -3.135      2.003      5.241
REMARK INTER + INTRA:          -4.993
REMARK INTER:                  -5.211
REMARK INTRA:                   0.218
REMARK UNBOUND:                -0.208
REMARK SMILES CC1=CCC[C@H](C)C(=O)C[C@H](C(C)C)C(=O)C1
REMARK SMILES IDX 8 1 9 2 6 3 7 4 5 5 4 6 3 7 2 8 1 9 10 11 11 12 15 13 16 14
REMARK SMILES IDX 17 15 12 17 13 18 14 19
REMARK H PARENT
REMARK Flexibility Score: 70.00
ROOT
ATOM      1  C   UNL     1       4.577  20.953   3.689  1.00  0.00     0.136 C 
ATOM      2  O   UNL     1       5.746  20.620   3.817  1.00  0.00    -0.299 OA
ENDROOT
BRANCH   1   3
ATOM      3  C   UNL     1       4.132  21.703   2.441  1.00  0.00     0.053 C 
ATOM      4  C   UNL     1       4.955  21.314   1.202  1.00  0.00     0.016 C 
BRANCH   3   5
ATOM      5  C   UNL     1       2.617  21.540   2.188  1.00  0.00     0.015 C 
BRANCH   5   6
ATOM      6  C   UNL     1       1.790  22.747   2.668  1.00  0.00     0.028 C 
BRANCH   6   7
ATOM      7  C   UNL     1       2.625  23.889   3.189  1.00  0.00    -0.028 C 
ATOM      8  C   UNL     1       2.856  24.195   4.493  1.00  0.00    -0.070 CG0
ATOM      9  C   UNL     1       3.594  25.482   4.773  1.00  0.00     0.039 C 
ATOM     10  G   UNL     1       2.523  23.288   5.676  1.00  0.00     0.000 G0
ENDBRANCH   6   7
ENDBRANCH   5   6
ENDBRANCH   3   5
ENDBRANCH   1   3
BRANCH   1  11
ATOM     11  C   UNL     1       3.583  20.623   4.782  1.00  0.00     0.087 C 
BRANCH  11  12
ATOM     12  C   UNL     1       3.936  21.155   6.204  1.00  0.00     0.066 C 
BRANCH  12  13
ATOM     13  C   UNL     1       3.678  22.647   6.382  1.00  0.00     0.140 C 
ATOM     14  O   UNL     1       4.473  23.345   6.993  1.00  0.00    -0.299 OA
BRANCH  13  15
ATOM     15  C   UNL     1       2.511  23.288   5.672  1.00  0.00     0.106 CG0
ATOM     16  G   UNL     1       2.864  24.194   4.494  1.00  0.00     0.000 G0
ENDBRANCH  13  15
ENDBRANCH  12  13
BRANCH  12  17
ATOM     17  C   UNL     1       3.398  20.297   7.398  1.00  0.00    -0.006 C 
ATOM     18  C   UNL     1       2.285  20.973   8.215  1.00  0.00     0.008 C 
ATOM     19  C   UNL     1       2.930  18.906   6.936  1.00  0.00     0.008 C 
ENDBRANCH  12  17
ENDBRANCH  11  12
ENDBRANCH   1  11
TORSDOF 1
ENDMDL
MODEL 7
REMARK VINA RESULT:    -3.117      2.166      4.530
REMARK INTER + INTRA:          -4.964
REMARK INTER:                  -5.035
REMARK INTRA:                   0.071
REMARK UNBOUND:                -0.208
REMARK SMILES CC1=CCC[C@H](C)C(=O)C[C@H](C(C)C)C(=O)C1
REMARK SMILES IDX 8 1 9 2 6 3 7 4 5 5 4 6 3 7 2 8 1 9 10 11 11 12 15 13 16 14
REMARK SMILES IDX 17 15 12 17 13 18 14 19
REMARK H PARENT
REMARK Flexibility Score: 70.00
ROOT
ATOM      1  C   UNL     1       3.363  19.217   6.221  1.00  0.00     0.136 C 
ATOM      2  O   UNL     1       3.747  18.182   6.744  1.00  0.00    -0.299 OA
ENDROOT
BRANCH   1   3
ATOM      3  C   UNL     1       1.871  19.485   6.070  1.00  0.00     0.053 C 
ATOM      4  C   UNL     1       1.078  18.206   5.753  1.00  0.00     0.016 C 
BRANCH   3   5
ATOM      5  C   UNL     1       1.296  20.215   7.303  1.00  0.00     0.015 C 
BRANCH   5   6
ATOM      6  C   UNL     1       2.089  21.480   7.681  1.00  0.00     0.028 C 
BRANCH   6   7
ATOM      7  C   UNL     1       1.571  22.740   7.034  1.00  0.00    -0.028 C 
ATOM      8  C   UNL     1       2.216  23.501   6.111  1.00  0.00    -0.070 CG0
ATOM      9  C   UNL     1       1.563  24.807   5.725  1.00  0.00     0.039 C 
ATOM     10  G   UNL     1       3.481  23.085   5.364  1.00  0.00     0.000 G0
ENDBRANCH   6   7
ENDBRANCH   5   6
ENDBRANCH   3   5
ENDBRANCH   1   3
BRANCH   1  11
ATOM     11  C   UNL     1       4.377  20.220   5.716  1.00  0.00     0.087 C 
BRANCH  11  12
ATOM     12  C   UNL     1       4.125  20.780   4.282  1.00  0.00     0.066 C 
BRANCH  12  13
ATOM     13  C   UNL     1       3.298  22.060   4.261  1.00  0.00     0.140 C 
ATOM     14  O   UNL     1       2.409  22.210   3.436  1.00  0.00    -0.299 OA
BRANCH  13  15
ATOM     15  C   UNL     1       3.482  23.080   5.358  1.00  0.00     0.106 CG0
ATOM     16  G   UNL     1       2.213  23.491   6.102  1.00  0.00     0.000 G0
ENDBRANCH  13  15
ENDBRANCH  12  13
BRANCH  12  17
ATOM     17  C   UNL     1       5.384  20.851   3.354  1.00  0.00    -0.006 C 
ATOM     18  C   UNL     1       6.519  19.894   3.751  1.00  0.00     0.008 C 
ATOM     19  C   UNL     1       5.017  20.635   1.876  1.00  0.00     0.008 C 
ENDBRANCH  12  17
ENDBRANCH  11  12
ENDBRANCH   1  11
TORSDOF 1
ENDMDL
MODEL 8
REMARK VINA RESULT:    -3.034      2.503      4.285
REMARK INTER + INTRA:          -4.837
REMARK INTER:                  -4.563
REMARK INTRA:                  -0.275
REMARK UNBOUND:                -0.208
REMARK SMILES CC1=CCC[C@H](C)C(=O)C[C@H](C(C)C)C(=O)C1
REMARK SMILES IDX 8 1 9 2 6 3 7 4 5 5 4 6 3 7 2 8 1 9 10 11 11 12 15 13 16 14
REMARK SMILES IDX 17 15 12 17 13 18 14 19
REMARK H PARENT
REMARK Flexibility Score: 70.00
ROOT
ATOM      1  C   UNL     1       3.507  20.631   5.595  1.00  0.00     0.136 C 
ATOM      2  O   UNL     1       3.559  19.710   6.396  1.00  0.00    -0.299 OA
ENDROOT
BRANCH   1   3
ATOM      3  C   UNL     1       4.644  21.642   5.522  1.00  0.00     0.053 C 
ATOM      4  C   UNL     1       4.901  22.328   6.873  1.00  0.00     0.016 C 
BRANCH   3   5
ATOM      5  C   UNL     1       5.933  21.008   4.955  1.00  0.00     0.015 C 
BRANCH   5   6
ATOM      6  C   UNL     1       5.688  20.171   3.686  1.00  0.00     0.028 C 
BRANCH   6   7
ATOM      7  C   UNL     1       5.695  20.978   2.412  1.00  0.00    -0.028 C 
ATOM      8  C   UNL     1       4.686  21.073   1.508  1.00  0.00    -0.070 CG0
ATOM      9  C   UNL     1       4.983  21.815   0.226  1.00  0.00     0.039 C 
ATOM     10  G   UNL     1       3.257  20.586   1.737  1.00  0.00     0.000 G0
ENDBRANCH   6   7
ENDBRANCH   5   6
ENDBRANCH   3   5
ENDBRANCH   1   3
BRANCH   1  11
ATOM     11  C   UNL     1       2.302  20.766   4.688  1.00  0.00     0.087 C 
BRANCH  11  12
ATOM     12  C   UNL     1       2.308  21.993   3.727  1.00  0.00     0.066 C 
BRANCH  12  13
ATOM     13  C   UNL     1       2.272  21.615   2.251  1.00  0.00     0.140 C 
ATOM     14  O   UNL     1       1.549  22.221   1.473  1.00  0.00    -0.299 OA
BRANCH  13  15
ATOM     15  C   UNL     1       3.243  20.587   1.724  1.00  0.00     0.106 CG0
ATOM     16  G   UNL     1       4.678  21.069   1.524  1.00  0.00     0.000 G0
ENDBRANCH  13  15
ENDBRANCH  12  13
BRANCH  12  17
ATOM     17  C   UNL     1       1.304  23.139   4.088  1.00  0.00    -0.006 C 
ATOM     18  C   UNL     1       1.054  23.311   5.594  1.00  0.00     0.008 C 
ATOM     19  C   UNL     1       1.729  24.485   3.476  1.00  0.00     0.008 C 
ENDBRANCH  12  17
ENDBRANCH  11  12
ENDBRANCH   1  11
TORSDOF 1
ENDMDL
MODEL 9
REMARK VINA RESULT:    -2.935      2.130      5.566
REMARK INTER + INTRA:          -4.687
REMARK INTER:                  -4.263
REMARK INTRA:                  -0.424
REMARK UNBOUND:                -0.208
REMARK SMILES CC1=CCC[C@H](C)C(=O)C[C@H](C(C)C)C(=O)C1
REMARK SMILES IDX 8 1 9 2 6 3 7 4 5 5 4 6 3 7 2 8 1 9 10 11 11 12 15 13 16 14
REMARK SMILES IDX 17 15 12 17 13 18 14 19
REMARK H PARENT
REMARK Flexibility Score: 70.00
ROOT
ATOM      1  C   UNL     1       2.898  20.997   2.464  1.00  0.00     0.136 C 
ATOM      2  O   UNL     1       2.360  19.948   2.143  1.00  0.00    -0.299 OA
ENDROOT
BRANCH   1   3
ATOM      3  C   UNL     1       4.016  21.572   1.604  1.00  0.00     0.053 C 
ATOM      4  C   UNL     1       4.970  20.485   1.083  1.00  0.00     0.016 C 
BRANCH   3   5
ATOM      5  C   UNL     1       3.461  22.437   0.452  1.00  0.00     0.015 C 
BRANCH   5   6
ATOM      6  C   UNL     1       2.474  23.519   0.929  1.00  0.00     0.028 C 
BRANCH   6   7
ATOM      7  C   UNL     1       3.141  24.775   1.430  1.00  0.00    -0.028 C 
ATOM      8  C   UNL     1       2.959  25.361   2.642  1.00  0.00    -0.070 CG0
ATOM      9  C   UNL     1       3.616  26.704   2.858  1.00  0.00     0.039 C 
ATOM     10  G   UNL     1       2.239  24.718   3.825  1.00  0.00     0.000 G0
ENDBRANCH   6   7
ENDBRANCH   5   6
ENDBRANCH   3   5
ENDBRANCH   1   3
BRANCH   1  11
ATOM     11  C   UNL     1       2.454  21.710   3.723  1.00  0.00     0.087 C 
BRANCH  11  12
ATOM     12  C   UNL     1       3.548  22.549   4.451  1.00  0.00     0.066 C 
BRANCH  12  13
ATOM     13  C   UNL     1       3.101  23.961   4.807  1.00  0.00     0.140 C 
ATOM     14  O   UNL     1       3.531  24.514   5.809  1.00  0.00    -0.299 OA
BRANCH  13  15
ATOM     15  C   UNL     1       2.239  24.733   3.838  1.00  0.00     0.106 CG0
ATOM     16  G   UNL     1       2.968  25.353   2.648  1.00  0.00     0.000 G0
ENDBRANCH  13  15
ENDBRANCH  12  13
BRANCH  12  17
ATOM     17  C   UNL     1       4.280  21.824   5.631  1.00  0.00    -0.006 C 
ATOM     18  C   UNL     1       3.357  20.990   6.532  1.00  0.00     0.008 C 
ATOM     19  C   UNL     1       5.444  20.952   5.131  1.00  0.00     0.008 C 
ENDBRANCH  12  17
ENDBRANCH  11  12
ENDBRANCH   1  11
TORSDOF 1
ENDMDL
