MODEL 1
REMARK VINA RESULT:     1.565      0.000      0.000
REMARK INTER + INTRA:           1.740
REMARK INTER:                   1.793
REMARK INTRA:                  -0.053
REMARK UNBOUND:                -0.053
REMARK SMILES O=C([O-])c1cc(O)c(O)c(O)c1
REMARK SMILES IDX 4 1 5 2 12 3 6 4 10 5 8 6 2 7 1 8 3 9 7 10 11 12 9 14
REMARK H PARENT 7 11 11 13 9 15
REMARK Flexibility Score: inf
ROOT
ATOM      1  C   UNL     1      24.936 104.529  59.685  1.00  0.00     0.005 A 
ATOM      2  C   UNL     1      26.083 104.484  60.495  1.00  0.00     0.060 A 
ATOM      3  C   UNL     1      24.020 105.580  59.857  1.00  0.00     0.060 A 
ATOM      4  C   UNL     1      26.313 105.472  61.462  1.00  0.00     0.162 A 
ATOM      5  C   UNL     1      24.243 106.572  60.819  1.00  0.00     0.162 A 
ATOM      6  C   UNL     1      25.392 106.521  61.626  1.00  0.00     0.200 A 
ENDROOT
BRANCH   1   7
ATOM      7  C   UNL     1      24.699 103.481  58.667  1.00  0.00     0.072 C 
ATOM      8  O   UNL     1      25.464 102.483  58.586  1.00  0.00    -0.545 OA
ATOM      9  O   UNL     1      23.629 103.582  57.787  1.00  0.00    -0.545 OA
ENDBRANCH   1   7
BRANCH   4  10
ATOM     10  O   UNL     1      27.456 105.416  62.260  1.00  0.00    -0.504 OA
ATOM     11  H   UNL     1      28.375 105.619  61.885  1.00  0.00     0.293 HD
ENDBRANCH   4  10
BRANCH   5  12
ATOM     12  O   UNL     1      23.309 107.599  60.959  1.00  0.00    -0.504 OA
ATOM     13  H   UNL     1      22.405 107.449  61.389  1.00  0.00     0.293 HD
ENDBRANCH   5  12
BRANCH   6  14
ATOM     14  O   UNL     1      25.606 107.512  62.585  1.00  0.00    -0.502 OA
ATOM     15  H   UNL     1      25.396 107.371  63.565  1.00  0.00     0.293 HD
ENDBRANCH   6  14
TORSDOF 4
ENDMDL
MODEL 2
REMARK VINA RESULT:     1.616      0.046      2.430
REMARK INTER + INTRA:           1.799
REMARK INTER:                   1.852
REMARK INTRA:                  -0.053
REMARK UNBOUND:                -0.053
REMARK SMILES O=C([O-])c1cc(O)c(O)c(O)c1
REMARK SMILES IDX 4 1 5 2 12 3 6 4 10 5 8 6 2 7 1 8 3 9 7 10 11 12 9 14
REMARK H PARENT 7 11 11 13 9 15
REMARK Flexibility Score: inf
ROOT
ATOM      1  C   UNL     1      24.934 104.560  59.682  1.00  0.00     0.005 A 
ATOM      2  C   UNL     1      23.999 105.591  59.867  1.00  0.00     0.060 A 
ATOM      3  C   UNL     1      26.091 104.536  60.478  1.00  0.00     0.060 A 
ATOM      4  C   UNL     1      24.214 106.585  60.832  1.00  0.00     0.162 A 
ATOM      5  C   UNL     1      26.313 105.523  61.444  1.00  0.00     0.162 A 
ATOM      6  C   UNL     1      25.374 106.553  61.625  1.00  0.00     0.200 A 
ENDROOT
BRANCH   1   7
ATOM      7  C   UNL     1      24.700 103.516  58.659  1.00  0.00     0.072 C 
ATOM      8  O   UNL     1      25.447 102.503  58.595  1.00  0.00    -0.545 OA
ATOM      9  O   UNL     1      23.650 103.635  57.757  1.00  0.00    -0.545 OA
ENDBRANCH   1   7
BRANCH   4  10
ATOM     10  O   UNL     1      23.278 107.604  61.008  1.00  0.00    -0.504 OA
ATOM     11  H   UNL     1      23.400 108.321  61.713  1.00  0.00     0.293 HD
ENDBRANCH   4  10
BRANCH   5  12
ATOM     12  O   UNL     1      27.475 105.464  62.215  1.00  0.00    -0.504 OA
ATOM     13  H   UNL     1      27.675 104.683  62.828  1.00  0.00     0.293 HD
ENDBRANCH   5  12
BRANCH   6  14
ATOM     14  O   UNL     1      25.604 107.534  62.590  1.00  0.00    -0.502 OA
ATOM     15  H   UNL     1      26.538 107.808  62.870  1.00  0.00     0.293 HD
ENDBRANCH   6  14
TORSDOF 4
ENDMDL
MODEL 3
REMARK VINA RESULT:     4.124      1.140      4.278
REMARK INTER + INTRA:           4.674
REMARK INTER:                   4.727
REMARK INTRA:                  -0.053
REMARK UNBOUND:                -0.053
REMARK SMILES O=C([O-])c1cc(O)c(O)c(O)c1
REMARK SMILES IDX 4 1 5 2 12 3 6 4 10 5 8 6 2 7 1 8 3 9 7 10 11 12 9 14
REMARK H PARENT 7 11 11 13 9 15
REMARK Flexibility Score: inf
ROOT
ATOM      1  C   UNL     1      25.261 104.919  60.184  1.00  0.00     0.005 A 
ATOM      2  C   UNL     1      25.937 103.779  59.719  1.00  0.00     0.060 A 
ATOM      3  C   UNL     1      24.024 105.258  59.611  1.00  0.00     0.060 A 
ATOM      4  C   UNL     1      25.389 102.989  58.699  1.00  0.00     0.162 A 
ATOM      5  C   UNL     1      23.468 104.475  58.594  1.00  0.00     0.162 A 
ATOM      6  C   UNL     1      24.150 103.336  58.133  1.00  0.00     0.200 A 
ENDROOT
BRANCH   1   7
ATOM      7  C   UNL     1      25.847 105.748  61.260  1.00  0.00     0.072 C 
ATOM      8  O   UNL     1      26.891 105.375  61.859  1.00  0.00    -0.545 OA
ATOM      9  O   UNL     1      25.256 106.952  61.624  1.00  0.00    -0.545 OA
ENDBRANCH   1   7
BRANCH   4  10
ATOM     10  O   UNL     1      26.070 101.860  58.246  1.00  0.00    -0.504 OA
ATOM     11  H   UNL     1      25.760 101.344  57.432  1.00  0.00     0.293 HD
ENDBRANCH   4  10
BRANCH   5  12
ATOM     12  O   UNL     1      22.238 104.847  58.051  1.00  0.00    -0.504 OA
ATOM     13  H   UNL     1      21.852 104.394  57.231  1.00  0.00     0.293 HD
ENDBRANCH   5  12
BRANCH   6  14
ATOM     14  O   UNL     1      23.590 102.561  57.117  1.00  0.00    -0.502 OA
ATOM     15  H   UNL     1      22.812 102.886  56.556  1.00  0.00     0.293 HD
ENDBRANCH   6  14
TORSDOF 4
ENDMDL
MODEL 4
REMARK VINA RESULT:     4.154      1.155      4.901
REMARK INTER + INTRA:           4.708
REMARK INTER:                   4.760
REMARK INTRA:                  -0.052
REMARK UNBOUND:                -0.053
REMARK SMILES O=C([O-])c1cc(O)c(O)c(O)c1
REMARK SMILES IDX 4 1 5 2 12 3 6 4 10 5 8 6 2 7 1 8 3 9 7 10 11 12 9 14
REMARK H PARENT 7 11 11 13 9 15
REMARK Flexibility Score: inf
ROOT
ATOM      1  C   UNL     1      25.268 104.899  60.169  1.00  0.00     0.005 A 
ATOM      2  C   UNL     1      24.033 105.251  59.600  1.00  0.00     0.060 A 
ATOM      3  C   UNL     1      25.935 103.756  59.699  1.00  0.00     0.060 A 
ATOM      4  C   UNL     1      23.471 104.474  58.577  1.00  0.00     0.162 A 
ATOM      5  C   UNL     1      25.382 102.976  58.678  1.00  0.00     0.162 A 
ATOM      6  C   UNL     1      24.146 103.333  58.112  1.00  0.00     0.200 A 
ENDROOT
BRANCH   1   7
ATOM      7  C   UNL     1      25.854 105.724  61.249  1.00  0.00     0.072 C 
ATOM      8  O   UNL     1      26.842 105.306  61.910  1.00  0.00    -0.545 OA
ATOM      9  O   UNL     1      25.324 106.973  61.549  1.00  0.00    -0.545 OA
ENDBRANCH   1   7
BRANCH   4  10
ATOM     10  O   UNL     1      22.245 104.834  58.019  1.00  0.00    -0.504 OA
ATOM     11  H   UNL     1      21.897 104.397  57.175  1.00  0.00     0.293 HD
ENDBRANCH   4  10
BRANCH   5  12
ATOM     12  O   UNL     1      26.075 101.847  58.239  1.00  0.00    -0.504 OA
ATOM     13  H   UNL     1      26.258 101.675  57.258  1.00  0.00     0.293 HD
ENDBRANCH   5  12
BRANCH   6  14
ATOM     14  O   UNL     1      23.601 102.548  57.095  1.00  0.00    -0.502 OA
ATOM     15  H   UNL     1      23.708 102.783  56.116  1.00  0.00     0.293 HD
ENDBRANCH   6  14
TORSDOF 4
ENDMDL
