MODEL 1
REMARK VINA RESULT:    -6.136      0.000      0.000
REMARK INTER + INTRA:          -6.847
REMARK INTER:                  -6.674
REMARK INTRA:                  -0.173
REMARK UNBOUND:                -0.173
REMARK SMILES C=C(C)[C@@H]1CC[C@@H](C)C[C@@H]1O
REMARK SMILES IDX 8 1 7 2 6 3 5 4 4 5 10 6 9 7 11 8 2 10 1 11 3 12
REMARK H PARENT 11 9
REMARK Flexibility Score: inf
ROOT
ATOM      1  C   UNL     1     137.953 116.622 137.217  1.00  0.00     0.008 C 
ATOM      2  C   UNL     1     137.255 117.493 138.268  1.00  0.00    -0.012 C 
ATOM      3  C   UNL     1     135.779 117.717 137.886  1.00  0.00     0.004 C 
ATOM      4  C   UNL     1     135.062 118.635 138.884  1.00  0.00     0.011 C 
ATOM      5  C   UNL     1     135.792 119.992 139.016  1.00  0.00     0.043 C 
ATOM      6  C   UNL     1     137.285 119.785 139.415  1.00  0.00     0.121 C 
ATOM      7  C   UNL     1     137.993 118.841 138.424  1.00  0.00     0.035 C 
ENDROOT
BRANCH   6   8
ATOM      8  O   UNL     1     137.455 119.325 140.738  1.00  0.00    -0.392 OA
ATOM      9  H   UNL     1     136.583 119.012 141.085  1.00  0.00     0.210 HD
ENDBRANCH   6   8
BRANCH   5  10
ATOM     10  C   UNL     1     134.988 120.979 139.869  1.00  0.00    -0.075 C 
ATOM     11  C   UNL     1     133.801 120.694 140.436  1.00  0.00     0.008 C 
ATOM     12  C   UNL     1     135.577 122.341 140.148  1.00  0.00     0.039 C 
ENDBRANCH   5  10
TORSDOF 2
ENDMDL
MODEL 2
REMARK VINA RESULT:    -5.953      1.568      4.509
REMARK INTER + INTRA:          -6.648
REMARK INTER:                  -6.477
REMARK INTRA:                  -0.171
REMARK UNBOUND:                -0.173
REMARK SMILES C=C(C)[C@@H]1CC[C@@H](C)C[C@@H]1O
REMARK SMILES IDX 8 1 7 2 6 3 5 4 4 5 10 6 9 7 11 8 2 10 1 11 3 12
REMARK H PARENT 11 9
REMARK Flexibility Score: inf
ROOT
ATOM      1  C   UNL     1     136.986 121.851 140.756  1.00  0.00     0.008 C 
ATOM      2  C   UNL     1     136.864 120.453 140.139  1.00  0.00    -0.012 C 
ATOM      3  C   UNL     1     138.244 119.948 139.677  1.00  0.00     0.004 C 
ATOM      4  C   UNL     1     138.154 118.574 138.999  1.00  0.00     0.011 C 
ATOM      5  C   UNL     1     137.168 118.605 137.808  1.00  0.00     0.043 C 
ATOM      6  C   UNL     1     135.761 119.102 138.262  1.00  0.00     0.121 C 
ATOM      7  C   UNL     1     135.861 120.469 138.965  1.00  0.00     0.035 C 
ENDROOT
BRANCH   6   8
ATOM      8  O   UNL     1     135.075 118.179 139.078  1.00  0.00    -0.392 OA
ATOM      9  H   UNL     1     135.420 117.270 138.898  1.00  0.00     0.210 HD
ENDBRANCH   6   8
BRANCH   5  10
ATOM     10  C   UNL     1     137.206 117.293 137.016  1.00  0.00    -0.075 C 
ATOM     11  C   UNL     1     138.021 116.261 137.303  1.00  0.00     0.008 C 
ATOM     12  C   UNL     1     136.234 117.109 135.875  1.00  0.00     0.039 C 
ENDBRANCH   5  10
TORSDOF 2
ENDMDL
MODEL 3
REMARK VINA RESULT:    -5.557      1.749      4.585
REMARK INTER + INTRA:          -6.217
REMARK INTER:                  -6.194
REMARK INTRA:                  -0.023
REMARK UNBOUND:                -0.173
REMARK SMILES C=C(C)[C@@H]1CC[C@@H](C)C[C@@H]1O
REMARK SMILES IDX 8 1 7 2 6 3 5 4 4 5 10 6 9 7 11 8 2 10 1 11 3 12
REMARK H PARENT 11 9
REMARK Flexibility Score: inf
ROOT
ATOM      1  C   UNL     1     136.573 123.912 141.488  1.00  0.00     0.008 C 
ATOM      2  C   UNL     1     136.237 122.481 141.053  1.00  0.00    -0.012 C 
ATOM      3  C   UNL     1     137.521 121.722 140.665  1.00  0.00     0.004 C 
ATOM      4  C   UNL     1     137.218 120.303 140.166  1.00  0.00     0.011 C 
ATOM      5  C   UNL     1     136.232 120.330 138.976  1.00  0.00     0.043 C 
ATOM      6  C   UNL     1     134.920 121.083 139.355  1.00  0.00     0.121 C 
ATOM      7  C   UNL     1     135.232 122.498 139.880  1.00  0.00     0.035 C 
ENDROOT
BRANCH   6   8
ATOM      8  O   UNL     1     134.117 120.383 140.279  1.00  0.00    -0.392 OA
ATOM      9  H   UNL     1     133.465 119.828 139.783  1.00  0.00     0.210 HD
ENDBRANCH   6   8
BRANCH   5  10
ATOM     10  C   UNL     1     136.065 118.937 138.357  1.00  0.00    -0.075 C 
ATOM     11  C   UNL     1     135.700 117.842 139.050  1.00  0.00     0.008 C 
ATOM     12  C   UNL     1     136.262 118.779 136.868  1.00  0.00     0.039 C 
ENDBRANCH   5  10
TORSDOF 2
ENDMDL
MODEL 4
REMARK VINA RESULT:    -5.417      1.478      4.309
REMARK INTER + INTRA:          -6.064
REMARK INTER:                  -5.891
REMARK INTRA:                  -0.174
REMARK UNBOUND:                -0.173
REMARK SMILES C=C(C)[C@@H]1CC[C@@H](C)C[C@@H]1O
REMARK SMILES IDX 8 1 7 2 6 3 5 4 4 5 10 6 9 7 11 8 2 10 1 11 3 12
REMARK H PARENT 11 9
REMARK Flexibility Score: inf
ROOT
ATOM      1  C   UNL     1     135.724 121.853 141.131  1.00  0.00     0.008 C 
ATOM      2  C   UNL     1     136.582 121.059 140.139  1.00  0.00    -0.012 C 
ATOM      3  C   UNL     1     135.767 120.719 138.876  1.00  0.00     0.004 C 
ATOM      4  C   UNL     1     136.575 119.872 137.884  1.00  0.00     0.011 C 
ATOM      5  C   UNL     1     137.094 118.578 138.551  1.00  0.00     0.043 C 
ATOM      6  C   UNL     1     137.933 118.905 139.825  1.00  0.00     0.121 C 
ATOM      7  C   UNL     1     137.126 119.777 140.806  1.00  0.00     0.035 C 
ENDROOT
BRANCH   6   8
ATOM      8  O   UNL     1     139.176 119.508 139.540  1.00  0.00    -0.392 OA
ATOM      9  H   UNL     1     139.902 118.889 139.801  1.00  0.00     0.210 HD
ENDBRANCH   6   8
BRANCH   5  10
ATOM     10  C   UNL     1     137.746 117.643 137.526  1.00  0.00    -0.075 C 
ATOM     11  C   UNL     1     138.137 116.383 137.794  1.00  0.00     0.008 C 
ATOM     12  C   UNL     1     137.914 118.131 136.107  1.00  0.00     0.039 C 
ENDBRANCH   5  10
TORSDOF 2
ENDMDL
MODEL 5
REMARK VINA RESULT:    -5.227      1.685      4.465
REMARK INTER + INTRA:          -5.858
REMARK INTER:                  -5.684
REMARK INTRA:                  -0.174
REMARK UNBOUND:                -0.173
REMARK SMILES C=C(C)[C@@H]1CC[C@@H](C)C[C@@H]1O
REMARK SMILES IDX 8 1 7 2 6 3 5 4 4 5 10 6 9 7 11 8 2 10 1 11 3 12
REMARK H PARENT 11 9
REMARK Flexibility Score: inf
ROOT
ATOM      1  C   UNL     1     136.092 124.307 141.408  1.00  0.00     0.008 C 
ATOM      2  C   UNL     1     136.473 123.090 140.556  1.00  0.00    -0.012 C 
ATOM      3  C   UNL     1     135.409 122.842 139.469  1.00  0.00     0.004 C 
ATOM      4  C   UNL     1     135.725 121.594 138.633  1.00  0.00     0.011 C 
ATOM      5  C   UNL     1     135.875 120.345 139.532  1.00  0.00     0.043 C 
ATOM      6  C   UNL     1     136.958 120.575 140.630  1.00  0.00     0.121 C 
ATOM      7  C   UNL     1     136.649 121.843 141.449  1.00  0.00     0.035 C 
ENDROOT
BRANCH   6   8
ATOM      8  O   UNL     1     138.272 120.627 140.121  1.00  0.00    -0.392 OA
ATOM      9  H   UNL     1     138.793 119.874 140.495  1.00  0.00     0.210 HD
ENDBRANCH   6   8
BRANCH   5  10
ATOM     10  C   UNL     1     136.010 119.067 138.696  1.00  0.00    -0.075 C 
ATOM     11  C   UNL     1     135.700 117.836 139.142  1.00  0.00     0.008 C 
ATOM     12  C   UNL     1     136.465 119.188 137.261  1.00  0.00     0.039 C 
ENDBRANCH   5  10
TORSDOF 2
ENDMDL
MODEL 6
REMARK VINA RESULT:    -5.200      1.405      2.090
REMARK INTER + INTRA:          -5.829
REMARK INTER:                  -5.999
REMARK INTRA:                   0.170
REMARK UNBOUND:                -0.173
REMARK SMILES C=C(C)[C@@H]1CC[C@@H](C)C[C@@H]1O
REMARK SMILES IDX 8 1 7 2 6 3 5 4 4 5 10 6 9 7 11 8 2 10 1 11 3 12
REMARK H PARENT 11 9
REMARK Flexibility Score: inf
ROOT
ATOM      1  C   UNL     1     138.055 116.415 137.196  1.00  0.00     0.008 C 
ATOM      2  C   UNL     1     137.010 117.476 137.559  1.00  0.00    -0.012 C 
ATOM      3  C   UNL     1     137.586 118.890 137.351  1.00  0.00     0.004 C 
ATOM      4  C   UNL     1     136.588 119.981 137.762  1.00  0.00     0.011 C 
ATOM      5  C   UNL     1     136.136 119.798 139.229  1.00  0.00     0.043 C 
ATOM      6  C   UNL     1     135.538 118.375 139.454  1.00  0.00     0.121 C 
ATOM      7  C   UNL     1     136.534 117.284 139.016  1.00  0.00     0.035 C 
ENDROOT
BRANCH   6   8
ATOM      8  O   UNL     1     134.291 118.183 138.824  1.00  0.00    -0.392 OA
ATOM      9  H   UNL     1     134.229 118.785 138.042  1.00  0.00     0.210 HD
ENDBRANCH   6   8
BRANCH   5  10
ATOM     10  C   UNL     1     135.282 120.980 139.703  1.00  0.00    -0.075 C 
ATOM     11  C   UNL     1     135.573 122.269 139.450  1.00  0.00     0.008 C 
ATOM     12  C   UNL     1     134.003 120.694 140.452  1.00  0.00     0.039 C 
ENDBRANCH   5  10
TORSDOF 2
ENDMDL
MODEL 7
REMARK VINA RESULT:    -5.153      1.542      2.723
REMARK INTER + INTRA:          -5.777
REMARK INTER:                  -5.678
REMARK INTRA:                  -0.099
REMARK UNBOUND:                -0.173
REMARK SMILES C=C(C)[C@@H]1CC[C@@H](C)C[C@@H]1O
REMARK SMILES IDX 8 1 7 2 6 3 5 4 4 5 10 6 9 7 11 8 2 10 1 11 3 12
REMARK H PARENT 11 9
REMARK Flexibility Score: inf
ROOT
ATOM      1  C   UNL     1     135.820 117.764 139.143  1.00  0.00     0.008 C 
ATOM      2  C   UNL     1     136.079 119.104 139.841  1.00  0.00    -0.012 C 
ATOM      3  C   UNL     1     134.767 119.900 139.978  1.00  0.00     0.004 C 
ATOM      4  C   UNL     1     134.995 121.276 140.619  1.00  0.00     0.011 C 
ATOM      5  C   UNL     1     136.038 122.094 139.823  1.00  0.00     0.043 C 
ATOM      6  C   UNL     1     137.378 121.308 139.687  1.00  0.00     0.121 C 
ATOM      7  C   UNL     1     137.138 119.917 139.066  1.00  0.00     0.035 C 
ENDROOT
BRANCH   6   8
ATOM      8  O   UNL     1     138.086 121.189 140.900  1.00  0.00    -0.392 OA
ATOM      9  H   UNL     1     138.156 122.081 141.322  1.00  0.00     0.210 HD
ENDBRANCH   6   8
BRANCH   5  10
ATOM     10  C   UNL     1     136.140 123.531 140.348  1.00  0.00    -0.075 C 
ATOM     11  C   UNL     1     136.178 123.857 141.653  1.00  0.00     0.008 C 
ATOM     12  C   UNL     1     136.264 124.658 139.351  1.00  0.00     0.039 C 
ENDBRANCH   5  10
TORSDOF 2
ENDMDL
MODEL 8
REMARK VINA RESULT:    -5.116      1.718      4.901
REMARK INTER + INTRA:          -5.738
REMARK INTER:                  -5.563
REMARK INTRA:                  -0.175
REMARK UNBOUND:                -0.173
REMARK SMILES C=C(C)[C@@H]1CC[C@@H](C)C[C@@H]1O
REMARK SMILES IDX 8 1 7 2 6 3 5 4 4 5 10 6 9 7 11 8 2 10 1 11 3 12
REMARK H PARENT 11 9
REMARK Flexibility Score: inf
ROOT
ATOM      1  C   UNL     1     133.410 124.423 139.916  1.00  0.00     0.008 C 
ATOM      2  C   UNL     1     134.214 123.152 140.215  1.00  0.00    -0.012 C 
ATOM      3  C   UNL     1     135.444 123.064 139.292  1.00  0.00     0.004 C 
ATOM      4  C   UNL     1     136.241 121.773 139.520  1.00  0.00     0.011 C 
ATOM      5  C   UNL     1     135.345 120.526 139.338  1.00  0.00     0.043 C 
ATOM      6  C   UNL     1     134.101 120.592 140.276  1.00  0.00     0.121 C 
ATOM      7  C   UNL     1     133.319 121.902 140.061  1.00  0.00     0.035 C 
ENDROOT
BRANCH   6   8
ATOM      8  O   UNL     1     134.416 120.427 141.641  1.00  0.00    -0.392 OA
ATOM      9  H   UNL     1     135.383 120.591 141.771  1.00  0.00     0.210 HD
ENDBRANCH   6   8
BRANCH   5  10
ATOM     10  C   UNL     1     136.169 119.234 139.386  1.00  0.00    -0.075 C 
ATOM     11  C   UNL     1     135.689 118.020 139.058  1.00  0.00     0.008 C 
ATOM     12  C   UNL     1     137.627 119.320 139.769  1.00  0.00     0.039 C 
ENDBRANCH   5  10
TORSDOF 2
ENDMDL
MODEL 9
REMARK VINA RESULT:    -5.111      2.412      3.127
REMARK INTER + INTRA:          -5.732
REMARK INTER:                  -5.556
REMARK INTRA:                  -0.176
REMARK UNBOUND:                -0.173
REMARK SMILES C=C(C)[C@@H]1CC[C@@H](C)C[C@@H]1O
REMARK SMILES IDX 8 1 7 2 6 3 5 4 4 5 10 6 9 7 11 8 2 10 1 11 3 12
REMARK H PARENT 11 9
REMARK Flexibility Score: inf
ROOT
ATOM      1  C   UNL     1     138.381 119.254 140.523  1.00  0.00     0.008 C 
ATOM      2  C   UNL     1     137.215 120.230 140.717  1.00  0.00    -0.012 C 
ATOM      3  C   UNL     1     135.990 119.771 139.904  1.00  0.00     0.004 C 
ATOM      4  C   UNL     1     134.820 120.757 140.026  1.00  0.00     0.011 C 
ATOM      5  C   UNL     1     135.245 122.181 139.599  1.00  0.00     0.043 C 
ATOM      6  C   UNL     1     136.477 122.666 140.423  1.00  0.00     0.121 C 
ATOM      7  C   UNL     1     137.640 121.659 140.317  1.00  0.00     0.035 C 
ENDROOT
BRANCH   6   8
ATOM      8  O   UNL     1     136.180 122.932 141.775  1.00  0.00    -0.392 OA
ATOM      9  H   UNL     1     136.926 122.610 142.339  1.00  0.00     0.210 HD
ENDBRANCH   6   8
BRANCH   5  10
ATOM     10  C   UNL     1     134.043 123.131 139.545  1.00  0.00    -0.075 C 
ATOM     11  C   UNL     1     132.801 122.800 139.947  1.00  0.00     0.008 C 
ATOM     12  C   UNL     1     134.261 124.546 139.069  1.00  0.00     0.039 C 
ENDBRANCH   5  10
TORSDOF 2
ENDMDL
