MODEL 1
REMARK VINA RESULT:    -3.995      0.000      0.000
REMARK INTER + INTRA:          -4.635
REMARK INTER:                  -4.579
REMARK INTRA:                  -0.056
REMARK UNBOUND:                -0.056
REMARK SMILES COc1cc(C=O)ccc1O
REMARK SMILES IDX 3 1 10 2 9 3 8 4 5 5 4 6 2 7 1 8 11 9 6 11 7 12
REMARK H PARENT 11 10
REMARK Flexibility Score: inf
ROOT
ATOM      1  C   UNL     1      15.369  -5.467  -1.142  1.00  0.00     0.161 A 
ATOM      2  C   UNL     1      14.797  -5.150   0.103  1.00  0.00     0.157 A 
ATOM      3  C   UNL     1      13.561  -4.497   0.158  1.00  0.00     0.051 A 
ATOM      4  C   UNL     1      12.889  -4.154  -1.016  1.00  0.00     0.015 A 
ATOM      5  C   UNL     1      13.443  -4.463  -2.266  1.00  0.00     0.018 A 
ATOM      6  C   UNL     1      14.684  -5.120  -2.325  1.00  0.00     0.062 A 
ENDROOT
BRANCH   1   7
ATOM      7  O   UNL     1      16.611  -6.125  -1.168  1.00  0.00    -0.493 OA
ATOM      8  C   UNL     1      17.674  -5.811  -2.062  1.00  0.00     0.278 C 
ENDBRANCH   1   7
BRANCH   2   9
ATOM      9  O   UNL     1      15.440  -5.475   1.297  1.00  0.00    -0.504 OA
ATOM     10  H   UNL     1      16.213  -6.128   1.333  1.00  0.00     0.293 HD
ENDBRANCH   2   9
BRANCH   5  11
ATOM     11  C   UNL     1      12.716  -4.093  -3.494  1.00  0.00     0.260 C 
ATOM     12  O   UNL     1      12.903  -2.978  -4.051  1.00  0.00    -0.298 OA
ENDBRANCH   5  11
TORSDOF 3
ENDMDL
MODEL 2
REMARK VINA RESULT:    -3.867      2.229      5.317
REMARK INTER + INTRA:          -4.488
REMARK INTER:                  -4.415
REMARK INTRA:                  -0.073
REMARK UNBOUND:                -0.056
REMARK SMILES COc1cc(C=O)ccc1O
REMARK SMILES IDX 3 1 10 2 9 3 8 4 5 5 4 6 2 7 1 8 11 9 6 11 7 12
REMARK H PARENT 11 10
REMARK Flexibility Score: inf
ROOT
ATOM      1  C   UNL     1      10.938  -4.199  -1.851  1.00  0.00     0.161 A 
ATOM      2  C   UNL     1      11.431  -3.757  -3.093  1.00  0.00     0.157 A 
ATOM      3  C   UNL     1      12.786  -3.910  -3.402  1.00  0.00     0.051 A 
ATOM      4  C   UNL     1      13.659  -4.498  -2.485  1.00  0.00     0.015 A 
ATOM      5  C   UNL     1      13.187  -4.944  -1.244  1.00  0.00     0.018 A 
ATOM      6  C   UNL     1      11.825  -4.793  -0.930  1.00  0.00     0.062 A 
ENDROOT
BRANCH   1   7
ATOM      7  O   UNL     1       9.572  -4.034  -1.568  1.00  0.00    -0.493 OA
ATOM      8  C   UNL     1       8.586  -5.050  -1.720  1.00  0.00     0.278 C 
ENDBRANCH   1   7
BRANCH   2   9
ATOM      9  O   UNL     1      10.589  -3.165  -4.033  1.00  0.00    -0.504 OA
ATOM     10  H   UNL     1      10.725  -3.282  -5.030  1.00  0.00     0.293 HD
ENDBRANCH   2   9
BRANCH   5  11
ATOM     11  C   UNL     1      14.126  -5.562  -0.290  1.00  0.00     0.260 C 
ATOM     12  O   UNL     1      14.663  -4.885   0.629  1.00  0.00    -0.298 OA
ENDBRANCH   5  11
TORSDOF 3
ENDMDL
MODEL 3
REMARK VINA RESULT:    -3.780      3.131      4.805
REMARK INTER + INTRA:          -4.389
REMARK INTER:                  -4.333
REMARK INTRA:                  -0.056
REMARK UNBOUND:                -0.056
REMARK SMILES COc1cc(C=O)ccc1O
REMARK SMILES IDX 3 1 10 2 9 3 8 4 5 5 4 6 2 7 1 8 11 9 6 11 7 12
REMARK H PARENT 11 10
REMARK Flexibility Score: inf
ROOT
ATOM      1  C   UNL     1      12.024  -4.095  -1.764  1.00  0.00     0.161 A 
ATOM      2  C   UNL     1      11.681  -3.777  -3.091  1.00  0.00     0.157 A 
ATOM      3  C   UNL     1      10.390  -4.037  -3.561  1.00  0.00     0.051 A 
ATOM      4  C   UNL     1       9.434  -4.613  -2.722  1.00  0.00     0.015 A 
ATOM      5  C   UNL     1       9.757  -4.936  -1.397  1.00  0.00     0.018 A 
ATOM      6  C   UNL     1      11.054  -4.675  -0.921  1.00  0.00     0.062 A 
ENDROOT
BRANCH   1   7
ATOM      7  O   UNL     1      13.328  -3.822  -1.319  1.00  0.00    -0.493 OA
ATOM      8  C   UNL     1      13.896  -4.331  -0.116  1.00  0.00     0.278 C 
ENDBRANCH   1   7
BRANCH   2   9
ATOM      9  O   UNL     1      12.609  -3.203  -3.958  1.00  0.00    -0.504 OA
ATOM     10  H   UNL     1      13.440  -2.730  -3.624  1.00  0.00     0.293 HD
ENDBRANCH   2   9
BRANCH   5  11
ATOM     11  C   UNL     1       8.732  -5.543  -0.528  1.00  0.00     0.260 C 
ATOM     12  O   UNL     1       7.519  -5.215  -0.623  1.00  0.00    -0.298 OA
ENDBRANCH   5  11
TORSDOF 3
ENDMDL
MODEL 4
REMARK VINA RESULT:    -3.647      4.110      6.296
REMARK INTER + INTRA:          -4.236
REMARK INTER:                  -4.177
REMARK INTRA:                  -0.059
REMARK UNBOUND:                -0.056
REMARK SMILES COc1cc(C=O)ccc1O
REMARK SMILES IDX 3 1 10 2 9 3 8 4 5 5 4 6 2 7 1 8 11 9 6 11 7 12
REMARK H PARENT 11 10
REMARK Flexibility Score: inf
ROOT
ATOM      1  C   UNL     1       9.679  -3.747  -3.227  1.00  0.00     0.161 A 
ATOM      2  C   UNL     1      11.064  -3.578  -3.047  1.00  0.00     0.157 A 
ATOM      3  C   UNL     1      11.704  -4.166  -1.953  1.00  0.00     0.051 A 
ATOM      4  C   UNL     1      10.978  -4.923  -1.031  1.00  0.00     0.015 A 
ATOM      5  C   UNL     1       9.598  -5.103  -1.193  1.00  0.00     0.018 A 
ATOM      6  C   UNL     1       8.951  -4.513  -2.293  1.00  0.00     0.062 A 
ENDROOT
BRANCH   1   7
ATOM      7  O   UNL     1       9.061  -3.145  -4.336  1.00  0.00    -0.493 OA
ATOM      8  C   UNL     1       8.167  -3.809  -5.223  1.00  0.00     0.278 C 
ENDBRANCH   1   7
BRANCH   2   9
ATOM      9  O   UNL     1      11.821  -2.828  -3.947  1.00  0.00    -0.504 OA
ATOM     10  H   UNL     1      11.531  -2.681  -4.906  1.00  0.00     0.293 HD
ENDBRANCH   2   9
BRANCH   5  11
ATOM     11  C   UNL     1       8.850  -5.906  -0.208  1.00  0.00     0.260 C 
ATOM     12  O   UNL     1       7.832  -5.442   0.372  1.00  0.00    -0.298 OA
ENDBRANCH   5  11
TORSDOF 3
ENDMDL
MODEL 5
REMARK VINA RESULT:    -3.623      3.676      5.954
REMARK INTER + INTRA:          -4.208
REMARK INTER:                  -4.133
REMARK INTRA:                  -0.075
REMARK UNBOUND:                -0.056
REMARK SMILES COc1cc(C=O)ccc1O
REMARK SMILES IDX 3 1 10 2 9 3 8 4 5 5 4 6 2 7 1 8 11 9 6 11 7 12
REMARK H PARENT 11 10
REMARK Flexibility Score: inf
ROOT
ATOM      1  C   UNL     1       9.092  -3.876  -2.484  1.00  0.00     0.161 A 
ATOM      2  C   UNL     1       9.030  -4.686  -1.335  1.00  0.00     0.157 A 
ATOM      3  C   UNL     1      10.190  -5.296  -0.848  1.00  0.00     0.051 A 
ATOM      4  C   UNL     1      11.413  -5.110  -1.493  1.00  0.00     0.015 A 
ATOM      5  C   UNL     1      11.494  -4.307  -2.639  1.00  0.00     0.018 A 
ATOM      6  C   UNL     1      10.331  -3.691  -3.132  1.00  0.00     0.062 A 
ENDROOT
BRANCH   1   7
ATOM      7  O   UNL     1       7.912  -3.274  -2.952  1.00  0.00    -0.493 OA
ATOM      8  C   UNL     1       7.108  -3.784  -4.012  1.00  0.00     0.278 C 
ENDBRANCH   1   7
BRANCH   2   9
ATOM      9  O   UNL     1       7.826  -4.896  -0.664  1.00  0.00    -0.504 OA
ATOM     10  H   UNL     1       7.232  -4.130  -0.370  1.00  0.00     0.293 HD
ENDBRANCH   2   9
BRANCH   5  11
ATOM     11  C   UNL     1      12.797  -4.124  -3.306  1.00  0.00     0.260 C 
ATOM     12  O   UNL     1      13.014  -3.128  -4.047  1.00  0.00    -0.298 OA
ENDBRANCH   5  11
TORSDOF 3
ENDMDL
MODEL 6
REMARK VINA RESULT:    -3.544      1.600      4.076
REMARK INTER + INTRA:          -4.118
REMARK INTER:                  -4.048
REMARK INTRA:                  -0.070
REMARK UNBOUND:                -0.056
REMARK SMILES COc1cc(C=O)ccc1O
REMARK SMILES IDX 3 1 10 2 9 3 8 4 5 5 4 6 2 7 1 8 11 9 6 11 7 12
REMARK H PARENT 11 10
REMARK Flexibility Score: inf
ROOT
ATOM      1  C   UNL     1      12.648  -4.504  -2.593  1.00  0.00     0.161 A 
ATOM      2  C   UNL     1      12.367  -4.031  -1.299  1.00  0.00     0.157 A 
ATOM      3  C   UNL     1      13.307  -4.188  -0.276  1.00  0.00     0.051 A 
ATOM      4  C   UNL     1      14.529  -4.816  -0.529  1.00  0.00     0.015 A 
ATOM      5  C   UNL     1      14.827  -5.294  -1.811  1.00  0.00     0.018 A 
ATOM      6  C   UNL     1      13.884  -5.136  -2.842  1.00  0.00     0.062 A 
ENDROOT
BRANCH   1   7
ATOM      7  O   UNL     1      11.685  -4.331  -3.601  1.00  0.00    -0.493 OA
ATOM      8  C   UNL     1      10.957  -5.390  -4.215  1.00  0.00     0.278 C 
ENDBRANCH   1   7
BRANCH   2   9
ATOM      9  O   UNL     1      11.157  -3.400  -1.008  1.00  0.00    -0.504 OA
ATOM     10  H   UNL     1      11.069  -2.392  -0.973  1.00  0.00     0.293 HD
ENDBRANCH   2   9
BRANCH   5  11
ATOM     11  C   UNL     1      16.123  -5.953  -2.057  1.00  0.00     0.260 C 
ATOM     12  O   UNL     1      17.190  -5.286  -2.133  1.00  0.00    -0.298 OA
ENDBRANCH   5  11
TORSDOF 3
ENDMDL
MODEL 7
REMARK VINA RESULT:    -3.354      4.081      5.769
REMARK INTER + INTRA:          -3.901
REMARK INTER:                  -3.835
REMARK INTRA:                  -0.066
REMARK UNBOUND:                -0.056
REMARK SMILES COc1cc(C=O)ccc1O
REMARK SMILES IDX 3 1 10 2 9 3 8 4 5 5 4 6 2 7 1 8 11 9 6 11 7 12
REMARK H PARENT 11 10
REMARK Flexibility Score: inf
ROOT
ATOM      1  C   UNL     1      10.830  -4.505  -1.961  1.00  0.00     0.161 A 
ATOM      2  C   UNL     1      10.026  -3.827  -2.896  1.00  0.00     0.157 A 
ATOM      3  C   UNL     1       8.633  -3.890  -2.795  1.00  0.00     0.051 A 
ATOM      4  C   UNL     1       8.029  -4.624  -1.772  1.00  0.00     0.015 A 
ATOM      5  C   UNL     1       8.813  -5.305  -0.832  1.00  0.00     0.018 A 
ATOM      6  C   UNL     1      10.214  -5.244  -0.930  1.00  0.00     0.062 A 
ENDROOT
BRANCH   1   7
ATOM      7  O   UNL     1      12.227  -4.424  -2.086  1.00  0.00    -0.493 OA
ATOM      8  C   UNL     1      13.100  -3.912  -1.084  1.00  0.00     0.278 C 
ENDBRANCH   1   7
BRANCH   2   9
ATOM      9  O   UNL     1      10.593  -3.086  -3.931  1.00  0.00    -0.504 OA
ATOM     10  H   UNL     1      10.481  -3.345  -4.904  1.00  0.00     0.293 HD
ENDBRANCH   2   9
BRANCH   5  11
ATOM     11  C   UNL     1       8.156  -6.074   0.241  1.00  0.00     0.260 C 
ATOM     12  O   UNL     1       7.443  -5.503   1.109  1.00  0.00    -0.298 OA
ENDBRANCH   5  11
TORSDOF 3
ENDMDL
MODEL 8
REMARK VINA RESULT:    -3.281     11.528     14.144
REMARK INTER + INTRA:          -3.816
REMARK INTER:                  -3.757
REMARK INTRA:                  -0.059
REMARK UNBOUND:                -0.056
REMARK SMILES COc1cc(C=O)ccc1O
REMARK SMILES IDX 3 1 10 2 9 3 8 4 5 5 4 6 2 7 1 8 11 9 6 11 7 12
REMARK H PARENT 11 10
REMARK Flexibility Score: inf
ROOT
ATOM      1  C   UNL     1       9.598   6.420  -8.075  1.00  0.00     0.161 A 
ATOM      2  C   UNL     1       9.692   6.622  -9.464  1.00  0.00     0.157 A 
ATOM      3  C   UNL     1       9.479   5.555 -10.342  1.00  0.00     0.051 A 
ATOM      4  C   UNL     1       9.174   4.285  -9.851  1.00  0.00     0.015 A 
ATOM      5  C   UNL     1       9.076   4.063  -8.471  1.00  0.00     0.018 A 
ATOM      6  C   UNL     1       9.289   5.134  -7.585  1.00  0.00     0.062 A 
ENDROOT
BRANCH   1   7
ATOM      7  O   UNL     1       9.816   7.510  -7.216  1.00  0.00    -0.493 OA
ATOM      8  C   UNL     1       8.802   8.406  -6.772  1.00  0.00     0.278 C 
ENDBRANCH   1   7
BRANCH   2   9
ATOM      9  O   UNL     1       9.995   7.877  -9.991  1.00  0.00    -0.504 OA
ATOM     10  H   UNL     1      10.021   8.051 -10.988  1.00  0.00     0.293 HD
ENDBRANCH   2   9
BRANCH   5  11
ATOM     11  C   UNL     1       8.753   2.713  -7.973  1.00  0.00     0.260 C 
ATOM     12  O   UNL     1       9.585   1.771  -8.059  1.00  0.00    -0.298 OA
ENDBRANCH   5  11
TORSDOF 3
ENDMDL
MODEL 9
REMARK VINA RESULT:    -3.207     10.633     12.041
REMARK INTER + INTRA:          -3.731
REMARK INTER:                  -3.660
REMARK INTRA:                  -0.072
REMARK UNBOUND:                -0.056
REMARK SMILES COc1cc(C=O)ccc1O
REMARK SMILES IDX 3 1 10 2 9 3 8 4 5 5 4 6 2 7 1 8 11 9 6 11 7 12
REMARK H PARENT 11 10
REMARK Flexibility Score: inf
ROOT
ATOM      1  C   UNL     1      17.918   0.710   7.544  1.00  0.00     0.161 A 
ATOM      2  C   UNL     1      16.702   1.415   7.594  1.00  0.00     0.157 A 
ATOM      3  C   UNL     1      16.706   2.811   7.672  1.00  0.00     0.051 A 
ATOM      4  C   UNL     1      17.911   3.515   7.704  1.00  0.00     0.015 A 
ATOM      5  C   UNL     1      19.132   2.830   7.655  1.00  0.00     0.018 A 
ATOM      6  C   UNL     1      19.132   1.427   7.575  1.00  0.00     0.062 A 
ENDROOT
BRANCH   1   7
ATOM      7  O   UNL     1      17.885  -0.692   7.465  1.00  0.00    -0.493 OA
ATOM      8  C   UNL     1      17.942  -1.435   6.251  1.00  0.00     0.278 C 
ENDBRANCH   1   7
BRANCH   2   9
ATOM      9  O   UNL     1      15.479   0.747   7.566  1.00  0.00    -0.504 OA
ATOM     10  H   UNL     1      15.134   0.218   8.358  1.00  0.00     0.293 HD
ENDBRANCH   2   9
BRANCH   5  11
ATOM     11  C   UNL     1      20.394   3.593   7.689  1.00  0.00     0.260 C 
ATOM     12  O   UNL     1      20.689   4.407   6.773  1.00  0.00    -0.298 OA
ENDBRANCH   5  11
TORSDOF 3
ENDMDL
