MODEL 1
REMARK VINA RESULT:    -3.493      0.000      0.000
REMARK INTER + INTRA:          -3.799
REMARK INTER:                  -3.799
REMARK INTRA:                   0.000
REMARK UNBOUND:                 0.000
REMARK SMILES Oc1cccc(O)c1O
REMARK SMILES IDX 4 1 5 2 6 3 8 4 2 5 3 6 7 7 1 9 9 11
REMARK H PARENT 7 8 1 10 9 12
REMARK Flexibility Score: inf
ROOT
ATOM      1  C   UNL     1      25.829   3.562  31.284  1.00  0.00     0.008 A 
ATOM      2  C   UNL     1      26.024   3.617  29.902  1.00  0.00     0.050 A 
ATOM      3  C   UNL     1      24.922   3.697  29.037  1.00  0.00     0.161 A 
ATOM      4  C   UNL     1      23.619   3.720  29.567  1.00  0.00     0.200 A 
ATOM      5  C   UNL     1      23.428   3.666  30.955  1.00  0.00     0.161 A 
ATOM      6  C   UNL     1      24.536   3.586  31.811  1.00  0.00     0.050 A 
ENDROOT
BRANCH   3   7
ATOM      7  O   UNL     1      25.117   3.751  27.658  1.00  0.00    -0.504 OA
ATOM      8  H   UNL     1      26.008   3.511  27.238  1.00  0.00     0.293 HD
ENDBRANCH   3   7
BRANCH   5   9
ATOM      9  O   UNL     1      22.136   3.689  31.476  1.00  0.00    -0.504 OA
ATOM     10  H   UNL     1      21.632   4.560  31.603  1.00  0.00     0.293 HD
ENDBRANCH   5   9
BRANCH   4  11
ATOM     11  O   UNL     1      22.506   3.799  28.728  1.00  0.00    -0.502 OA
ATOM     12  H   UNL     1      22.002   2.976  28.424  1.00  0.00     0.293 HD
ENDBRANCH   4  11
TORSDOF 3
ENDMDL
MODEL 2
REMARK VINA RESULT:    -3.485      1.154      2.736
REMARK INTER + INTRA:          -3.791
REMARK INTER:                  -3.791
REMARK INTRA:                   0.000
REMARK UNBOUND:                 0.000
REMARK SMILES Oc1cccc(O)c1O
REMARK SMILES IDX 4 1 5 2 6 3 8 4 2 5 3 6 7 7 1 9 9 11
REMARK H PARENT 7 8 1 10 9 12
REMARK Flexibility Score: inf
ROOT
ATOM      1  C   UNL     1      23.804   3.637  31.722  1.00  0.00     0.008 A 
ATOM      2  C   UNL     1      22.812   3.591  30.739  1.00  0.00     0.050 A 
ATOM      3  C   UNL     1      23.164   3.582  29.381  1.00  0.00     0.161 A 
ATOM      4  C   UNL     1      24.521   3.618  29.011  1.00  0.00     0.200 A 
ATOM      5  C   UNL     1      25.514   3.663  30.001  1.00  0.00     0.161 A 
ATOM      6  C   UNL     1      25.151   3.673  31.355  1.00  0.00     0.050 A 
ENDROOT
BRANCH   3   7
ATOM      7  O   UNL     1      22.174   3.536  28.402  1.00  0.00    -0.504 OA
ATOM      8  H   UNL     1      22.404   3.513  27.414  1.00  0.00     0.293 HD
ENDBRANCH   3   7
BRANCH   5   9
ATOM      9  O   UNL     1      26.857   3.700  29.631  1.00  0.00    -0.504 OA
ATOM     10  H   UNL     1      27.198   3.190  28.824  1.00  0.00     0.293 HD
ENDBRANCH   5   9
BRANCH   4  11
ATOM     11  O   UNL     1      24.898   3.610  27.667  1.00  0.00    -0.502 OA
ATOM     12  H   UNL     1      25.738   4.071  27.340  1.00  0.00     0.293 HD
ENDBRANCH   4  11
TORSDOF 3
ENDMDL
MODEL 3
REMARK VINA RESULT:    -3.479      0.082      2.799
REMARK INTER + INTRA:          -3.784
REMARK INTER:                  -3.784
REMARK INTRA:                   0.000
REMARK UNBOUND:                 0.000
REMARK SMILES Oc1cccc(O)c1O
REMARK SMILES IDX 4 1 5 2 6 3 8 4 2 5 3 6 7 7 1 9 9 11
REMARK H PARENT 7 8 1 10 9 12
REMARK Flexibility Score: inf
ROOT
ATOM      1  C   UNL     1      25.779   3.545  31.362  1.00  0.00     0.008 A 
ATOM      2  C   UNL     1      24.481   3.605  31.877  1.00  0.00     0.050 A 
ATOM      3  C   UNL     1      23.382   3.705  31.011  1.00  0.00     0.161 A 
ATOM      4  C   UNL     1      23.591   3.745  29.620  1.00  0.00     0.200 A 
ATOM      5  C   UNL     1      24.894   3.683  29.107  1.00  0.00     0.161 A 
ATOM      6  C   UNL     1      25.986   3.584  29.981  1.00  0.00     0.050 A 
ENDROOT
BRANCH   3   7
ATOM      7  O   UNL     1      22.089   3.764  31.526  1.00  0.00    -0.504 OA
ATOM      8  H   UNL     1      21.466   4.534  31.309  1.00  0.00     0.293 HD
ENDBRANCH   3   7
BRANCH   5   9
ATOM      9  O   UNL     1      25.097   3.724  27.729  1.00  0.00    -0.504 OA
ATOM     10  H   UNL     1      24.841   4.537  27.180  1.00  0.00     0.293 HD
ENDBRANCH   5   9
BRANCH   4  11
ATOM     11  O   UNL     1      22.514   3.844  28.737  1.00  0.00    -0.502 OA
ATOM     12  H   UNL     1      22.381   3.192  27.975  1.00  0.00     0.293 HD
ENDBRANCH   4  11
TORSDOF 3
ENDMDL
MODEL 4
REMARK VINA RESULT:    -3.473      1.114      2.045
REMARK INTER + INTRA:          -3.778
REMARK INTER:                  -3.778
REMARK INTRA:                   0.000
REMARK UNBOUND:                 0.000
REMARK SMILES Oc1cccc(O)c1O
REMARK SMILES IDX 4 1 5 2 6 3 8 4 2 5 3 6 7 7 1 9 9 11
REMARK H PARENT 7 8 1 10 9 12
REMARK Flexibility Score: inf
ROOT
ATOM      1  C   UNL     1      23.863   3.600  31.774  1.00  0.00     0.008 A 
ATOM      2  C   UNL     1      25.201   3.598  31.371  1.00  0.00     0.050 A 
ATOM      3  C   UNL     1      25.527   3.591  30.006  1.00  0.00     0.161 A 
ATOM      4  C   UNL     1      24.500   3.587  29.044  1.00  0.00     0.200 A 
ATOM      5  C   UNL     1      23.159   3.590  29.453  1.00  0.00     0.161 A 
ATOM      6  C   UNL     1      22.844   3.596  30.819  1.00  0.00     0.050 A 
ENDROOT
BRANCH   3   7
ATOM      7  O   UNL     1      26.861   3.589  29.605  1.00  0.00    -0.504 OA
ATOM      8  H   UNL     1      27.175   3.048  28.807  1.00  0.00     0.293 HD
ENDBRANCH   3   7
BRANCH   5   9
ATOM      9  O   UNL     1      22.145   3.585  28.497  1.00  0.00    -0.504 OA
ATOM     10  H   UNL     1      21.328   2.993  28.594  1.00  0.00     0.293 HD
ENDBRANCH   5   9
BRANCH   4  11
ATOM     11  O   UNL     1      24.797   3.581  27.680  1.00  0.00    -0.502 OA
ATOM     12  H   UNL     1      25.044   4.424  27.178  1.00  0.00     0.293 HD
ENDBRANCH   4  11
TORSDOF 3
ENDMDL
MODEL 5
REMARK VINA RESULT:    -3.320      1.567      3.582
REMARK INTER + INTRA:          -3.611
REMARK INTER:                  -3.611
REMARK INTRA:                   0.000
REMARK UNBOUND:                 0.000
REMARK SMILES Oc1cccc(O)c1O
REMARK SMILES IDX 4 1 5 2 6 3 8 4 2 5 3 6 7 7 1 9 9 11
REMARK H PARENT 7 8 1 10 9 12
REMARK Flexibility Score: inf
ROOT
ATOM      1  C   UNL     1      22.188   2.999  29.857  1.00  0.00     0.008 A 
ATOM      2  C   UNL     1      22.785   3.189  31.106  1.00  0.00     0.050 A 
ATOM      3  C   UNL     1      24.146   3.519  31.194  1.00  0.00     0.161 A 
ATOM      4  C   UNL     1      24.908   3.657  30.019  1.00  0.00     0.200 A 
ATOM      5  C   UNL     1      24.304   3.467  28.767  1.00  0.00     0.161 A 
ATOM      6  C   UNL     1      22.944   3.137  28.691  1.00  0.00     0.050 A 
ENDROOT
BRANCH   3   7
ATOM      7  O   UNL     1      24.741   3.708  32.439  1.00  0.00    -0.504 OA
ATOM      8  H   UNL     1      24.318   3.354  33.289  1.00  0.00     0.293 HD
ENDBRANCH   3   7
BRANCH   5   9
ATOM      9  O   UNL     1      25.063   3.604  27.607  1.00  0.00    -0.504 OA
ATOM     10  H   UNL     1      25.780   2.931  27.360  1.00  0.00     0.293 HD
ENDBRANCH   5   9
BRANCH   4  11
ATOM     11  O   UNL     1      26.264   3.984  30.079  1.00  0.00    -0.502 OA
ATOM     12  H   UNL     1      26.583   4.920  30.295  1.00  0.00     0.293 HD
ENDBRANCH   4  11
TORSDOF 3
ENDMDL
MODEL 6
REMARK VINA RESULT:    -3.310      1.588      2.525
REMARK INTER + INTRA:          -3.600
REMARK INTER:                  -3.600
REMARK INTRA:                   0.000
REMARK UNBOUND:                 0.000
REMARK SMILES Oc1cccc(O)c1O
REMARK SMILES IDX 4 1 5 2 6 3 8 4 2 5 3 6 7 7 1 9 9 11
REMARK H PARENT 7 8 1 10 9 12
REMARK Flexibility Score: inf
ROOT
ATOM      1  C   UNL     1      22.170   3.011  29.889  1.00  0.00     0.008 A 
ATOM      2  C   UNL     1      22.953   3.159  28.741  1.00  0.00     0.050 A 
ATOM      3  C   UNL     1      24.315   3.476  28.852  1.00  0.00     0.161 A 
ATOM      4  C   UNL     1      24.891   3.644  30.125  1.00  0.00     0.200 A 
ATOM      5  C   UNL     1      24.102   3.493  31.275  1.00  0.00     0.161 A 
ATOM      6  C   UNL     1      22.741   3.177  31.152  1.00  0.00     0.050 A 
ENDROOT
BRANCH   3   7
ATOM      7  O   UNL     1      25.095   3.623  27.707  1.00  0.00    -0.504 OA
ATOM      8  H   UNL     1      24.793   3.264  26.809  1.00  0.00     0.293 HD
ENDBRANCH   3   7
BRANCH   5   9
ATOM      9  O   UNL     1      24.676   3.660  32.533  1.00  0.00    -0.504 OA
ATOM     10  H   UNL     1      25.669   3.522  32.685  1.00  0.00     0.293 HD
ENDBRANCH   5   9
BRANCH   4  11
ATOM     11  O   UNL     1      26.244   3.959  30.263  1.00  0.00    -0.502 OA
ATOM     12  H   UNL     1      26.872   3.997  29.471  1.00  0.00     0.293 HD
ENDBRANCH   4  11
TORSDOF 3
ENDMDL
MODEL 7
REMARK VINA RESULT:    -3.208      1.231      2.695
REMARK INTER + INTRA:          -3.489
REMARK INTER:                  -3.489
REMARK INTRA:                   0.000
REMARK UNBOUND:                 0.000
REMARK SMILES Oc1cccc(O)c1O
REMARK SMILES IDX 4 1 5 2 6 3 8 4 2 5 3 6 7 7 1 9 9 11
REMARK H PARENT 7 8 1 10 9 12
REMARK Flexibility Score: inf
ROOT
ATOM      1  C   UNL     1      25.726   3.424  28.934  1.00  0.00     0.008 A 
ATOM      2  C   UNL     1      25.861   3.556  30.318  1.00  0.00     0.050 A 
ATOM      3  C   UNL     1      24.722   3.657  31.132  1.00  0.00     0.161 A 
ATOM      4  C   UNL     1      23.442   3.625  30.548  1.00  0.00     0.200 A 
ATOM      5  C   UNL     1      23.311   3.491  29.158  1.00  0.00     0.161 A 
ATOM      6  C   UNL     1      24.455   3.392  28.354  1.00  0.00     0.050 A 
ENDROOT
BRANCH   3   7
ATOM      7  O   UNL     1      24.858   3.788  32.512  1.00  0.00    -0.504 OA
ATOM      8  H   UNL     1      25.064   4.683  32.943  1.00  0.00     0.293 HD
ENDBRANCH   3   7
BRANCH   5   9
ATOM      9  O   UNL     1      22.042   3.460  28.584  1.00  0.00    -0.504 OA
ATOM     10  H   UNL     1      21.915   3.468  27.579  1.00  0.00     0.293 HD
ENDBRANCH   5   9
BRANCH   4  11
ATOM     11  O   UNL     1      22.294   3.723  31.335  1.00  0.00    -0.502 OA
ATOM     12  H   UNL     1      21.521   3.076  31.244  1.00  0.00     0.293 HD
ENDBRANCH   4  11
TORSDOF 3
ENDMDL
MODEL 8
REMARK VINA RESULT:    -3.181      1.206      2.239
REMARK INTER + INTRA:          -3.460
REMARK INTER:                  -3.460
REMARK INTRA:                   0.000
REMARK UNBOUND:                 0.000
REMARK SMILES Oc1cccc(O)c1O
REMARK SMILES IDX 4 1 5 2 6 3 8 4 2 5 3 6 7 7 1 9 9 11
REMARK H PARENT 7 8 1 10 9 12
REMARK Flexibility Score: inf
ROOT
ATOM      1  C   UNL     1      25.742   3.461  29.027  1.00  0.00     0.008 A 
ATOM      2  C   UNL     1      24.478   3.439  28.432  1.00  0.00     0.050 A 
ATOM      3  C   UNL     1      23.324   3.529  29.225  1.00  0.00     0.161 A 
ATOM      4  C   UNL     1      23.444   3.643  30.623  1.00  0.00     0.200 A 
ATOM      5  C   UNL     1      24.715   3.666  31.215  1.00  0.00     0.161 A 
ATOM      6  C   UNL     1      25.862   3.574  30.413  1.00  0.00     0.050 A 
ENDROOT
BRANCH   3   7
ATOM      7  O   UNL     1      22.064   3.506  28.632  1.00  0.00    -0.504 OA
ATOM      8  H   UNL     1      21.941   3.668  27.638  1.00  0.00     0.293 HD
ENDBRANCH   3   7
BRANCH   5   9
ATOM      9  O   UNL     1      24.830   3.778  32.599  1.00  0.00    -0.504 OA
ATOM     10  H   UNL     1      25.048   2.976  33.179  1.00  0.00     0.293 HD
ENDBRANCH   5   9
BRANCH   4  11
ATOM     11  O   UNL     1      22.312   3.734  31.434  1.00  0.00    -0.502 OA
ATOM     12  H   UNL     1      22.303   3.393  32.387  1.00  0.00     0.293 HD
ENDBRANCH   4  11
TORSDOF 3
ENDMDL
MODEL 9
REMARK VINA RESULT:    -3.019      9.955     10.085
REMARK INTER + INTRA:          -3.284
REMARK INTER:                  -3.284
REMARK INTRA:                   0.000
REMARK UNBOUND:                 0.000
REMARK SMILES Oc1cccc(O)c1O
REMARK SMILES IDX 4 1 5 2 6 3 8 4 2 5 3 6 7 7 1 9 9 11
REMARK H PARENT 7 8 1 10 9 12
REMARK Flexibility Score: inf
ROOT
ATOM      1  C   UNL     1      27.128  14.429  31.081  1.00  0.00     0.008 A 
ATOM      2  C   UNL     1      25.986  15.125  30.677  1.00  0.00     0.050 A 
ATOM      3  C   UNL     1      24.846  14.425  30.254  1.00  0.00     0.161 A 
ATOM      4  C   UNL     1      24.858  13.017  30.238  1.00  0.00     0.200 A 
ATOM      5  C   UNL     1      26.006  12.323  30.644  1.00  0.00     0.161 A 
ATOM      6  C   UNL     1      27.140  13.033  31.065  1.00  0.00     0.050 A 
ENDROOT
BRANCH   3   7
ATOM      7  O   UNL     1      23.707  15.119  29.852  1.00  0.00    -0.504 OA
ATOM      8  H   UNL     1      23.713  16.126  29.736  1.00  0.00     0.293 HD
ENDBRANCH   3   7
BRANCH   5   9
ATOM      9  O   UNL     1      26.014  10.930  30.626  1.00  0.00    -0.504 OA
ATOM     10  H   UNL     1      25.901  10.411  29.762  1.00  0.00     0.293 HD
ENDBRANCH   5   9
BRANCH   4  11
ATOM     11  O   UNL     1      23.737  12.297  29.821  1.00  0.00    -0.502 OA
ATOM     12  H   UNL     1      22.917  12.750  29.438  1.00  0.00     0.293 HD
ENDBRANCH   4  11
TORSDOF 3
ENDMDL
