MODEL 1
REMARK VINA RESULT:    -6.296      0.000      0.000
REMARK INTER + INTRA:          -7.050
REMARK INTER:                  -6.848
REMARK INTRA:                  -0.202
REMARK UNBOUND:                -0.202
REMARK SMILES CC1=CCC[C@@]2(C)CC[C@H](C(C)(C)O)C[C@@H]12
REMARK SMILES IDX 11 1 12 2 13 3 10 4 1 5 2 6 3 7 16 8 4 9 6 10 15 11 5 12
REMARK SMILES IDX 7 13 8 14 9 15 14 16
REMARK H PARENT 14 17
REMARK Flexibility Score: inf
ROOT
ATOM      1  C   UNL     1     116.399 126.046 128.294  1.00  0.00     0.062 C 
ATOM      2  C   UNL     1     117.433 126.166 127.153  1.00  0.00     0.042 C 
ATOM      3  C   UNL     1     116.650 127.232 129.257  1.00  0.00     0.042 C 
ENDROOT
BRANCH   1   4
ATOM      4  C   UNL     1     116.555 124.654 129.015  1.00  0.00     0.021 C 
ATOM      5  C   UNL     1     113.718 122.354 126.241  1.00  0.00     0.039 C 
ATOM      6  C   UNL     1     114.191 121.866 127.586  1.00  0.00    -0.074 C 
ATOM      7  C   UNL     1     114.164 120.540 127.831  1.00  0.00    -0.028 C 
ATOM      8  C   UNL     1     114.714 122.879 128.600  1.00  0.00     0.021 C 
ATOM      9  C   UNL     1     114.476 119.939 129.172  1.00  0.00     0.028 C 
ATOM     10  C   UNL     1     114.806 122.322 130.066  1.00  0.00    -0.026 C 
ATOM     11  C   UNL     1     116.071 123.455 128.134  1.00  0.00     0.015 C 
ATOM     12  C   UNL     1     115.329 120.861 130.044  1.00  0.00     0.011 C 
ATOM     13  C   UNL     1     113.399 122.370 130.715  1.00  0.00     0.012 C 
ATOM     14  C   UNL     1     115.784 123.177 130.938  1.00  0.00     0.008 C 
ATOM     15  C   UNL     1     115.911 124.616 130.430  1.00  0.00     0.007 C 
ENDBRANCH   1   4
BRANCH   1  16
ATOM     16  O   UNL     1     115.117 126.169 127.722  1.00  0.00    -0.390 OA
ATOM     17  H   UNL     1     114.573 125.392 128.012  1.00  0.00     0.211 HD
ENDBRANCH   1  16
TORSDOF 2
ENDMDL
MODEL 2
REMARK VINA RESULT:    -5.980      1.710      3.419
REMARK INTER + INTRA:          -6.707
REMARK INTER:                  -6.295
REMARK INTRA:                  -0.412
REMARK UNBOUND:                -0.202
REMARK SMILES CC1=CCC[C@@]2(C)CC[C@H](C(C)(C)O)C[C@@H]12
REMARK SMILES IDX 11 1 12 2 13 3 10 4 1 5 2 6 3 7 16 8 4 9 6 10 15 11 5 12
REMARK SMILES IDX 7 13 8 14 9 15 14 16
REMARK H PARENT 14 17
REMARK Flexibility Score: inf
ROOT
ATOM      1  C   UNL     1     116.342 124.681 128.602  1.00  0.00     0.062 C 
ATOM      2  C   UNL     1     116.661 123.824 127.358  1.00  0.00     0.042 C 
ATOM      3  C   UNL     1     117.676 124.895 129.357  1.00  0.00     0.042 C 
ENDROOT
BRANCH   1   4
ATOM      4  C   UNL     1     115.267 123.952 129.493  1.00  0.00     0.021 C 
ATOM      5  C   UNL     1     118.262 121.487 131.940  1.00  0.00     0.039 C 
ATOM      6  C   UNL     1     116.781 121.218 131.867  1.00  0.00    -0.074 C 
ATOM      7  C   UNL     1     116.206 120.524 132.870  1.00  0.00    -0.028 C 
ATOM      8  C   UNL     1     115.984 121.768 130.688  1.00  0.00     0.021 C 
ATOM      9  C   UNL     1     114.774 120.072 132.851  1.00  0.00     0.028 C 
ATOM     10  C   UNL     1     114.568 121.111 130.514  1.00  0.00    -0.026 C 
ATOM     11  C   UNL     1     115.880 123.308 130.780  1.00  0.00     0.015 C 
ATOM     12  C   UNL     1     113.909 120.903 131.903  1.00  0.00     0.011 C 
ATOM     13  C   UNL     1     114.728 119.747 129.795  1.00  0.00     0.012 C 
ATOM     14  C   UNL     1     113.624 122.017 129.656  1.00  0.00     0.008 C 
ATOM     15  C   UNL     1     114.400 122.931 128.704  1.00  0.00     0.007 C 
ENDBRANCH   1   4
BRANCH   1  16
ATOM     16  O   UNL     1     115.854 125.923 128.149  1.00  0.00    -0.390 OA
ATOM     17  H   UNL     1     116.560 126.351 127.599  1.00  0.00     0.211 HD
ENDBRANCH   1  16
TORSDOF 2
ENDMDL
MODEL 3
REMARK VINA RESULT:    -5.957      2.553      4.520
REMARK INTER + INTRA:          -6.682
REMARK INTER:                  -6.292
REMARK INTRA:                  -0.390
REMARK UNBOUND:                -0.202
REMARK SMILES CC1=CCC[C@@]2(C)CC[C@H](C(C)(C)O)C[C@@H]12
REMARK SMILES IDX 11 1 12 2 13 3 10 4 1 5 2 6 3 7 16 8 4 9 6 10 15 11 5 12
REMARK SMILES IDX 7 13 8 14 9 15 14 16
REMARK H PARENT 14 17
REMARK Flexibility Score: inf
ROOT
ATOM      1  C   UNL     1     115.561 121.290 132.681  1.00  0.00     0.062 C 
ATOM      2  C   UNL     1     117.053 121.085 132.339  1.00  0.00     0.042 C 
ATOM      3  C   UNL     1     114.945 119.883 132.875  1.00  0.00     0.042 C 
ENDROOT
BRANCH   1   4
ATOM      4  C   UNL     1     114.851 122.092 131.525  1.00  0.00     0.021 C 
ATOM      5  C   UNL     1     115.119 118.757 128.389  1.00  0.00     0.039 C 
ATOM      6  C   UNL     1     114.817 120.203 128.086  1.00  0.00    -0.074 C 
ATOM      7  C   UNL     1     114.168 120.495 126.941  1.00  0.00    -0.028 C 
ATOM      8  C   UNL     1     115.222 121.272 129.096  1.00  0.00     0.021 C 
ATOM      9  C   UNL     1     113.930 121.897 126.457  1.00  0.00     0.028 C 
ATOM     10  C   UNL     1     115.216 122.732 128.515  1.00  0.00    -0.026 C 
ATOM     11  C   UNL     1     114.346 121.171 130.366  1.00  0.00     0.015 C 
ATOM     12  C   UNL     1     113.987 122.925 127.588  1.00  0.00     0.011 C 
ATOM     13  C   UNL     1     116.524 122.964 127.716  1.00  0.00     0.012 C 
ATOM     14  C   UNL     1     115.136 123.797 129.659  1.00  0.00     0.008 C 
ATOM     15  C   UNL     1     115.703 123.275 130.982  1.00  0.00     0.007 C 
ENDBRANCH   1   4
BRANCH   1  16
ATOM     16  O   UNL     1     115.496 122.003 133.894  1.00  0.00    -0.390 OA
ATOM     17  H   UNL     1     115.913 121.447 134.603  1.00  0.00     0.211 HD
ENDBRANCH   1  16
TORSDOF 2
ENDMDL
MODEL 4
REMARK VINA RESULT:    -5.789      3.010      5.281
REMARK INTER + INTRA:          -6.499
REMARK INTER:                  -6.087
REMARK INTRA:                  -0.412
REMARK UNBOUND:                -0.202
REMARK SMILES CC1=CCC[C@@]2(C)CC[C@H](C(C)(C)O)C[C@@H]12
REMARK SMILES IDX 11 1 12 2 13 3 10 4 1 5 2 6 3 7 16 8 4 9 6 10 15 11 5 12
REMARK SMILES IDX 7 13 8 14 9 15 14 16
REMARK H PARENT 14 17
REMARK Flexibility Score: inf
ROOT
ATOM      1  C   UNL     1     115.717 120.587 133.436  1.00  0.00     0.062 C 
ATOM      2  C   UNL     1     114.382 121.194 133.918  1.00  0.00     0.042 C 
ATOM      3  C   UNL     1     116.836 121.578 133.841  1.00  0.00     0.042 C 
ENDROOT
BRANCH   1   4
ATOM      4  C   UNL     1     115.670 120.352 131.879  1.00  0.00     0.021 C 
ATOM      5  C   UNL     1     117.212 124.512 130.718  1.00  0.00     0.039 C 
ATOM      6  C   UNL     1     116.530 123.553 129.777  1.00  0.00    -0.074 C 
ATOM      7  C   UNL     1     116.751 123.690 128.454  1.00  0.00    -0.028 C 
ATOM      8  C   UNL     1     115.652 122.446 130.353  1.00  0.00     0.021 C 
ATOM      9  C   UNL     1     116.028 122.891 127.406  1.00  0.00     0.028 C 
ATOM     10  C   UNL     1     114.704 121.771 129.298  1.00  0.00    -0.026 C 
ATOM     11  C   UNL     1     116.521 121.394 131.080  1.00  0.00     0.015 C 
ATOM     12  C   UNL     1     115.459 121.582 127.956  1.00  0.00     0.011 C 
ATOM     13  C   UNL     1     113.462 122.672 129.084  1.00  0.00     0.012 C 
ATOM     14  C   UNL     1     114.220 120.366 129.788  1.00  0.00     0.008 C 
ATOM     15  C   UNL     1     114.224 120.248 131.315  1.00  0.00     0.007 C 
ENDBRANCH   1   4
BRANCH   1  16
ATOM     16  O   UNL     1     115.901 119.367 134.117  1.00  0.00    -0.390 OA
ATOM     17  H   UNL     1     115.660 118.629 133.500  1.00  0.00     0.211 HD
ENDBRANCH   1  16
TORSDOF 2
ENDMDL
MODEL 5
REMARK VINA RESULT:    -5.780      2.888      5.022
REMARK INTER + INTRA:          -6.489
REMARK INTER:                  -6.149
REMARK INTRA:                  -0.340
REMARK UNBOUND:                -0.202
REMARK SMILES CC1=CCC[C@@]2(C)CC[C@H](C(C)(C)O)C[C@@H]12
REMARK SMILES IDX 11 1 12 2 13 3 10 4 1 5 2 6 3 7 16 8 4 9 6 10 15 11 5 12
REMARK SMILES IDX 7 13 8 14 9 15 14 16
REMARK H PARENT 14 17
REMARK Flexibility Score: inf
ROOT
ATOM      1  C   UNL     1     114.940 120.874 133.020  1.00  0.00     0.062 C 
ATOM      2  C   UNL     1     115.876 119.831 133.668  1.00  0.00     0.042 C 
ATOM      3  C   UNL     1     113.979 120.100 132.085  1.00  0.00     0.042 C 
ENDROOT
BRANCH   1   4
ATOM      4  C   UNL     1     115.791 121.946 132.239  1.00  0.00     0.021 C 
ATOM      5  C   UNL     1     114.064 121.004 128.096  1.00  0.00     0.039 C 
ATOM      6  C   UNL     1     115.322 121.795 128.345  1.00  0.00    -0.074 C 
ATOM      7  C   UNL     1     115.746 122.643 127.386  1.00  0.00    -0.028 C 
ATOM      8  C   UNL     1     116.046 121.637 129.679  1.00  0.00     0.021 C 
ATOM      9  C   UNL     1     117.051 123.383 127.451  1.00  0.00     0.028 C 
ATOM     10  C   UNL     1     117.516 122.191 129.676  1.00  0.00    -0.026 C 
ATOM     11  C   UNL     1     115.213 122.265 130.821  1.00  0.00     0.015 C 
ATOM     12  C   UNL     1     117.576 123.523 128.881  1.00  0.00     0.011 C 
ATOM     13  C   UNL     1     118.451 121.142 129.023  1.00  0.00     0.012 C 
ATOM     14  C   UNL     1     118.020 122.469 131.131  1.00  0.00     0.008 C 
ATOM     15  C   UNL     1     117.306 121.602 132.171  1.00  0.00     0.007 C 
ENDBRANCH   1   4
BRANCH   1  16
ATOM     16  O   UNL     1     114.201 121.483 134.053  1.00  0.00    -0.390 OA
ATOM     17  H   UNL     1     113.361 120.969 134.177  1.00  0.00     0.211 HD
ENDBRANCH   1  16
TORSDOF 2
ENDMDL
MODEL 6
REMARK VINA RESULT:    -5.646      1.904      2.915
REMARK INTER + INTRA:          -6.343
REMARK INTER:                  -6.052
REMARK INTRA:                  -0.291
REMARK UNBOUND:                -0.202
REMARK SMILES CC1=CCC[C@@]2(C)CC[C@H](C(C)(C)O)C[C@@H]12
REMARK SMILES IDX 11 1 12 2 13 3 10 4 1 5 2 6 3 7 16 8 4 9 6 10 15 11 5 12
REMARK SMILES IDX 7 13 8 14 9 15 14 16
REMARK H PARENT 14 17
REMARK Flexibility Score: inf
ROOT
ATOM      1  C   UNL     1     117.213 125.008 127.868  1.00  0.00     0.062 C 
ATOM      2  C   UNL     1     116.578 126.390 127.604  1.00  0.00     0.042 C 
ATOM      3  C   UNL     1     117.732 124.481 126.508  1.00  0.00     0.042 C 
ENDROOT
BRANCH   1   4
ATOM      4  C   UNL     1     116.146 124.041 128.509  1.00  0.00     0.021 C 
ATOM      5  C   UNL     1     118.450 120.163 127.681  1.00  0.00     0.039 C 
ATOM      6  C   UNL     1     116.990 120.236 128.050  1.00  0.00    -0.074 C 
ATOM      7  C   UNL     1     116.413 119.147 128.596  1.00  0.00    -0.028 C 
ATOM      8  C   UNL     1     116.233 121.543 127.830  1.00  0.00     0.021 C 
ATOM      9  C   UNL     1     114.942 119.043 128.881  1.00  0.00     0.028 C 
ATOM     10  C   UNL     1     114.671 121.390 127.879  1.00  0.00    -0.026 C 
ATOM     11  C   UNL     1     116.722 122.622 128.824  1.00  0.00     0.015 C 
ATOM     12  C   UNL     1     114.272 120.411 129.015  1.00  0.00     0.011 C 
ATOM     13  C   UNL     1     114.172 120.848 126.515  1.00  0.00     0.012 C 
ATOM     14  C   UNL     1     113.974 122.764 128.153  1.00  0.00     0.008 C 
ATOM     15  C   UNL     1     114.826 123.950 127.692  1.00  0.00     0.007 C 
ENDBRANCH   1   4
BRANCH   1  16
ATOM     16  O   UNL     1     118.300 125.199 128.744  1.00  0.00    -0.390 OA
ATOM     17  H   UNL     1     118.627 124.306 129.031  1.00  0.00     0.211 HD
ENDBRANCH   1  16
TORSDOF 2
ENDMDL
MODEL 7
REMARK VINA RESULT:    -5.571      1.824      2.668
REMARK INTER + INTRA:          -6.261
REMARK INTER:                  -5.856
REMARK INTRA:                  -0.405
REMARK UNBOUND:                -0.202
REMARK SMILES CC1=CCC[C@@]2(C)CC[C@H](C(C)(C)O)C[C@@H]12
REMARK SMILES IDX 11 1 12 2 13 3 10 4 1 5 2 6 3 7 16 8 4 9 6 10 15 11 5 12
REMARK SMILES IDX 7 13 8 14 9 15 14 16
REMARK H PARENT 14 17
REMARK Flexibility Score: inf
ROOT
ATOM      1  C   UNL     1     117.420 125.307 127.544  1.00  0.00     0.062 C 
ATOM      2  C   UNL     1     118.374 125.553 128.733  1.00  0.00     0.042 C 
ATOM      3  C   UNL     1     116.031 125.852 127.959  1.00  0.00     0.042 C 
ENDROOT
BRANCH   1   4
ATOM      4  C   UNL     1     117.374 123.769 127.203  1.00  0.00     0.021 C 
ATOM      5  C   UNL     1     113.608 122.843 129.651  1.00  0.00     0.039 C 
ATOM      6  C   UNL     1     114.574 121.809 129.131  1.00  0.00    -0.074 C 
ATOM      7  C   UNL     1     114.134 120.544 128.974  1.00  0.00    -0.028 C 
ATOM      8  C   UNL     1     115.994 122.236 128.769  1.00  0.00     0.021 C 
ATOM      9  C   UNL     1     115.027 119.397 128.598  1.00  0.00     0.028 C 
ATOM     10  C   UNL     1     116.999 121.039 128.619  1.00  0.00    -0.026 C 
ATOM     11  C   UNL     1     115.983 123.121 127.501  1.00  0.00     0.015 C 
ATOM     12  C   UNL     1     116.306 119.854 127.895  1.00  0.00     0.011 C 
ATOM     13  C   UNL     1     117.471 120.594 130.027  1.00  0.00     0.012 C 
ATOM     14  C   UNL     1     118.255 121.454 127.782  1.00  0.00     0.008 C 
ATOM     15  C   UNL     1     118.531 122.958 127.854  1.00  0.00     0.007 C 
ENDBRANCH   1   4
BRANCH   1  16
ATOM     16  O   UNL     1     117.906 126.046 126.448  1.00  0.00    -0.390 OA
ATOM     17  H   UNL     1     118.067 126.977 126.749  1.00  0.00     0.211 HD
ENDBRANCH   1  16
TORSDOF 2
ENDMDL
MODEL 8
REMARK VINA RESULT:    -5.430      2.077      5.253
REMARK INTER + INTRA:          -6.108
REMARK INTER:                  -5.706
REMARK INTRA:                  -0.402
REMARK UNBOUND:                -0.202
REMARK SMILES CC1=CCC[C@@]2(C)CC[C@H](C(C)(C)O)C[C@@H]12
REMARK SMILES IDX 11 1 12 2 13 3 10 4 1 5 2 6 3 7 16 8 4 9 6 10 15 11 5 12
REMARK SMILES IDX 7 13 8 14 9 15 14 16
REMARK H PARENT 14 17
REMARK Flexibility Score: inf
ROOT
ATOM      1  C   UNL     1     115.008 122.795 128.650  1.00  0.00     0.062 C 
ATOM      2  C   UNL     1     115.904 121.831 129.457  1.00  0.00     0.042 C 
ATOM      3  C   UNL     1     115.064 122.334 127.173  1.00  0.00     0.042 C 
ENDROOT
BRANCH   1   4
ATOM      4  C   UNL     1     115.517 124.275 128.828  1.00  0.00     0.021 C 
ATOM      5  C   UNL     1     119.172 123.860 126.090  1.00  0.00     0.039 C 
ATOM      6  C   UNL     1     118.957 124.980 127.075  1.00  0.00    -0.074 C 
ATOM      7  C   UNL     1     119.606 126.144 126.873  1.00  0.00    -0.028 C 
ATOM      8  C   UNL     1     117.990 124.770 128.237  1.00  0.00     0.021 C 
ATOM      9  C   UNL     1     119.586 127.285 127.850  1.00  0.00     0.028 C 
ATOM     10  C   UNL     1     118.140 125.827 129.389  1.00  0.00    -0.026 C 
ATOM     11  C   UNL     1     116.534 124.706 127.720  1.00  0.00     0.015 C 
ATOM     12  C   UNL     1     118.376 127.236 128.784  1.00  0.00     0.011 C 
ATOM     13  C   UNL     1     119.338 125.430 130.288  1.00  0.00     0.012 C 
ATOM     14  C   UNL     1     116.851 125.887 130.275  1.00  0.00     0.008 C 
ATOM     15  C   UNL     1     116.067 124.572 130.252  1.00  0.00     0.007 C 
ENDBRANCH   1   4
BRANCH   1  16
ATOM     16  O   UNL     1     113.692 122.659 129.135  1.00  0.00    -0.390 OA
ATOM     17  H   UNL     1     113.711 122.047 129.916  1.00  0.00     0.211 HD
ENDBRANCH   1  16
TORSDOF 2
ENDMDL
MODEL 9
REMARK VINA RESULT:    -5.409      1.595      3.067
REMARK INTER + INTRA:          -6.086
REMARK INTER:                  -5.791
REMARK INTRA:                  -0.295
REMARK UNBOUND:                -0.202
REMARK SMILES CC1=CCC[C@@]2(C)CC[C@H](C(C)(C)O)C[C@@H]12
REMARK SMILES IDX 11 1 12 2 13 3 10 4 1 5 2 6 3 7 16 8 4 9 6 10 15 11 5 12
REMARK SMILES IDX 7 13 8 14 9 15 14 16
REMARK H PARENT 14 17
REMARK Flexibility Score: inf
ROOT
ATOM      1  C   UNL     1     117.065 125.757 129.573  1.00  0.00     0.062 C 
ATOM      2  C   UNL     1     117.527 126.800 128.533  1.00  0.00     0.042 C 
ATOM      3  C   UNL     1     118.340 125.077 130.129  1.00  0.00     0.042 C 
ENDROOT
BRANCH   1   4
ATOM      4  C   UNL     1     116.089 124.720 128.896  1.00  0.00     0.021 C 
ATOM      5  C   UNL     1     116.229 121.640 132.292  1.00  0.00     0.039 C 
ATOM      6  C   UNL     1     115.717 121.367 130.900  1.00  0.00    -0.074 C 
ATOM      7  C   UNL     1     114.861 120.340 130.724  1.00  0.00    -0.028 C 
ATOM      8  C   UNL     1     116.154 122.278 129.757  1.00  0.00     0.021 C 
ATOM      9  C   UNL     1     114.388 119.878 129.375  1.00  0.00     0.028 C 
ATOM     10  C   UNL     1     115.885 121.681 128.329  1.00  0.00    -0.026 C 
ATOM     11  C   UNL     1     115.513 123.677 129.909  1.00  0.00     0.015 C 
ATOM     12  C   UNL     1     114.508 120.966 128.307  1.00  0.00     0.011 C 
ATOM     13  C   UNL     1     117.010 120.673 127.981  1.00  0.00     0.012 C 
ATOM     14  C   UNL     1     115.869 122.803 127.239  1.00  0.00     0.008 C 
ATOM     15  C   UNL     1     116.698 124.024 127.647  1.00  0.00     0.007 C 
ENDBRANCH   1   4
BRANCH   1  16
ATOM     16  O   UNL     1     116.412 126.450 130.611  1.00  0.00    -0.390 OA
ATOM     17  H   UNL     1     116.670 126.032 131.473  1.00  0.00     0.211 HD
ENDBRANCH   1  16
TORSDOF 2
ENDMDL
