MODEL 1
REMARK VINA RESULT:    -6.935      0.000      0.000
REMARK INTER + INTRA:          -8.570
REMARK INTER:                  -8.557
REMARK INTRA:                  -0.013
REMARK UNBOUND:                -0.013
REMARK SMILES O=c1c(O)c(-c2cc(O)c(O)c(O)c2)oc2cc(O)cc(O)c12
REMARK SMILES IDX 5 1 3 2 2 3 1 4 23 5 21 6 20 7 18 8 17 9 16 10 15 11 6 12
REMARK SMILES IDX 7 13 8 14 14 15 10 16 12 17 9 18 11 20 13 22 4 24 22 26
REMARK SMILES IDX 19 28
REMARK H PARENT 9 19 11 21 13 23 4 25 22 27 19 29
REMARK Flexibility Score: inf
ROOT
ATOM      1  C   UNL     1       7.933  -7.895  42.219  1.00  0.00     0.180 A 
ATOM      2  C   UNL     1       7.887  -8.416  43.523  1.00  0.00     0.208 A 
ATOM      3  C   UNL     1       7.394  -9.716  43.719  1.00  0.00     0.238 A 
ATOM      4  O   UNL     1       7.405 -10.197  44.882  1.00  0.00    -0.285 OA
ATOM      5  C   UNL     1       6.939 -10.471  42.612  1.00  0.00     0.111 A 
ATOM      6  C   UNL     1       6.382 -11.783  42.700  1.00  0.00     0.134 A 
ATOM      7  C   UNL     1       6.086 -12.487  41.526  1.00  0.00     0.093 A 
ATOM      8  C   UNL     1       6.265 -11.902  40.271  1.00  0.00     0.123 A 
ATOM      9  C   UNL     1       6.752 -10.601  40.177  1.00  0.00     0.094 A 
ATOM     10  C   UNL     1       7.090  -9.886  41.328  1.00  0.00     0.146 A 
ATOM     11  O   UNL     1       7.560  -8.652  41.193  1.00  0.00    -0.452 OA
ENDROOT
BRANCH   1  12
ATOM     12  C   UNL     1       8.416  -6.524  41.935  1.00  0.00     0.029 A 
ATOM     13  C   UNL     1       7.669  -5.633  41.145  1.00  0.00     0.062 A 
ATOM     14  C   UNL     1       8.154  -4.348  40.869  1.00  0.00     0.162 A 
ATOM     15  C   UNL     1       9.673  -6.122  42.414  1.00  0.00     0.062 A 
ATOM     16  C   UNL     1       9.403  -3.945  41.372  1.00  0.00     0.200 A 
ATOM     17  C   UNL     1      10.163  -4.839  42.144  1.00  0.00     0.162 A 
BRANCH  14  18
ATOM     18  O   UNL     1       7.399  -3.470  40.090  1.00  0.00    -0.504 OA
ATOM     19  H   UNL     1       7.741  -3.118  39.203  1.00  0.00     0.293 HD
ENDBRANCH  14  18
BRANCH  16  20
ATOM     20  O   UNL     1       9.898  -2.667  41.109  1.00  0.00    -0.502 OA
ATOM     21  H   UNL     1       9.293  -1.894  40.862  1.00  0.00     0.293 HD
ENDBRANCH  16  20
BRANCH  17  22
ATOM     22  O   UNL     1      11.410  -4.473  42.651  1.00  0.00    -0.504 OA
ATOM     23  H   UNL     1      11.923  -5.061  43.296  1.00  0.00     0.293 HD
ENDBRANCH  17  22
ENDBRANCH   1  12
BRANCH   2  24
ATOM     24  O   UNL     1       8.361  -7.661  44.598  1.00  0.00    -0.502 OA
ATOM     25  H   UNL     1       8.792  -8.083  45.412  1.00  0.00     0.293 HD
ENDBRANCH   2  24
BRANCH   6  26
ATOM     26  O   UNL     1       6.077 -12.422  43.905  1.00  0.00    -0.507 OA
ATOM     27  H   UNL     1       5.143 -12.594  44.244  1.00  0.00     0.293 HD
ENDBRANCH   6  26
BRANCH   8  28
ATOM     28  O   UNL     1       5.953 -12.604  39.108  1.00  0.00    -0.508 OA
ATOM     29  H   UNL     1       5.208 -13.291  39.087  1.00  0.00     0.293 HD
ENDBRANCH   8  28
TORSDOF 7
ENDMDL
MODEL 2
REMARK VINA RESULT:    -6.661      1.974      7.810
REMARK INTER + INTRA:          -8.232
REMARK INTER:                  -8.031
REMARK INTRA:                  -0.201
REMARK UNBOUND:                -0.013
REMARK SMILES O=c1c(O)c(-c2cc(O)c(O)c(O)c2)oc2cc(O)cc(O)c12
REMARK SMILES IDX 5 1 3 2 2 3 1 4 23 5 21 6 20 7 18 8 17 9 16 10 15 11 6 12
REMARK SMILES IDX 7 13 8 14 14 15 10 16 12 17 9 18 11 20 13 22 4 24 22 26
REMARK SMILES IDX 19 28
REMARK H PARENT 9 19 11 21 13 23 4 25 22 27 19 29
REMARK Flexibility Score: inf
ROOT
ATOM      1  C   UNL     1       9.061  -6.083  41.957  1.00  0.00     0.180 A 
ATOM      2  C   UNL     1      10.132  -5.982  41.054  1.00  0.00     0.208 A 
ATOM      3  C   UNL     1      10.708  -4.724  40.818  1.00  0.00     0.238 A 
ATOM      4  O   UNL     1      11.702  -4.649  40.049  1.00  0.00    -0.285 OA
ATOM      5  C   UNL     1      10.195  -3.580  41.476  1.00  0.00     0.111 A 
ATOM      6  C   UNL     1      10.675  -2.250  41.280  1.00  0.00     0.134 A 
ATOM      7  C   UNL     1      10.181  -1.214  42.081  1.00  0.00     0.093 A 
ATOM      8  C   UNL     1       9.177  -1.448  43.024  1.00  0.00     0.123 A 
ATOM      9  C   UNL     1       8.660  -2.732  43.180  1.00  0.00     0.094 A 
ATOM     10  C   UNL     1       9.158  -3.793  42.421  1.00  0.00     0.146 A 
ATOM     11  O   UNL     1       8.644  -5.003  42.608  1.00  0.00    -0.452 OA
ENDROOT
BRANCH   1  12
ATOM     12  C   UNL     1       8.386  -7.371  42.239  1.00  0.00     0.029 A 
ATOM     13  C   UNL     1       8.477  -7.984  43.500  1.00  0.00     0.062 A 
ATOM     14  C   UNL     1       7.851  -9.215  43.740  1.00  0.00     0.162 A 
ATOM     15  C   UNL     1       7.689  -8.024  41.211  1.00  0.00     0.062 A 
ATOM     16  C   UNL     1       7.135  -9.851  42.712  1.00  0.00     0.200 A 
ATOM     17  C   UNL     1       7.059  -9.252  41.443  1.00  0.00     0.162 A 
BRANCH  14  18
ATOM     18  O   UNL     1       7.943  -9.810  44.998  1.00  0.00    -0.504 OA
ATOM     19  H   UNL     1       8.827  -9.889  45.486  1.00  0.00     0.293 HD
ENDBRANCH  14  18
BRANCH  16  20
ATOM     20  O   UNL     1       6.502 -11.074  42.936  1.00  0.00    -0.502 OA
ATOM     21  H   UNL     1       5.568 -11.136  43.323  1.00  0.00     0.293 HD
ENDBRANCH  16  20
BRANCH  17  22
ATOM     22  O   UNL     1       6.363  -9.862  40.400  1.00  0.00    -0.504 OA
ATOM     23  H   UNL     1       5.998 -10.803  40.473  1.00  0.00     0.293 HD
ENDBRANCH  17  22
ENDBRANCH   1  12
BRANCH   2  24
ATOM     24  O   UNL     1      10.636  -7.128  40.432  1.00  0.00    -0.502 OA
ATOM     25  H   UNL     1      11.627  -7.338  40.399  1.00  0.00     0.293 HD
ENDBRANCH   2  24
BRANCH   6  26
ATOM     26  O   UNL     1      11.609  -1.893  40.304  1.00  0.00    -0.507 OA
ATOM     27  H   UNL     1      12.396  -1.281  40.459  1.00  0.00     0.293 HD
ENDBRANCH   6  26
BRANCH   8  28
ATOM     28  O   UNL     1       8.679  -0.407  43.806  1.00  0.00    -0.508 OA
ATOM     29  H   UNL     1       8.495   0.509  43.414  1.00  0.00     0.293 HD
ENDBRANCH   8  28
TORSDOF 7
ENDMDL
MODEL 3
REMARK VINA RESULT:    -6.615      1.940      7.401
REMARK INTER + INTRA:          -8.174
REMARK INTER:                  -7.922
REMARK INTRA:                  -0.252
REMARK UNBOUND:                -0.013
REMARK SMILES O=c1c(O)c(-c2cc(O)c(O)c(O)c2)oc2cc(O)cc(O)c12
REMARK SMILES IDX 5 1 3 2 2 3 1 4 23 5 21 6 20 7 18 8 17 9 16 10 15 11 6 12
REMARK SMILES IDX 7 13 8 14 14 15 10 16 12 17 9 18 11 20 13 22 4 24 22 26
REMARK SMILES IDX 19 28
REMARK H PARENT 9 19 11 21 13 23 4 25 22 27 19 29
REMARK Flexibility Score: inf
ROOT
ATOM      1  C   UNL     1       8.729  -6.107  42.105  1.00  0.00     0.180 A 
ATOM      2  C   UNL     1       8.195  -4.958  42.714  1.00  0.00     0.208 A 
ATOM      3  C   UNL     1       8.823  -3.721  42.501  1.00  0.00     0.238 A 
ATOM      4  O   UNL     1       8.310  -2.688  43.004  1.00  0.00    -0.285 OA
ATOM      5  C   UNL     1       9.985  -3.651  41.695  1.00  0.00     0.111 A 
ATOM      6  C   UNL     1      10.726  -2.456  41.445  1.00  0.00     0.134 A 
ATOM      7  C   UNL     1      11.784  -2.480  40.528  1.00  0.00     0.093 A 
ATOM      8  C   UNL     1      12.168  -3.668  39.902  1.00  0.00     0.123 A 
ATOM      9  C   UNL     1      11.489  -4.850  40.186  1.00  0.00     0.094 A 
ATOM     10  C   UNL     1      10.407  -4.851  41.069  1.00  0.00     0.146 A 
ATOM     11  O   UNL     1       9.781  -5.999  41.303  1.00  0.00    -0.452 OA
ENDROOT
BRANCH   1  12
ATOM     12  C   UNL     1       8.137  -7.450  42.303  1.00  0.00     0.029 A 
ATOM     13  C   UNL     1       8.179  -8.091  43.554  1.00  0.00     0.062 A 
ATOM     14  C   UNL     1       7.634  -9.373  43.715  1.00  0.00     0.162 A 
ATOM     15  C   UNL     1       7.573  -8.125  41.209  1.00  0.00     0.062 A 
ATOM     16  C   UNL     1       7.051 -10.031  42.619  1.00  0.00     0.200 A 
ATOM     17  C   UNL     1       7.025  -9.403  41.363  1.00  0.00     0.162 A 
BRANCH  14  18
ATOM     18  O   UNL     1       7.676  -9.996  44.962  1.00  0.00    -0.504 OA
ATOM     19  H   UNL     1       7.489 -10.986  45.069  1.00  0.00     0.293 HD
ENDBRANCH  14  18
BRANCH  16  20
ATOM     20  O   UNL     1       6.500 -11.305  42.765  1.00  0.00    -0.502 OA
ATOM     21  H   UNL     1       6.772 -11.928  43.515  1.00  0.00     0.293 HD
ENDBRANCH  16  20
BRANCH  17  22
ATOM     22  O   UNL     1       6.461 -10.033  40.254  1.00  0.00    -0.504 OA
ATOM     23  H   UNL     1       6.722 -10.971  39.977  1.00  0.00     0.293 HD
ENDBRANCH  17  22
ENDBRANCH   1  12
BRANCH   2  24
ATOM     24  O   UNL     1       7.035  -5.048  43.488  1.00  0.00    -0.502 OA
ATOM     25  H   UNL     1       6.212  -5.550  43.178  1.00  0.00     0.293 HD
ENDBRANCH   2  24
BRANCH   6  26
ATOM     26  O   UNL     1      10.483  -1.238  42.086  1.00  0.00    -0.507 OA
ATOM     27  H   UNL     1      10.914  -0.948  42.951  1.00  0.00     0.293 HD
ENDBRANCH   6  26
BRANCH   8  28
ATOM     28  O   UNL     1      13.232  -3.686  39.002  1.00  0.00    -0.508 OA
ATOM     29  H   UNL     1      13.639  -4.556  38.679  1.00  0.00     0.293 HD
ENDBRANCH   8  28
TORSDOF 7
ENDMDL
MODEL 4
REMARK VINA RESULT:    -6.554      1.924      7.238
REMARK INTER + INTRA:          -8.100
REMARK INTER:                  -7.871
REMARK INTRA:                  -0.228
REMARK UNBOUND:                -0.013
REMARK SMILES O=c1c(O)c(-c2cc(O)c(O)c(O)c2)oc2cc(O)cc(O)c12
REMARK SMILES IDX 5 1 3 2 2 3 1 4 23 5 21 6 20 7 18 8 17 9 16 10 15 11 6 12
REMARK SMILES IDX 7 13 8 14 14 15 10 16 12 17 9 18 11 20 13 22 4 24 22 26
REMARK SMILES IDX 19 28
REMARK H PARENT 9 19 11 21 13 23 4 25 22 27 19 29
REMARK Flexibility Score: inf
ROOT
ATOM      1  C   UNL     1       8.730  -6.169  42.085  1.00  0.00     0.180 A 
ATOM      2  C   UNL     1       8.176  -5.025  42.685  1.00  0.00     0.208 A 
ATOM      3  C   UNL     1       8.786  -3.780  42.466  1.00  0.00     0.238 A 
ATOM      4  O   UNL     1       8.254  -2.752  42.962  1.00  0.00    -0.285 OA
ATOM      5  C   UNL     1       9.950  -3.696  41.665  1.00  0.00     0.111 A 
ATOM      6  C   UNL     1      10.673  -2.492  41.411  1.00  0.00     0.134 A 
ATOM      7  C   UNL     1      11.735  -2.504  40.498  1.00  0.00     0.093 A 
ATOM      8  C   UNL     1      12.140  -3.690  39.881  1.00  0.00     0.123 A 
ATOM      9  C   UNL     1      11.478  -4.881  40.169  1.00  0.00     0.094 A 
ATOM     10  C   UNL     1      10.393  -4.894  41.047  1.00  0.00     0.146 A 
ATOM     11  O   UNL     1       9.784  -6.049  41.286  1.00  0.00    -0.452 OA
ENDROOT
BRANCH   1  12
ATOM     12  C   UNL     1       8.158  -7.521  42.289  1.00  0.00     0.029 A 
ATOM     13  C   UNL     1       7.505  -8.203  41.248  1.00  0.00     0.062 A 
ATOM     14  C   UNL     1       6.950  -9.471  41.466  1.00  0.00     0.162 A 
ATOM     15  C   UNL     1       8.217  -8.111  43.561  1.00  0.00     0.062 A 
ATOM     16  C   UNL     1       7.033 -10.064  42.737  1.00  0.00     0.200 A 
ATOM     17  C   UNL     1       7.667  -9.377  43.786  1.00  0.00     0.162 A 
BRANCH  14  18
ATOM     18  O   UNL     1       6.310 -10.141  40.424  1.00  0.00    -0.504 OA
ATOM     19  H   UNL     1       6.587 -11.074  40.142  1.00  0.00     0.293 HD
ENDBRANCH  14  18
BRANCH  16  20
ATOM     20  O   UNL     1       6.490 -11.329  42.970  1.00  0.00    -0.502 OA
ATOM     21  H   UNL     1       6.435 -12.034  42.246  1.00  0.00     0.293 HD
ENDBRANCH  16  20
BRANCH  17  22
ATOM     22  O   UNL     1       7.760  -9.936  45.061  1.00  0.00    -0.504 OA
ATOM     23  H   UNL     1       8.363 -10.724  45.262  1.00  0.00     0.293 HD
ENDBRANCH  17  22
ENDBRANCH   1  12
BRANCH   2  24
ATOM     24  O   UNL     1       7.015  -5.128  43.454  1.00  0.00    -0.502 OA
ATOM     25  H   UNL     1       6.930  -5.777  44.228  1.00  0.00     0.293 HD
ENDBRANCH   2  24
BRANCH   6  26
ATOM     26  O   UNL     1      10.409  -1.274  42.044  1.00  0.00    -0.507 OA
ATOM     27  H   UNL     1      11.047  -0.493  42.076  1.00  0.00     0.293 HD
ENDBRANCH   6  26
BRANCH   8  28
ATOM     28  O   UNL     1      13.208  -3.697  38.985  1.00  0.00    -0.508 OA
ATOM     29  H   UNL     1      13.951  -4.383  39.051  1.00  0.00     0.293 HD
ENDBRANCH   8  28
TORSDOF 7
ENDMDL
MODEL 5
REMARK VINA RESULT:    -6.320      2.253      4.380
REMARK INTER + INTRA:          -7.811
REMARK INTER:                  -7.638
REMARK INTRA:                  -0.173
REMARK UNBOUND:                -0.013
REMARK SMILES O=c1c(O)c(-c2cc(O)c(O)c(O)c2)oc2cc(O)cc(O)c12
REMARK SMILES IDX 5 1 3 2 2 3 1 4 23 5 21 6 20 7 18 8 17 9 16 10 15 11 6 12
REMARK SMILES IDX 7 13 8 14 14 15 10 16 12 17 9 18 11 20 13 22 4 24 22 26
REMARK SMILES IDX 19 28
REMARK H PARENT 9 19 11 21 13 23 4 25 22 27 19 29
REMARK Flexibility Score: inf
ROOT
ATOM      1  C   UNL     1       7.218 -11.037  41.980  1.00  0.00     0.180 A 
ATOM      2  C   UNL     1       6.337 -11.224  40.901  1.00  0.00     0.208 A 
ATOM      3  C   UNL     1       5.771 -12.492  40.696  1.00  0.00     0.238 A 
ATOM      4  O   UNL     1       4.942 -12.639  39.761  1.00  0.00    -0.285 OA
ATOM      5  C   UNL     1       6.105 -13.560  41.562  1.00  0.00     0.111 A 
ATOM      6  C   UNL     1       5.623 -14.897  41.423  1.00  0.00     0.134 A 
ATOM      7  C   UNL     1       5.915 -15.842  42.414  1.00  0.00     0.093 A 
ATOM      8  C   UNL     1       6.727 -15.517  43.503  1.00  0.00     0.123 A 
ATOM      9  C   UNL     1       7.251 -14.232  43.616  1.00  0.00     0.094 A 
ATOM     10  C   UNL     1       6.948 -13.257  42.663  1.00  0.00     0.146 A 
ATOM     11  O   UNL     1       7.460 -12.042  42.814  1.00  0.00    -0.452 OA
ENDROOT
BRANCH   1  12
ATOM     12  C   UNL     1       7.873  -9.735  42.246  1.00  0.00     0.029 A 
ATOM     13  C   UNL     1       8.717  -9.134  41.296  1.00  0.00     0.062 A 
ATOM     14  C   UNL     1       9.347  -7.913  41.576  1.00  0.00     0.162 A 
ATOM     15  C   UNL     1       7.696  -9.115  43.492  1.00  0.00     0.062 A 
ATOM     16  C   UNL     1       9.146  -7.287  42.818  1.00  0.00     0.200 A 
ATOM     17  C   UNL     1       8.320  -7.895  43.778  1.00  0.00     0.162 A 
BRANCH  14  18
ATOM     18  O   UNL     1      10.177  -7.323  40.623  1.00  0.00    -0.504 OA
ATOM     19  H   UNL     1      10.749  -7.878  39.999  1.00  0.00     0.293 HD
ENDBRANCH  14  18
BRANCH  16  20
ATOM     20  O   UNL     1       9.762  -6.069  43.109  1.00  0.00    -0.502 OA
ATOM     21  H   UNL     1      10.745  -5.906  42.934  1.00  0.00     0.293 HD
ENDBRANCH  16  20
BRANCH  17  22
ATOM     22  O   UNL     1       8.106  -7.303  45.023  1.00  0.00    -0.504 OA
ATOM     23  H   UNL     1       7.699  -7.812  45.798  1.00  0.00     0.293 HD
ENDBRANCH  17  22
ENDBRANCH   1  12
BRANCH   2  24
ATOM     24  O   UNL     1       6.005 -10.149  40.071  1.00  0.00    -0.502 OA
ATOM     25  H   UNL     1       6.676  -9.714  39.450  1.00  0.00     0.293 HD
ENDBRANCH   2  24
BRANCH   6  26
ATOM     26  O   UNL     1       4.882 -15.350  40.328  1.00  0.00    -0.507 OA
ATOM     27  H   UNL     1       4.916 -14.945  39.405  1.00  0.00     0.293 HD
ENDBRANCH   6  26
BRANCH   8  28
ATOM     28  O   UNL     1       7.026 -16.469  44.477  1.00  0.00    -0.508 OA
ATOM     29  H   UNL     1       7.462 -17.352  44.238  1.00  0.00     0.293 HD
ENDBRANCH   8  28
TORSDOF 7
ENDMDL
MODEL 6
REMARK VINA RESULT:    -6.133      5.573      9.787
REMARK INTER + INTRA:          -7.580
REMARK INTER:                  -7.227
REMARK INTRA:                  -0.353
REMARK UNBOUND:                -0.013
REMARK SMILES O=c1c(O)c(-c2cc(O)c(O)c(O)c2)oc2cc(O)cc(O)c12
REMARK SMILES IDX 5 1 3 2 2 3 1 4 23 5 21 6 20 7 18 8 17 9 16 10 15 11 6 12
REMARK SMILES IDX 7 13 8 14 14 15 10 16 12 17 9 18 11 20 13 22 4 24 22 26
REMARK SMILES IDX 19 28
REMARK H PARENT 9 19 11 21 13 23 4 25 22 27 19 29
REMARK Flexibility Score: inf
ROOT
ATOM      1  C   UNL     1      10.075  -1.287  42.722  1.00  0.00     0.180 A 
ATOM      2  C   UNL     1      11.458  -1.141  42.518  1.00  0.00     0.208 A 
ATOM      3  C   UNL     1      12.240  -0.578  43.539  1.00  0.00     0.238 A 
ATOM      4  O   UNL     1      13.485  -0.499  43.372  1.00  0.00    -0.285 OA
ATOM      5  C   UNL     1      11.628  -0.154  44.743  1.00  0.00     0.111 A 
ATOM      6  C   UNL     1      12.318   0.467  45.827  1.00  0.00     0.134 A 
ATOM      7  C   UNL     1      11.635   0.725  47.022  1.00  0.00     0.093 A 
ATOM      8  C   UNL     1      10.272   0.446  47.148  1.00  0.00     0.123 A 
ATOM      9  C   UNL     1       9.577  -0.105  46.074  1.00  0.00     0.094 A 
ATOM     10  C   UNL     1      10.239  -0.408  44.882  1.00  0.00     0.146 A 
ATOM     11  O   UNL     1       9.541  -0.941  43.887  1.00  0.00    -0.452 OA
ENDROOT
BRANCH   1  12
ATOM     12  C   UNL     1       9.181  -1.849  41.683  1.00  0.00     0.029 A 
ATOM     13  C   UNL     1       8.873  -3.220  41.646  1.00  0.00     0.062 A 
ATOM     14  C   UNL     1       8.044  -3.737  40.641  1.00  0.00     0.162 A 
ATOM     15  C   UNL     1       8.677  -1.009  40.678  1.00  0.00     0.062 A 
ATOM     16  C   UNL     1       7.524  -2.884  39.653  1.00  0.00     0.200 A 
ATOM     17  C   UNL     1       7.847  -1.517  39.673  1.00  0.00     0.162 A 
BRANCH  14  18
ATOM     18  O   UNL     1       7.739  -5.098  40.620  1.00  0.00    -0.504 OA
ATOM     19  H   UNL     1       7.897  -5.691  41.426  1.00  0.00     0.293 HD
ENDBRANCH  14  18
BRANCH  16  20
ATOM     20  O   UNL     1       6.693  -3.382  38.648  1.00  0.00    -0.502 OA
ATOM     21  H   UNL     1       6.848  -4.285  38.218  1.00  0.00     0.293 HD
ENDBRANCH  16  20
BRANCH  17  22
ATOM     22  O   UNL     1       7.353  -0.646  38.701  1.00  0.00    -0.504 OA
ATOM     23  H   UNL     1       7.666   0.314  38.630  1.00  0.00     0.293 HD
ENDBRANCH  17  22
ENDBRANCH   1  12
BRANCH   2  24
ATOM     24  O   UNL     1      12.044  -1.585  41.330  1.00  0.00    -0.502 OA
ATOM     25  H   UNL     1      13.044  -1.713  41.231  1.00  0.00     0.293 HD
ENDBRANCH   2  24
BRANCH   6  26
ATOM     26  O   UNL     1      13.655   0.871  45.774  1.00  0.00    -0.507 OA
ATOM     27  H   UNL     1      14.208   1.135  46.574  1.00  0.00     0.293 HD
ENDBRANCH   6  26
BRANCH   8  28
ATOM     28  O   UNL     1       9.596   0.721  48.335  1.00  0.00    -0.508 OA
ATOM     29  H   UNL     1       8.698   1.191  48.337  1.00  0.00     0.293 HD
ENDBRANCH   8  28
TORSDOF 7
ENDMDL
MODEL 7
REMARK VINA RESULT:    -6.080      7.262     10.249
REMARK INTER + INTRA:          -7.515
REMARK INTER:                  -7.265
REMARK INTRA:                  -0.250
REMARK UNBOUND:                -0.013
REMARK SMILES O=c1c(O)c(-c2cc(O)c(O)c(O)c2)oc2cc(O)cc(O)c12
REMARK SMILES IDX 5 1 3 2 2 3 1 4 23 5 21 6 20 7 18 8 17 9 16 10 15 11 6 12
REMARK SMILES IDX 7 13 8 14 14 15 10 16 12 17 9 18 11 20 13 22 4 24 22 26
REMARK SMILES IDX 19 28
REMARK H PARENT 9 19 11 21 13 23 4 25 22 27 19 29
REMARK Flexibility Score: inf
ROOT
ATOM      1  C   UNL     1       9.550  -4.057  34.730  1.00  0.00     0.180 A 
ATOM      2  C   UNL     1       9.618  -5.425  34.416  1.00  0.00     0.208 A 
ATOM      3  C   UNL     1      10.711  -5.899  33.674  1.00  0.00     0.238 A 
ATOM      4  O   UNL     1      10.793  -7.133  33.442  1.00  0.00    -0.285 OA
ATOM      5  C   UNL     1      11.713  -4.998  33.241  1.00  0.00     0.111 A 
ATOM      6  C   UNL     1      12.843  -5.362  32.449  1.00  0.00     0.134 A 
ATOM      7  C   UNL     1      13.839  -4.413  32.190  1.00  0.00     0.093 A 
ATOM      8  C   UNL     1      13.714  -3.096  32.638  1.00  0.00     0.123 A 
ATOM      9  C   UNL     1      12.585  -2.716  33.361  1.00  0.00     0.094 A 
ATOM     10  C   UNL     1      11.592  -3.650  33.667  1.00  0.00     0.146 A 
ATOM     11  O   UNL     1      10.538  -3.248  34.367  1.00  0.00    -0.452 OA
ENDROOT
BRANCH   1  12
ATOM     12  C   UNL     1       8.416  -3.478  35.488  1.00  0.00     0.029 A 
ATOM     13  C   UNL     1       7.493  -2.613  34.875  1.00  0.00     0.062 A 
ATOM     14  C   UNL     1       6.440  -2.056  35.615  1.00  0.00     0.162 A 
ATOM     15  C   UNL     1       8.292  -3.750  36.859  1.00  0.00     0.062 A 
ATOM     16  C   UNL     1       6.310  -2.352  36.982  1.00  0.00     0.200 A 
ATOM     17  C   UNL     1       7.242  -3.200  37.603  1.00  0.00     0.162 A 
BRANCH  14  18
ATOM     18  O   UNL     1       5.526  -1.205  34.995  1.00  0.00    -0.504 OA
ATOM     19  H   UNL     1       5.218  -1.358  34.042  1.00  0.00     0.293 HD
ENDBRANCH  14  18
BRANCH  16  20
ATOM     20  O   UNL     1       5.264  -1.810  37.731  1.00  0.00    -0.502 OA
ATOM     21  H   UNL     1       5.425  -1.292  38.586  1.00  0.00     0.293 HD
ENDBRANCH  16  20
BRANCH  17  22
ATOM     22  O   UNL     1       7.145  -3.507  38.961  1.00  0.00    -0.504 OA
ATOM     23  H   UNL     1       7.844  -4.061  39.439  1.00  0.00     0.293 HD
ENDBRANCH  17  22
ENDBRANCH   1  12
BRANCH   2  24
ATOM     24  O   UNL     1       8.628  -6.300  34.871  1.00  0.00    -0.502 OA
ATOM     25  H   UNL     1       8.243  -7.035  34.290  1.00  0.00     0.293 HD
ENDBRANCH   2  24
BRANCH   6  26
ATOM     26  O   UNL     1      13.020  -6.624  31.875  1.00  0.00    -0.507 OA
ATOM     27  H   UNL     1      12.576  -7.470  32.199  1.00  0.00     0.293 HD
ENDBRANCH   6  26
BRANCH   8  28
ATOM     28  O   UNL     1      14.702  -2.153  32.362  1.00  0.00    -0.508 OA
ATOM     29  H   UNL     1      15.551  -2.098  32.915  1.00  0.00     0.293 HD
ENDBRANCH   8  28
TORSDOF 7
ENDMDL
MODEL 8
REMARK VINA RESULT:    -5.920     13.157     14.744
REMARK INTER + INTRA:          -7.318
REMARK INTER:                  -6.953
REMARK INTRA:                  -0.364
REMARK UNBOUND:                -0.013
REMARK SMILES O=c1c(O)c(-c2cc(O)c(O)c(O)c2)oc2cc(O)cc(O)c12
REMARK SMILES IDX 5 1 3 2 2 3 1 4 23 5 21 6 20 7 18 8 17 9 16 10 15 11 6 12
REMARK SMILES IDX 7 13 8 14 14 15 10 16 12 17 9 18 11 20 13 22 4 24 22 26
REMARK SMILES IDX 19 28
REMARK H PARENT 9 19 11 21 13 23 4 25 22 27 19 29
REMARK Flexibility Score: inf
ROOT
ATOM      1  C   UNL     1      20.701 -11.961  44.320  1.00  0.00     0.180 A 
ATOM      2  C   UNL     1      20.638 -13.365  44.324  1.00  0.00     0.208 A 
ATOM      3  C   UNL     1      21.551 -14.085  45.109  1.00  0.00     0.238 A 
ATOM      4  O   UNL     1      21.455 -15.339  45.151  1.00  0.00    -0.285 OA
ATOM      5  C   UNL     1      22.527 -13.394  45.868  1.00  0.00     0.111 A 
ATOM      6  C   UNL     1      23.528 -14.024  46.666  1.00  0.00     0.134 A 
ATOM      7  C   UNL     1      24.358 -13.241  47.477  1.00  0.00     0.093 A 
ATOM      8  C   UNL     1      24.267 -11.847  47.467  1.00  0.00     0.123 A 
ATOM      9  C   UNL     1      23.333 -11.220  46.645  1.00  0.00     0.094 A 
ATOM     10  C   UNL     1      22.467 -11.977  45.853  1.00  0.00     0.146 A 
ATOM     11  O   UNL     1      21.585 -11.340  45.092  1.00  0.00    -0.452 OA
ENDROOT
BRANCH   1  12
ATOM     12  C   UNL     1      19.788 -11.134  43.498  1.00  0.00     0.029 A 
ATOM     13  C   UNL     1      20.129 -10.747  42.191  1.00  0.00     0.062 A 
ATOM     14  C   UNL     1      19.262  -9.944  41.437  1.00  0.00     0.162 A 
ATOM     15  C   UNL     1      18.583 -10.676  44.053  1.00  0.00     0.062 A 
ATOM     16  C   UNL     1      18.047  -9.509  41.992  1.00  0.00     0.200 A 
ATOM     17  C   UNL     1      17.711  -9.876  43.306  1.00  0.00     0.162 A 
BRANCH  14  18
ATOM     18  O   UNL     1      19.608  -9.572  40.138  1.00  0.00    -0.504 OA
ATOM     19  H   UNL     1      19.101  -9.918  39.332  1.00  0.00     0.293 HD
ENDBRANCH  14  18
BRANCH  16  20
ATOM     20  O   UNL     1      17.170  -8.713  41.253  1.00  0.00    -0.502 OA
ATOM     21  H   UNL     1      17.311  -7.717  41.140  1.00  0.00     0.293 HD
ENDBRANCH  16  20
BRANCH  17  22
ATOM     22  O   UNL     1      16.516  -9.454  43.889  1.00  0.00    -0.504 OA
ATOM     23  H   UNL     1      16.375  -9.458  44.892  1.00  0.00     0.293 HD
ENDBRANCH  17  22
ENDBRANCH   1  12
BRANCH   2  24
ATOM     24  O   UNL     1      19.653 -14.026  43.585  1.00  0.00    -0.502 OA
ATOM     25  H   UNL     1      18.670 -13.791  43.656  1.00  0.00     0.293 HD
ENDBRANCH   2  24
BRANCH   6  26
ATOM     26  O   UNL     1      23.764 -15.402  46.679  1.00  0.00    -0.507 OA
ATOM     27  H   UNL     1      23.376 -16.058  46.019  1.00  0.00     0.293 HD
ENDBRANCH   6  26
BRANCH   8  28
ATOM     28  O   UNL     1      25.108 -11.074  48.265  1.00  0.00    -0.508 OA
ATOM     29  H   UNL     1      25.169 -11.218  49.267  1.00  0.00     0.293 HD
ENDBRANCH   8  28
TORSDOF 7
ENDMDL
MODEL 9
REMARK VINA RESULT:    -5.854     13.675     15.036
REMARK INTER + INTRA:          -7.236
REMARK INTER:                  -6.875
REMARK INTRA:                  -0.361
REMARK UNBOUND:                -0.013
REMARK SMILES O=c1c(O)c(-c2cc(O)c(O)c(O)c2)oc2cc(O)cc(O)c12
REMARK SMILES IDX 5 1 3 2 2 3 1 4 23 5 21 6 20 7 18 8 17 9 16 10 15 11 6 12
REMARK SMILES IDX 7 13 8 14 14 15 10 16 12 17 9 18 11 20 13 22 4 24 22 26
REMARK SMILES IDX 19 28
REMARK H PARENT 9 19 11 21 13 23 4 25 22 27 19 29
REMARK Flexibility Score: inf
ROOT
ATOM      1  C   UNL     1      21.395 -11.841  44.514  1.00  0.00     0.180 A 
ATOM      2  C   UNL     1      22.358 -11.150  45.269  1.00  0.00     0.208 A 
ATOM      3  C   UNL     1      23.314 -11.884  45.987  1.00  0.00     0.238 A 
ATOM      4  O   UNL     1      24.207 -11.260  46.617  1.00  0.00    -0.285 OA
ATOM      5  C   UNL     1      23.287 -13.299  45.953  1.00  0.00     0.111 A 
ATOM      6  C   UNL     1      24.183 -14.144  46.676  1.00  0.00     0.134 A 
ATOM      7  C   UNL     1      24.147 -15.528  46.466  1.00  0.00     0.093 A 
ATOM      8  C   UNL     1      23.204 -16.103  45.610  1.00  0.00     0.123 A 
ATOM      9  C   UNL     1      22.286 -15.291  44.947  1.00  0.00     0.094 A 
ATOM     10  C   UNL     1      22.321 -13.904  45.108  1.00  0.00     0.146 A 
ATOM     11  O   UNL     1      21.435 -13.167  44.450  1.00  0.00    -0.452 OA
ENDROOT
BRANCH   1  12
ATOM     12  C   UNL     1      20.339 -11.136  43.750  1.00  0.00     0.029 A 
ATOM     13  C   UNL     1      19.143 -10.725  44.365  1.00  0.00     0.062 A 
ATOM     14  C   UNL     1      18.146 -10.080  43.621  1.00  0.00     0.162 A 
ATOM     15  C   UNL     1      20.505 -10.926  42.373  1.00  0.00     0.062 A 
ATOM     16  C   UNL     1      18.331  -9.853  42.247  1.00  0.00     0.200 A 
ATOM     17  C   UNL     1      19.515 -10.282  41.624  1.00  0.00     0.162 A 
BRANCH  14  18
ATOM     18  O   UNL     1      16.967  -9.669  44.243  1.00  0.00    -0.504 OA
ATOM     19  H   UNL     1      16.064 -10.036  43.968  1.00  0.00     0.293 HD
ENDBRANCH  14  18
BRANCH  16  20
ATOM     20  O   UNL     1      17.349  -9.209  41.492  1.00  0.00    -0.502 OA
ATOM     21  H   UNL     1      17.299  -8.200  41.421  1.00  0.00     0.293 HD
ENDBRANCH  16  20
BRANCH  17  22
ATOM     22  O   UNL     1      19.726 -10.079  40.260  1.00  0.00    -0.504 OA
ATOM     23  H   UNL     1      19.612  -9.171  39.827  1.00  0.00     0.293 HD
ENDBRANCH  17  22
ENDBRANCH   1  12
BRANCH   2  24
ATOM     24  O   UNL     1      22.379  -9.753  45.270  1.00  0.00    -0.502 OA
ATOM     25  H   UNL     1      22.524  -9.210  44.427  1.00  0.00     0.293 HD
ENDBRANCH   2  24
BRANCH   6  26
ATOM     26  O   UNL     1      25.101 -13.681  47.622  1.00  0.00    -0.507 OA
ATOM     27  H   UNL     1      24.855 -13.204  48.476  1.00  0.00     0.293 HD
ENDBRANCH   6  26
BRANCH   8  28
ATOM     28  O   UNL     1      23.164 -17.482  45.418  1.00  0.00    -0.508 OA
ATOM     29  H   UNL     1      23.807 -18.103  45.897  1.00  0.00     0.293 HD
ENDBRANCH   8  28
TORSDOF 7
ENDMDL
