MODEL 1
REMARK VINA RESULT:    -4.136      0.000      0.000
REMARK INTER + INTRA:          -4.943
REMARK INTER:                  -4.861
REMARK INTRA:                  -0.082
REMARK UNBOUND:                -0.082
REMARK SMILES O=C([O-])CCC(=O)[O-]
REMARK SMILES IDX 4 1 2 2 1 3 3 4 5 5 6 6 7 7 8 8
REMARK H PARENT
REMARK Flexibility Score: inf
ROOT
ATOM      1  C   UNL     1      14.519  61.801  70.063  1.00  0.00     0.059 C 
ENDROOT
BRANCH   1   2
ATOM      2  C   UNL     1      13.517  61.794  68.949  1.00  0.00     0.042 C 
ATOM      3  O   UNL     1      12.988  62.870  68.566  1.00  0.00    -0.550 OA
ATOM      4  O   UNL     1      13.198  60.603  68.308  1.00  0.00    -0.550 OA
ENDBRANCH   1   2
BRANCH   1   5
ATOM      5  C   UNL     1      14.007  62.581  71.277  1.00  0.00     0.059 C 
BRANCH   5   6
ATOM      6  C   UNL     1      13.565  61.663  72.376  1.00  0.00     0.042 C 
ATOM      7  O   UNL     1      12.907  62.112  73.351  1.00  0.00    -0.550 OA
ATOM      8  O   UNL     1      13.847  60.305  72.302  1.00  0.00    -0.550 OA
ENDBRANCH   5   6
ENDBRANCH   1   5
TORSDOF 3
ENDMDL
MODEL 2
REMARK VINA RESULT:    -4.136      0.034      3.672
REMARK INTER + INTRA:          -4.943
REMARK INTER:                  -4.859
REMARK INTRA:                  -0.084
REMARK UNBOUND:                -0.082
REMARK SMILES O=C([O-])CCC(=O)[O-]
REMARK SMILES IDX 4 1 2 2 1 3 3 4 5 5 6 6 7 7 8 8
REMARK H PARENT
REMARK Flexibility Score: inf
ROOT
ATOM      1  C   UNL     1      14.011  62.588  71.290  1.00  0.00     0.059 C 
ENDROOT
BRANCH   1   2
ATOM      2  C   UNL     1      13.586  61.650  72.378  1.00  0.00     0.042 C 
ATOM      3  O   UNL     1      12.940  62.080  73.369  1.00  0.00    -0.550 OA
ATOM      4  O   UNL     1      13.868  60.293  72.276  1.00  0.00    -0.550 OA
ENDBRANCH   1   2
BRANCH   1   5
ATOM      5  C   UNL     1      14.545  61.831  70.070  1.00  0.00     0.059 C 
BRANCH   5   6
ATOM      6  C   UNL     1      13.541  61.799  68.958  1.00  0.00     0.042 C 
ATOM      7  O   UNL     1      12.994  62.863  68.567  1.00  0.00    -0.550 OA
ATOM      8  O   UNL     1      13.239  60.598  68.329  1.00  0.00    -0.550 OA
ENDBRANCH   5   6
ENDBRANCH   1   5
TORSDOF 3
ENDMDL
MODEL 3
REMARK VINA RESULT:    -4.071      1.216      3.950
REMARK INTER + INTRA:          -4.867
REMARK INTER:                  -4.832
REMARK INTRA:                  -0.035
REMARK UNBOUND:                -0.082
REMARK SMILES O=C([O-])CCC(=O)[O-]
REMARK SMILES IDX 4 1 2 2 1 3 3 4 5 5 6 6 7 7 8 8
REMARK H PARENT
REMARK Flexibility Score: inf
ROOT
ATOM      1  C   UNL     1      14.003  60.968  71.814  1.00  0.00     0.059 C 
ENDROOT
BRANCH   1   2
ATOM      2  C   UNL     1      13.455  60.999  73.208  1.00  0.00     0.042 C 
ATOM      3  O   UNL     1      12.701  61.938  73.572  1.00  0.00    -0.550 OA
ATOM      4  O   UNL     1      13.746  59.966  74.092  1.00  0.00    -0.550 OA
ENDBRANCH   1   2
BRANCH   1   5
ATOM      5  C   UNL     1      13.954  62.351  71.158  1.00  0.00     0.059 C 
BRANCH   5   6
ATOM      6  C   UNL     1      14.072  62.259  69.667  1.00  0.00     0.042 C 
ATOM      7  O   UNL     1      13.215  62.808  68.928  1.00  0.00    -0.550 OA
ATOM      8  O   UNL     1      15.152  61.597  69.095  1.00  0.00    -0.550 OA
ENDBRANCH   5   6
ENDBRANCH   1   5
TORSDOF 3
ENDMDL
MODEL 4
REMARK VINA RESULT:    -3.992      8.850      9.685
REMARK INTER + INTRA:          -4.774
REMARK INTER:                  -4.653
REMARK INTRA:                  -0.121
REMARK UNBOUND:                -0.082
REMARK SMILES O=C([O-])CCC(=O)[O-]
REMARK SMILES IDX 4 1 2 2 1 3 3 4 5 5 6 6 7 7 8 8
REMARK H PARENT
REMARK Flexibility Score: inf
ROOT
ATOM      1  C   UNL     1      14.310  69.914  73.033  1.00  0.00     0.059 C 
ENDROOT
BRANCH   1   2
ATOM      2  C   UNL     1      13.339  70.818  72.338  1.00  0.00     0.042 C 
ATOM      3  O   UNL     1      13.497  72.066  72.374  1.00  0.00    -0.550 OA
ATOM      4  O   UNL     1      12.281  70.279  71.616  1.00  0.00    -0.550 OA
ENDBRANCH   1   2
BRANCH   1   5
ATOM      5  C   UNL     1      14.056  69.868  74.543  1.00  0.00     0.059 C 
BRANCH   5   6
ATOM      6  C   UNL     1      15.062  70.685  75.296  1.00  0.00     0.042 C 
ATOM      7  O   UNL     1      15.085  70.661  76.554  1.00  0.00    -0.550 OA
ATOM      8  O   UNL     1      15.998  71.444  74.605  1.00  0.00    -0.550 OA
ENDBRANCH   5   6
ENDBRANCH   1   5
TORSDOF 3
ENDMDL
MODEL 5
REMARK VINA RESULT:    -3.981      8.890     10.312
REMARK INTER + INTRA:          -4.761
REMARK INTER:                  -4.641
REMARK INTRA:                  -0.120
REMARK UNBOUND:                -0.082
REMARK SMILES O=C([O-])CCC(=O)[O-]
REMARK SMILES IDX 4 1 2 2 1 3 3 4 5 5 6 6 7 7 8 8
REMARK H PARENT
REMARK Flexibility Score: inf
ROOT
ATOM      1  C   UNL     1      13.996  69.965  74.635  1.00  0.00     0.059 C 
ENDROOT
BRANCH   1   2
ATOM      2  C   UNL     1      15.093  70.675  75.368  1.00  0.00     0.042 C 
ATOM      3  O   UNL     1      15.958  71.332  74.733  1.00  0.00    -0.550 OA
ATOM      4  O   UNL     1      15.135  70.643  76.757  1.00  0.00    -0.550 OA
ENDBRANCH   1   2
BRANCH   1   5
ATOM      5  C   UNL     1      14.264  69.917  73.128  1.00  0.00     0.059 C 
BRANCH   5   6
ATOM      6  C   UNL     1      13.358  70.845  72.378  1.00  0.00     0.042 C 
ATOM      7  O   UNL     1      13.569  72.085  72.390  1.00  0.00    -0.550 OA
ATOM      8  O   UNL     1      12.302  70.334  71.633  1.00  0.00    -0.550 OA
ENDBRANCH   5   6
ENDBRANCH   1   5
TORSDOF 3
ENDMDL
MODEL 6
REMARK VINA RESULT:    -3.921      9.337     10.510
REMARK INTER + INTRA:          -4.691
REMARK INTER:                  -4.658
REMARK INTRA:                  -0.033
REMARK UNBOUND:                -0.082
REMARK SMILES O=C([O-])CCC(=O)[O-]
REMARK SMILES IDX 4 1 2 2 1 3 3 4 5 5 6 6 7 7 8 8
REMARK H PARENT
REMARK Flexibility Score: inf
ROOT
ATOM      1  C   UNL     1      15.470  71.117  73.577  1.00  0.00     0.059 C 
ENDROOT
BRANCH   1   2
ATOM      2  C   UNL     1      14.445  70.027  73.656  1.00  0.00     0.042 C 
ATOM      3  O   UNL     1      13.946  69.549  72.604  1.00  0.00    -0.550 OA
ATOM      4  O   UNL     1      14.072  69.512  74.891  1.00  0.00    -0.550 OA
ENDBRANCH   1   2
BRANCH   1   5
ATOM      5  C   UNL     1      15.944  71.342  72.138  1.00  0.00     0.059 C 
BRANCH   5   6
ATOM      6  C   UNL     1      17.244  72.086  72.096  1.00  0.00     0.042 C 
ATOM      7  O   UNL     1      18.290  71.512  71.693  1.00  0.00    -0.550 OA
ATOM      8  O   UNL     1      17.292  73.424  72.466  1.00  0.00    -0.550 OA
ENDBRANCH   5   6
ENDBRANCH   1   5
TORSDOF 3
ENDMDL
MODEL 7
REMARK VINA RESULT:    -3.907      5.393      8.108
REMARK INTER + INTRA:          -4.674
REMARK INTER:                  -4.641
REMARK INTRA:                  -0.033
REMARK UNBOUND:                -0.082
REMARK SMILES O=C([O-])CCC(=O)[O-]
REMARK SMILES IDX 4 1 2 2 1 3 3 4 5 5 6 6 7 7 8 8
REMARK H PARENT
REMARK Flexibility Score: inf
ROOT
ATOM      1  C   UNL     1      12.888  61.875  77.979  1.00  0.00     0.059 C 
ENDROOT
BRANCH   1   2
ATOM      2  C   UNL     1      12.758  61.687  79.459  1.00  0.00     0.042 C 
ATOM      3  O   UNL     1      13.650  62.120  80.234  1.00  0.00    -0.550 OA
ATOM      4  O   UNL     1      11.630  61.069  79.985  1.00  0.00    -0.550 OA
ENDBRANCH   1   2
BRANCH   1   5
ATOM      5  C   UNL     1      12.496  60.609  77.212  1.00  0.00     0.059 C 
BRANCH   5   6
ATOM      6  C   UNL     1      12.992  60.643  75.799  1.00  0.00     0.042 C 
ATOM      7  O   UNL     1      12.479  59.892  74.929  1.00  0.00    -0.550 OA
ATOM      8  O   UNL     1      13.995  61.533  75.436  1.00  0.00    -0.550 OA
ENDBRANCH   5   6
ENDBRANCH   1   5
TORSDOF 3
ENDMDL
MODEL 8
REMARK VINA RESULT:    -3.836     11.826     12.833
REMARK INTER + INTRA:          -4.591
REMARK INTER:                  -4.450
REMARK INTRA:                  -0.141
REMARK UNBOUND:                -0.082
REMARK SMILES O=C([O-])CCC(=O)[O-]
REMARK SMILES IDX 4 1 2 2 1 3 3 4 5 5 6 6 7 7 8 8
REMARK H PARENT
REMARK Flexibility Score: inf
ROOT
ATOM      1  C   UNL     1      21.386  71.367  73.840  1.00  0.00     0.059 C 
ENDROOT
BRANCH   1   2
ATOM      2  C   UNL     1      22.659  70.796  74.386  1.00  0.00     0.042 C 
ATOM      3  O   UNL     1      23.764  71.089  73.859  1.00  0.00    -0.550 OA
ATOM      4  O   UNL     1      22.628  69.972  75.505  1.00  0.00    -0.550 OA
ENDBRANCH   1   2
BRANCH   1   5
ATOM      5  C   UNL     1      20.566  70.307  73.099  1.00  0.00     0.059 C 
BRANCH   5   6
ATOM      6  C   UNL     1      21.085  70.078  71.712  1.00  0.00     0.042 C 
ATOM      7  O   UNL     1      21.102  68.917  71.225  1.00  0.00    -0.550 OA
ATOM      8  O   UNL     1      21.513  71.153  70.944  1.00  0.00    -0.550 OA
ENDBRANCH   5   6
ENDBRANCH   1   5
TORSDOF 3
ENDMDL
MODEL 9
REMARK VINA RESULT:    -3.830     11.820     12.377
REMARK INTER + INTRA:          -4.584
REMARK INTER:                  -4.455
REMARK INTRA:                  -0.129
REMARK UNBOUND:                -0.082
REMARK SMILES O=C([O-])CCC(=O)[O-]
REMARK SMILES IDX 4 1 2 2 1 3 3 4 5 5 6 6 7 7 8 8
REMARK H PARENT
REMARK Flexibility Score: inf
ROOT
ATOM      1  C   UNL     1      20.563  70.345  73.120  1.00  0.00     0.059 C 
ENDROOT
BRANCH   1   2
ATOM      2  C   UNL     1      21.059  70.129  71.723  1.00  0.00     0.042 C 
ATOM      3  O   UNL     1      21.591  71.075  71.086  1.00  0.00    -0.550 OA
ATOM      4  O   UNL     1      20.971  68.870  71.141  1.00  0.00    -0.550 OA
ENDBRANCH   1   2
BRANCH   1   5
ATOM      5  C   UNL     1      21.405  71.387  73.863  1.00  0.00     0.059 C 
BRANCH   5   6
ATOM      6  C   UNL     1      22.663  70.787  74.414  1.00  0.00     0.042 C 
ATOM      7  O   UNL     1      23.772  71.031  73.872  1.00  0.00    -0.550 OA
ATOM      8  O   UNL     1      22.612  69.990  75.550  1.00  0.00    -0.550 OA
ENDBRANCH   5   6
ENDBRANCH   1   5
TORSDOF 3
ENDMDL
