MODEL 1
REMARK VINA RESULT:    -6.466      0.000      0.000
REMARK INTER + INTRA:         -10.213
REMARK INTER:                 -10.057
REMARK INTRA:                  -0.156
REMARK UNBOUND:                -0.156
REMARK SMILES C[C@]12C[C@]3(O)O[C@H](O1)[C@@]1(COC(=O)c4ccccc4)[C@@H]3C[C@]12O[C@H]1O[C@@H](CO)[C@@H](O)[C@H](O)[C@H]1O
REMARK SMILES IDX 1 1 2 2 3 3 4 4 20 5 21 6 22 7 9 8 7 9 8 10 6 11 23 12 24 13
REMARK SMILES IDX 33 14 25 15 31 16 26 17 29 18 34 19 32 21 27 23 28 24 30 26
REMARK SMILES IDX 5 28 10 30 11 31 12 32 13 33 14 34 15 35 19 36 16 37 18 38
REMARK SMILES IDX 17 39
REMARK H PARENT 34 20 32 22 28 25 30 27 5 29
REMARK Flexibility Score: inf
ROOT
ATOM      1  C   UNL     1      33.555  -8.255 -28.809  1.00  0.00     0.046 C 
ATOM      2  C   UNL     1      33.071  -8.007 -27.382  1.00  0.00     0.104 C 
ATOM      3  C   UNL     1      34.075  -7.063 -26.618  1.00  0.00     0.104 C 
ATOM      4  C   UNL     1      33.394  -6.854 -25.224  1.00  0.00     0.175 C 
ATOM      5  C   UNL     1      31.891  -6.469 -25.400  1.00  0.00     0.070 C 
ATOM      6  C   UNL     1      31.573  -5.980 -26.819  1.00  0.00     0.050 C 
ATOM      7  C   UNL     1      31.595  -7.453 -27.250  1.00  0.00     0.115 C 
ATOM      8  C   UNL     1      31.341  -7.843 -25.777  1.00  0.00     0.096 C 
ATOM      9  C   UNL     1      32.430  -8.841 -25.413  1.00  0.00     0.267 C 
ATOM     10  O   UNL     1      33.056  -9.210 -26.635  1.00  0.00    -0.342 OA
ATOM     11  O   UNL     1      33.359  -8.127 -24.614  1.00  0.00    -0.320 OA
ENDROOT
BRANCH   7  12
ATOM     12  O   UNL     1      30.682  -7.706 -28.325  1.00  0.00    -0.339 OA
BRANCH  12  13
ATOM     13  C   UNL     1      29.984  -6.573 -28.817  1.00  0.00     0.282 C 
ATOM     14  C   UNL     1      28.458  -6.837 -28.917  1.00  0.00     0.202 C 
ATOM     15  O   UNL     1      30.513  -6.157 -30.076  1.00  0.00    -0.341 OA
ATOM     16  C   UNL     1      28.126  -7.800 -30.067  1.00  0.00     0.179 C 
ATOM     17  C   UNL     1      30.249  -7.027 -31.172  1.00  0.00     0.178 C 
ATOM     18  C   UNL     1      28.738  -7.273 -31.361  1.00  0.00     0.177 C 
BRANCH  14  19
ATOM     19  O   UNL     1      27.958  -7.372 -27.724  1.00  0.00    -0.385 OA
ATOM     20  H   UNL     1      28.538  -8.142 -27.482  1.00  0.00     0.211 HD
ENDBRANCH  14  19
BRANCH  16  21
ATOM     21  O   UNL     1      26.737  -7.971 -30.225  1.00  0.00    -0.387 OA
ATOM     22  H   UNL     1      26.538  -8.947 -30.248  1.00  0.00     0.211 HD
ENDBRANCH  16  21
BRANCH  17  23
ATOM     23  C   UNL     1      31.118  -8.308 -31.147  1.00  0.00     0.191 C 
BRANCH  23  24
ATOM     24  O   UNL     1      32.215  -8.167 -32.012  1.00  0.00    -0.394 OA
ATOM     25  H   UNL     1      31.885  -8.313 -32.935  1.00  0.00     0.210 HD
ENDBRANCH  23  24
ENDBRANCH  17  23
BRANCH  18  26
ATOM     26  O   UNL     1      28.506  -8.188 -32.403  1.00  0.00    -0.387 OA
ATOM     27  H   UNL     1      27.535  -8.393 -32.418  1.00  0.00     0.211 HD
ENDBRANCH  18  26
ENDBRANCH  12  13
ENDBRANCH   7  12
BRANCH   4  28
ATOM     28  O   UNL     1      34.095  -5.941 -24.425  1.00  0.00    -0.365 OA
ATOM     29  H   UNL     1      34.603  -6.476 -23.763  1.00  0.00     0.214 HD
ENDBRANCH   4  28
BRANCH   8  30
ATOM     30  C   UNL     1      29.949  -8.126 -25.189  1.00  0.00     0.249 C 
BRANCH  30  31
ATOM     31  O   UNL     1      30.021  -9.231 -24.294  1.00  0.00    -0.461 OA
BRANCH  31  32
ATOM     32  C   UNL     1      29.285  -9.293 -23.106  1.00  0.00     0.338 C 
ATOM     33  O   UNL     1      29.848  -9.066 -22.001  1.00  0.00    -0.246 OA
BRANCH  32  34
ATOM     34  C   UNL     1      27.843  -9.623 -23.151  1.00  0.00     0.060 A 
ATOM     35  C   UNL     1      27.363 -10.827 -22.606  1.00  0.00     0.015 A 
ATOM     36  C   UNL     1      26.931  -8.726 -23.738  1.00  0.00     0.015 A 
ATOM     37  C   UNL     1      25.996 -11.118 -22.635  1.00  0.00     0.001 A 
ATOM     38  C   UNL     1      25.562  -9.022 -23.764  1.00  0.00     0.001 A 
ATOM     39  C   UNL     1      25.095 -10.214 -23.205  1.00  0.00     0.000 A 
ENDBRANCH  32  34
ENDBRANCH  31  32
ENDBRANCH  30  31
ENDBRANCH   8  30
TORSDOF 12
ENDMDL
MODEL 2
REMARK VINA RESULT:    -6.296      1.259      1.669
REMARK INTER + INTRA:          -9.950
REMARK INTER:                  -9.374
REMARK INTRA:                  -0.575
REMARK UNBOUND:                -0.156
REMARK SMILES C[C@]12C[C@]3(O)O[C@H](O1)[C@@]1(COC(=O)c4ccccc4)[C@@H]3C[C@]12O[C@H]1O[C@@H](CO)[C@@H](O)[C@H](O)[C@H]1O
REMARK SMILES IDX 1 1 2 2 3 3 4 4 20 5 21 6 22 7 9 8 7 9 8 10 6 11 23 12 24 13
REMARK SMILES IDX 33 14 25 15 31 16 26 17 29 18 34 19 32 21 27 23 28 24 30 26
REMARK SMILES IDX 5 28 10 30 11 31 12 32 13 33 14 34 15 35 19 36 16 37 18 38
REMARK SMILES IDX 17 39
REMARK H PARENT 34 20 32 22 28 25 30 27 5 29
REMARK Flexibility Score: inf
ROOT
ATOM      1  C   UNL     1      32.350  -9.311 -27.429  1.00  0.00     0.046 C 
ATOM      2  C   UNL     1      31.961  -8.218 -26.436  1.00  0.00     0.104 C 
ATOM      3  C   UNL     1      33.244  -7.459 -25.926  1.00  0.00     0.104 C 
ATOM      4  C   UNL     1      32.665  -6.341 -24.996  1.00  0.00     0.175 C 
ATOM      5  C   UNL     1      31.503  -5.582 -25.711  1.00  0.00     0.070 C 
ATOM      6  C   UNL     1      31.504  -5.802 -27.229  1.00  0.00     0.050 C 
ATOM      7  C   UNL     1      30.885  -7.179 -26.953  1.00  0.00     0.115 C 
ATOM      8  C   UNL     1      30.415  -6.645 -25.582  1.00  0.00     0.096 C 
ATOM      9  C   UNL     1      30.923  -7.637 -24.547  1.00  0.00     0.267 C 
ATOM     10  O   UNL     1      31.374  -8.773 -25.274  1.00  0.00    -0.342 OA
ATOM     11  O   UNL     1      32.035  -7.013 -23.926  1.00  0.00    -0.320 OA
ENDROOT
BRANCH   7  12
ATOM     12  O   UNL     1      30.007  -7.589 -28.009  1.00  0.00    -0.339 OA
BRANCH  12  13
ATOM     13  C   UNL     1      29.239  -6.555 -28.605  1.00  0.00     0.282 C 
ATOM     14  C   UNL     1      27.800  -7.028 -28.940  1.00  0.00     0.202 C 
ATOM     15  O   UNL     1      29.892  -6.045 -29.768  1.00  0.00    -0.341 OA
ATOM     16  C   UNL     1      27.787  -8.005 -30.125  1.00  0.00     0.179 C 
ATOM     17  C   UNL     1      29.924  -6.921 -30.890  1.00  0.00     0.178 C 
ATOM     18  C   UNL     1      28.510  -7.372 -31.310  1.00  0.00     0.177 C 
BRANCH  14  19
ATOM     19  O   UNL     1      27.203  -7.651 -27.838  1.00  0.00    -0.385 OA
ATOM     20  H   UNL     1      26.234  -7.741 -28.040  1.00  0.00     0.211 HD
ENDBRANCH  14  19
BRANCH  16  21
ATOM     21  O   UNL     1      26.478  -8.365 -30.496  1.00  0.00    -0.387 OA
ATOM     22  H   UNL     1      26.480  -8.627 -31.457  1.00  0.00     0.211 HD
ENDBRANCH  16  21
BRANCH  17  23
ATOM     23  C   UNL     1      30.952  -8.069 -30.728  1.00  0.00     0.191 C 
BRANCH  23  24
ATOM     24  O   UNL     1      31.532  -8.379 -31.968  1.00  0.00    -0.394 OA
ATOM     25  H   UNL     1      31.885  -7.536 -32.350  1.00  0.00     0.210 HD
ENDBRANCH  23  24
ENDBRANCH  17  23
BRANCH  18  26
ATOM     26  O   UNL     1      28.573  -8.289 -32.374  1.00  0.00    -0.387 OA
ATOM     27  H   UNL     1      27.940  -9.028 -32.176  1.00  0.00     0.211 HD
ENDBRANCH  18  26
ENDBRANCH  12  13
ENDBRANCH   7  12
BRANCH   4  28
ATOM     28  O   UNL     1      33.661  -5.478 -24.521  1.00  0.00    -0.365 OA
ATOM     29  H   UNL     1      33.287  -5.027 -23.722  1.00  0.00     0.214 HD
ENDBRANCH   4  28
BRANCH   8  30
ATOM     30  C   UNL     1      29.017  -6.061 -25.320  1.00  0.00     0.249 C 
BRANCH  30  31
ATOM     31  O   UNL     1      28.050  -7.105 -25.330  1.00  0.00    -0.461 OA
BRANCH  31  32
ATOM     32  C   UNL     1      27.099  -7.268 -24.317  1.00  0.00     0.338 C 
ATOM     33  O   UNL     1      26.427  -6.279 -23.917  1.00  0.00    -0.246 OA
BRANCH  32  34
ATOM     34  C   UNL     1      26.880  -8.605 -23.722  1.00  0.00     0.060 A 
ATOM     35  C   UNL     1      27.963  -9.363 -23.242  1.00  0.00     0.015 A 
ATOM     36  C   UNL     1      25.579  -9.132 -23.624  1.00  0.00     0.015 A 
ATOM     37  C   UNL     1      27.743 -10.617 -22.661  1.00  0.00     0.001 A 
ATOM     38  C   UNL     1      25.364 -10.386 -23.041  1.00  0.00     0.001 A 
ATOM     39  C   UNL     1      26.445 -11.125 -22.553  1.00  0.00     0.000 A 
ENDBRANCH  32  34
ENDBRANCH  31  32
ENDBRANCH  30  31
ENDBRANCH   8  30
TORSDOF 12
ENDMDL
MODEL 3
REMARK VINA RESULT:    -6.079      2.845      4.648
REMARK INTER + INTRA:          -9.612
REMARK INTER:                  -8.931
REMARK INTRA:                  -0.681
REMARK UNBOUND:                -0.156
REMARK SMILES C[C@]12C[C@]3(O)O[C@H](O1)[C@@]1(COC(=O)c4ccccc4)[C@@H]3C[C@]12O[C@H]1O[C@@H](CO)[C@@H](O)[C@H](O)[C@H]1O
REMARK SMILES IDX 1 1 2 2 3 3 4 4 20 5 21 6 22 7 9 8 7 9 8 10 6 11 23 12 24 13
REMARK SMILES IDX 33 14 25 15 31 16 26 17 29 18 34 19 32 21 27 23 28 24 30 26
REMARK SMILES IDX 5 28 10 30 11 31 12 32 13 33 14 34 15 35 19 36 16 37 18 38
REMARK SMILES IDX 17 39
REMARK H PARENT 34 20 32 22 28 25 30 27 5 29
REMARK Flexibility Score: inf
ROOT
ATOM      1  C   UNL     1      30.081  -3.596 -28.095  1.00  0.00     0.046 C 
ATOM      2  C   UNL     1      28.716  -3.925 -27.496  1.00  0.00     0.104 C 
ATOM      3  C   UNL     1      27.853  -2.616 -27.344  1.00  0.00     0.104 C 
ATOM      4  C   UNL     1      26.482  -3.141 -26.801  1.00  0.00     0.175 C 
ATOM      5  C   UNL     1      25.981  -4.350 -27.652  1.00  0.00     0.070 C 
ATOM      6  C   UNL     1      26.689  -4.445 -29.010  1.00  0.00     0.050 C 
ATOM      7  C   UNL     1      27.888  -5.038 -28.257  1.00  0.00     0.115 C 
ATOM      8  C   UNL     1      26.925  -5.422 -27.112  1.00  0.00     0.096 C 
ATOM      9  C   UNL     1      27.530  -4.844 -25.842  1.00  0.00     0.267 C 
ATOM     10  O   UNL     1      28.849  -4.434 -26.181  1.00  0.00    -0.342 OA
ATOM     11  O   UNL     1      26.755  -3.697 -25.532  1.00  0.00    -0.320 OA
ENDROOT
BRANCH   7  12
ATOM     12  O   UNL     1      28.609  -5.980 -29.063  1.00  0.00    -0.339 OA
BRANCH  12  13
ATOM     13  C   UNL     1      28.575  -5.743 -30.462  1.00  0.00     0.282 C 
ATOM     14  C   UNL     1      28.114  -7.000 -31.246  1.00  0.00     0.202 C 
ATOM     15  O   UNL     1      29.844  -5.287 -30.930  1.00  0.00    -0.341 OA
ATOM     16  C   UNL     1      29.193  -8.093 -31.247  1.00  0.00     0.179 C 
ATOM     17  C   UNL     1      30.885  -6.258 -30.932  1.00  0.00     0.178 C 
ATOM     18  C   UNL     1      30.506  -7.507 -31.756  1.00  0.00     0.177 C 
BRANCH  14  19
ATOM     19  O   UNL     1      26.937  -7.531 -30.704  1.00  0.00    -0.385 OA
ATOM     20  H   UNL     1      27.205  -8.244 -30.066  1.00  0.00     0.211 HD
ENDBRANCH  14  19
BRANCH  16  21
ATOM     21  O   UNL     1      28.822  -9.199 -32.035  1.00  0.00    -0.387 OA
ATOM     22  H   UNL     1      29.606  -9.807 -32.119  1.00  0.00     0.211 HD
ENDBRANCH  16  21
BRANCH  17  23
ATOM     23  C   UNL     1      31.434  -6.556 -29.515  1.00  0.00     0.191 C 
BRANCH  23  24
ATOM     24  O   UNL     1      32.745  -7.050 -29.596  1.00  0.00    -0.394 OA
ATOM     25  H   UNL     1      33.272  -6.405 -30.131  1.00  0.00     0.210 HD
ENDBRANCH  23  24
ENDBRANCH  17  23
BRANCH  18  26
ATOM     26  O   UNL     1      31.520  -8.478 -31.685  1.00  0.00    -0.387 OA
ATOM     27  H   UNL     1      31.758  -8.737 -32.614  1.00  0.00     0.211 HD
ENDBRANCH  18  26
ENDBRANCH  12  13
ENDBRANCH   7  12
BRANCH   4  28
ATOM     28  O   UNL     1      25.528  -2.121 -26.699  1.00  0.00    -0.365 OA
ATOM     29  H   UNL     1      25.084  -2.235 -25.820  1.00  0.00     0.214 HD
ENDBRANCH   4  28
BRANCH   8  30
ATOM     30  C   UNL     1      26.264  -6.804 -26.971  1.00  0.00     0.249 C 
BRANCH  30  31
ATOM     31  O   UNL     1      26.756  -7.454 -25.804  1.00  0.00    -0.461 OA
BRANCH  31  32
ATOM     32  C   UNL     1      25.919  -7.911 -24.781  1.00  0.00     0.338 C 
ATOM     33  O   UNL     1      24.783  -7.387 -24.613  1.00  0.00    -0.246 OA
BRANCH  32  34
ATOM     34  C   UNL     1      26.368  -9.012 -23.900  1.00  0.00     0.060 A 
ATOM     35  C   UNL     1      25.444  -9.931 -23.371  1.00  0.00     0.015 A 
ATOM     36  C   UNL     1      27.732  -9.156 -23.587  1.00  0.00     0.015 A 
ATOM     37  C   UNL     1      25.882 -10.980 -22.557  1.00  0.00     0.001 A 
ATOM     38  C   UNL     1      28.165 -10.209 -22.773  1.00  0.00     0.001 A 
ATOM     39  C   UNL     1      27.242 -11.125 -22.265  1.00  0.00     0.000 A 
ENDBRANCH  32  34
ENDBRANCH  31  32
ENDBRANCH  30  31
ENDBRANCH   8  30
TORSDOF 12
ENDMDL
MODEL 4
REMARK VINA RESULT:    -6.050      2.667      6.311
REMARK INTER + INTRA:          -9.566
REMARK INTER:                  -8.139
REMARK INTRA:                  -1.427
REMARK UNBOUND:                -0.156
REMARK SMILES C[C@]12C[C@]3(O)O[C@H](O1)[C@@]1(COC(=O)c4ccccc4)[C@@H]3C[C@]12O[C@H]1O[C@@H](CO)[C@@H](O)[C@H](O)[C@H]1O
REMARK SMILES IDX 1 1 2 2 3 3 4 4 20 5 21 6 22 7 9 8 7 9 8 10 6 11 23 12 24 13
REMARK SMILES IDX 33 14 25 15 31 16 26 17 29 18 34 19 32 21 27 23 28 24 30 26
REMARK SMILES IDX 5 28 10 30 11 31 12 32 13 33 14 34 15 35 19 36 16 37 18 38
REMARK SMILES IDX 17 39
REMARK H PARENT 34 20 32 22 28 25 30 27 5 29
REMARK Flexibility Score: inf
ROOT
ATOM      1  C   UNL     1      29.380  -6.642 -25.638  1.00  0.00     0.046 C 
ATOM      2  C   UNL     1      30.865  -6.795 -25.959  1.00  0.00     0.104 C 
ATOM      3  C   UNL     1      31.661  -7.235 -24.673  1.00  0.00     0.104 C 
ATOM      4  C   UNL     1      33.126  -7.420 -25.193  1.00  0.00     0.175 C 
ATOM      5  C   UNL     1      33.142  -8.283 -26.494  1.00  0.00     0.070 C 
ATOM      6  C   UNL     1      31.840  -9.072 -26.691  1.00  0.00     0.050 C 
ATOM      7  C   UNL     1      31.206  -7.758 -27.167  1.00  0.00     0.115 C 
ATOM      8  C   UNL     1      32.625  -7.234 -27.476  1.00  0.00     0.096 C 
ATOM      9  C   UNL     1      32.746  -5.898 -26.760  1.00  0.00     0.267 C 
ATOM     10  O   UNL     1      31.433  -5.554 -26.337  1.00  0.00    -0.342 OA
ATOM     11  O   UNL     1      33.551  -6.142 -25.618  1.00  0.00    -0.320 OA
ENDROOT
BRANCH   7  12
ATOM     12  O   UNL     1      30.191  -7.985 -28.154  1.00  0.00    -0.339 OA
BRANCH  12  13
ATOM     13  C   UNL     1      29.531  -6.824 -28.633  1.00  0.00     0.282 C 
ATOM     14  C   UNL     1      28.038  -7.099 -28.948  1.00  0.00     0.202 C 
ATOM     15  O   UNL     1      30.204  -6.293 -29.775  1.00  0.00    -0.341 OA
ATOM     16  C   UNL     1      27.876  -7.965 -30.207  1.00  0.00     0.179 C 
ATOM     17  C   UNL     1      30.101  -7.068 -30.965  1.00  0.00     0.178 C 
ATOM     18  C   UNL     1      28.631  -7.319 -31.364  1.00  0.00     0.177 C 
BRANCH  14  19
ATOM     19  O   UNL     1      27.406  -7.743 -27.877  1.00  0.00    -0.385 OA
ATOM     20  H   UNL     1      27.178  -7.045 -27.208  1.00  0.00     0.211 HD
ENDBRANCH  14  19
BRANCH  16  21
ATOM     21  O   UNL     1      26.523  -8.142 -30.554  1.00  0.00    -0.387 OA
ATOM     22  H   UNL     1      25.982  -7.448 -30.087  1.00  0.00     0.211 HD
ENDBRANCH  16  21
BRANCH  17  23
ATOM     23  C   UNL     1      30.992  -8.334 -30.938  1.00  0.00     0.191 C 
BRANCH  23  24
ATOM     24  O   UNL     1      31.831  -8.362 -32.063  1.00  0.00    -0.394 OA
ATOM     25  H   UNL     1      32.371  -7.531 -32.051  1.00  0.00     0.210 HD
ENDBRANCH  23  24
ENDBRANCH  17  23
BRANCH  18  26
ATOM     26  O   UNL     1      28.556  -8.143 -32.501  1.00  0.00    -0.387 OA
ATOM     27  H   UNL     1      28.978  -9.013 -32.274  1.00  0.00     0.211 HD
ENDBRANCH  18  26
ENDBRANCH  12  13
ENDBRANCH   7  12
BRANCH   4  28
ATOM     28  O   UNL     1      33.980  -7.922 -24.203  1.00  0.00    -0.365 OA
ATOM     29  H   UNL     1      34.624  -7.198 -23.991  1.00  0.00     0.214 HD
ENDBRANCH   4  28
BRANCH   8  30
ATOM     30  C   UNL     1      33.289  -7.314 -28.861  1.00  0.00     0.249 C 
BRANCH  30  31
ATOM     31  O   UNL     1      33.489  -6.002 -29.375  1.00  0.00    -0.461 OA
BRANCH  31  32
ATOM     32  C   UNL     1      33.611  -5.733 -30.742  1.00  0.00     0.338 C 
ATOM     33  O   UNL     1      34.123  -6.592 -31.511  1.00  0.00    -0.246 OA
BRANCH  32  34
ATOM     34  C   UNL     1      33.133  -4.441 -31.283  1.00  0.00     0.060 A 
ATOM     35  C   UNL     1      33.443  -4.055 -32.599  1.00  0.00     0.015 A 
ATOM     36  C   UNL     1      32.354  -3.584 -30.484  1.00  0.00     0.015 A 
ATOM     37  C   UNL     1      32.969  -2.841 -33.107  1.00  0.00     0.001 A 
ATOM     38  C   UNL     1      31.881  -2.371 -30.998  1.00  0.00     0.001 A 
ATOM     39  C   UNL     1      32.181  -2.004 -32.311  1.00  0.00     0.000 A 
ENDBRANCH  32  34
ENDBRANCH  31  32
ENDBRANCH  30  31
ENDBRANCH   8  30
TORSDOF 12
ENDMDL
MODEL 5
REMARK VINA RESULT:    -6.034      2.504      4.767
REMARK INTER + INTRA:          -9.542
REMARK INTER:                  -8.593
REMARK INTRA:                  -0.949
REMARK UNBOUND:                -0.156
REMARK SMILES C[C@]12C[C@]3(O)O[C@H](O1)[C@@]1(COC(=O)c4ccccc4)[C@@H]3C[C@]12O[C@H]1O[C@@H](CO)[C@@H](O)[C@H](O)[C@H]1O
REMARK SMILES IDX 1 1 2 2 3 3 4 4 20 5 21 6 22 7 9 8 7 9 8 10 6 11 23 12 24 13
REMARK SMILES IDX 33 14 25 15 31 16 26 17 29 18 34 19 32 21 27 23 28 24 30 26
REMARK SMILES IDX 5 28 10 30 11 31 12 32 13 33 14 34 15 35 19 36 16 37 18 38
REMARK SMILES IDX 17 39
REMARK H PARENT 34 20 32 22 28 25 30 27 5 29
REMARK Flexibility Score: inf
ROOT
ATOM      1  C   UNL     1      27.400  -3.449 -29.011  1.00  0.00     0.046 C 
ATOM      2  C   UNL     1      27.202  -4.448 -27.873  1.00  0.00     0.104 C 
ATOM      3  C   UNL     1      25.667  -4.715 -27.639  1.00  0.00     0.104 C 
ATOM      4  C   UNL     1      25.651  -5.803 -26.513  1.00  0.00     0.175 C 
ATOM      5  C   UNL     1      26.635  -6.965 -26.858  1.00  0.00     0.070 C 
ATOM      6  C   UNL     1      27.026  -6.982 -28.342  1.00  0.00     0.050 C 
ATOM      7  C   UNL     1      27.976  -5.819 -28.026  1.00  0.00     0.115 C 
ATOM      8  C   UNL     1      27.951  -6.256 -26.545  1.00  0.00     0.096 C 
ATOM      9  C   UNL     1      27.577  -5.017 -25.747  1.00  0.00     0.267 C 
ATOM     10  O   UNL     1      27.674  -3.920 -26.646  1.00  0.00    -0.342 OA
ATOM     11  O   UNL     1      26.219  -5.191 -25.375  1.00  0.00    -0.320 OA
ENDROOT
BRANCH   7  12
ATOM     12  O   UNL     1      29.142  -5.844 -28.860  1.00  0.00    -0.339 OA
BRANCH  12  13
ATOM     13  C   UNL     1      29.028  -6.605 -30.052  1.00  0.00     0.282 C 
ATOM     14  C   UNL     1      30.090  -7.733 -30.118  1.00  0.00     0.202 C 
ATOM     15  O   UNL     1      29.107  -5.762 -31.202  1.00  0.00    -0.341 OA
ATOM     16  C   UNL     1      31.498  -7.170 -30.366  1.00  0.00     0.179 C 
ATOM     17  C   UNL     1      30.388  -5.198 -31.465  1.00  0.00     0.178 C 
ATOM     18  C   UNL     1      31.476  -6.282 -31.606  1.00  0.00     0.177 C 
BRANCH  14  19
ATOM     19  O   UNL     1      30.109  -8.481 -28.935  1.00  0.00    -0.385 OA
ATOM     20  H   UNL     1      30.409  -7.873 -28.208  1.00  0.00     0.211 HD
ENDBRANCH  14  19
BRANCH  16  21
ATOM     21  O   UNL     1      32.455  -8.192 -30.521  1.00  0.00    -0.387 OA
ATOM     22  H   UNL     1      32.076  -8.893 -31.118  1.00  0.00     0.211 HD
ENDBRANCH  16  21
BRANCH  17  23
ATOM     23  C   UNL     1      30.745  -4.040 -30.501  1.00  0.00     0.191 C 
BRANCH  23  24
ATOM     24  O   UNL     1      31.562  -3.102 -31.151  1.00  0.00    -0.394 OA
ATOM     25  H   UNL     1      32.498  -3.417 -31.070  1.00  0.00     0.210 HD
ENDBRANCH  23  24
ENDBRANCH  17  23
BRANCH  18  26
ATOM     26  O   UNL     1      32.741  -5.699 -31.796  1.00  0.00    -0.387 OA
ATOM     27  H   UNL     1      33.325  -6.374 -32.231  1.00  0.00     0.211 HD
ENDBRANCH  18  26
ENDBRANCH  12  13
ENDBRANCH   7  12
BRANCH   4  28
ATOM     28  O   UNL     1      24.355  -6.258 -26.236  1.00  0.00    -0.365 OA
ATOM     29  H   UNL     1      23.896  -6.355 -27.109  1.00  0.00     0.214 HD
ENDBRANCH   4  28
BRANCH   8  30
ATOM     30  C   UNL     1      29.002  -7.176 -25.901  1.00  0.00     0.249 C 
BRANCH  30  31
ATOM     31  O   UNL     1      28.863  -7.146 -24.484  1.00  0.00    -0.461 OA
BRANCH  31  32
ATOM     32  C   UNL     1      28.944  -8.294 -23.690  1.00  0.00     0.338 C 
ATOM     33  O   UNL     1      30.052  -8.648 -23.201  1.00  0.00    -0.246 OA
BRANCH  32  34
ATOM     34  C   UNL     1      27.725  -9.089 -23.420  1.00  0.00     0.060 A 
ATOM     35  C   UNL     1      26.455  -8.599 -23.773  1.00  0.00     0.015 A 
ATOM     36  C   UNL     1      27.826 -10.354 -22.811  1.00  0.00     0.015 A 
ATOM     37  C   UNL     1      25.312  -9.368 -23.533  1.00  0.00     0.001 A 
ATOM     38  C   UNL     1      26.679 -11.120 -22.574  1.00  0.00     0.001 A 
ATOM     39  C   UNL     1      25.423 -10.631 -22.942  1.00  0.00     0.000 A 
ENDBRANCH  32  34
ENDBRANCH  31  32
ENDBRANCH  30  31
ENDBRANCH   8  30
TORSDOF 12
ENDMDL
MODEL 6
REMARK VINA RESULT:    -6.005      3.360      5.292
REMARK INTER + INTRA:          -9.497
REMARK INTER:                  -8.686
REMARK INTRA:                  -0.811
REMARK UNBOUND:                -0.156
REMARK SMILES C[C@]12C[C@]3(O)O[C@H](O1)[C@@]1(COC(=O)c4ccccc4)[C@@H]3C[C@]12O[C@H]1O[C@@H](CO)[C@@H](O)[C@H](O)[C@H]1O
REMARK SMILES IDX 1 1 2 2 3 3 4 4 20 5 21 6 22 7 9 8 7 9 8 10 6 11 23 12 24 13
REMARK SMILES IDX 33 14 25 15 31 16 26 17 29 18 34 19 32 21 27 23 28 24 30 26
REMARK SMILES IDX 5 28 10 30 11 31 12 32 13 33 14 34 15 35 19 36 16 37 18 38
REMARK SMILES IDX 17 39
REMARK H PARENT 34 20 32 22 28 25 30 27 5 29
REMARK Flexibility Score: inf
ROOT
ATOM      1  C   UNL     1      29.005  -2.382 -28.213  1.00  0.00     0.046 C 
ATOM      2  C   UNL     1      27.895  -3.089 -27.439  1.00  0.00     0.104 C 
ATOM      3  C   UNL     1      26.840  -2.044 -26.913  1.00  0.00     0.104 C 
ATOM      4  C   UNL     1      25.751  -2.934 -26.225  1.00  0.00     0.175 C 
ATOM      5  C   UNL     1      25.332  -4.110 -27.163  1.00  0.00     0.070 C 
ATOM      6  C   UNL     1      25.736  -3.869 -28.623  1.00  0.00     0.050 C 
ATOM      7  C   UNL     1      27.162  -4.258 -28.213  1.00  0.00     0.115 C 
ATOM      8  C   UNL     1      26.565  -4.994 -26.994  1.00  0.00     0.096 C 
ATOM      9  C   UNL     1      27.300  -4.455 -25.776  1.00  0.00     0.267 C 
ATOM     10  O   UNL     1      28.406  -3.714 -26.275  1.00  0.00    -0.342 OA
ATOM     11  O   UNL     1      26.396  -3.566 -25.140  1.00  0.00    -0.320 OA
ENDROOT
BRANCH   7  12
ATOM     12  O   UNL     1      27.866  -4.901 -29.284  1.00  0.00    -0.339 OA
BRANCH  12  13
ATOM     13  C   UNL     1      29.096  -5.513 -28.929  1.00  0.00     0.282 C 
ATOM     14  C   UNL     1      30.151  -5.381 -30.058  1.00  0.00     0.202 C 
ATOM     15  O   UNL     1      28.897  -6.882 -28.575  1.00  0.00    -0.341 OA
ATOM     16  C   UNL     1      29.811  -6.278 -31.258  1.00  0.00     0.179 C 
ATOM     17  C   UNL     1      28.560  -7.754 -29.650  1.00  0.00     0.178 C 
ATOM     18  C   UNL     1      29.613  -7.712 -30.777  1.00  0.00     0.177 C 
BRANCH  14  19
ATOM     19  O   UNL     1      30.253  -4.058 -30.503  1.00  0.00    -0.385 OA
ATOM     20  H   UNL     1      30.653  -3.529 -29.762  1.00  0.00     0.211 HD
ENDBRANCH  14  19
BRANCH  16  21
ATOM     21  O   UNL     1      30.812  -6.237 -32.248  1.00  0.00    -0.387 OA
ATOM     22  H   UNL     1      30.449  -5.766 -33.047  1.00  0.00     0.211 HD
ENDBRANCH  16  21
BRANCH  17  23
ATOM     23  C   UNL     1      27.095  -7.588 -30.123  1.00  0.00     0.191 C 
BRANCH  23  24
ATOM     24  O   UNL     1      26.475  -8.842 -30.231  1.00  0.00    -0.394 OA
ATOM     25  H   UNL     1      25.518  -8.721 -30.002  1.00  0.00     0.210 HD
ENDBRANCH  23  24
ENDBRANCH  17  23
BRANCH  18  26
ATOM     26  O   UNL     1      29.223  -8.527 -31.855  1.00  0.00    -0.387 OA
ATOM     27  H   UNL     1      29.999  -9.094 -32.102  1.00  0.00     0.211 HD
ENDBRANCH  18  26
ENDBRANCH  12  13
ENDBRANCH   7  12
BRANCH   4  28
ATOM     28  O   UNL     1      24.657  -2.182 -25.780  1.00  0.00    -0.365 OA
ATOM     29  H   UNL     1      24.619  -1.372 -26.351  1.00  0.00     0.214 HD
ENDBRANCH   4  28
BRANCH   8  30
ATOM     30  C   UNL     1      26.240  -6.497 -26.970  1.00  0.00     0.249 C 
BRANCH  30  31
ATOM     31  O   UNL     1      26.678  -7.064 -25.739  1.00  0.00    -0.461 OA
BRANCH  31  32
ATOM     32  C   UNL     1      25.809  -7.692 -24.841  1.00  0.00     0.338 C 
ATOM     33  O   UNL     1      24.608  -7.315 -24.757  1.00  0.00    -0.246 OA
BRANCH  32  34
ATOM     34  C   UNL     1      26.301  -8.802 -23.996  1.00  0.00     0.060 A 
ATOM     35  C   UNL     1      25.408  -9.746 -23.458  1.00  0.00     0.015 A 
ATOM     36  C   UNL     1      27.676  -8.930 -23.727  1.00  0.00     0.015 A 
ATOM     37  C   UNL     1      25.887 -10.804 -22.678  1.00  0.00     0.001 A 
ATOM     38  C   UNL     1      28.150  -9.992 -22.947  1.00  0.00     0.001 A 
ATOM     39  C   UNL     1      27.257 -10.932 -22.430  1.00  0.00     0.000 A 
ENDBRANCH  32  34
ENDBRANCH  31  32
ENDBRANCH  30  31
ENDBRANCH   8  30
TORSDOF 12
ENDMDL
MODEL 7
REMARK VINA RESULT:    -5.911      2.194      7.738
REMARK INTER + INTRA:          -9.349
REMARK INTER:                  -8.718
REMARK INTRA:                  -0.632
REMARK UNBOUND:                -0.156
REMARK SMILES C[C@]12C[C@]3(O)O[C@H](O1)[C@@]1(COC(=O)c4ccccc4)[C@@H]3C[C@]12O[C@H]1O[C@@H](CO)[C@@H](O)[C@H](O)[C@H]1O
REMARK SMILES IDX 1 1 2 2 3 3 4 4 20 5 21 6 22 7 9 8 7 9 8 10 6 11 23 12 24 13
REMARK SMILES IDX 33 14 25 15 31 16 26 17 29 18 34 19 32 21 27 23 28 24 30 26
REMARK SMILES IDX 5 28 10 30 11 31 12 32 13 33 14 34 15 35 19 36 16 37 18 38
REMARK SMILES IDX 17 39
REMARK H PARENT 34 20 32 22 28 25 30 27 5 29
REMARK Flexibility Score: inf
ROOT
ATOM      1  C   UNL     1      26.461  -7.724 -24.855  1.00  0.00     0.046 C 
ATOM      2  C   UNL     1      26.791  -6.821 -26.041  1.00  0.00     0.104 C 
ATOM      3  C   UNL     1      26.102  -5.415 -25.869  1.00  0.00     0.104 C 
ATOM      4  C   UNL     1      26.604  -4.605 -27.110  1.00  0.00     0.175 C 
ATOM      5  C   UNL     1      28.152  -4.738 -27.262  1.00  0.00     0.070 C 
ATOM      6  C   UNL     1      28.828  -5.234 -25.977  1.00  0.00     0.050 C 
ATOM      7  C   UNL     1      28.332  -6.638 -26.349  1.00  0.00     0.115 C 
ATOM      8  C   UNL     1      28.211  -6.161 -27.813  1.00  0.00     0.096 C 
ATOM      9  C   UNL     1      26.794  -6.497 -28.250  1.00  0.00     0.267 C 
ATOM     10  O   UNL     1      26.259  -7.347 -27.244  1.00  0.00    -0.342 OA
ATOM     11  O   UNL     1      26.084  -5.269 -28.243  1.00  0.00    -0.320 OA
ENDROOT
BRANCH   7  12
ATOM     12  O   UNL     1      29.234  -7.657 -25.899  1.00  0.00    -0.339 OA
BRANCH  12  13
ATOM     13  C   UNL     1      30.614  -7.369 -26.061  1.00  0.00     0.282 C 
ATOM     14  C   UNL     1      31.368  -8.535 -26.752  1.00  0.00     0.202 C 
ATOM     15  O   UNL     1      31.215  -7.046 -24.806  1.00  0.00    -0.341 OA
ATOM     16  C   UNL     1      31.516  -9.746 -25.817  1.00  0.00     0.179 C 
ATOM     17  C   UNL     1      31.358  -8.131 -23.894  1.00  0.00     0.178 C 
ATOM     18  C   UNL     1      32.160  -9.297 -24.508  1.00  0.00     0.177 C 
BRANCH  14  19
ATOM     19  O   UNL     1      30.707  -8.946 -27.915  1.00  0.00    -0.385 OA
ATOM     20  H   UNL     1      30.107  -8.202 -28.190  1.00  0.00     0.211 HD
ENDBRANCH  14  19
BRANCH  16  21
ATOM     21  O   UNL     1      32.281 -10.773 -26.402  1.00  0.00    -0.387 OA
ATOM     22  H   UNL     1      31.715 -11.589 -26.473  1.00  0.00     0.211 HD
ENDBRANCH  16  21
BRANCH  17  23
ATOM     23  C   UNL     1      30.020  -8.539 -23.231  1.00  0.00     0.191 C 
BRANCH  23  24
ATOM     24  O   UNL     1      29.306  -7.398 -22.835  1.00  0.00    -0.394 OA
ATOM     25  H   UNL     1      29.365  -7.339 -21.847  1.00  0.00     0.210 HD
ENDBRANCH  23  24
ENDBRANCH  17  23
BRANCH  18  26
ATOM     26  O   UNL     1      32.227 -10.381 -23.616  1.00  0.00    -0.387 OA
ATOM     27  H   UNL     1      33.139 -10.769 -23.677  1.00  0.00     0.211 HD
ENDBRANCH  18  26
ENDBRANCH  12  13
ENDBRANCH   7  12
BRANCH   4  28
ATOM     28  O   UNL     1      26.177  -3.271 -27.080  1.00  0.00    -0.365 OA
ATOM     29  H   UNL     1      25.208  -3.289 -26.873  1.00  0.00     0.214 HD
ENDBRANCH   4  28
BRANCH   8  30
ATOM     30  C   UNL     1      29.305  -6.359 -28.876  1.00  0.00     0.249 C 
BRANCH  30  31
ATOM     31  O   UNL     1      28.972  -7.466 -29.707  1.00  0.00    -0.461 OA
BRANCH  31  32
ATOM     32  C   UNL     1      29.196  -7.471 -31.088  1.00  0.00     0.338 C 
ATOM     33  O   UNL     1      28.247  -7.722 -31.881  1.00  0.00    -0.246 OA
BRANCH  32  34
ATOM     34  C   UNL     1      30.547  -7.178 -31.615  1.00  0.00     0.060 A 
ATOM     35  C   UNL     1      30.832  -5.936 -32.210  1.00  0.00     0.015 A 
ATOM     36  C   UNL     1      31.568  -8.141 -31.519  1.00  0.00     0.015 A 
ATOM     37  C   UNL     1      32.118  -5.661 -32.685  1.00  0.00     0.001 A 
ATOM     38  C   UNL     1      32.854  -7.861 -31.995  1.00  0.00     0.001 A 
ATOM     39  C   UNL     1      33.131  -6.619 -32.570  1.00  0.00     0.000 A 
ENDBRANCH  32  34
ENDBRANCH  31  32
ENDBRANCH  30  31
ENDBRANCH   8  30
TORSDOF 12
ENDMDL
MODEL 8
REMARK VINA RESULT:    -5.895      2.653      6.096
REMARK INTER + INTRA:          -9.326
REMARK INTER:                  -8.458
REMARK INTRA:                  -0.867
REMARK UNBOUND:                -0.156
REMARK SMILES C[C@]12C[C@]3(O)O[C@H](O1)[C@@]1(COC(=O)c4ccccc4)[C@@H]3C[C@]12O[C@H]1O[C@@H](CO)[C@@H](O)[C@H](O)[C@H]1O
REMARK SMILES IDX 1 1 2 2 3 3 4 4 20 5 21 6 22 7 9 8 7 9 8 10 6 11 23 12 24 13
REMARK SMILES IDX 33 14 25 15 31 16 26 17 29 18 34 19 32 21 27 23 28 24 30 26
REMARK SMILES IDX 5 28 10 30 11 31 12 32 13 33 14 34 15 35 19 36 16 37 18 38
REMARK SMILES IDX 17 39
REMARK H PARENT 34 20 32 22 28 25 30 27 5 29
REMARK Flexibility Score: inf
ROOT
ATOM      1  C   UNL     1      33.674  -5.242 -29.072  1.00  0.00     0.046 C 
ATOM      2  C   UNL     1      32.842  -5.923 -30.156  1.00  0.00     0.104 C 
ATOM      3  C   UNL     1      33.779  -6.681 -31.171  1.00  0.00     0.104 C 
ATOM      4  C   UNL     1      32.774  -7.376 -32.149  1.00  0.00     0.175 C 
ATOM      5  C   UNL     1      31.664  -8.129 -31.351  1.00  0.00     0.070 C 
ATOM      6  C   UNL     1      32.053  -8.368 -29.887  1.00  0.00     0.050 C 
ATOM      7  C   UNL     1      31.708  -6.894 -29.634  1.00  0.00     0.115 C 
ATOM      8  C   UNL     1      30.836  -6.924 -30.909  1.00  0.00     0.096 C 
ATOM      9  C   UNL     1      31.306  -5.760 -31.767  1.00  0.00     0.267 C 
ATOM     10  O   UNL     1      32.147  -4.969 -30.937  1.00  0.00    -0.342 OA
ATOM     11  O   UNL     1      32.085  -6.332 -32.804  1.00  0.00    -0.320 OA
ENDROOT
BRANCH   7  12
ATOM     12  O   UNL     1      31.201  -6.687 -28.309  1.00  0.00    -0.339 OA
BRANCH  12  13
ATOM     13  C   UNL     1      32.039  -7.134 -27.255  1.00  0.00     0.282 C 
ATOM     14  C   UNL     1      31.360  -8.246 -26.413  1.00  0.00     0.202 C 
ATOM     15  O   UNL     1      32.439  -6.041 -26.427  1.00  0.00    -0.341 OA
ATOM     16  C   UNL     1      30.220  -7.686 -25.549  1.00  0.00     0.179 C 
ATOM     17  C   UNL     1      31.413  -5.472 -25.620  1.00  0.00     0.178 C 
ATOM     18  C   UNL     1      30.746  -6.525 -24.711  1.00  0.00     0.177 C 
BRANCH  14  19
ATOM     19  O   UNL     1      30.846  -9.258 -27.233  1.00  0.00    -0.385 OA
ATOM     20  H   UNL     1      31.038 -10.124 -26.786  1.00  0.00     0.211 HD
ENDBRANCH  14  19
BRANCH  16  21
ATOM     21  O   UNL     1      29.661  -8.670 -24.712  1.00  0.00    -0.387 OA
ATOM     22  H   UNL     1      30.373  -9.016 -24.109  1.00  0.00     0.211 HD
ENDBRANCH  16  21
BRANCH  17  23
ATOM     23  C   UNL     1      30.428  -4.593 -26.429  1.00  0.00     0.191 C 
BRANCH  23  24
ATOM     24  O   UNL     1      31.127  -3.815 -27.364  1.00  0.00    -0.394 OA
ATOM     25  H   UNL     1      31.676  -3.164 -26.857  1.00  0.00     0.210 HD
ENDBRANCH  23  24
ENDBRANCH  17  23
BRANCH  18  26
ATOM     26  O   UNL     1      29.692  -5.954 -23.975  1.00  0.00    -0.387 OA
ATOM     27  H   UNL     1      28.957  -6.620 -23.931  1.00  0.00     0.211 HD
ENDBRANCH  18  26
ENDBRANCH  12  13
ENDBRANCH   7  12
BRANCH   4  28
ATOM     28  O   UNL     1      33.424  -8.200 -33.078  1.00  0.00    -0.365 OA
ATOM     29  H   UNL     1      33.017  -9.099 -32.992  1.00  0.00     0.214 HD
ENDBRANCH   4  28
BRANCH   8  30
ATOM     30  C   UNL     1      29.321  -7.190 -30.910  1.00  0.00     0.249 C 
BRANCH  30  31
ATOM     31  O   UNL     1      28.617  -5.953 -30.922  1.00  0.00    -0.461 OA
BRANCH  31  32
ATOM     32  C   UNL     1      28.475  -5.151 -29.785  1.00  0.00     0.338 C 
ATOM     33  O   UNL     1      29.190  -4.122 -29.644  1.00  0.00    -0.246 OA
BRANCH  32  34
ATOM     34  C   UNL     1      27.479  -5.511 -28.751  1.00  0.00     0.060 A 
ATOM     35  C   UNL     1      26.369  -4.685 -28.504  1.00  0.00     0.015 A 
ATOM     36  C   UNL     1      27.630  -6.695 -28.006  1.00  0.00     0.015 A 
ATOM     37  C   UNL     1      25.422  -5.046 -27.539  1.00  0.00     0.001 A 
ATOM     38  C   UNL     1      26.680  -7.053 -27.042  1.00  0.00     0.001 A 
ATOM     39  C   UNL     1      25.572  -6.233 -26.815  1.00  0.00     0.000 A 
ENDBRANCH  32  34
ENDBRANCH  31  32
ENDBRANCH  30  31
ENDBRANCH   8  30
TORSDOF 12
ENDMDL
MODEL 9
REMARK VINA RESULT:    -5.834      1.621      2.457
REMARK INTER + INTRA:          -9.231
REMARK INTER:                  -8.331
REMARK INTRA:                  -0.900
REMARK UNBOUND:                -0.156
REMARK SMILES C[C@]12C[C@]3(O)O[C@H](O1)[C@@]1(COC(=O)c4ccccc4)[C@@H]3C[C@]12O[C@H]1O[C@@H](CO)[C@@H](O)[C@H](O)[C@H]1O
REMARK SMILES IDX 1 1 2 2 3 3 4 4 20 5 21 6 22 7 9 8 7 9 8 10 6 11 23 12 24 13
REMARK SMILES IDX 33 14 25 15 31 16 26 17 29 18 34 19 32 21 27 23 28 24 30 26
REMARK SMILES IDX 5 28 10 30 11 31 12 32 13 33 14 34 15 35 19 36 16 37 18 38
REMARK SMILES IDX 17 39
REMARK H PARENT 34 20 32 22 28 25 30 27 5 29
REMARK Flexibility Score: inf
ROOT
ATOM      1  C   UNL     1      33.475  -8.586 -27.366  1.00  0.00     0.046 C 
ATOM      2  C   UNL     1      32.562  -8.119 -26.235  1.00  0.00     0.104 C 
ATOM      3  C   UNL     1      33.373  -8.001 -24.889  1.00  0.00     0.104 C 
ATOM      4  C   UNL     1      32.320  -7.443 -23.873  1.00  0.00     0.175 C 
ATOM      5  C   UNL     1      31.569  -6.217 -24.480  1.00  0.00     0.070 C 
ATOM      6  C   UNL     1      32.310  -5.610 -25.679  1.00  0.00     0.050 C 
ATOM      7  C   UNL     1      31.767  -6.780 -26.510  1.00  0.00     0.115 C 
ATOM      8  C   UNL     1      30.655  -6.960 -25.452  1.00  0.00     0.096 C 
ATOM      9  C   UNL     1      30.704  -8.421 -25.035  1.00  0.00     0.267 C 
ATOM     10  O   UNL     1      31.550  -9.074 -25.972  1.00  0.00    -0.342 OA
ATOM     11  O   UNL     1      31.325  -8.439 -23.760  1.00  0.00    -0.320 OA
ENDROOT
BRANCH   7  12
ATOM     12  O   UNL     1      31.536  -6.402 -27.873  1.00  0.00    -0.339 OA
BRANCH  12  13
ATOM     13  C   UNL     1      30.176  -6.352 -28.274  1.00  0.00     0.282 C 
ATOM     14  C   UNL     1      29.797  -7.554 -29.178  1.00  0.00     0.202 C 
ATOM     15  O   UNL     1      29.885  -5.114 -28.925  1.00  0.00    -0.341 OA
ATOM     16  C   UNL     1      30.430  -7.435 -30.573  1.00  0.00     0.179 C 
ATOM     17  C   UNL     1      30.464  -4.945 -30.214  1.00  0.00     0.178 C 
ATOM     18  C   UNL     1      30.066  -6.083 -31.178  1.00  0.00     0.177 C 
BRANCH  14  19
ATOM     19  O   UNL     1      30.203  -8.765 -28.604  1.00  0.00    -0.385 OA
ATOM     20  H   UNL     1      29.858  -8.778 -27.671  1.00  0.00     0.211 HD
ENDBRANCH  14  19
BRANCH  16  21
ATOM     21  O   UNL     1      30.016  -8.473 -31.429  1.00  0.00    -0.387 OA
ATOM     22  H   UNL     1      29.252  -8.950 -31.004  1.00  0.00     0.211 HD
ENDBRANCH  16  21
BRANCH  17  23
ATOM     23  C   UNL     1      31.981  -4.642 -30.158  1.00  0.00     0.191 C 
BRANCH  23  24
ATOM     24  O   UNL     1      32.261  -3.760 -29.103  1.00  0.00    -0.394 OA
ATOM     25  H   UNL     1      31.904  -2.871 -29.356  1.00  0.00     0.210 HD
ENDBRANCH  23  24
ENDBRANCH  17  23
BRANCH  18  26
ATOM     26  O   UNL     1      30.705  -5.931 -32.421  1.00  0.00    -0.387 OA
ATOM     27  H   UNL     1      30.899  -4.965 -32.547  1.00  0.00     0.211 HD
ENDBRANCH  18  26
ENDBRANCH  12  13
ENDBRANCH   7  12
BRANCH   4  28
ATOM     28  O   UNL     1      32.886  -7.165 -22.623  1.00  0.00    -0.365 OA
ATOM     29  H   UNL     1      33.612  -6.509 -22.781  1.00  0.00     0.214 HD
ENDBRANCH   4  28
BRANCH   8  30
ATOM     30  C   UNL     1      29.252  -6.341 -25.565  1.00  0.00     0.249 C 
BRANCH  30  31
ATOM     31  O   UNL     1      28.273  -7.374 -25.597  1.00  0.00    -0.461 OA
BRANCH  31  32
ATOM     32  C   UNL     1      27.095  -7.327 -24.843  1.00  0.00     0.338 C 
ATOM     33  O   UNL     1      26.410  -6.268 -24.808  1.00  0.00    -0.246 OA
BRANCH  32  34
ATOM     34  C   UNL     1      26.654  -8.523 -24.093  1.00  0.00     0.060 A 
ATOM     35  C   UNL     1      25.296  -8.887 -24.054  1.00  0.00     0.015 A 
ATOM     36  C   UNL     1      27.595  -9.318 -23.412  1.00  0.00     0.015 A 
ATOM     37  C   UNL     1      24.893 -10.031 -23.359  1.00  0.00     0.001 A 
ATOM     38  C   UNL     1      27.186 -10.464 -22.720  1.00  0.00     0.001 A 
ATOM     39  C   UNL     1      25.837 -10.825 -22.700  1.00  0.00     0.000 A 
ENDBRANCH  32  34
ENDBRANCH  31  32
ENDBRANCH  30  31
ENDBRANCH   8  30
TORSDOF 12
ENDMDL
