MODEL 1
REMARK VINA RESULT:     7.952      0.000      0.000
REMARK INTER + INTRA:          17.524
REMARK INTER:                  14.924
REMARK INTRA:                   2.600
REMARK UNBOUND:                 2.600
REMARK SMILES O=C([O-])CCCCCCCCCCCCCCC(=O)[O-]
REMARK SMILES IDX 10 1 9 2 8 3 7 4 6 5 5 6 4 7 2 8 1 9 3 10 11 11 12 12 13 13
REMARK SMILES IDX 14 14 15 15 16 16 17 17 18 18 19 19 20 20
REMARK H PARENT
REMARK Flexibility Score: inf
ROOT
ATOM      1  C   UNL     1      67.884  79.030  96.088  1.00  0.00     0.000 C 
ENDROOT
BRANCH   1   2
ATOM      2  C   UNL     1      68.830  79.423  97.235  1.00  0.00     0.000 C 
BRANCH   2   3
ATOM      3  C   UNL     1      68.084  80.002  98.450  1.00  0.00     0.000 C 
BRANCH   3   4
ATOM      4  C   UNL     1      68.415  79.242  99.752  1.00  0.00     0.000 C 
BRANCH   4   5
ATOM      5  C   UNL     1      69.756  78.489  99.700  1.00  0.00     0.000 C 
BRANCH   5   6
ATOM      6  C   UNL     1      69.736  77.298  98.728  1.00  0.00     0.006 C 
BRANCH   6   7
ATOM      7  C   UNL     1      68.340  77.052  98.142  1.00  0.00     0.053 C 
BRANCH   7   8
ATOM      8  C   UNL     1      68.292  75.792  97.332  1.00  0.00     0.041 C 
ATOM      9  O   UNL     1      68.307  74.670  97.906  1.00  0.00    -0.550 OA
ATOM     10  O   UNL     1      68.269  75.856  95.945  1.00  0.00    -0.550 OA
ENDBRANCH   7   8
ENDBRANCH   6   7
ENDBRANCH   5   6
ENDBRANCH   4   5
ENDBRANCH   3   4
ENDBRANCH   2   3
ENDBRANCH   1   2
BRANCH   1  11
ATOM     11  C   UNL     1      68.545  79.158  94.705  1.00  0.00     0.000 C 
BRANCH  11  12
ATOM     12  C   UNL     1      67.891  78.255  93.646  1.00  0.00     0.000 C 
BRANCH  12  13
ATOM     13  C   UNL     1      68.893  77.672  92.627  1.00  0.00     0.000 C 
BRANCH  13  14
ATOM     14  C   UNL     1      68.279  77.545  91.221  1.00  0.00     0.000 C 
BRANCH  14  15
ATOM     15  C   UNL     1      67.875  76.103  90.881  1.00  0.00     0.000 C 
BRANCH  15  16
ATOM     16  C   UNL     1      68.157  75.126  92.036  1.00  0.00     0.006 C 
BRANCH  16  17
ATOM     17  C   UNL     1      68.152  73.663  91.573  1.00  0.00     0.053 C 
BRANCH  17  18
ATOM     18  C   UNL     1      69.542  73.118  91.439  1.00  0.00     0.041 C 
ATOM     19  O   UNL     1      70.529  73.900  91.403  1.00  0.00    -0.550 OA
ATOM     20  O   UNL     1      69.743  71.749  91.327  1.00  0.00    -0.550 OA
ENDBRANCH  17  18
ENDBRANCH  16  17
ENDBRANCH  15  16
ENDBRANCH  14  15
ENDBRANCH  13  14
ENDBRANCH  12  13
ENDBRANCH  11  12
ENDBRANCH   1  11
TORSDOF 15
ENDMDL
MODEL 2
REMARK VINA RESULT:     8.967     21.035     22.769
REMARK INTER + INTRA:          19.431
REMARK INTER:                  19.995
REMARK INTRA:                  -0.564
REMARK UNBOUND:                 2.600
REMARK SMILES O=C([O-])CCCCCCCCCCCCCCC(=O)[O-]
REMARK SMILES IDX 10 1 9 2 8 3 7 4 6 5 5 6 4 7 2 8 1 9 3 10 11 11 12 12 13 13
REMARK SMILES IDX 14 14 15 15 16 16 17 17 18 18 19 19 20 20
REMARK H PARENT
REMARK Flexibility Score: inf
ROOT
ATOM      1  C   UNL     1      83.735  67.325 105.314  1.00  0.00     0.000 C 
ENDROOT
BRANCH   1   2
ATOM      2  C   UNL     1      83.930  66.214 106.358  1.00  0.00     0.000 C 
BRANCH   2   3
ATOM      3  C   UNL     1      85.399  66.051 106.788  1.00  0.00     0.000 C 
BRANCH   3   4
ATOM      4  C   UNL     1      85.543  65.875 108.314  1.00  0.00     0.000 C 
BRANCH   4   5
ATOM      5  C   UNL     1      86.682  64.923 108.718  1.00  0.00     0.000 C 
BRANCH   5   6
ATOM      6  C   UNL     1      87.115  65.095 110.184  1.00  0.00     0.006 C 
BRANCH   6   7
ATOM      7  C   UNL     1      88.060  66.288 110.373  1.00  0.00     0.053 C 
BRANCH   7   8
ATOM      8  C   UNL     1      87.312  67.541 110.712  1.00  0.00     0.041 C 
ATOM      9  O   UNL     1      87.891  68.658 110.657  1.00  0.00    -0.550 OA
ATOM     10  O   UNL     1      85.987  67.471 111.124  1.00  0.00    -0.550 OA
ENDBRANCH   7   8
ENDBRANCH   6   7
ENDBRANCH   5   6
ENDBRANCH   4   5
ENDBRANCH   3   4
ENDBRANCH   2   3
ENDBRANCH   1   2
BRANCH   1  11
ATOM     11  C   UNL     1      82.604  67.012 104.320  1.00  0.00     0.000 C 
BRANCH  11  12
ATOM     12  C   UNL     1      82.282  65.510 104.235  1.00  0.00     0.000 C 
BRANCH  12  13
ATOM     13  C   UNL     1      82.860  64.824 102.981  1.00  0.00     0.000 C 
BRANCH  13  14
ATOM     14  C   UNL     1      83.566  63.499 103.321  1.00  0.00     0.000 C 
BRANCH  14  15
ATOM     15  C   UNL     1      83.765  62.603 102.089  1.00  0.00     0.000 C 
BRANCH  15  16
ATOM     16  C   UNL     1      85.167  62.755 101.473  1.00  0.00     0.006 C 
BRANCH  16  17
ATOM     17  C   UNL     1      85.182  62.418  99.975  1.00  0.00     0.053 C 
BRANCH  17  18
ATOM     18  C   UNL     1      85.554  63.607  99.142  1.00  0.00     0.041 C 
ATOM     19  O   UNL     1      85.577  63.519  97.886  1.00  0.00    -0.550 OA
ATOM     20  O   UNL     1      85.903  64.803  99.756  1.00  0.00    -0.550 OA
ENDBRANCH  17  18
ENDBRANCH  16  17
ENDBRANCH  15  16
ENDBRANCH  14  15
ENDBRANCH  13  14
ENDBRANCH  12  13
ENDBRANCH  11  12
ENDBRANCH   1  11
TORSDOF 15
ENDMDL
MODEL 3
REMARK VINA RESULT:     9.081     21.484     23.190
REMARK INTER + INTRA:          19.643
REMARK INTER:                  20.417
REMARK INTRA:                  -0.774
REMARK UNBOUND:                 2.600
REMARK SMILES O=C([O-])CCCCCCCCCCCCCCC(=O)[O-]
REMARK SMILES IDX 10 1 9 2 8 3 7 4 6 5 5 6 4 7 2 8 1 9 3 10 11 11 12 12 13 13
REMARK SMILES IDX 14 14 15 15 16 16 17 17 18 18 19 19 20 20
REMARK H PARENT
REMARK Flexibility Score: inf
ROOT
ATOM      1  C   UNL     1      84.089  67.179 105.562  1.00  0.00     0.000 C 
ENDROOT
BRANCH   1   2
ATOM      2  C   UNL     1      84.273  66.009 106.543  1.00  0.00     0.000 C 
BRANCH   2   3
ATOM      3  C   UNL     1      85.607  66.077 107.308  1.00  0.00     0.000 C 
BRANCH   3   4
ATOM      4  C   UNL     1      85.419  65.863 108.825  1.00  0.00     0.000 C 
BRANCH   4   5
ATOM      5  C   UNL     1      86.509  66.533 109.679  1.00  0.00     0.000 C 
BRANCH   5   6
ATOM      6  C   UNL     1      86.999  65.640 110.832  1.00  0.00     0.006 C 
BRANCH   6   7
ATOM      7  C   UNL     1      88.123  64.693 110.394  1.00  0.00     0.053 C 
BRANCH   7   8
ATOM      8  C   UNL     1      87.596  63.344 110.011  1.00  0.00     0.041 C 
ATOM      9  O   UNL     1      87.179  62.552 110.898  1.00  0.00    -0.550 OA
ATOM     10  O   UNL     1      87.599  62.947 108.680  1.00  0.00    -0.550 OA
ENDBRANCH   7   8
ENDBRANCH   6   7
ENDBRANCH   5   6
ENDBRANCH   4   5
ENDBRANCH   3   4
ENDBRANCH   2   3
ENDBRANCH   1   2
BRANCH   1  11
ATOM     11  C   UNL     1      82.901  66.971 104.609  1.00  0.00     0.000 C 
BRANCH  11  12
ATOM     12  C   UNL     1      82.451  65.502 104.526  1.00  0.00     0.000 C 
BRANCH  12  13
ATOM     13  C   UNL     1      83.010  64.752 103.300  1.00  0.00     0.000 C 
BRANCH  13  14
ATOM     14  C   UNL     1      83.505  63.340 103.663  1.00  0.00     0.000 C 
BRANCH  14  15
ATOM     15  C   UNL     1      83.746  62.463 102.425  1.00  0.00     0.000 C 
BRANCH  15  16
ATOM     16  C   UNL     1      84.894  62.989 101.547  1.00  0.00     0.006 C 
BRANCH  16  17
ATOM     17  C   UNL     1      84.654  62.720 100.055  1.00  0.00     0.053 C 
BRANCH  17  18
ATOM     18  C   UNL     1      85.617  63.478  99.192  1.00  0.00     0.041 C 
ATOM     19  O   UNL     1      86.145  62.923  98.192  1.00  0.00    -0.550 OA
ATOM     20  O   UNL     1      85.952  64.787  99.510  1.00  0.00    -0.550 OA
ENDBRANCH  17  18
ENDBRANCH  16  17
ENDBRANCH  15  16
ENDBRANCH  14  15
ENDBRANCH  13  14
ENDBRANCH  12  13
ENDBRANCH  11  12
ENDBRANCH   1  11
TORSDOF 15
ENDMDL
MODEL 4
REMARK VINA RESULT:     9.447     21.616     24.318
REMARK INTER + INTRA:          20.331
REMARK INTER:                  20.189
REMARK INTRA:                   0.142
REMARK UNBOUND:                 2.600
REMARK SMILES O=C([O-])CCCCCCCCCCCCCCC(=O)[O-]
REMARK SMILES IDX 10 1 9 2 8 3 7 4 6 5 5 6 4 7 2 8 1 9 3 10 11 11 12 12 13 13
REMARK SMILES IDX 14 14 15 15 16 16 17 17 18 18 19 19 20 20
REMARK H PARENT
REMARK Flexibility Score: inf
ROOT
ATOM      1  C   UNL     1      82.812  67.134 105.117  1.00  0.00     0.000 C 
ENDROOT
BRANCH   1   2
ATOM      2  C   UNL     1      82.711  66.269 103.851  1.00  0.00     0.000 C 
BRANCH   2   3
ATOM      3  C   UNL     1      83.006  64.782 104.119  1.00  0.00     0.000 C 
BRANCH   3   4
ATOM      4  C   UNL     1      82.723  63.901 102.883  1.00  0.00     0.000 C 
BRANCH   4   5
ATOM      5  C   UNL     1      83.794  62.823 102.640  1.00  0.00     0.000 C 
BRANCH   5   6
ATOM      6  C   UNL     1      84.156  62.663 101.155  1.00  0.00     0.006 C 
BRANCH   6   7
ATOM      7  C   UNL     1      85.581  63.143 100.851  1.00  0.00     0.053 C 
BRANCH   7   8
ATOM      8  C   UNL     1      85.965  62.877  99.427  1.00  0.00     0.041 C 
ATOM      9  O   UNL     1      86.675  61.877  99.140  1.00  0.00    -0.550 OA
ATOM     10  O   UNL     1      85.570  63.752  98.424  1.00  0.00    -0.550 OA
ENDBRANCH   7   8
ENDBRANCH   6   7
ENDBRANCH   5   6
ENDBRANCH   4   5
ENDBRANCH   3   4
ENDBRANCH   2   3
ENDBRANCH   1   2
BRANCH   1  11
ATOM     11  C   UNL     1      84.256  67.269 105.629  1.00  0.00     0.000 C 
BRANCH  11  12
ATOM     12  C   UNL     1      84.602  66.237 106.716  1.00  0.00     0.000 C 
BRANCH  12  13
ATOM     13  C   UNL     1      86.116  66.105 106.983  1.00  0.00     0.000 C 
BRANCH  13  14
ATOM     14  C   UNL     1      86.408  65.289 108.256  1.00  0.00     0.000 C 
BRANCH  14  15
ATOM     15  C   UNL     1      86.116  66.077 109.542  1.00  0.00     0.000 C 
BRANCH  15  16
ATOM     16  C   UNL     1      86.656  65.371 110.798  1.00  0.00     0.006 C 
BRANCH  16  17
ATOM     17  C   UNL     1      87.987  64.655 110.534  1.00  0.00     0.053 C 
BRANCH  17  18
ATOM     18  C   UNL     1      87.781  63.217 110.166  1.00  0.00     0.041 C 
ATOM     19  O   UNL     1      87.991  62.827 108.987  1.00  0.00    -0.550 OA
ATOM     20  O   UNL     1      87.330  62.314 111.119  1.00  0.00    -0.550 OA
ENDBRANCH  17  18
ENDBRANCH  16  17
ENDBRANCH  15  16
ENDBRANCH  14  15
ENDBRANCH  13  14
ENDBRANCH  12  13
ENDBRANCH  11  12
ENDBRANCH   1  11
TORSDOF 15
ENDMDL
MODEL 5
REMARK VINA RESULT:     9.675     17.148     19.054
REMARK INTER + INTRA:          20.760
REMARK INTER:                  21.360
REMARK INTRA:                  -0.600
REMARK UNBOUND:                 2.600
REMARK SMILES O=C([O-])CCCCCCCCCCCCCCC(=O)[O-]
REMARK SMILES IDX 10 1 9 2 8 3 7 4 6 5 5 6 4 7 2 8 1 9 3 10 11 11 12 12 13 13
REMARK SMILES IDX 14 14 15 15 16 16 17 17 18 18 19 19 20 20
REMARK H PARENT
REMARK Flexibility Score: inf
ROOT
ATOM      1  C   UNL     1      79.365  64.651 101.590  1.00  0.00     0.000 C 
ENDROOT
BRANCH   1   2
ATOM      2  C   UNL     1      80.693  64.792 102.352  1.00  0.00     0.000 C 
BRANCH   2   3
ATOM      3  C   UNL     1      81.598  63.555 102.209  1.00  0.00     0.000 C 
BRANCH   3   4
ATOM      4  C   UNL     1      82.951  63.739 102.929  1.00  0.00     0.000 C 
BRANCH   4   5
ATOM      5  C   UNL     1      83.965  62.622 102.623  1.00  0.00     0.000 C 
BRANCH   5   6
ATOM      6  C   UNL     1      84.219  62.440 101.118  1.00  0.00     0.006 C 
BRANCH   6   7
ATOM      7  C   UNL     1      85.243  63.446 100.577  1.00  0.00     0.053 C 
BRANCH   7   8
ATOM      8  C   UNL     1      85.824  62.998  99.270  1.00  0.00     0.041 C 
ATOM      9  O   UNL     1      86.606  62.011  99.230  1.00  0.00    -0.550 OA
ATOM     10  O   UNL     1      85.532  63.693  98.104  1.00  0.00    -0.550 OA
ENDBRANCH   7   8
ENDBRANCH   6   7
ENDBRANCH   5   6
ENDBRANCH   4   5
ENDBRANCH   3   4
ENDBRANCH   2   3
ENDBRANCH   1   2
BRANCH   1  11
ATOM     11  C   UNL     1      78.309  63.863 102.382  1.00  0.00     0.000 C 
BRANCH  11  12
ATOM     12  C   UNL     1      76.891  64.019 101.805  1.00  0.00     0.000 C 
BRANCH  12  13
ATOM     13  C   UNL     1      76.798  63.705 100.298  1.00  0.00     0.000 C 
BRANCH  13  14
ATOM     14  C   UNL     1      75.359  63.374  99.864  1.00  0.00     0.000 C 
BRANCH  14  15
ATOM     15  C   UNL     1      75.018  63.933  98.474  1.00  0.00     0.000 C 
BRANCH  15  16
ATOM     16  C   UNL     1      75.545  63.040  97.337  1.00  0.00     0.006 C 
BRANCH  16  17
ATOM     17  C   UNL     1      75.166  61.566  97.535  1.00  0.00     0.053 C 
BRANCH  17  18
ATOM     18  C   UNL     1      76.162  60.646  96.895  1.00  0.00     0.041 C 
ATOM     19  O   UNL     1      76.996  60.023  97.603  1.00  0.00    -0.550 OA
ATOM     20  O   UNL     1      76.185  60.502  95.515  1.00  0.00    -0.550 OA
ENDBRANCH  17  18
ENDBRANCH  16  17
ENDBRANCH  15  16
ENDBRANCH  14  15
ENDBRANCH  13  14
ENDBRANCH  12  13
ENDBRANCH  11  12
ENDBRANCH   1  11
TORSDOF 15
ENDMDL
MODEL 6
REMARK VINA RESULT:     9.740     21.314     24.191
REMARK INTER + INTRA:          20.882
REMARK INTER:                  20.351
REMARK INTRA:                   0.531
REMARK UNBOUND:                 2.600
REMARK SMILES O=C([O-])CCCCCCCCCCCCCCC(=O)[O-]
REMARK SMILES IDX 10 1 9 2 8 3 7 4 6 5 5 6 4 7 2 8 1 9 3 10 11 11 12 12 13 13
REMARK SMILES IDX 14 14 15 15 16 16 17 17 18 18 19 19 20 20
REMARK H PARENT
REMARK Flexibility Score: inf
ROOT
ATOM      1  C   UNL     1      82.950  66.758 104.527  1.00  0.00     0.000 C 
ENDROOT
BRANCH   1   2
ATOM      2  C   UNL     1      82.532  65.286 104.662  1.00  0.00     0.000 C 
BRANCH   2   3
ATOM      3  C   UNL     1      82.640  64.512 103.335  1.00  0.00     0.000 C 
BRANCH   3   4
ATOM      4  C   UNL     1      83.718  63.408 103.392  1.00  0.00     0.000 C 
BRANCH   4   5
ATOM      5  C   UNL     1      83.491  62.275 102.376  1.00  0.00     0.000 C 
BRANCH   5   6
ATOM      6  C   UNL     1      83.907  62.661 100.947  1.00  0.00     0.006 C 
BRANCH   6   7
ATOM      7  C   UNL     1      85.418  62.893 100.826  1.00  0.00     0.053 C 
BRANCH   7   8
ATOM      8  C   UNL     1      85.876  62.843  99.400  1.00  0.00     0.041 C 
ATOM      9  O   UNL     1      85.403  63.648  98.555  1.00  0.00    -0.550 OA
ATOM     10  O   UNL     1      86.796  61.883  98.998  1.00  0.00    -0.550 OA
ENDBRANCH   7   8
ENDBRANCH   6   7
ENDBRANCH   5   6
ENDBRANCH   4   5
ENDBRANCH   3   4
ENDBRANCH   2   3
ENDBRANCH   1   2
BRANCH   1  11
ATOM     11  C   UNL     1      84.015  67.168 105.558  1.00  0.00     0.000 C 
BRANCH  11  12
ATOM     12  C   UNL     1      84.324  66.054 106.572  1.00  0.00     0.000 C 
BRANCH  12  13
ATOM     13  C   UNL     1      85.774  66.081 107.099  1.00  0.00     0.000 C 
BRANCH  13  14
ATOM     14  C   UNL     1      85.844  65.799 108.610  1.00  0.00     0.000 C 
BRANCH  14  15
ATOM     15  C   UNL     1      86.769  64.619 108.948  1.00  0.00     0.000 C 
BRANCH  15  16
ATOM     16  C   UNL     1      87.384  64.738 110.353  1.00  0.00     0.006 C 
BRANCH  16  17
ATOM     17  C   UNL     1      88.123  66.068 110.552  1.00  0.00     0.053 C 
BRANCH  17  18
ATOM     18  C   UNL     1      87.176  67.191 110.848  1.00  0.00     0.041 C 
ATOM     19  O   UNL     1      85.967  66.951 111.105  1.00  0.00    -0.550 OA
ATOM     20  O   UNL     1      87.625  68.504 110.813  1.00  0.00    -0.550 OA
ENDBRANCH  17  18
ENDBRANCH  16  17
ENDBRANCH  15  16
ENDBRANCH  14  15
ENDBRANCH  13  14
ENDBRANCH  12  13
ENDBRANCH  11  12
ENDBRANCH   1  11
TORSDOF 15
ENDMDL
