MODEL 1
REMARK VINA RESULT:    -4.927      0.000      0.000
REMARK INTER + INTRA:          -8.630
REMARK INTER:                  -7.807
REMARK INTRA:                  -0.823
REMARK UNBOUND:                -0.823
REMARK SMILES CCCCCCCCCCCC(=O)[O-]
REMARK SMILES IDX 7 1 8 2 9 3 10 4 11 5 12 6 13 7 14 8 6 9 5 10 4 11 3 12 2 13
REMARK SMILES IDX 1 14
REMARK H PARENT
REMARK Flexibility Score: inf
ROOT
ATOM      1  C   UNL     1      47.912  -5.158  25.662  1.00  0.00     0.000 C 
ENDROOT
BRANCH   1   2
ATOM      2  C   UNL     1      47.424  -3.920  26.430  1.00  0.00     0.000 C 
BRANCH   2   3
ATOM      3  C   UNL     1      46.064  -4.142  27.109  1.00  0.00     0.000 C 
BRANCH   3   4
ATOM      4  C   UNL     1      45.255  -5.276  26.456  1.00  0.00     0.006 C 
BRANCH   4   5
ATOM      5  C   UNL     1      44.158  -5.814  27.386  1.00  0.00     0.053 C 
BRANCH   5   6
ATOM      6  C   UNL     1      42.942  -4.939  27.379  1.00  0.00     0.041 C 
ATOM      7  O   UNL     1      42.030  -5.129  26.532  1.00  0.00    -0.550 OA
ATOM      8  O   UNL     1      42.803  -3.932  28.327  1.00  0.00    -0.550 OA
ENDBRANCH   5   6
ENDBRANCH   4   5
ENDBRANCH   3   4
ENDBRANCH   2   3
ENDBRANCH   1   2
BRANCH   1   9
ATOM      9  C   UNL     1      49.430  -5.328  25.803  1.00  0.00     0.000 C 
BRANCH   9  10
ATOM     10  C   UNL     1      49.900  -6.645  25.167  1.00  0.00    -0.000 C 
BRANCH  10  11
ATOM     11  C   UNL     1      48.726  -7.478  24.610  1.00  0.00    -0.000 C 
BRANCH  11  12
ATOM     12  C   UNL     1      48.687  -7.541  23.071  1.00  0.00    -0.000 C 
BRANCH  12  13
ATOM     13  C   UNL     1      47.287  -7.387  22.456  1.00  0.00    -0.003 C 
ATOM     14  C   UNL     1      46.166  -7.567  23.481  1.00  0.00     0.004 C 
ENDBRANCH  12  13
ENDBRANCH  11  12
ENDBRANCH  10  11
ENDBRANCH   9  10
ENDBRANCH   1   9
TORSDOF 10
ENDMDL
MODEL 2
REMARK VINA RESULT:    -4.909      3.434      6.246
REMARK INTER + INTRA:          -8.601
REMARK INTER:                  -7.811
REMARK INTRA:                  -0.791
REMARK UNBOUND:                -0.823
REMARK SMILES CCCCCCCCCCCC(=O)[O-]
REMARK SMILES IDX 7 1 8 2 9 3 10 4 11 5 12 6 13 7 14 8 6 9 5 10 4 11 3 12 2 13
REMARK SMILES IDX 1 14
REMARK H PARENT
REMARK Flexibility Score: inf
ROOT
ATOM      1  C   UNL     1      44.924  -6.454  25.635  1.00  0.00     0.000 C 
ENDROOT
BRANCH   1   2
ATOM      2  C   UNL     1      45.539  -7.560  24.763  1.00  0.00     0.000 C 
BRANCH   2   3
ATOM      3  C   UNL     1      47.073  -7.599  24.852  1.00  0.00     0.000 C 
BRANCH   3   4
ATOM      4  C   UNL     1      47.753  -6.975  23.621  1.00  0.00     0.006 C 
BRANCH   4   5
ATOM      5  C   UNL     1      48.471  -5.661  23.961  1.00  0.00     0.053 C 
BRANCH   5   6
ATOM      6  C   UNL     1      49.439  -5.830  25.092  1.00  0.00     0.041 C 
ATOM      7  O   UNL     1      50.403  -6.634  24.986  1.00  0.00    -0.550 OA
ATOM      8  O   UNL     1      49.294  -5.079  26.252  1.00  0.00    -0.550 OA
ENDBRANCH   5   6
ENDBRANCH   4   5
ENDBRANCH   3   4
ENDBRANCH   2   3
ENDBRANCH   1   2
BRANCH   1   9
ATOM      9  C   UNL     1      45.705  -6.291  26.945  1.00  0.00     0.000 C 
BRANCH   9  10
ATOM     10  C   UNL     1      45.813  -4.811  27.343  1.00  0.00    -0.000 C 
BRANCH  10  11
ATOM     11  C   UNL     1      44.618  -4.346  28.201  1.00  0.00    -0.000 C 
BRANCH  11  12
ATOM     12  C   UNL     1      44.539  -2.817  28.375  1.00  0.00    -0.000 C 
BRANCH  12  13
ATOM     13  C   UNL     1      45.756  -2.045  27.843  1.00  0.00    -0.003 C 
ATOM     14  C   UNL     1      45.719  -0.558  28.199  1.00  0.00     0.004 C 
ENDBRANCH  12  13
ENDBRANCH  11  12
ENDBRANCH  10  11
ENDBRANCH   9  10
ENDBRANCH   1   9
TORSDOF 10
ENDMDL
MODEL 3
REMARK VINA RESULT:    -4.875      3.301      4.695
REMARK INTER + INTRA:          -8.548
REMARK INTER:                  -7.748
REMARK INTRA:                  -0.800
REMARK UNBOUND:                -0.823
REMARK SMILES CCCCCCCCCCCC(=O)[O-]
REMARK SMILES IDX 7 1 8 2 9 3 10 4 11 5 12 6 13 7 14 8 6 9 5 10 4 11 3 12 2 13
REMARK SMILES IDX 1 14
REMARK H PARENT
REMARK Flexibility Score: inf
ROOT
ATOM      1  C   UNL     1      45.180  -5.848  27.179  1.00  0.00     0.000 C 
ENDROOT
BRANCH   1   2
ATOM      2  C   UNL     1      45.866  -5.007  26.091  1.00  0.00     0.000 C 
BRANCH   2   3
ATOM      3  C   UNL     1      46.843  -3.971  26.671  1.00  0.00     0.000 C 
BRANCH   3   4
ATOM      4  C   UNL     1      48.314  -4.393  26.515  1.00  0.00     0.006 C 
BRANCH   4   5
ATOM      5  C   UNL     1      48.530  -5.296  25.293  1.00  0.00     0.053 C 
BRANCH   5   6
ATOM      6  C   UNL     1      49.680  -6.236  25.490  1.00  0.00     0.041 C 
ATOM      7  O   UNL     1      50.768  -5.815  25.963  1.00  0.00    -0.550 OA
ATOM      8  O   UNL     1      49.540  -7.583  25.180  1.00  0.00    -0.550 OA
ENDBRANCH   5   6
ENDBRANCH   4   5
ENDBRANCH   3   4
ENDBRANCH   2   3
ENDBRANCH   1   2
BRANCH   1   9
ATOM      9  C   UNL     1      45.122  -7.326  26.774  1.00  0.00     0.000 C 
BRANCH   9  10
ATOM     10  C   UNL     1      46.167  -7.645  25.695  1.00  0.00    -0.000 C 
BRANCH  10  11
ATOM     11  C   UNL     1      45.532  -7.826  24.300  1.00  0.00    -0.000 C 
BRANCH  11  12
ATOM     12  C   UNL     1      46.322  -7.143  23.166  1.00  0.00    -0.000 C 
BRANCH  12  13
ATOM     13  C   UNL     1      47.091  -8.106  22.248  1.00  0.00    -0.003 C 
ATOM     14  C   UNL     1      48.483  -7.590  21.881  1.00  0.00     0.004 C 
ENDBRANCH  12  13
ENDBRANCH  11  12
ENDBRANCH  10  11
ENDBRANCH   9  10
ENDBRANCH   1   9
TORSDOF 10
ENDMDL
MODEL 4
REMARK VINA RESULT:    -4.856      1.833      2.512
REMARK INTER + INTRA:          -8.518
REMARK INTER:                  -7.845
REMARK INTRA:                  -0.673
REMARK UNBOUND:                -0.823
REMARK SMILES CCCCCCCCCCCC(=O)[O-]
REMARK SMILES IDX 7 1 8 2 9 3 10 4 11 5 12 6 13 7 14 8 6 9 5 10 4 11 3 12 2 13
REMARK SMILES IDX 1 14
REMARK H PARENT
REMARK Flexibility Score: inf
ROOT
ATOM      1  C   UNL     1      45.126  -7.469  25.671  1.00  0.00     0.000 C 
ENDROOT
BRANCH   1   2
ATOM      2  C   UNL     1      44.669  -6.029  25.953  1.00  0.00     0.000 C 
BRANCH   2   3
ATOM      3  C   UNL     1      44.544  -5.731  27.456  1.00  0.00     0.000 C 
BRANCH   3   4
ATOM      4  C   UNL     1      43.094  -5.447  27.884  1.00  0.00     0.006 C 
BRANCH   4   5
ATOM      5  C   UNL     1      42.198  -5.089  26.690  1.00  0.00     0.053 C 
BRANCH   5   6
ATOM      6  C   UNL     1      40.746  -5.282  27.006  1.00  0.00     0.041 C 
ATOM      7  O   UNL     1      40.382  -6.210  27.775  1.00  0.00    -0.550 OA
ATOM      8  O   UNL     1      39.797  -4.417  26.473  1.00  0.00    -0.550 OA
ENDBRANCH   5   6
ENDBRANCH   4   5
ENDBRANCH   3   4
ENDBRANCH   2   3
ENDBRANCH   1   2
BRANCH   1   9
ATOM      9  C   UNL     1      46.527  -7.722  26.243  1.00  0.00     0.000 C 
BRANCH   9  10
ATOM     10  C   UNL     1      47.569  -6.813  25.574  1.00  0.00    -0.000 C 
BRANCH  10  11
ATOM     11  C   UNL     1      48.567  -7.607  24.704  1.00  0.00    -0.000 C 
BRANCH  11  12
ATOM     12  C   UNL     1      48.855  -6.953  23.339  1.00  0.00    -0.000 C 
BRANCH  12  13
ATOM     13  C   UNL     1      48.185  -7.644  22.141  1.00  0.00    -0.003 C 
ATOM     14  C   UNL     1      46.659  -7.661  22.243  1.00  0.00     0.004 C 
ENDBRANCH  12  13
ENDBRANCH  11  12
ENDBRANCH  10  11
ENDBRANCH   9  10
ENDBRANCH   1   9
TORSDOF 10
ENDMDL
MODEL 5
REMARK VINA RESULT:    -4.817      2.990      6.026
REMARK INTER + INTRA:          -8.455
REMARK INTER:                  -7.605
REMARK INTRA:                  -0.850
REMARK UNBOUND:                -0.823
REMARK SMILES CCCCCCCCCCCC(=O)[O-]
REMARK SMILES IDX 7 1 8 2 9 3 10 4 11 5 12 6 13 7 14 8 6 9 5 10 4 11 3 12 2 13
REMARK SMILES IDX 1 14
REMARK H PARENT
REMARK Flexibility Score: inf
ROOT
ATOM      1  C   UNL     1      44.983  -6.784  27.116  1.00  0.00     0.000 C 
ENDROOT
BRANCH   1   2
ATOM      2  C   UNL     1      45.716  -7.760  26.183  1.00  0.00     0.000 C 
BRANCH   2   3
ATOM      3  C   UNL     1      45.486  -7.445  24.696  1.00  0.00     0.000 C 
BRANCH   3   4
ATOM      4  C   UNL     1      46.795  -7.409  23.889  1.00  0.00     0.006 C 
BRANCH   4   5
ATOM      5  C   UNL     1      48.025  -7.217  24.789  1.00  0.00     0.053 C 
BRANCH   5   6
ATOM      6  C   UNL     1      48.541  -5.812  24.737  1.00  0.00     0.041 C 
ATOM      7  O   UNL     1      48.513  -5.167  23.656  1.00  0.00    -0.550 OA
ATOM      8  O   UNL     1      49.026  -5.205  25.888  1.00  0.00    -0.550 OA
ENDBRANCH   5   6
ENDBRANCH   4   5
ENDBRANCH   3   4
ENDBRANCH   2   3
ENDBRANCH   1   2
BRANCH   1   9
ATOM      9  C   UNL     1      45.679  -5.417  27.137  1.00  0.00     0.000 C 
BRANCH   9  10
ATOM     10  C   UNL     1      44.856  -4.390  27.928  1.00  0.00    -0.000 C 
BRANCH  10  11
ATOM     11  C   UNL     1      43.639  -5.030  28.629  1.00  0.00    -0.000 C 
BRANCH  11  12
ATOM     12  C   UNL     1      42.289  -4.421  28.203  1.00  0.00    -0.000 C 
BRANCH  12  13
ATOM     13  C   UNL     1      41.788  -4.871  26.821  1.00  0.00    -0.003 C 
ATOM     14  C   UNL     1      40.402  -4.321  26.484  1.00  0.00     0.004 C 
ENDBRANCH  12  13
ENDBRANCH  11  12
ENDBRANCH  10  11
ENDBRANCH   9  10
ENDBRANCH   1   9
TORSDOF 10
ENDMDL
MODEL 6
REMARK VINA RESULT:    -4.801      2.127      3.606
REMARK INTER + INTRA:          -8.431
REMARK INTER:                  -7.794
REMARK INTRA:                  -0.637
REMARK UNBOUND:                -0.823
REMARK SMILES CCCCCCCCCCCC(=O)[O-]
REMARK SMILES IDX 7 1 8 2 9 3 10 4 11 5 12 6 13 7 14 8 6 9 5 10 4 11 3 12 2 13
REMARK SMILES IDX 1 14
REMARK H PARENT
REMARK Flexibility Score: inf
ROOT
ATOM      1  C   UNL     1      45.585  -7.537  25.331  1.00  0.00     0.000 C 
ENDROOT
BRANCH   1   2
ATOM      2  C   UNL     1      44.589  -6.414  25.657  1.00  0.00     0.000 C 
BRANCH   2   3
ATOM      3  C   UNL     1      44.346  -6.256  27.167  1.00  0.00     0.000 C 
BRANCH   3   4
ATOM      4  C   UNL     1      45.465  -5.464  27.866  1.00  0.00     0.006 C 
BRANCH   4   5
ATOM      5  C   UNL     1      45.187  -3.954  27.875  1.00  0.00     0.053 C 
BRANCH   5   6
ATOM      6  C   UNL     1      46.250  -3.187  27.149  1.00  0.00     0.041 C 
ATOM      7  O   UNL     1      46.913  -3.738  26.231  1.00  0.00    -0.550 OA
ATOM      8  O   UNL     1      46.487  -1.855  27.466  1.00  0.00    -0.550 OA
ENDBRANCH   5   6
ENDBRANCH   4   5
ENDBRANCH   3   4
ENDBRANCH   2   3
ENDBRANCH   1   2
BRANCH   1   9
ATOM      9  C   UNL     1      45.741  -7.709  23.815  1.00  0.00     0.000 C 
BRANCH   9  10
ATOM     10  C   UNL     1      47.182  -7.415  23.371  1.00  0.00    -0.000 C 
BRANCH  10  11
ATOM     11  C   UNL     1      48.166  -7.385  24.559  1.00  0.00    -0.000 C 
BRANCH  11  12
ATOM     12  C   UNL     1      49.604  -6.996  24.163  1.00  0.00    -0.000 C 
BRANCH  12  13
ATOM     13  C   UNL     1      50.498  -6.561  25.335  1.00  0.00    -0.003 C 
ATOM     14  C   UNL     1      50.068  -5.228  25.947  1.00  0.00     0.004 C 
ENDBRANCH  12  13
ENDBRANCH  11  12
ENDBRANCH  10  11
ENDBRANCH   9  10
ENDBRANCH   1   9
TORSDOF 10
ENDMDL
MODEL 7
REMARK VINA RESULT:    -4.784      2.435      3.545
REMARK INTER + INTRA:          -8.403
REMARK INTER:                  -7.990
REMARK INTRA:                  -0.413
REMARK UNBOUND:                -0.823
REMARK SMILES CCCCCCCCCCCC(=O)[O-]
REMARK SMILES IDX 7 1 8 2 9 3 10 4 11 5 12 6 13 7 14 8 6 9 5 10 4 11 3 12 2 13
REMARK SMILES IDX 1 14
REMARK H PARENT
REMARK Flexibility Score: inf
ROOT
ATOM      1  C   UNL     1      45.493  -6.601  27.010  1.00  0.00     0.000 C 
ENDROOT
BRANCH   1   2
ATOM      2  C   UNL     1      44.051  -6.096  27.180  1.00  0.00     0.000 C 
BRANCH   2   3
ATOM      3  C   UNL     1      43.925  -5.021  28.271  1.00  0.00     0.000 C 
BRANCH   3   4
ATOM      4  C   UNL     1      44.877  -3.835  28.047  1.00  0.00     0.006 C 
BRANCH   4   5
ATOM      5  C   UNL     1      44.317  -2.525  28.621  1.00  0.00     0.053 C 
BRANCH   5   6
ATOM      6  C   UNL     1      45.230  -1.367  28.362  1.00  0.00     0.041 C 
ATOM      7  O   UNL     1      45.031  -0.263  28.933  1.00  0.00    -0.550 OA
ATOM      8  O   UNL     1      46.320  -1.515  27.512  1.00  0.00    -0.550 OA
ENDBRANCH   5   6
ENDBRANCH   4   5
ENDBRANCH   3   4
ENDBRANCH   2   3
ENDBRANCH   1   2
BRANCH   1   9
ATOM      9  C   UNL     1      45.557  -7.744  25.989  1.00  0.00     0.000 C 
BRANCH   9  10
ATOM     10  C   UNL     1      46.310  -7.312  24.722  1.00  0.00    -0.000 C 
BRANCH  10  11
ATOM     11  C   UNL     1      47.763  -6.888  25.020  1.00  0.00    -0.000 C 
BRANCH  11  12
ATOM     12  C   UNL     1      48.737  -7.150  23.855  1.00  0.00    -0.000 C 
BRANCH  12  13
ATOM     13  C   UNL     1      48.071  -7.267  22.475  1.00  0.00    -0.003 C 
ATOM     14  C   UNL     1      48.973  -7.930  21.434  1.00  0.00     0.004 C 
ENDBRANCH  12  13
ENDBRANCH  11  12
ENDBRANCH  10  11
ENDBRANCH   9  10
ENDBRANCH   1   9
TORSDOF 10
ENDMDL
MODEL 8
REMARK VINA RESULT:    -4.777      1.673      3.125
REMARK INTER + INTRA:          -8.393
REMARK INTER:                  -7.634
REMARK INTRA:                  -0.759
REMARK UNBOUND:                -0.823
REMARK SMILES CCCCCCCCCCCC(=O)[O-]
REMARK SMILES IDX 7 1 8 2 9 3 10 4 11 5 12 6 13 7 14 8 6 9 5 10 4 11 3 12 2 13
REMARK SMILES IDX 1 14
REMARK H PARENT
REMARK Flexibility Score: inf
ROOT
ATOM      1  C   UNL     1      45.939  -7.786  26.270  1.00  0.00     0.000 C 
ENDROOT
BRANCH   1   2
ATOM      2  C   UNL     1      45.504  -6.546  27.068  1.00  0.00     0.000 C 
BRANCH   2   3
ATOM      3  C   UNL     1      44.426  -5.724  26.343  1.00  0.00     0.000 C 
BRANCH   3   4
ATOM      4  C   UNL     1      43.220  -5.405  27.244  1.00  0.00     0.006 C 
BRANCH   4   5
ATOM      5  C   UNL     1      43.648  -4.870  28.618  1.00  0.00     0.053 C 
BRANCH   5   6
ATOM      6  C   UNL     1      43.490  -3.384  28.711  1.00  0.00     0.041 C 
ATOM      7  O   UNL     1      42.347  -2.876  28.854  1.00  0.00    -0.550 OA
ATOM      8  O   UNL     1      44.609  -2.560  28.671  1.00  0.00    -0.550 OA
ENDBRANCH   5   6
ENDBRANCH   4   5
ENDBRANCH   3   4
ENDBRANCH   2   3
ENDBRANCH   1   2
BRANCH   1   9
ATOM      9  C   UNL     1      45.275  -7.809  24.887  1.00  0.00     0.000 C 
BRANCH   9  10
ATOM     10  C   UNL     1      46.285  -7.463  23.783  1.00  0.00    -0.000 C 
BRANCH  10  11
ATOM     11  C   UNL     1      47.738  -7.449  24.303  1.00  0.00    -0.000 C 
BRANCH  11  12
ATOM     12  C   UNL     1      48.551  -6.226  23.836  1.00  0.00    -0.000 C 
BRANCH  12  13
ATOM     13  C   UNL     1      49.371  -5.540  24.939  1.00  0.00    -0.003 C 
ATOM     14  C   UNL     1      50.445  -6.451  25.535  1.00  0.00     0.004 C 
ENDBRANCH  12  13
ENDBRANCH  11  12
ENDBRANCH  10  11
ENDBRANCH   9  10
ENDBRANCH   1   9
TORSDOF 10
ENDMDL
MODEL 9
REMARK VINA RESULT:    -4.738      3.584      6.943
REMARK INTER + INTRA:          -8.331
REMARK INTER:                  -7.634
REMARK INTRA:                  -0.697
REMARK UNBOUND:                -0.823
REMARK SMILES CCCCCCCCCCCC(=O)[O-]
REMARK SMILES IDX 7 1 8 2 9 3 10 4 11 5 12 6 13 7 14 8 6 9 5 10 4 11 3 12 2 13
REMARK SMILES IDX 1 14
REMARK H PARENT
REMARK Flexibility Score: inf
ROOT
ATOM      1  C   UNL     1      44.758  -6.021  27.331  1.00  0.00     0.000 C 
ENDROOT
BRANCH   1   2
ATOM      2  C   UNL     1      45.554  -7.193  26.733  1.00  0.00     0.000 C 
BRANCH   2   3
ATOM      3  C   UNL     1      45.260  -7.408  25.240  1.00  0.00     0.000 C 
BRANCH   3   4
ATOM      4  C   UNL     1      46.528  -7.342  24.372  1.00  0.00     0.006 C 
BRANCH   4   5
ATOM      5  C   UNL     1      47.805  -7.241  25.219  1.00  0.00     0.053 C 
BRANCH   5   6
ATOM      6  C   UNL     1      49.032  -7.127  24.367  1.00  0.00     0.041 C 
ATOM      7  O   UNL     1      50.156  -6.926  24.899  1.00  0.00    -0.550 OA
ATOM      8  O   UNL     1      48.938  -7.271  22.988  1.00  0.00    -0.550 OA
ENDBRANCH   5   6
ENDBRANCH   4   5
ENDBRANCH   3   4
ENDBRANCH   2   3
ENDBRANCH   1   2
BRANCH   1   9
ATOM      9  C   UNL     1      43.619  -5.599  26.395  1.00  0.00     0.000 C 
BRANCH   9  10
ATOM     10  C   UNL     1      42.573  -4.757  27.143  1.00  0.00    -0.000 C 
BRANCH  10  11
ATOM     11  C   UNL     1      42.960  -4.518  28.618  1.00  0.00    -0.000 C 
BRANCH  11  12
ATOM     12  C   UNL     1      42.488  -3.160  29.170  1.00  0.00    -0.000 C 
BRANCH  12  13
ATOM     13  C   UNL     1      43.609  -2.262  29.716  1.00  0.00    -0.003 C 
ATOM     14  C   UNL     1      44.656  -1.910  28.658  1.00  0.00     0.004 C 
ENDBRANCH  12  13
ENDBRANCH  11  12
ENDBRANCH  10  11
ENDBRANCH   9  10
ENDBRANCH   1   9
TORSDOF 10
ENDMDL
