MODEL 1
REMARK VINA RESULT:    -4.981      0.000      0.000
REMARK INTER + INTRA:         -11.396
REMARK INTER:                  -9.057
REMARK INTRA:                  -2.338
REMARK UNBOUND:                -2.338
REMARK SMILES CCCCCC=CCC=CCCCCCCCC(=O)[O-]
REMARK SMILES IDX 11 1 12 2 13 3 14 4 15 5 16 6 17 7 18 8 19 9 20 10 10 11
REMARK SMILES IDX 9 12 8 13 7 14 6 15 5 16 4 17 3 18 2 19 1 20
REMARK H PARENT
REMARK Flexibility Score: inf
ROOT
ATOM      1  C   UNL     1     190.799 242.665 134.785  1.00  0.00     0.027 C 
ENDROOT
BRANCH   1   2
ATOM      2  C   UNL     1     191.702 241.427 134.704  1.00  0.00     0.004 C 
BRANCH   2   3
ATOM      3  C   UNL     1     193.183 241.766 134.926  1.00  0.00     0.000 C 
BRANCH   3   4
ATOM      4  C   UNL     1     193.979 241.639 133.622  1.00  0.00     0.000 C 
BRANCH   4   5
ATOM      5  C   UNL     1     194.232 243.019 132.997  1.00  0.00     0.000 C 
BRANCH   5   6
ATOM      6  C   UNL     1     193.890 243.062 131.500  1.00  0.00     0.006 C 
BRANCH   6   7
ATOM      7  C   UNL     1     195.124 242.884 130.606  1.00  0.00     0.053 C 
BRANCH   7   8
ATOM      8  C   UNL     1     194.867 241.843 129.563  1.00  0.00     0.041 C 
ATOM      9  O   UNL     1     195.086 242.095 128.349  1.00  0.00    -0.550 OA
ATOM     10  O   UNL     1     194.338 240.611 129.925  1.00  0.00    -0.550 OA
ENDBRANCH   7   8
ENDBRANCH   6   7
ENDBRANCH   5   6
ENDBRANCH   4   5
ENDBRANCH   3   4
ENDBRANCH   2   3
ENDBRANCH   1   2
BRANCH   1  11
ATOM     11  C   UNL     1     190.654 243.338 133.442  1.00  0.00    -0.031 C 
ATOM     12  C   UNL     1     190.874 244.643 133.190  1.00  0.00    -0.027 C 
BRANCH  12  13
ATOM     13  C   UNL     1     191.373 245.659 134.187  1.00  0.00     0.054 C 
BRANCH  13  14
ATOM     14  C   UNL     1     192.518 246.440 133.611  1.00  0.00    -0.027 C 
ATOM     15  C   UNL     1     192.851 246.356 132.314  1.00  0.00    -0.031 C 
BRANCH  15  16
ATOM     16  C   UNL     1     194.002 247.137 131.743  1.00  0.00     0.027 C 
BRANCH  16  17
ATOM     17  C   UNL     1     195.279 246.917 132.563  1.00  0.00     0.004 C 
BRANCH  17  18
ATOM     18  C   UNL     1     196.439 247.758 132.008  1.00  0.00     0.000 C 
BRANCH  18  19
ATOM     19  C   UNL     1     196.941 247.248 130.649  1.00  0.00    -0.003 C 
ATOM     20  C   UNL     1     197.399 245.789 130.697  1.00  0.00     0.004 C 
ENDBRANCH  18  19
ENDBRANCH  17  18
ENDBRANCH  16  17
ENDBRANCH  15  16
ENDBRANCH  13  14
ENDBRANCH  12  13
ENDBRANCH   1  11
TORSDOF 14
ENDMDL
MODEL 2
REMARK VINA RESULT:    -4.909      3.174      5.899
REMARK INTER + INTRA:         -11.266
REMARK INTER:                  -8.661
REMARK INTRA:                  -2.605
REMARK UNBOUND:                -2.338
REMARK SMILES CCCCCC=CCC=CCCCCCCCC(=O)[O-]
REMARK SMILES IDX 11 1 12 2 13 3 14 4 15 5 16 6 17 7 18 8 19 9 20 10 10 11
REMARK SMILES IDX 9 12 8 13 7 14 6 15 5 16 4 17 3 18 2 19 1 20
REMARK H PARENT
REMARK Flexibility Score: inf
ROOT
ATOM      1  C   UNL     1     191.493 245.743 133.824  1.00  0.00     0.027 C 
ENDROOT
BRANCH   1   2
ATOM      2  C   UNL     1     191.024 245.018 135.093  1.00  0.00     0.004 C 
BRANCH   2   3
ATOM      3  C   UNL     1     189.995 243.919 134.794  1.00  0.00     0.000 C 
BRANCH   3   4
ATOM      4  C   UNL     1     190.601 242.822 133.910  1.00  0.00     0.000 C 
BRANCH   4   5
ATOM      5  C   UNL     1     191.193 241.693 134.767  1.00  0.00     0.000 C 
BRANCH   5   6
ATOM      6  C   UNL     1     192.615 241.306 134.334  1.00  0.00     0.006 C 
BRANCH   6   7
ATOM      7  C   UNL     1     193.697 241.965 135.199  1.00  0.00     0.053 C 
BRANCH   7   8
ATOM      8  C   UNL     1     193.647 241.429 136.595  1.00  0.00     0.041 C 
ATOM      9  O   UNL     1     193.949 240.228 136.824  1.00  0.00    -0.550 OA
ATOM     10  O   UNL     1     193.219 242.242 137.637  1.00  0.00    -0.550 OA
ENDBRANCH   7   8
ENDBRANCH   6   7
ENDBRANCH   5   6
ENDBRANCH   4   5
ENDBRANCH   3   4
ENDBRANCH   2   3
ENDBRANCH   1   2
BRANCH   1  11
ATOM     11  C   UNL     1     192.997 245.860 133.773  1.00  0.00    -0.031 C 
ATOM     12  C   UNL     1     193.807 245.204 132.920  1.00  0.00    -0.027 C 
BRANCH  12  13
ATOM     13  C   UNL     1     193.358 244.285 131.812  1.00  0.00     0.054 C 
BRANCH  13  14
ATOM     14  C   UNL     1     194.249 243.079 131.738  1.00  0.00    -0.027 C 
ATOM     15  C   UNL     1     194.145 242.182 130.745  1.00  0.00    -0.031 C 
BRANCH  15  16
ATOM     16  C   UNL     1     195.037 240.974 130.679  1.00  0.00     0.027 C 
BRANCH  16  17
ATOM     17  C   UNL     1     195.500 240.551 132.078  1.00  0.00     0.004 C 
BRANCH  17  18
ATOM     18  C   UNL     1     195.469 239.022 132.227  1.00  0.00     0.000 C 
BRANCH  18  19
ATOM     19  C   UNL     1     195.179 238.575 133.668  1.00  0.00    -0.003 C 
ATOM     20  C   UNL     1     193.801 237.930 133.821  1.00  0.00     0.004 C 
ENDBRANCH  18  19
ENDBRANCH  17  18
ENDBRANCH  16  17
ENDBRANCH  15  16
ENDBRANCH  13  14
ENDBRANCH  12  13
ENDBRANCH   1  11
TORSDOF 14
ENDMDL
MODEL 3
REMARK VINA RESULT:    -4.824      2.976      5.421
REMARK INTER + INTRA:         -11.111
REMARK INTER:                  -8.982
REMARK INTRA:                  -2.129
REMARK UNBOUND:                -2.338
REMARK SMILES CCCCCC=CCC=CCCCCCCCC(=O)[O-]
REMARK SMILES IDX 11 1 12 2 13 3 14 4 15 5 16 6 17 7 18 8 19 9 20 10 10 11
REMARK SMILES IDX 9 12 8 13 7 14 6 15 5 16 4 17 3 18 2 19 1 20
REMARK H PARENT
REMARK Flexibility Score: inf
ROOT
ATOM      1  C   UNL     1     190.033 243.620 134.830  1.00  0.00     0.027 C 
ENDROOT
BRANCH   1   2
ATOM      2  C   UNL     1     190.355 243.358 133.353  1.00  0.00     0.004 C 
BRANCH   2   3
ATOM      3  C   UNL     1     191.361 244.368 132.784  1.00  0.00     0.000 C 
BRANCH   3   4
ATOM      4  C   UNL     1     192.643 243.668 132.318  1.00  0.00     0.000 C 
BRANCH   4   5
ATOM      5  C   UNL     1     193.882 244.309 132.960  1.00  0.00     0.000 C 
BRANCH   5   6
ATOM      6  C   UNL     1     194.418 245.500 132.150  1.00  0.00     0.006 C 
BRANCH   6   7
ATOM      7  C   UNL     1     195.004 246.603 133.040  1.00  0.00     0.053 C 
BRANCH   7   8
ATOM      8  C   UNL     1     193.922 247.518 133.519  1.00  0.00     0.041 C 
ATOM      9  O   UNL     1     192.838 247.606 132.883  1.00  0.00    -0.550 OA
ATOM     10  O   UNL     1     194.127 248.311 134.640  1.00  0.00    -0.550 OA
ENDBRANCH   7   8
ENDBRANCH   6   7
ENDBRANCH   5   6
ENDBRANCH   4   5
ENDBRANCH   3   4
ENDBRANCH   2   3
ENDBRANCH   1   2
BRANCH   1  11
ATOM     11  C   UNL     1     189.885 242.333 135.605  1.00  0.00    -0.031 C 
ATOM     12  C   UNL     1     190.878 241.465 135.883  1.00  0.00    -0.027 C 
BRANCH  12  13
ATOM     13  C   UNL     1     192.332 241.651 135.531  1.00  0.00     0.054 C 
BRANCH  13  14
ATOM     14  C   UNL     1     192.852 240.449 134.799  1.00  0.00    -0.027 C 
ATOM     15  C   UNL     1     193.952 240.508 134.033  1.00  0.00    -0.031 C 
BRANCH  15  16
ATOM     16  C   UNL     1     194.466 239.301 133.298  1.00  0.00     0.027 C 
BRANCH  16  17
ATOM     17  C   UNL     1     195.402 239.708 132.154  1.00  0.00     0.004 C 
BRANCH  17  18
ATOM     18  C   UNL     1     195.577 241.234 132.104  1.00  0.00     0.000 C 
BRANCH  18  19
ATOM     19  C   UNL     1     195.456 241.796 130.679  1.00  0.00    -0.003 C 
ATOM     20  C   UNL     1     194.525 240.966 129.793  1.00  0.00     0.004 C 
ENDBRANCH  18  19
ENDBRANCH  17  18
ENDBRANCH  16  17
ENDBRANCH  15  16
ENDBRANCH  13  14
ENDBRANCH  12  13
ENDBRANCH   1  11
TORSDOF 14
ENDMDL
MODEL 4
REMARK VINA RESULT:    -4.815      4.281      6.438
REMARK INTER + INTRA:         -11.094
REMARK INTER:                  -8.405
REMARK INTRA:                  -2.689
REMARK UNBOUND:                -2.338
REMARK SMILES CCCCCC=CCC=CCCCCCCCC(=O)[O-]
REMARK SMILES IDX 11 1 12 2 13 3 14 4 15 5 16 6 17 7 18 8 19 9 20 10 10 11
REMARK SMILES IDX 9 12 8 13 7 14 6 15 5 16 4 17 3 18 2 19 1 20
REMARK H PARENT
REMARK Flexibility Score: inf
ROOT
ATOM      1  C   UNL     1     193.295 247.854 132.973  1.00  0.00     0.027 C 
ENDROOT
BRANCH   1   2
ATOM      2  C   UNL     1     193.424 248.422 131.553  1.00  0.00     0.004 C 
BRANCH   2   3
ATOM      3  C   UNL     1     193.933 249.870 131.545  1.00  0.00     0.000 C 
BRANCH   3   4
ATOM      4  C   UNL     1     195.236 249.993 130.747  1.00  0.00     0.000 C 
BRANCH   4   5
ATOM      5  C   UNL     1     196.457 249.848 131.667  1.00  0.00     0.000 C 
BRANCH   5   6
ATOM      6  C   UNL     1     197.427 248.754 131.194  1.00  0.00     0.006 C 
BRANCH   6   7
ATOM      7  C   UNL     1     196.740 247.687 130.333  1.00  0.00     0.053 C 
BRANCH   7   8
ATOM      8  C   UNL     1     197.269 246.327 130.666  1.00  0.00     0.041 C 
ATOM      9  O   UNL     1     196.635 245.575 131.452  1.00  0.00    -0.550 OA
ATOM     10  O   UNL     1     198.487 245.908 130.147  1.00  0.00    -0.550 OA
ENDBRANCH   7   8
ENDBRANCH   6   7
ENDBRANCH   5   6
ENDBRANCH   4   5
ENDBRANCH   3   4
ENDBRANCH   2   3
ENDBRANCH   1   2
BRANCH   1  11
ATOM     11  C   UNL     1     194.645 247.547 133.575  1.00  0.00    -0.031 C 
ATOM     12  C   UNL     1     195.165 248.128 134.674  1.00  0.00    -0.027 C 
BRANCH  12  13
ATOM     13  C   UNL     1     194.468 249.142 135.545  1.00  0.00     0.054 C 
BRANCH  13  14
ATOM     14  C   UNL     1     195.229 250.436 135.555  1.00  0.00    -0.027 C 
ATOM     15  C   UNL     1     194.948 251.429 134.698  1.00  0.00    -0.031 C 
BRANCH  15  16
ATOM     16  C   UNL     1     195.718 252.721 134.709  1.00  0.00     0.027 C 
BRANCH  16  17
ATOM     17  C   UNL     1     197.055 252.574 133.972  1.00  0.00     0.004 C 
BRANCH  17  18
ATOM     18  C   UNL     1     197.049 253.375 132.661  1.00  0.00     0.000 C 
BRANCH  18  19
ATOM     19  C   UNL     1     198.286 253.097 131.793  1.00  0.00    -0.003 C 
ATOM     20  C   UNL     1     197.935 252.841 130.327  1.00  0.00     0.004 C 
ENDBRANCH  18  19
ENDBRANCH  17  18
ENDBRANCH  16  17
ENDBRANCH  15  16
ENDBRANCH  13  14
ENDBRANCH  12  13
ENDBRANCH   1  11
TORSDOF 14
ENDMDL
MODEL 5
REMARK VINA RESULT:    -4.804      1.731      5.485
REMARK INTER + INTRA:         -11.073
REMARK INTER:                  -8.691
REMARK INTRA:                  -2.382
REMARK UNBOUND:                -2.338
REMARK SMILES CCCCCC=CCC=CCCCCCCCC(=O)[O-]
REMARK SMILES IDX 11 1 12 2 13 3 14 4 15 5 16 6 17 7 18 8 19 9 20 10 10 11
REMARK SMILES IDX 9 12 8 13 7 14 6 15 5 16 4 17 3 18 2 19 1 20
REMARK H PARENT
REMARK Flexibility Score: inf
ROOT
ATOM      1  C   UNL     1     191.376 245.503 134.259  1.00  0.00     0.027 C 
ENDROOT
BRANCH   1   2
ATOM      2  C   UNL     1     192.355 246.394 133.484  1.00  0.00     0.004 C 
BRANCH   2   3
ATOM      3  C   UNL     1     192.762 245.784 132.135  1.00  0.00     0.000 C 
BRANCH   3   4
ATOM      4  C   UNL     1     194.208 245.277 132.173  1.00  0.00     0.000 C 
BRANCH   4   5
ATOM      5  C   UNL     1     194.265 243.813 132.634  1.00  0.00     0.000 C 
BRANCH   5   6
ATOM      6  C   UNL     1     193.528 242.863 131.677  1.00  0.00     0.006 C 
BRANCH   6   7
ATOM      7  C   UNL     1     194.359 242.514 130.435  1.00  0.00     0.053 C 
BRANCH   7   8
ATOM      8  C   UNL     1     194.857 241.106 130.519  1.00  0.00     0.041 C 
ATOM      9  O   UNL     1     194.386 240.220 129.759  1.00  0.00    -0.550 OA
ATOM     10  O   UNL     1     195.808 240.761 131.471  1.00  0.00    -0.550 OA
ENDBRANCH   7   8
ENDBRANCH   6   7
ENDBRANCH   5   6
ENDBRANCH   4   5
ENDBRANCH   3   4
ENDBRANCH   2   3
ENDBRANCH   1   2
BRANCH   1  11
ATOM     11  C   UNL     1     190.700 244.500 133.356  1.00  0.00    -0.031 C 
ATOM     12  C   UNL     1     190.196 243.311 133.741  1.00  0.00    -0.027 C 
BRANCH  12  13
ATOM     13  C   UNL     1     190.152 242.791 135.155  1.00  0.00     0.054 C 
BRANCH  13  14
ATOM     14  C   UNL     1     191.216 241.754 135.366  1.00  0.00    -0.027 C 
ATOM     15  C   UNL     1     192.522 242.058 135.312  1.00  0.00    -0.031 C 
BRANCH  15  16
ATOM     16  C   UNL     1     193.583 241.012 135.518  1.00  0.00     0.027 C 
BRANCH  16  17
ATOM     17  C   UNL     1     193.730 240.121 134.279  1.00  0.00     0.004 C 
BRANCH  17  18
ATOM     18  C   UNL     1     193.698 238.635 134.665  1.00  0.00     0.000 C 
BRANCH  18  19
ATOM     19  C   UNL     1     192.319 237.996 134.441  1.00  0.00    -0.003 C 
ATOM     20  C   UNL     1     191.475 237.948 135.717  1.00  0.00     0.004 C 
ENDBRANCH  18  19
ENDBRANCH  17  18
ENDBRANCH  16  17
ENDBRANCH  15  16
ENDBRANCH  13  14
ENDBRANCH  12  13
ENDBRANCH   1  11
TORSDOF 14
ENDMDL
MODEL 6
REMARK VINA RESULT:    -4.783      3.057      5.262
REMARK INTER + INTRA:         -11.036
REMARK INTER:                  -8.749
REMARK INTRA:                  -2.287
REMARK UNBOUND:                -2.338
REMARK SMILES CCCCCC=CCC=CCCCCCCCC(=O)[O-]
REMARK SMILES IDX 11 1 12 2 13 3 14 4 15 5 16 6 17 7 18 8 19 9 20 10 10 11
REMARK SMILES IDX 9 12 8 13 7 14 6 15 5 16 4 17 3 18 2 19 1 20
REMARK H PARENT
REMARK Flexibility Score: inf
ROOT
ATOM      1  C   UNL     1     190.374 242.518 135.595  1.00  0.00     0.027 C 
ENDROOT
BRANCH   1   2
ATOM      2  C   UNL     1     190.017 243.855 134.931  1.00  0.00     0.004 C 
BRANCH   2   3
ATOM      3  C   UNL     1     190.161 243.807 133.403  1.00  0.00     0.000 C 
BRANCH   3   4
ATOM      4  C   UNL     1     191.079 244.926 132.900  1.00  0.00     0.000 C 
BRANCH   4   5
ATOM      5  C   UNL     1     191.711 245.687 134.076  1.00  0.00     0.000 C 
BRANCH   5   6
ATOM      6  C   UNL     1     192.933 246.518 133.654  1.00  0.00     0.006 C 
BRANCH   6   7
ATOM      7  C   UNL     1     192.740 247.205 132.296  1.00  0.00     0.053 C 
BRANCH   7   8
ATOM      8  C   UNL     1     193.458 248.518 132.269  1.00  0.00     0.041 C 
ATOM      9  O   UNL     1     193.501 249.239 133.301  1.00  0.00    -0.550 OA
ATOM     10  O   UNL     1     194.039 248.968 131.091  1.00  0.00    -0.550 OA
ENDBRANCH   7   8
ENDBRANCH   6   7
ENDBRANCH   5   6
ENDBRANCH   4   5
ENDBRANCH   3   4
ENDBRANCH   2   3
ENDBRANCH   1   2
BRANCH   1  11
ATOM     11  C   UNL     1     191.484 242.677 136.607  1.00  0.00    -0.031 C 
ATOM     12  C   UNL     1     192.742 242.215 136.470  1.00  0.00    -0.027 C 
BRANCH  12  13
ATOM     13  C   UNL     1     193.295 241.516 135.255  1.00  0.00     0.054 C 
BRANCH  13  14
ATOM     14  C   UNL     1     193.884 242.512 134.299  1.00  0.00    -0.027 C 
ATOM     15  C   UNL     1     193.601 242.487 132.987  1.00  0.00    -0.031 C 
BRANCH  15  16
ATOM     16  C   UNL     1     194.199 243.485 132.034  1.00  0.00     0.027 C 
BRANCH  16  17
ATOM     17  C   UNL     1     194.924 242.781 130.881  1.00  0.00     0.004 C 
BRANCH  17  18
ATOM     18  C   UNL     1     195.917 241.737 131.413  1.00  0.00     0.000 C 
BRANCH  18  19
ATOM     19  C   UNL     1     195.550 240.305 130.992  1.00  0.00    -0.003 C 
ATOM     20  C   UNL     1     194.783 240.256 129.669  1.00  0.00     0.004 C 
ENDBRANCH  18  19
ENDBRANCH  17  18
ENDBRANCH  16  17
ENDBRANCH  15  16
ENDBRANCH  13  14
ENDBRANCH  12  13
ENDBRANCH   1  11
TORSDOF 14
ENDMDL
MODEL 7
REMARK VINA RESULT:    -4.759      1.298      2.123
REMARK INTER + INTRA:         -10.992
REMARK INTER:                  -8.752
REMARK INTRA:                  -2.240
REMARK UNBOUND:                -2.338
REMARK SMILES CCCCCC=CCC=CCCCCCCCC(=O)[O-]
REMARK SMILES IDX 11 1 12 2 13 3 14 4 15 5 16 6 17 7 18 8 19 9 20 10 10 11
REMARK SMILES IDX 9 12 8 13 7 14 6 15 5 16 4 17 3 18 2 19 1 20
REMARK H PARENT
REMARK Flexibility Score: inf
ROOT
ATOM      1  C   UNL     1     190.111 243.868 134.368  1.00  0.00     0.027 C 
ENDROOT
BRANCH   1   2
ATOM      2  C   UNL     1     190.932 242.729 133.749  1.00  0.00     0.004 C 
BRANCH   2   3
ATOM      3  C   UNL     1     191.510 241.780 134.808  1.00  0.00     0.000 C 
BRANCH   3   4
ATOM      4  C   UNL     1     193.007 241.542 134.577  1.00  0.00     0.000 C 
BRANCH   4   5
ATOM      5  C   UNL     1     193.613 242.661 133.717  1.00  0.00     0.000 C 
BRANCH   5   6
ATOM      6  C   UNL     1     194.426 242.120 132.530  1.00  0.00     0.006 C 
BRANCH   6   7
ATOM      7  C   UNL     1     193.917 242.641 131.180  1.00  0.00     0.053 C 
BRANCH   7   8
ATOM      8  C   UNL     1     194.926 242.378 130.106  1.00  0.00     0.041 C 
ATOM      9  O   UNL     1     194.654 241.593 129.159  1.00  0.00    -0.550 OA
ATOM     10  O   UNL     1     196.185 242.961 130.176  1.00  0.00    -0.550 OA
ENDBRANCH   7   8
ENDBRANCH   6   7
ENDBRANCH   5   6
ENDBRANCH   4   5
ENDBRANCH   3   4
ENDBRANCH   2   3
ENDBRANCH   1   2
BRANCH   1  11
ATOM     11  C   UNL     1     190.997 244.977 134.882  1.00  0.00    -0.031 C 
ATOM     12  C   UNL     1     191.737 245.808 134.122  1.00  0.00    -0.027 C 
BRANCH  12  13
ATOM     13  C   UNL     1     191.764 245.829 132.614  1.00  0.00     0.054 C 
BRANCH  13  14
ATOM     14  C   UNL     1     193.170 246.005 132.118  1.00  0.00    -0.027 C 
ATOM     15  C   UNL     1     194.191 246.244 132.956  1.00  0.00    -0.031 C 
BRANCH  15  16
ATOM     16  C   UNL     1     195.596 246.425 132.453  1.00  0.00     0.027 C 
BRANCH  16  17
ATOM     17  C   UNL     1     196.057 247.879 132.610  1.00  0.00     0.004 C 
BRANCH  17  18
ATOM     18  C   UNL     1     195.923 248.643 131.284  1.00  0.00     0.000 C 
BRANCH  18  19
ATOM     19  C   UNL     1     194.579 249.377 131.157  1.00  0.00    -0.003 C 
ATOM     20  C   UNL     1     194.148 250.049 132.461  1.00  0.00     0.004 C 
ENDBRANCH  18  19
ENDBRANCH  17  18
ENDBRANCH  16  17
ENDBRANCH  15  16
ENDBRANCH  13  14
ENDBRANCH  12  13
ENDBRANCH   1  11
TORSDOF 14
ENDMDL
MODEL 8
REMARK VINA RESULT:    -4.751      3.531      6.094
REMARK INTER + INTRA:         -10.978
REMARK INTER:                  -8.696
REMARK INTRA:                  -2.282
REMARK UNBOUND:                -2.338
REMARK SMILES CCCCCC=CCC=CCCCCCCCC(=O)[O-]
REMARK SMILES IDX 11 1 12 2 13 3 14 4 15 5 16 6 17 7 18 8 19 9 20 10 10 11
REMARK SMILES IDX 9 12 8 13 7 14 6 15 5 16 4 17 3 18 2 19 1 20
REMARK H PARENT
REMARK Flexibility Score: inf
ROOT
ATOM      1  C   UNL     1     194.340 250.256 136.135  1.00  0.00     0.027 C 
ENDROOT
BRANCH   1   2
ATOM      2  C   UNL     1     194.393 248.790 135.687  1.00  0.00     0.004 C 
BRANCH   2   3
ATOM      3  C   UNL     1     194.813 248.640 134.218  1.00  0.00     0.000 C 
BRANCH   3   4
ATOM      4  C   UNL     1     193.715 249.148 133.276  1.00  0.00     0.000 C 
BRANCH   4   5
ATOM      5  C   UNL     1     193.462 248.148 132.139  1.00  0.00     0.000 C 
BRANCH   5   6
ATOM      6  C   UNL     1     192.796 246.852 132.629  1.00  0.00     0.006 C 
BRANCH   6   7
ATOM      7  C   UNL     1     193.452 245.594 132.046  1.00  0.00     0.053 C 
BRANCH   7   8
ATOM      8  C   UNL     1     192.584 244.398 132.279  1.00  0.00     0.041 C 
ATOM      9  O   UNL     1     193.057 243.237 132.153  1.00  0.00    -0.550 OA
ATOM     10  O   UNL     1     191.240 244.563 132.589  1.00  0.00    -0.550 OA
ENDBRANCH   7   8
ENDBRANCH   6   7
ENDBRANCH   5   6
ENDBRANCH   4   5
ENDBRANCH   3   4
ENDBRANCH   2   3
ENDBRANCH   1   2
BRANCH   1  11
ATOM     11  C   UNL     1     195.718 250.800 136.427  1.00  0.00    -0.031 C 
ATOM     12  C   UNL     1     196.290 251.858 135.819  1.00  0.00    -0.027 C 
BRANCH  12  13
ATOM     13  C   UNL     1     195.635 252.736 134.783  1.00  0.00     0.054 C 
BRANCH  13  14
ATOM     14  C   UNL     1     195.864 252.182 133.406  1.00  0.00    -0.027 C 
ATOM     15  C   UNL     1     196.897 251.371 133.133  1.00  0.00    -0.031 C 
BRANCH  15  16
ATOM     16  C   UNL     1     197.124 250.823 131.751  1.00  0.00     0.027 C 
BRANCH  16  17
ATOM     17  C   UNL     1     197.755 249.427 131.806  1.00  0.00     0.004 C 
BRANCH  17  18
ATOM     18  C   UNL     1     197.186 248.524 130.702  1.00  0.00     0.000 C 
BRANCH  18  19
ATOM     19  C   UNL     1     196.897 247.098 131.195  1.00  0.00    -0.003 C 
ATOM     20  C   UNL     1     197.767 246.046 130.505  1.00  0.00     0.004 C 
ENDBRANCH  18  19
ENDBRANCH  17  18
ENDBRANCH  16  17
ENDBRANCH  15  16
ENDBRANCH  13  14
ENDBRANCH  12  13
ENDBRANCH   1  11
TORSDOF 14
ENDMDL
MODEL 9
REMARK VINA RESULT:    -4.735      1.259      1.893
REMARK INTER + INTRA:         -10.948
REMARK INTER:                  -8.538
REMARK INTRA:                  -2.410
REMARK UNBOUND:                -2.338
REMARK SMILES CCCCCC=CCC=CCCCCCCCC(=O)[O-]
REMARK SMILES IDX 11 1 12 2 13 3 14 4 15 5 16 6 17 7 18 8 19 9 20 10 10 11
REMARK SMILES IDX 9 12 8 13 7 14 6 15 5 16 4 17 3 18 2 19 1 20
REMARK H PARENT
REMARK Flexibility Score: inf
ROOT
ATOM      1  C   UNL     1     190.404 242.040 136.181  1.00  0.00     0.027 C 
ENDROOT
BRANCH   1   2
ATOM      2  C   UNL     1     191.661 241.198 135.926  1.00  0.00     0.004 C 
BRANCH   2   3
ATOM      3  C   UNL     1     192.948 242.031 135.991  1.00  0.00     0.000 C 
BRANCH   3   4
ATOM      4  C   UNL     1     193.887 241.687 134.829  1.00  0.00     0.000 C 
BRANCH   4   5
ATOM      5  C   UNL     1     193.322 242.200 133.497  1.00  0.00     0.000 C 
BRANCH   5   6
ATOM      6  C   UNL     1     194.418 242.697 132.541  1.00  0.00     0.006 C 
BRANCH   6   7
ATOM      7  C   UNL     1     193.916 242.865 131.102  1.00  0.00     0.053 C 
BRANCH   7   8
ATOM      8  C   UNL     1     194.960 242.415 130.129  1.00  0.00     0.041 C 
ATOM      9  O   UNL     1     196.090 242.969 130.110  1.00  0.00    -0.550 OA
ATOM     10  O   UNL     1     194.669 241.415 129.210  1.00  0.00    -0.550 OA
ENDBRANCH   7   8
ENDBRANCH   6   7
ENDBRANCH   5   6
ENDBRANCH   4   5
ENDBRANCH   3   4
ENDBRANCH   2   3
ENDBRANCH   1   2
BRANCH   1  11
ATOM     11  C   UNL     1     189.872 242.649 134.906  1.00  0.00    -0.031 C 
ATOM     12  C   UNL     1     190.022 243.933 134.527  1.00  0.00    -0.027 C 
BRANCH  12  13
ATOM     13  C   UNL     1     190.806 244.983 135.272  1.00  0.00     0.054 C 
BRANCH  13  14
ATOM     14  C   UNL     1     191.938 245.490 134.426  1.00  0.00    -0.027 C 
ATOM     15  C   UNL     1     191.786 245.737 133.115  1.00  0.00    -0.031 C 
BRANCH  15  16
ATOM     16  C   UNL     1     192.925 246.239 132.272  1.00  0.00     0.027 C 
BRANCH  16  17
ATOM     17  C   UNL     1     194.257 246.142 133.026  1.00  0.00     0.004 C 
BRANCH  17  18
ATOM     18  C   UNL     1     195.339 246.990 132.340  1.00  0.00     0.000 C 
BRANCH  18  19
ATOM     19  C   UNL     1     195.880 248.104 133.249  1.00  0.00    -0.003 C 
ATOM     20  C   UNL     1     195.071 248.261 134.537  1.00  0.00     0.004 C 
ENDBRANCH  18  19
ENDBRANCH  17  18
ENDBRANCH  16  17
ENDBRANCH  15  16
ENDBRANCH  13  14
ENDBRANCH  12  13
ENDBRANCH   1  11
TORSDOF 14
ENDMDL
