MODEL 1
REMARK VINA RESULT:    -7.786      0.000      0.000
REMARK INTER + INTRA:          -8.477
REMARK INTER:                  -8.468
REMARK INTRA:                  -0.008
REMARK UNBOUND:                -0.008
REMARK SMILES C[C@H]1[C@H]2C3=CC[C@H]4[C@]5(C)CC[C@H](O)C(C)(C)[C@H]5CC[C@]4(C)[C@@]3(C)CC[C@@]2(C(=O)[O-])CC[C@@H]1C
REMARK SMILES IDX 26 1 30 2 25 3 3 4 31 5 24 6 4 7 2 8 32 9 22 10 5 11 1 12
REMARK SMILES IDX 33 13 23 14 20 15 6 16 7 17 19 18 21 19 8 20 18 21 17 22
REMARK SMILES IDX 10 23 9 24 14 25 11 26 12 27 15 28 16 29 27 30 28 31 29 32
REMARK SMILES IDX 13 33
REMARK H PARENT 13 34
REMARK Flexibility Score: inf
ROOT
ATOM      1  C   UNL     1       5.254 -31.758   2.615  1.00  0.00     0.017 C 
ATOM      2  C   UNL     1       4.040 -31.505   1.666  1.00  0.00     0.014 C 
ATOM      3  C   UNL     1       4.889 -31.444   4.086  1.00  0.00     0.014 C 
ATOM      4  C   UNL     1       6.446 -30.861   2.132  1.00  0.00     0.030 C 
ATOM      5  C   UNL     1       4.365 -31.821   0.196  1.00  0.00     0.004 C 
ATOM      6  C   UNL     1       4.578 -29.969   4.340  1.00  0.00     0.013 C 
ATOM      7  C   UNL     1       6.174 -29.356   2.459  1.00  0.00    -0.063 C 
ATOM      8  C   UNL     1       6.801 -31.254   0.646  1.00  0.00    -0.003 C 
ATOM      9  C   UNL     1       5.597 -31.039  -0.315  1.00  0.00    -0.011 C 
ATOM     10  C   UNL     1       5.719 -28.988   3.901  1.00  0.00    -0.006 C 
ATOM     11  C   UNL     1       6.516 -28.374   1.581  1.00  0.00    -0.027 C 
ATOM     12  C   UNL     1       8.159 -30.696   0.149  1.00  0.00     0.008 C 
ATOM     13  C   UNL     1       5.915 -31.492  -1.752  1.00  0.00     0.008 C 
ATOM     14  C   UNL     1       6.936 -29.258   4.853  1.00  0.00     0.017 C 
ATOM     15  C   UNL     1       5.198 -27.453   4.001  1.00  0.00    -0.020 C 
ATOM     16  C   UNL     1       6.326 -26.900   1.790  1.00  0.00     0.032 C 
ATOM     17  C   UNL     1       6.241 -26.516   3.278  1.00  0.00     0.006 C 
ATOM     18  C   UNL     1       5.040 -27.008   5.491  1.00  0.00     0.008 C 
ATOM     19  C   UNL     1       3.797 -27.329   3.313  1.00  0.00     0.012 C 
ATOM     20  C   UNL     1       6.184 -24.938   3.549  1.00  0.00    -0.025 C 
ATOM     21  C   UNL     1       4.821 -25.505   5.666  1.00  0.00     0.005 C 
ATOM     22  C   UNL     1       6.027 -24.715   5.097  1.00  0.00     0.003 C 
ATOM     23  C   UNL     1       7.553 -24.304   3.078  1.00  0.00     0.010 C 
ATOM     24  C   UNL     1       5.043 -24.223   2.754  1.00  0.00     0.012 C 
ATOM     25  C   UNL     1       6.131 -23.212   5.604  1.00  0.00    -0.006 C 
ATOM     26  C   UNL     1       8.149 -23.237   4.016  1.00  0.00     0.033 C 
ATOM     27  C   UNL     1       7.067 -22.365   4.668  1.00  0.00     0.120 C 
ATOM     28  C   UNL     1       4.751 -22.511   5.679  1.00  0.00     0.014 C 
ATOM     29  C   UNL     1       6.713 -23.224   7.048  1.00  0.00     0.014 C 
ENDROOT
BRANCH   1  30
ATOM     30  C   UNL     1       5.630 -33.237   2.614  1.00  0.00     0.048 C 
ATOM     31  O   UNL     1       4.750 -34.125   2.452  1.00  0.00    -0.550 OA
ATOM     32  O   UNL     1       6.929 -33.633   2.914  1.00  0.00    -0.550 OA
ENDBRANCH   1  30
BRANCH  27  33
ATOM     33  O   UNL     1       7.678 -21.314   5.379  1.00  0.00    -0.393 OA
ATOM     34  H   UNL     1       6.953 -20.778   5.795  1.00  0.00     0.210 HD
ENDBRANCH  27  33
TORSDOF 2
ENDMDL
MODEL 2
REMARK VINA RESULT:    -7.478      1.370      8.074
REMARK INTER + INTRA:          -8.142
REMARK INTER:                  -8.135
REMARK INTRA:                  -0.007
REMARK UNBOUND:                -0.008
REMARK SMILES C[C@H]1[C@H]2C3=CC[C@H]4[C@]5(C)CC[C@H](O)C(C)(C)[C@H]5CC[C@]4(C)[C@@]3(C)CC[C@@]2(C(=O)[O-])CC[C@@H]1C
REMARK SMILES IDX 26 1 30 2 25 3 3 4 31 5 24 6 4 7 2 8 32 9 22 10 5 11 1 12
REMARK SMILES IDX 33 13 23 14 20 15 6 16 7 17 19 18 21 19 8 20 18 21 17 22
REMARK SMILES IDX 10 23 9 24 14 25 11 26 12 27 15 28 16 29 27 30 28 31 29 32
REMARK SMILES IDX 13 33
REMARK H PARENT 13 34
REMARK Flexibility Score: inf
ROOT
ATOM      1  C   UNL     1       5.367 -24.451   5.021  1.00  0.00     0.017 C 
ATOM      2  C   UNL     1       6.820 -24.508   5.591  1.00  0.00     0.014 C 
ATOM      3  C   UNL     1       4.449 -25.482   5.722  1.00  0.00     0.014 C 
ATOM      4  C   UNL     1       5.437 -24.724   3.479  1.00  0.00     0.030 C 
ATOM      5  C   UNL     1       7.755 -23.485   4.923  1.00  0.00     0.004 C 
ATOM      6  C   UNL     1       4.846 -26.934   5.460  1.00  0.00     0.013 C 
ATOM      7  C   UNL     1       5.763 -26.228   3.197  1.00  0.00    -0.063 C 
ATOM      8  C   UNL     1       6.346 -23.621   2.813  1.00  0.00    -0.003 C 
ATOM      9  C   UNL     1       7.793 -23.638   3.386  1.00  0.00    -0.011 C 
ATOM     10  C   UNL     1       4.931 -27.312   3.942  1.00  0.00    -0.006 C 
ATOM     11  C   UNL     1       6.603 -26.586   2.189  1.00  0.00    -0.027 C 
ATOM     12  C   UNL     1       6.242 -23.559   1.267  1.00  0.00     0.008 C 
ATOM     13  C   UNL     1       8.663 -22.515   2.793  1.00  0.00     0.008 C 
ATOM     14  C   UNL     1       3.469 -27.241   3.377  1.00  0.00     0.017 C 
ATOM     15  C   UNL     1       5.575 -28.794   3.774  1.00  0.00    -0.020 C 
ATOM     16  C   UNL     1       6.975 -27.991   1.810  1.00  0.00     0.032 C 
ATOM     17  C   UNL     1       5.926 -29.025   2.254  1.00  0.00     0.006 C 
ATOM     18  C   UNL     1       4.579 -29.898   4.255  1.00  0.00     0.008 C 
ATOM     19  C   UNL     1       6.870 -28.903   4.648  1.00  0.00     0.012 C 
ATOM     20  C   UNL     1       6.213 -30.516   1.743  1.00  0.00    -0.025 C 
ATOM     21  C   UNL     1       5.003 -31.317   3.876  1.00  0.00     0.005 C 
ATOM     22  C   UNL     1       5.102 -31.456   2.336  1.00  0.00     0.003 C 
ATOM     23  C   UNL     1       6.105 -30.529   0.166  1.00  0.00     0.010 C 
ATOM     24  C   UNL     1       7.645 -31.024   2.115  1.00  0.00     0.012 C 
ATOM     25  C   UNL     1       5.095 -32.955   1.806  1.00  0.00    -0.006 C 
ATOM     26  C   UNL     1       5.370 -31.740  -0.439  1.00  0.00     0.033 C 
ATOM     27  C   UNL     1       5.644 -33.036   0.336  1.00  0.00     0.120 C 
ATOM     28  C   UNL     1       5.935 -33.906   2.695  1.00  0.00     0.014 C 
ATOM     29  C   UNL     1       3.628 -33.478   1.841  1.00  0.00     0.014 C 
ENDROOT
BRANCH   1  30
ATOM     30  C   UNL     1       4.731 -23.096   5.321  1.00  0.00     0.048 C 
ATOM     31  O   UNL     1       5.003 -22.479   6.386  1.00  0.00    -0.550 OA
ATOM     32  O   UNL     1       3.749 -22.578   4.483  1.00  0.00    -0.550 OA
ENDBRANCH   1  30
BRANCH  27  33
ATOM     33  O   UNL     1       5.082 -34.125  -0.357  1.00  0.00    -0.393 OA
ATOM     34  H   UNL     1       5.652 -34.298  -1.151  1.00  0.00     0.210 HD
ENDBRANCH  27  33
TORSDOF 2
ENDMDL
MODEL 3
REMARK VINA RESULT:    -6.920      3.451      8.221
REMARK INTER + INTRA:          -7.535
REMARK INTER:                  -7.529
REMARK INTRA:                  -0.006
REMARK UNBOUND:                -0.008
REMARK SMILES C[C@H]1[C@H]2C3=CC[C@H]4[C@]5(C)CC[C@H](O)C(C)(C)[C@H]5CC[C@]4(C)[C@@]3(C)CC[C@@]2(C(=O)[O-])CC[C@@H]1C
REMARK SMILES IDX 26 1 30 2 25 3 3 4 31 5 24 6 4 7 2 8 32 9 22 10 5 11 1 12
REMARK SMILES IDX 33 13 23 14 20 15 6 16 7 17 19 18 21 19 8 20 18 21 17 22
REMARK SMILES IDX 10 23 9 24 14 25 11 26 12 27 15 28 16 29 27 30 28 31 29 32
REMARK SMILES IDX 13 33
REMARK H PARENT 13 34
REMARK Flexibility Score: inf
ROOT
ATOM      1  C   UNL     1       1.484 -27.696   7.354  1.00  0.00     0.017 C 
ATOM      2  C   UNL     1       2.413 -28.208   8.501  1.00  0.00     0.014 C 
ATOM      3  C   UNL     1       0.686 -28.861   6.718  1.00  0.00     0.014 C 
ATOM      4  C   UNL     1       2.381 -26.984   6.282  1.00  0.00     0.030 C 
ATOM      5  C   UNL     1       3.210 -27.071   9.163  1.00  0.00     0.004 C 
ATOM      6  C   UNL     1       1.563 -29.884   5.998  1.00  0.00     0.013 C 
ATOM      7  C   UNL     1       3.225 -28.031   5.482  1.00  0.00    -0.063 C 
ATOM      8  C   UNL     1       3.134 -25.784   6.974  1.00  0.00    -0.003 C 
ATOM      9  C   UNL     1       4.044 -26.264   8.141  1.00  0.00    -0.011 C 
ATOM     10  C   UNL     1       2.490 -29.271   4.894  1.00  0.00    -0.006 C 
ATOM     11  C   UNL     1       4.514 -27.774   5.134  1.00  0.00    -0.027 C 
ATOM     12  C   UNL     1       3.791 -24.790   5.982  1.00  0.00     0.008 C 
ATOM     13  C   UNL     1       4.722 -25.088   8.867  1.00  0.00     0.008 C 
ATOM     14  C   UNL     1       1.549 -28.751   3.752  1.00  0.00     0.017 C 
ATOM     15  C   UNL     1       3.533 -30.395   4.357  1.00  0.00    -0.020 C 
ATOM     16  C   UNL     1       5.415 -28.687   4.354  1.00  0.00     0.032 C 
ATOM     17  C   UNL     1       4.637 -29.687   3.481  1.00  0.00     0.006 C 
ATOM     18  C   UNL     1       2.799 -31.478   3.500  1.00  0.00     0.008 C 
ATOM     19  C   UNL     1       4.196 -31.118   5.577  1.00  0.00     0.012 C 
ATOM     20  C   UNL     1       5.557 -30.581   2.522  1.00  0.00    -0.025 C 
ATOM     21  C   UNL     1       3.747 -32.407   2.740  1.00  0.00     0.005 C 
ATOM     22  C   UNL     1       4.627 -31.592   1.759  1.00  0.00     0.003 C 
ATOM     23  C   UNL     1       6.249 -29.628   1.469  1.00  0.00     0.010 C 
ATOM     24  C   UNL     1       6.696 -31.327   3.292  1.00  0.00     0.012 C 
ATOM     25  C   UNL     1       5.318 -32.457   0.617  1.00  0.00    -0.006 C 
ATOM     26  C   UNL     1       6.297 -30.158   0.023  1.00  0.00     0.033 C 
ATOM     27  C   UNL     1       6.516 -31.676  -0.034  1.00  0.00     0.120 C 
ATOM     28  C   UNL     1       5.846 -33.818   1.137  1.00  0.00     0.014 C 
ATOM     29  C   UNL     1       4.249 -32.770  -0.472  1.00  0.00     0.014 C 
ENDROOT
BRANCH   1  30
ATOM     30  C   UNL     1       0.421 -26.753   7.910  1.00  0.00     0.048 C 
ATOM     31  O   UNL     1      -0.091 -26.957   9.044  1.00  0.00    -0.550 OA
ATOM     32  O   UNL     1      -0.088 -25.724   7.124  1.00  0.00    -0.550 OA
ENDBRANCH   1  30
BRANCH  27  33
ATOM     33  O   UNL     1       6.713 -32.072  -1.371  1.00  0.00    -0.393 OA
ATOM     34  H   UNL     1       7.270 -31.375  -1.807  1.00  0.00     0.210 HD
ENDBRANCH  27  33
TORSDOF 2
ENDMDL
MODEL 4
REMARK VINA RESULT:    -6.787      3.960      8.338
REMARK INTER + INTRA:          -7.391
REMARK INTER:                  -7.647
REMARK INTRA:                   0.256
REMARK UNBOUND:                -0.008
REMARK SMILES C[C@H]1[C@H]2C3=CC[C@H]4[C@]5(C)CC[C@H](O)C(C)(C)[C@H]5CC[C@]4(C)[C@@]3(C)CC[C@@]2(C(=O)[O-])CC[C@@H]1C
REMARK SMILES IDX 26 1 30 2 25 3 3 4 31 5 24 6 4 7 2 8 32 9 22 10 5 11 1 12
REMARK SMILES IDX 33 13 23 14 20 15 6 16 7 17 19 18 21 19 8 20 18 21 17 22
REMARK SMILES IDX 10 23 9 24 14 25 11 26 12 27 15 28 16 29 27 30 28 31 29 32
REMARK SMILES IDX 13 33
REMARK H PARENT 13 34
REMARK Flexibility Score: inf
ROOT
ATOM      1  C   UNL     1       5.246 -25.564   3.558  1.00  0.00     0.017 C 
ATOM      2  C   UNL     1       4.134 -24.469   3.485  1.00  0.00     0.014 C 
ATOM      3  C   UNL     1       4.826 -26.841   2.791  1.00  0.00     0.014 C 
ATOM      4  C   UNL     1       5.515 -25.884   5.069  1.00  0.00     0.030 C 
ATOM      5  C   UNL     1       4.527 -23.180   4.227  1.00  0.00     0.004 C 
ATOM      6  C   UNL     1       3.622 -27.556   3.402  1.00  0.00     0.013 C 
ATOM      7  C   UNL     1       4.323 -26.688   5.686  1.00  0.00    -0.063 C 
ATOM      8  C   UNL     1       5.980 -24.561   5.789  1.00  0.00    -0.003 C 
ATOM      9  C   UNL     1       4.901 -23.443   5.704  1.00  0.00    -0.011 C 
ATOM     10  C   UNL     1       3.799 -27.933   4.913  1.00  0.00    -0.006 C 
ATOM     11  C   UNL     1       3.888 -26.437   6.950  1.00  0.00    -0.027 C 
ATOM     12  C   UNL     1       6.599 -24.784   7.193  1.00  0.00     0.008 C 
ATOM     13  C   UNL     1       5.381 -22.126   6.340  1.00  0.00     0.008 C 
ATOM     14  C   UNL     1       4.924 -29.024   4.977  1.00  0.00     0.017 C 
ATOM     15  C   UNL     1       2.392 -28.475   5.518  1.00  0.00    -0.020 C 
ATOM     16  C   UNL     1       2.771 -27.152   7.655  1.00  0.00     0.032 C 
ATOM     17  C   UNL     1       2.514 -28.559   7.088  1.00  0.00     0.006 C 
ATOM     18  C   UNL     1       2.040 -29.886   4.944  1.00  0.00     0.008 C 
ATOM     19  C   UNL     1       1.238 -27.494   5.119  1.00  0.00     0.012 C 
ATOM     20  C   UNL     1       1.431 -29.411   7.905  1.00  0.00    -0.025 C 
ATOM     21  C   UNL     1       0.882 -30.574   5.668  1.00  0.00     0.005 C 
ATOM     22  C   UNL     1       1.229 -30.782   7.164  1.00  0.00     0.003 C 
ATOM     23  C   UNL     1       2.007 -29.691   9.350  1.00  0.00     0.010 C 
ATOM     24  C   UNL     1       0.072 -28.658   8.086  1.00  0.00     0.012 C 
ATOM     25  C   UNL     1       0.326 -31.857   7.908  1.00  0.00    -0.006 C 
ATOM     26  C   UNL     1       1.778 -31.115   9.892  1.00  0.00     0.033 C 
ATOM     27  C   UNL     1       0.419 -31.688   9.468  1.00  0.00     0.120 C 
ATOM     28  C   UNL     1      -1.166 -31.771   7.496  1.00  0.00     0.014 C 
ATOM     29  C   UNL     1       0.826 -33.276   7.509  1.00  0.00     0.014 C 
ENDROOT
BRANCH   1  30
ATOM     30  C   UNL     1       6.512 -25.084   2.853  1.00  0.00     0.048 C 
ATOM     31  O   UNL     1       6.579 -23.922   2.371  1.00  0.00    -0.550 OA
ATOM     32  O   UNL     1       7.566 -25.963   2.625  1.00  0.00    -0.550 OA
ENDBRANCH   1  30
BRANCH  27  33
ATOM     33  O   UNL     1       0.202 -32.915  10.125  1.00  0.00    -0.393 OA
ATOM     34  H   UNL     1      -0.509 -32.766  10.802  1.00  0.00     0.210 HD
ENDBRANCH  27  33
TORSDOF 2
ENDMDL
MODEL 5
REMARK VINA RESULT:    -6.564      3.999      6.306
REMARK INTER + INTRA:          -7.149
REMARK INTER:                  -7.142
REMARK INTRA:                  -0.007
REMARK UNBOUND:                -0.008
REMARK SMILES C[C@H]1[C@H]2C3=CC[C@H]4[C@]5(C)CC[C@H](O)C(C)(C)[C@H]5CC[C@]4(C)[C@@]3(C)CC[C@@]2(C(=O)[O-])CC[C@@H]1C
REMARK SMILES IDX 26 1 30 2 25 3 3 4 31 5 24 6 4 7 2 8 32 9 22 10 5 11 1 12
REMARK SMILES IDX 33 13 23 14 20 15 6 16 7 17 19 18 21 19 8 20 18 21 17 22
REMARK SMILES IDX 10 23 9 24 14 25 11 26 12 27 15 28 16 29 27 30 28 31 29 32
REMARK SMILES IDX 13 33
REMARK H PARENT 13 34
REMARK Flexibility Score: inf
ROOT
ATOM      1  C   UNL     1       0.263 -31.462   5.706  1.00  0.00     0.017 C 
ATOM      2  C   UNL     1       1.340 -32.314   6.450  1.00  0.00     0.014 C 
ATOM      3  C   UNL     1       0.668 -31.209   4.233  1.00  0.00     0.014 C 
ATOM      4  C   UNL     1       0.095 -30.108   6.478  1.00  0.00     0.030 C 
ATOM      5  C   UNL     1       0.960 -32.595   7.914  1.00  0.00     0.004 C 
ATOM      6  C   UNL     1       1.925 -30.354   4.081  1.00  0.00     0.013 C 
ATOM      7  C   UNL     1       1.342 -29.188   6.263  1.00  0.00    -0.063 C 
ATOM      8  C   UNL     1      -0.359 -30.423   7.955  1.00  0.00    -0.003 C 
ATOM      9  C   UNL     1       0.684 -31.298   8.709  1.00  0.00    -0.011 C 
ATOM     10  C   UNL     1       1.850 -28.968   4.808  1.00  0.00    -0.006 C 
ATOM     11  C   UNL     1       1.847 -28.442   7.282  1.00  0.00    -0.027 C 
ATOM     12  C   UNL     1      -0.886 -29.192   8.735  1.00  0.00     0.008 C 
ATOM     13  C   UNL     1       0.210 -31.672  10.125  1.00  0.00     0.008 C 
ATOM     14  C   UNL     1       0.760 -28.124   4.061  1.00  0.00     0.017 C 
ATOM     15  C   UNL     1       3.305 -28.245   4.777  1.00  0.00    -0.020 C 
ATOM     16  C   UNL     1       3.023 -27.512   7.194  1.00  0.00     0.032 C 
ATOM     17  C   UNL     1       3.281 -27.014   5.761  1.00  0.00     0.006 C 
ATOM     18  C   UNL     1       3.658 -27.756   3.334  1.00  0.00     0.008 C 
ATOM     19  C   UNL     1       4.407 -29.267   5.219  1.00  0.00     0.012 C 
ATOM     20  C   UNL     1       4.433 -25.907   5.646  1.00  0.00    -0.025 C 
ATOM     21  C   UNL     1       4.875 -26.832   3.278  1.00  0.00     0.005 C 
ATOM     22  C   UNL     1       4.624 -25.559   4.126  1.00  0.00     0.003 C 
ATOM     23  C   UNL     1       3.953 -24.610   6.411  1.00  0.00     0.010 C 
ATOM     24  C   UNL     1       5.781 -26.359   6.299  1.00  0.00     0.012 C 
ATOM     25  C   UNL     1       5.599 -24.346   3.800  1.00  0.00    -0.006 C 
ATOM     26  C   UNL     1       4.251 -23.273   5.704  1.00  0.00     0.033 C 
ATOM     27  C   UNL     1       5.596 -23.292   4.966  1.00  0.00     0.120 C 
ATOM     28  C   UNL     1       7.060 -24.803   3.557  1.00  0.00     0.014 C 
ATOM     29  C   UNL     1       5.111 -23.668   2.485  1.00  0.00     0.014 C 
ENDROOT
BRANCH   1  30
ATOM     30  C   UNL     1      -1.055 -32.226   5.622  1.00  0.00     0.048 C 
ATOM     31  O   UNL     1      -1.065 -33.482   5.516  1.00  0.00    -0.550 OA
ATOM     32  O   UNL     1      -2.262 -31.540   5.537  1.00  0.00    -0.550 OA
ENDBRANCH   1  30
BRANCH  27  33
ATOM     33  O   UNL     1       5.884 -22.001   4.483  1.00  0.00    -0.393 OA
ATOM     34  H   UNL     1       5.221 -21.380   4.883  1.00  0.00     0.210 HD
ENDBRANCH  27  33
TORSDOF 2
ENDMDL
MODEL 6
REMARK VINA RESULT:    -6.393      3.183      5.625
REMARK INTER + INTRA:          -6.962
REMARK INTER:                  -6.955
REMARK INTRA:                  -0.007
REMARK UNBOUND:                -0.008
REMARK SMILES C[C@H]1[C@H]2C3=CC[C@H]4[C@]5(C)CC[C@H](O)C(C)(C)[C@H]5CC[C@]4(C)[C@@]3(C)CC[C@@]2(C(=O)[O-])CC[C@@H]1C
REMARK SMILES IDX 26 1 30 2 25 3 3 4 31 5 24 6 4 7 2 8 32 9 22 10 5 11 1 12
REMARK SMILES IDX 33 13 23 14 20 15 6 16 7 17 19 18 21 19 8 20 18 21 17 22
REMARK SMILES IDX 10 23 9 24 14 25 11 26 12 27 15 28 16 29 27 30 28 31 29 32
REMARK SMILES IDX 13 33
REMARK H PARENT 13 34
REMARK Flexibility Score: inf
ROOT
ATOM      1  C   UNL     1       2.049 -30.191   5.558  1.00  0.00     0.017 C 
ATOM      2  C   UNL     1       2.892 -30.856   6.693  1.00  0.00     0.014 C 
ATOM      3  C   UNL     1       2.861 -30.090   4.244  1.00  0.00     0.014 C 
ATOM      4  C   UNL     1       1.604 -28.771   6.050  1.00  0.00     0.030 C 
ATOM      5  C   UNL     1       2.108 -30.984   8.010  1.00  0.00     0.004 C 
ATOM      6  C   UNL     1       4.070 -29.161   4.340  1.00  0.00     0.013 C 
ATOM      7  C   UNL     1       2.821 -27.787   6.075  1.00  0.00    -0.063 C 
ATOM      8  C   UNL     1       0.747 -28.938   7.363  1.00  0.00    -0.003 C 
ATOM      9  C   UNL     1       1.556 -29.626   8.501  1.00  0.00    -0.011 C 
ATOM     10  C   UNL     1       3.727 -27.707   4.812  1.00  0.00    -0.006 C 
ATOM     11  C   UNL     1       2.971 -26.883   7.080  1.00  0.00    -0.027 C 
ATOM     12  C   UNL     1      -0.037 -27.666   7.777  1.00  0.00     0.008 C 
ATOM     13  C   UNL     1       0.700 -29.860   9.759  1.00  0.00     0.008 C 
ATOM     14  C   UNL     1       2.873 -27.052   3.672  1.00  0.00     0.017 C 
ATOM     15  C   UNL     1       5.095 -26.879   5.098  1.00  0.00    -0.020 C 
ATOM     16  C   UNL     1       4.080 -25.879   7.204  1.00  0.00     0.032 C 
ATOM     17  C   UNL     1       4.730 -25.542   5.851  1.00  0.00     0.006 C 
ATOM     18  C   UNL     1       5.838 -26.543   3.764  1.00  0.00     0.008 C 
ATOM     19  C   UNL     1       6.057 -27.746   5.978  1.00  0.00     0.012 C 
ATOM     20  C   UNL     1       5.818 -24.368   5.917  1.00  0.00    -0.025 C 
ATOM     21  C   UNL     1       6.978 -25.538   3.931  1.00  0.00     0.005 C 
ATOM     22  C   UNL     1       6.436 -24.195   4.482  1.00  0.00     0.003 C 
ATOM     23  C   UNL     1       5.081 -23.030   6.320  1.00  0.00     0.010 C 
ATOM     24  C   UNL     1       6.930 -24.626   6.986  1.00  0.00     0.012 C 
ATOM     25  C   UNL     1       7.413 -22.957   4.282  1.00  0.00    -0.006 C 
ATOM     26  C   UNL     1       5.520 -21.770   5.547  1.00  0.00     0.033 C 
ATOM     27  C   UNL     1       7.022 -21.771   5.237  1.00  0.00     0.120 C 
ATOM     28  C   UNL     1       8.898 -23.322   4.537  1.00  0.00     0.014 C 
ATOM     29  C   UNL     1       7.309 -22.487   2.801  1.00  0.00     0.014 C 
ENDROOT
BRANCH   1  30
ATOM     30  C   UNL     1       0.847 -31.064   5.207  1.00  0.00     0.048 C 
ATOM     31  O   UNL     1       0.926 -32.321   5.262  1.00  0.00    -0.550 OA
ATOM     32  O   UNL     1      -0.316 -30.490   4.704  1.00  0.00    -0.550 OA
ENDBRANCH   1  30
BRANCH  27  33
ATOM     33  O   UNL     1       7.387 -20.531   4.680  1.00  0.00    -0.393 OA
ATOM     34  H   UNL     1       8.153 -20.183   5.208  1.00  0.00     0.210 HD
ENDBRANCH  27  33
TORSDOF 2
ENDMDL
MODEL 7
REMARK VINA RESULT:    -6.214      3.747      7.984
REMARK INTER + INTRA:          -6.767
REMARK INTER:                  -7.091
REMARK INTRA:                   0.323
REMARK UNBOUND:                -0.008
REMARK SMILES C[C@H]1[C@H]2C3=CC[C@H]4[C@]5(C)CC[C@H](O)C(C)(C)[C@H]5CC[C@]4(C)[C@@]3(C)CC[C@@]2(C(=O)[O-])CC[C@@H]1C
REMARK SMILES IDX 26 1 30 2 25 3 3 4 31 5 24 6 4 7 2 8 32 9 22 10 5 11 1 12
REMARK SMILES IDX 33 13 23 14 20 15 6 16 7 17 19 18 21 19 8 20 18 21 17 22
REMARK SMILES IDX 10 23 9 24 14 25 11 26 12 27 15 28 16 29 27 30 28 31 29 32
REMARK SMILES IDX 13 33
REMARK H PARENT 13 34
REMARK Flexibility Score: inf
ROOT
ATOM      1  C   UNL     1       7.137 -22.766   4.887  1.00  0.00     0.017 C 
ATOM      2  C   UNL     1       8.388 -23.700   4.921  1.00  0.00     0.014 C 
ATOM      3  C   UNL     1       6.428 -22.730   6.263  1.00  0.00     0.014 C 
ATOM      4  C   UNL     1       6.167 -23.291   3.773  1.00  0.00     0.030 C 
ATOM      5  C   UNL     1       9.124 -23.747   3.571  1.00  0.00     0.004 C 
ATOM      6  C   UNL     1       5.824 -24.071   6.677  1.00  0.00     0.013 C 
ATOM      7  C   UNL     1       5.479 -24.624   4.220  1.00  0.00    -0.063 C 
ATOM      8  C   UNL     1       6.926 -23.265   2.391  1.00  0.00    -0.003 C 
ATOM      9  C   UNL     1       8.195 -24.165   2.408  1.00  0.00    -0.011 C 
ATOM     10  C   UNL     1       4.825 -24.676   5.631  1.00  0.00    -0.006 C 
ATOM     11  C   UNL     1       5.278 -25.639   3.337  1.00  0.00    -0.027 C 
ATOM     12  C   UNL     1       6.004 -23.435   1.156  1.00  0.00     0.008 C 
ATOM     13  C   UNL     1       8.980 -24.083   1.087  1.00  0.00     0.008 C 
ATOM     14  C   UNL     1       3.578 -23.725   5.597  1.00  0.00     0.017 C 
ATOM     15  C   UNL     1       4.424 -26.190   6.059  1.00  0.00    -0.020 C 
ATOM     16  C   UNL     1       4.615 -26.952   3.641  1.00  0.00     0.032 C 
ATOM     17  C   UNL     1       3.671 -26.875   4.854  1.00  0.00     0.006 C 
ATOM     18  C   UNL     1       3.501 -26.192   7.321  1.00  0.00     0.008 C 
ATOM     19  C   UNL     1       5.719 -26.996   6.411  1.00  0.00     0.012 C 
ATOM     20  C   UNL     1       2.834 -28.214   5.122  1.00  0.00    -0.025 C 
ATOM     21  C   UNL     1       2.864 -27.551   7.616  1.00  0.00     0.005 C 
ATOM     22  C   UNL     1       1.981 -28.001   6.425  1.00  0.00     0.003 C 
ATOM     23  C   UNL     1       1.855 -28.440   3.902  1.00  0.00     0.010 C 
ATOM     24  C   UNL     1       3.736 -29.486   5.236  1.00  0.00     0.012 C 
ATOM     25  C   UNL     1       0.935 -29.147   6.775  1.00  0.00    -0.006 C 
ATOM     26  C   UNL     1       0.430 -28.898   4.269  1.00  0.00     0.033 C 
ATOM     27  C   UNL     1       0.416 -29.853   5.470  1.00  0.00     0.120 C 
ATOM     28  C   UNL     1       1.527 -30.228   7.714  1.00  0.00     0.014 C 
ATOM     29  C   UNL     1      -0.265 -28.499   7.527  1.00  0.00     0.014 C 
ENDROOT
BRANCH   1  30
ATOM     30  C   UNL     1       7.558 -21.322   4.628  1.00  0.00     0.048 C 
ATOM     31  O   UNL     1       8.744 -21.046   4.304  1.00  0.00    -0.550 OA
ATOM     32  O   UNL     1       6.671 -20.277   4.865  1.00  0.00    -0.550 OA
ENDBRANCH   1  30
BRANCH  27  33
ATOM     33  O   UNL     1      -0.886 -30.359   5.651  1.00  0.00    -0.393 OA
ATOM     34  H   UNL     1      -0.798 -31.275   6.025  1.00  0.00     0.210 HD
ENDBRANCH  27  33
TORSDOF 2
ENDMDL
MODEL 8
REMARK VINA RESULT:    -6.024      4.302      8.426
REMARK INTER + INTRA:          -6.560
REMARK INTER:                  -6.556
REMARK INTRA:                  -0.004
REMARK UNBOUND:                -0.008
REMARK SMILES C[C@H]1[C@H]2C3=CC[C@H]4[C@]5(C)CC[C@H](O)C(C)(C)[C@H]5CC[C@]4(C)[C@@]3(C)CC[C@@]2(C(=O)[O-])CC[C@@H]1C
REMARK SMILES IDX 26 1 30 2 25 3 3 4 31 5 24 6 4 7 2 8 32 9 22 10 5 11 1 12
REMARK SMILES IDX 33 13 23 14 20 15 6 16 7 17 19 18 21 19 8 20 18 21 17 22
REMARK SMILES IDX 10 23 9 24 14 25 11 26 12 27 15 28 16 29 27 30 28 31 29 32
REMARK SMILES IDX 13 33
REMARK H PARENT 13 34
REMARK Flexibility Score: inf
ROOT
ATOM      1  C   UNL     1       0.521 -30.382   7.838  1.00  0.00     0.017 C 
ATOM      2  C   UNL     1       1.625 -30.670   8.904  1.00  0.00     0.014 C 
ATOM      3  C   UNL     1       0.160 -31.662   7.046  1.00  0.00     0.014 C 
ATOM      4  C   UNL     1       1.052 -29.263   6.877  1.00  0.00     0.030 C 
ATOM      5  C   UNL     1       1.998 -29.419   9.719  1.00  0.00     0.004 C 
ATOM      6  C   UNL     1       1.307 -32.199   6.192  1.00  0.00     0.013 C 
ATOM      7  C   UNL     1       2.173 -29.822   5.940  1.00  0.00    -0.063 C 
ATOM      8  C   UNL     1       1.361 -27.972   7.729  1.00  0.00    -0.003 C 
ATOM      9  C   UNL     1       2.438 -28.241   8.820  1.00  0.00    -0.011 C 
ATOM     10  C   UNL     1       1.900 -31.156   5.184  1.00  0.00    -0.006 C 
ATOM     11  C   UNL     1       3.268 -29.076   5.633  1.00  0.00    -0.027 C 
ATOM     12  C   UNL     1       1.572 -26.689   6.886  1.00  0.00     0.008 C 
ATOM     13  C   UNL     1       2.688 -27.005   9.703  1.00  0.00     0.008 C 
ATOM     14  C   UNL     1       0.781 -30.865   4.124  1.00  0.00     0.017 C 
ATOM     15  C   UNL     1       3.247 -31.750   4.498  1.00  0.00    -0.020 C 
ATOM     16  C   UNL     1       4.395 -29.494   4.734  1.00  0.00     0.032 C 
ATOM     17  C   UNL     1       3.983 -30.585   3.730  1.00  0.00     0.006 C 
ATOM     18  C   UNL     1       2.907 -32.903   3.498  1.00  0.00     0.008 C 
ATOM     19  C   UNL     1       4.184 -32.339   5.606  1.00  0.00     0.012 C 
ATOM     20  C   UNL     1       5.113 -30.955   2.658  1.00  0.00    -0.025 C 
ATOM     21  C   UNL     1       4.084 -33.322   2.617  1.00  0.00     0.005 C 
ATOM     22  C   UNL     1       4.568 -32.125   1.760  1.00  0.00     0.003 C 
ATOM     23  C   UNL     1       5.368 -29.689   1.748  1.00  0.00     0.010 C 
ATOM     24  C   UNL     1       6.479 -31.336   3.318  1.00  0.00     0.012 C 
ATOM     25  C   UNL     1       5.465 -32.527   0.510  1.00  0.00    -0.006 C 
ATOM     26  C   UNL     1       5.531 -29.974   0.242  1.00  0.00     0.033 C 
ATOM     27  C   UNL     1       6.273 -31.290  -0.025  1.00  0.00     0.120 C 
ATOM     28  C   UNL     1       6.468 -33.663   0.837  1.00  0.00     0.014 C 
ATOM     29  C   UNL     1       4.526 -33.059  -0.613  1.00  0.00     0.014 C 
ENDROOT
BRANCH   1  30
ATOM     30  C   UNL     1      -0.780 -29.965   8.519  1.00  0.00     0.048 C 
ATOM     31  O   UNL     1      -1.139 -30.498   9.602  1.00  0.00    -0.550 OA
ATOM     32  O   UNL     1      -1.649 -29.078   7.891  1.00  0.00    -0.550 OA
ENDBRANCH   1  30
BRANCH  27  33
ATOM     33  O   UNL     1       6.532 -31.411  -1.404  1.00  0.00    -0.393 OA
ATOM     34  H   UNL     1       6.850 -30.527  -1.724  1.00  0.00     0.210 HD
ENDBRANCH  27  33
TORSDOF 2
ENDMDL
MODEL 9
REMARK VINA RESULT:    -5.928      3.716      5.313
REMARK INTER + INTRA:          -6.456
REMARK INTER:                  -6.450
REMARK INTRA:                  -0.006
REMARK UNBOUND:                -0.008
REMARK SMILES C[C@H]1[C@H]2C3=CC[C@H]4[C@]5(C)CC[C@H](O)C(C)(C)[C@H]5CC[C@]4(C)[C@@]3(C)CC[C@@]2(C(=O)[O-])CC[C@@H]1C
REMARK SMILES IDX 26 1 30 2 25 3 3 4 31 5 24 6 4 7 2 8 32 9 22 10 5 11 1 12
REMARK SMILES IDX 33 13 23 14 20 15 6 16 7 17 19 18 21 19 8 20 18 21 17 22
REMARK SMILES IDX 10 23 9 24 14 25 11 26 12 27 15 28 16 29 27 30 28 31 29 32
REMARK SMILES IDX 13 33
REMARK H PARENT 13 34
REMARK Flexibility Score: inf
ROOT
ATOM      1  C   UNL     1       5.531 -32.341   1.733  1.00  0.00     0.017 C 
ATOM      2  C   UNL     1       4.742 -31.728   0.532  1.00  0.00     0.014 C 
ATOM      3  C   UNL     1       4.643 -33.313   2.548  1.00  0.00     0.014 C 
ATOM      4  C   UNL     1       6.041 -31.163   2.633  1.00  0.00     0.030 C 
ATOM      5  C   UNL     1       5.602 -30.767  -0.308  1.00  0.00     0.004 C 
ATOM      6  C   UNL     1       3.466 -32.631   3.243  1.00  0.00     0.013 C 
ATOM      7  C   UNL     1       4.853 -30.508   3.413  1.00  0.00    -0.063 C 
ATOM      8  C   UNL     1       6.972 -30.232   1.765  1.00  0.00    -0.003 C 
ATOM      9  C   UNL     1       6.217 -29.633   0.543  1.00  0.00    -0.011 C 
ATOM     10  C   UNL     1       3.874 -31.443   4.181  1.00  0.00    -0.006 C 
ATOM     11  C   UNL     1       4.787 -29.161   3.589  1.00  0.00    -0.027 C 
ATOM     12  C   UNL     1       7.811 -29.224   2.591  1.00  0.00     0.008 C 
ATOM     13  C   UNL     1       7.142 -28.785  -0.349  1.00  0.00     0.008 C 
ATOM     14  C   UNL     1       4.673 -32.067   5.377  1.00  0.00     0.017 C 
ATOM     15  C   UNL     1       2.547 -30.652   4.683  1.00  0.00    -0.020 C 
ATOM     16  C   UNL     1       3.713 -28.420   4.332  1.00  0.00     0.032 C 
ATOM     17  C   UNL     1       2.991 -29.301   5.366  1.00  0.00     0.006 C 
ATOM     18  C   UNL     1       1.733 -31.512   5.704  1.00  0.00     0.008 C 
ATOM     19  C   UNL     1       1.619 -30.355   3.458  1.00  0.00     0.012 C 
ATOM     20  C   UNL     1       1.939 -28.514   6.282  1.00  0.00    -0.025 C 
ATOM     21  C   UNL     1       0.631 -30.733   6.423  1.00  0.00     0.005 C 
ATOM     22  C   UNL     1       1.239 -29.557   7.227  1.00  0.00     0.003 C 
ATOM     23  C   UNL     1       2.733 -27.474   7.169  1.00  0.00     0.010 C 
ATOM     24  C   UNL     1       0.888 -27.707   5.450  1.00  0.00     0.012 C 
ATOM     25  C   UNL     1       0.283 -28.959   8.348  1.00  0.00    -0.006 C 
ATOM     26  C   UNL     1       2.280 -27.370   8.638  1.00  0.00     0.033 C 
ATOM     27  C   UNL     1       0.761 -27.529   8.792  1.00  0.00     0.120 C 
ATOM     28  C   UNL     1      -1.192 -28.859   7.883  1.00  0.00     0.014 C 
ATOM     29  C   UNL     1       0.309 -29.918   9.574  1.00  0.00     0.014 C 
ENDROOT
BRANCH   1  30
ATOM     30  C   UNL     1       6.687 -33.200   1.228  1.00  0.00     0.048 C 
ATOM     31  O   UNL     1       6.605 -33.805   0.125  1.00  0.00    -0.550 OA
ATOM     32  O   UNL     1       7.799 -33.427   2.032  1.00  0.00    -0.550 OA
ENDBRANCH   1  30
BRANCH  27  33
ATOM     33  O   UNL     1       0.395 -27.262  10.125  1.00  0.00    -0.393 OA
ATOM     34  H   UNL     1      -0.432 -27.779  10.314  1.00  0.00     0.210 HD
ENDBRANCH  27  33
TORSDOF 2
ENDMDL
