MODEL 1
REMARK VINA RESULT:    -3.405      0.000      0.000
REMARK INTER + INTRA:          -4.267
REMARK INTER:                  -4.202
REMARK INTRA:                  -0.065
REMARK UNBOUND:                -0.065
REMARK SMILES CCCCCC=O
REMARK SMILES IDX 4 1 3 2 2 3 1 4 5 5 6 6 7 7
REMARK H PARENT
REMARK Flexibility Score: inf
ROOT
ATOM      1  C   UNL     1      24.607  55.878  -8.003  1.00  0.00     0.008 C 
ENDROOT
BRANCH   1   2
ATOM      2  C   UNL     1      25.777  56.797  -8.385  1.00  0.00     0.000 C 
BRANCH   2   3
ATOM      3  C   UNL     1      25.391  58.273  -8.224  1.00  0.00    -0.003 C 
ATOM      4  C   UNL     1      26.432  59.188  -8.861  1.00  0.00     0.004 C 
ENDBRANCH   2   3
ENDBRANCH   1   2
BRANCH   1   5
ATOM      5  C   UNL     1      24.077  56.172  -6.593  1.00  0.00     0.072 C 
BRANCH   5   6
ATOM      6  C   UNL     1      22.874  55.339  -6.257  1.00  0.00     0.224 C 
ATOM      7  O   UNL     1      22.631  55.040  -5.099  1.00  0.00    -0.303 OA
ENDBRANCH   5   6
ENDBRANCH   1   5
TORSDOF 4
ENDMDL
MODEL 2
REMARK VINA RESULT:    -3.317     11.953     13.202
REMARK INTER + INTRA:          -4.157
REMARK INTER:                  -4.121
REMARK INTRA:                  -0.036
REMARK UNBOUND:                -0.065
REMARK SMILES CCCCCC=O
REMARK SMILES IDX 4 1 3 2 2 3 1 4 5 5 6 6 7 7
REMARK H PARENT
REMARK Flexibility Score: inf
ROOT
ATOM      1  C   UNL     1      27.808  46.106  -0.523  1.00  0.00     0.008 C 
ENDROOT
BRANCH   1   2
ATOM      2  C   UNL     1      28.980  46.100   0.471  1.00  0.00     0.000 C 
BRANCH   2   3
ATOM      3  C   UNL     1      30.042  45.073   0.061  1.00  0.00    -0.003 C 
ATOM      4  C   UNL     1      31.293  45.199   0.924  1.00  0.00     0.004 C 
ENDBRANCH   2   3
ENDBRANCH   1   2
BRANCH   1   5
ATOM      5  C   UNL     1      27.435  47.526  -0.970  1.00  0.00     0.072 C 
BRANCH   5   6
ATOM      6  C   UNL     1      26.947  47.561  -2.389  1.00  0.00     0.224 C 
ATOM      7  O   UNL     1      25.833  47.988  -2.650  1.00  0.00    -0.303 OA
ENDBRANCH   5   6
ENDBRANCH   1   5
TORSDOF 4
ENDMDL
MODEL 3
REMARK VINA RESULT:    -3.302      1.887      2.605
REMARK INTER + INTRA:          -4.139
REMARK INTER:                  -4.098
REMARK INTRA:                  -0.042
REMARK UNBOUND:                -0.065
REMARK SMILES CCCCCC=O
REMARK SMILES IDX 4 1 3 2 2 3 1 4 5 5 6 6 7 7
REMARK H PARENT
REMARK Flexibility Score: inf
ROOT
ATOM      1  C   UNL     1      25.932  57.624  -8.784  1.00  0.00     0.008 C 
ENDROOT
BRANCH   1   2
ATOM      2  C   UNL     1      26.258  59.125  -8.753  1.00  0.00     0.000 C 
BRANCH   2   3
ATOM      3  C   UNL     1      27.412  59.456  -9.706  1.00  0.00    -0.003 C 
ATOM      4  C   UNL     1      28.022  60.816  -9.383  1.00  0.00     0.004 C 
ENDBRANCH   2   3
ENDBRANCH   1   2
BRANCH   1   5
ATOM      5  C   UNL     1      24.631  57.299  -8.038  1.00  0.00     0.072 C 
BRANCH   5   6
ATOM      6  C   UNL     1      24.752  56.054  -7.208  1.00  0.00     0.224 C 
ATOM      7  O   UNL     1      25.770  55.382  -7.245  1.00  0.00    -0.303 OA
ENDBRANCH   5   6
ENDBRANCH   1   5
TORSDOF 4
ENDMDL
MODEL 4
REMARK VINA RESULT:    -3.241      3.443      5.265
REMARK INTER + INTRA:          -4.064
REMARK INTER:                  -4.030
REMARK INTRA:                  -0.034
REMARK UNBOUND:                -0.065
REMARK SMILES CCCCCC=O
REMARK SMILES IDX 4 1 3 2 2 3 1 4 5 5 6 6 7 7
REMARK H PARENT
REMARK Flexibility Score: inf
ROOT
ATOM      1  C   UNL     1      26.237  58.260  -8.792  1.00  0.00     0.008 C 
ENDROOT
BRANCH   1   2
ATOM      2  C   UNL     1      24.986  57.801  -8.027  1.00  0.00     0.000 C 
BRANCH   2   3
ATOM      3  C   UNL     1      25.171  56.384  -7.472  1.00  0.00    -0.003 C 
ATOM      4  C   UNL     1      23.885  55.870  -6.833  1.00  0.00     0.004 C 
ENDBRANCH   2   3
ENDBRANCH   1   2
BRANCH   1   5
ATOM      5  C   UNL     1      26.410  59.784  -8.758  1.00  0.00     0.072 C 
BRANCH   5   6
ATOM      6  C   UNL     1      27.671  60.225  -9.444  1.00  0.00     0.224 C 
ATOM      7  O   UNL     1      28.264  59.467 -10.196  1.00  0.00    -0.303 OA
ENDBRANCH   5   6
ENDBRANCH   1   5
TORSDOF 4
ENDMDL
MODEL 5
REMARK VINA RESULT:    -3.216     15.297     16.437
REMARK INTER + INTRA:          -4.033
REMARK INTER:                  -3.895
REMARK INTRA:                  -0.137
REMARK UNBOUND:                -0.065
REMARK SMILES CCCCCC=O
REMARK SMILES IDX 4 1 3 2 2 3 1 4 5 5 6 6 7 7
REMARK H PARENT
REMARK Flexibility Score: inf
ROOT
ATOM      1  C   UNL     1      19.159  45.326   0.672  1.00  0.00     0.008 C 
ENDROOT
BRANCH   1   2
ATOM      2  C   UNL     1      17.638  45.488   0.523  1.00  0.00     0.000 C 
BRANCH   2   3
ATOM      3  C   UNL     1      16.898  44.822   1.689  1.00  0.00    -0.003 C 
ATOM      4  C   UNL     1      15.559  45.503   1.953  1.00  0.00     0.004 C 
ENDBRANCH   2   3
ENDBRANCH   1   2
BRANCH   1   5
ATOM      5  C   UNL     1      19.542  44.665   2.003  1.00  0.00     0.072 C 
BRANCH   5   6
ATOM      6  C   UNL     1      20.286  43.376   1.800  1.00  0.00     0.224 C 
ATOM      7  O   UNL     1      20.390  42.891   0.685  1.00  0.00    -0.303 OA
ENDBRANCH   5   6
ENDBRANCH   1   5
TORSDOF 4
ENDMDL
MODEL 6
REMARK VINA RESULT:    -3.213      3.219      4.882
REMARK INTER + INTRA:          -4.030
REMARK INTER:                  -3.991
REMARK INTRA:                  -0.038
REMARK UNBOUND:                -0.065
REMARK SMILES CCCCCC=O
REMARK SMILES IDX 4 1 3 2 2 3 1 4 5 5 6 6 7 7
REMARK H PARENT
REMARK Flexibility Score: inf
ROOT
ATOM      1  C   UNL     1      25.074  57.813  -7.991  1.00  0.00     0.008 C 
ENDROOT
BRANCH   1   2
ATOM      2  C   UNL     1      25.305  56.417  -7.392  1.00  0.00     0.000 C 
BRANCH   2   3
ATOM      3  C   UNL     1      24.082  55.518  -7.606  1.00  0.00    -0.003 C 
ATOM      4  C   UNL     1      23.179  55.514  -6.376  1.00  0.00     0.004 C 
ENDBRANCH   2   3
ENDBRANCH   1   2
BRANCH   1   5
ATOM      5  C   UNL     1      26.248  58.268  -8.868  1.00  0.00     0.072 C 
BRANCH   5   6
ATOM      6  C   UNL     1      26.500  59.744  -8.753  1.00  0.00     0.224 C 
ATOM      7  O   UNL     1      27.395  60.271  -9.394  1.00  0.00    -0.303 OA
ENDBRANCH   5   6
ENDBRANCH   1   5
TORSDOF 4
ENDMDL
MODEL 7
REMARK VINA RESULT:    -3.157     14.808     15.850
REMARK INTER + INTRA:          -3.960
REMARK INTER:                  -3.819
REMARK INTRA:                  -0.141
REMARK UNBOUND:                -0.065
REMARK SMILES CCCCCC=O
REMARK SMILES IDX 4 1 3 2 2 3 1 4 5 5 6 6 7 7
REMARK H PARENT
REMARK Flexibility Score: inf
ROOT
ATOM      1  C   UNL     1      19.304  45.788   0.368  1.00  0.00     0.008 C 
ENDROOT
BRANCH   1   2
ATOM      2  C   UNL     1      17.892  46.227  -0.048  1.00  0.00     0.000 C 
BRANCH   2   3
ATOM      3  C   UNL     1      16.831  45.288   0.538  1.00  0.00    -0.003 C 
ATOM      4  C   UNL     1      15.538  46.038   0.843  1.00  0.00     0.004 C 
ENDBRANCH   2   3
ENDBRANCH   1   2
BRANCH   1   5
ATOM      5  C   UNL     1      19.335  44.341   0.878  1.00  0.00     0.072 C 
BRANCH   5   6
ATOM      6  C   UNL     1      19.859  44.248   2.282  1.00  0.00     0.224 C 
ATOM      7  O   UNL     1      19.219  44.707   3.214  1.00  0.00    -0.303 OA
ENDBRANCH   5   6
ENDBRANCH   1   5
TORSDOF 4
ENDMDL
MODEL 8
REMARK VINA RESULT:    -3.087     15.205     16.231
REMARK INTER + INTRA:          -3.874
REMARK INTER:                  -3.759
REMARK INTRA:                  -0.115
REMARK UNBOUND:                -0.065
REMARK SMILES CCCCCC=O
REMARK SMILES IDX 4 1 3 2 2 3 1 4 5 5 6 6 7 7
REMARK H PARENT
REMARK Flexibility Score: inf
ROOT
ATOM      1  C   UNL     1      17.630  45.505   0.495  1.00  0.00     0.008 C 
ENDROOT
BRANCH   1   2
ATOM      2  C   UNL     1      19.150  45.336   0.639  1.00  0.00     0.000 C 
BRANCH   2   3
ATOM      3  C   UNL     1      19.506  44.680   1.978  1.00  0.00    -0.003 C 
ATOM      4  C   UNL     1      20.306  43.399   1.770  1.00  0.00     0.004 C 
ENDBRANCH   2   3
ENDBRANCH   1   2
BRANCH   1   5
ATOM      5  C   UNL     1      16.865  44.875   1.667  1.00  0.00     0.072 C 
BRANCH   5   6
ATOM      6  C   UNL     1      15.504  45.484   1.845  1.00  0.00     0.224 C 
ATOM      7  O   UNL     1      15.098  46.330   1.064  1.00  0.00    -0.303 OA
ENDBRANCH   5   6
ENDBRANCH   1   5
TORSDOF 4
ENDMDL
MODEL 9
REMARK VINA RESULT:    -3.083     14.041     14.963
REMARK INTER + INTRA:          -3.869
REMARK INTER:                  -3.827
REMARK INTRA:                  -0.043
REMARK UNBOUND:                -0.065
REMARK SMILES CCCCCC=O
REMARK SMILES IDX 4 1 3 2 2 3 1 4 5 5 6 6 7 7
REMARK H PARENT
REMARK Flexibility Score: inf
ROOT
ATOM      1  C   UNL     1      30.231  45.643   1.033  1.00  0.00     0.008 C 
ENDROOT
BRANCH   1   2
ATOM      2  C   UNL     1      31.693  45.415   0.619  1.00  0.00     0.000 C 
BRANCH   2   3
ATOM      3  C   UNL     1      32.563  45.084   1.838  1.00  0.00    -0.003 C 
ATOM      4  C   UNL     1      32.971  46.350   2.584  1.00  0.00     0.004 C 
ENDBRANCH   2   3
ENDBRANCH   1   2
BRANCH   1   5
ATOM      5  C   UNL     1      29.259  45.422  -0.133  1.00  0.00     0.072 C 
BRANCH   5   6
ATOM      6  C   UNL     1      28.167  46.453  -0.160  1.00  0.00     0.224 C 
ATOM      7  O   UNL     1      27.501  46.622  -1.169  1.00  0.00    -0.303 OA
ENDBRANCH   5   6
ENDBRANCH   1   5
TORSDOF 4
ENDMDL
