MODEL 1
REMARK VINA RESULT:    -4.914      0.000      0.000
REMARK INTER + INTRA:          -7.489
REMARK INTER:                  -7.500
REMARK INTRA:                   0.011
REMARK UNBOUND:                 0.011
REMARK SMILES CC1=CCC[C@H](C)C(=O)C[C@H](C(C)C)C(=O)C1
REMARK SMILES IDX 8 1 9 2 6 3 7 4 5 5 4 6 3 7 2 8 1 9 10 11 11 12 15 13 16 14
REMARK SMILES IDX 17 15 12 17 13 18 14 19
REMARK H PARENT
REMARK Flexibility Score: 70.00
ROOT
ATOM      1  C   UNL     1     -11.743 -16.123  28.614  1.00  0.00     0.136 C 
ATOM      2  O   UNL     1     -10.525 -16.087  28.537  1.00  0.00    -0.299 OA
ENDROOT
BRANCH   1   3
ATOM      3  C   UNL     1     -12.538 -16.725  27.469  1.00  0.00     0.053 C 
ATOM      4  C   UNL     1     -11.583 -17.100  26.330  1.00  0.00     0.016 C 
BRANCH   3   5
ATOM      5  C   UNL     1     -13.352 -17.960  27.910  1.00  0.00     0.015 C 
BRANCH   5   6
ATOM      6  C   UNL     1     -12.506 -19.195  28.263  1.00  0.00     0.028 C 
BRANCH   6   7
ATOM      7  C   UNL     1     -12.743 -19.724  29.657  1.00  0.00    -0.028 C 
ATOM      8  C   UNL     1     -12.049 -19.442  30.792  1.00  0.00    -0.070 CG0
ATOM      9  C   UNL     1     -12.443 -20.208  32.034  1.00  0.00     0.039 C 
ATOM     10  G   UNL     1     -10.981 -18.363  30.940  1.00  0.00     0.000 G0
ENDBRANCH   6   7
ENDBRANCH   5   6
ENDBRANCH   3   5
ENDBRANCH   1   3
BRANCH   1  11
ATOM     11  C   UNL     1     -12.439 -15.465  29.786  1.00  0.00     0.087 C 
BRANCH  11  12
ATOM     12  C   UNL     1     -12.712 -16.378  31.022  1.00  0.00     0.066 C 
BRANCH  12  13
ATOM     13  C   UNL     1     -11.461 -17.062  31.568  1.00  0.00     0.140 C 
ATOM     14  O   UNL     1     -10.932 -16.662  32.596  1.00  0.00    -0.299 OA
BRANCH  13  15
ATOM     15  C   UNL     1     -10.986 -18.356  30.959  1.00  0.00     0.106 CG0
ATOM     16  G   UNL     1     -12.046 -19.437  30.782  1.00  0.00     0.000 G0
ENDBRANCH  13  15
ENDBRANCH  12  13
BRANCH  12  17
ATOM     17  C   UNL     1     -13.606 -15.740  32.139  1.00  0.00    -0.006 C 
ATOM     18  C   UNL     1     -14.389 -16.800  32.936  1.00  0.00     0.008 C 
ATOM     19  C   UNL     1     -14.558 -14.647  31.637  1.00  0.00     0.008 C 
ENDBRANCH  12  17
ENDBRANCH  11  12
ENDBRANCH   1  11
TORSDOF 1
ENDMDL
MODEL 2
REMARK VINA RESULT:    -4.632      1.920      4.433
REMARK INTER + INTRA:          -7.058
REMARK INTER:                  -6.881
REMARK INTRA:                  -0.177
REMARK UNBOUND:                 0.011
REMARK SMILES CC1=CCC[C@H](C)C(=O)C[C@H](C(C)C)C(=O)C1
REMARK SMILES IDX 8 1 9 2 6 3 7 4 5 5 4 6 3 7 2 8 1 9 10 11 11 12 15 13 16 14
REMARK SMILES IDX 17 15 12 17 13 18 14 19
REMARK H PARENT
REMARK Flexibility Score: 70.00
ROOT
ATOM      1  C   UNL     1     -11.453 -18.712  29.704  1.00  0.00     0.136 C 
ATOM      2  O   UNL     1     -10.547 -19.416  30.120  1.00  0.00    -0.299 OA
ENDROOT
BRANCH   1   3
ATOM      3  C   UNL     1     -12.889 -19.113  29.988  1.00  0.00     0.053 C 
ATOM      4  C   UNL     1     -13.213 -20.410  29.237  1.00  0.00     0.016 C 
BRANCH   3   5
ATOM      5  C   UNL     1     -13.159 -19.289  31.497  1.00  0.00     0.015 C 
BRANCH   5   6
ATOM      6  C   UNL     1     -12.764 -18.084  32.366  1.00  0.00     0.028 C 
BRANCH   6   7
ATOM      7  C   UNL     1     -13.699 -16.904  32.243  1.00  0.00    -0.028 C 
ATOM      8  C   UNL     1     -13.513 -15.755  31.540  1.00  0.00    -0.070 CG0
ATOM      9  C   UNL     1     -14.579 -14.693  31.688  1.00  0.00     0.039 C 
ATOM     10  G   UNL     1     -12.383 -15.485  30.553  1.00  0.00     0.000 G0
ENDBRANCH   6   7
ENDBRANCH   5   6
ENDBRANCH   3   5
ENDBRANCH   1   3
BRANCH   1  11
ATOM     11  C   UNL     1     -11.133 -17.526  28.819  1.00  0.00     0.087 C 
BRANCH  11  12
ATOM     12  C   UNL     1     -12.357 -16.740  28.256  1.00  0.00     0.066 C 
BRANCH  12  13
ATOM     13  C   UNL     1     -12.738 -15.519  29.090  1.00  0.00     0.140 C 
ATOM     14  O   UNL     1     -13.466 -14.651  28.625  1.00  0.00    -0.299 OA
BRANCH  13  15
ATOM     15  C   UNL     1     -12.387 -15.469  30.554  1.00  0.00     0.106 CG0
ATOM     16  G   UNL     1     -13.529 -15.762  31.522  1.00  0.00     0.000 G0
ENDBRANCH  13  15
ENDBRANCH  12  13
BRANCH  12  17
ATOM     17  C   UNL     1     -12.315 -16.449  26.717  1.00  0.00    -0.006 C 
ATOM     18  C   UNL     1     -13.692 -16.628  26.052  1.00  0.00     0.008 C 
ATOM     19  C   UNL     1     -11.253 -17.250  25.954  1.00  0.00     0.008 C 
ENDBRANCH  12  17
ENDBRANCH  11  12
ENDBRANCH   1  11
TORSDOF 1
ENDMDL
MODEL 3
REMARK VINA RESULT:    -4.411      1.635      3.742
REMARK INTER + INTRA:          -6.721
REMARK INTER:                  -7.230
REMARK INTRA:                   0.509
REMARK UNBOUND:                 0.011
REMARK SMILES CC1=CCC[C@H](C)C(=O)C[C@H](C(C)C)C(=O)C1
REMARK SMILES IDX 8 1 9 2 6 3 7 4 5 5 4 6 3 7 2 8 1 9 10 11 11 12 15 13 16 14
REMARK SMILES IDX 17 15 12 17 13 18 14 19
REMARK H PARENT
REMARK Flexibility Score: 70.00
ROOT
ATOM      1  C   UNL     1     -11.825 -17.699  32.038  1.00  0.00     0.136 C 
ATOM      2  O   UNL     1     -11.127 -17.000  32.755  1.00  0.00    -0.299 OA
ENDROOT
BRANCH   1   3
ATOM      3  C   UNL     1     -11.302 -19.052  31.589  1.00  0.00     0.053 C 
ATOM      4  C   UNL     1     -12.465 -19.890  31.046  1.00  0.00     0.016 C 
BRANCH   3   5
ATOM      5  C   UNL     1     -10.193 -18.925  30.524  1.00  0.00     0.015 C 
BRANCH   5   6
ATOM      6  C   UNL     1      -9.987 -17.503  29.976  1.00  0.00     0.028 C 
BRANCH   6   7
ATOM      7  C   UNL     1     -10.287 -17.362  28.503  1.00  0.00    -0.028 C 
ATOM      8  C   UNL     1     -11.501 -17.264  27.898  1.00  0.00    -0.070 CG0
ATOM      9  C   UNL     1     -11.504 -17.243  26.387  1.00  0.00     0.039 C 
ATOM     10  G   UNL     1     -12.838 -17.079  28.607  1.00  0.00     0.000 G0
ENDBRANCH   6   7
ENDBRANCH   5   6
ENDBRANCH   3   5
ENDBRANCH   1   3
BRANCH   1  11
ATOM     11  C   UNL     1     -13.140 -17.159  31.518  1.00  0.00     0.087 C 
BRANCH  11  12
ATOM     12  C   UNL     1     -13.090 -15.742  30.867  1.00  0.00     0.066 C 
BRANCH  12  13
ATOM     13  C   UNL     1     -13.052 -15.769  29.340  1.00  0.00     0.140 C 
ATOM     14  O   UNL     1     -13.025 -14.727  28.701  1.00  0.00    -0.299 OA
BRANCH  13  15
ATOM     15  C   UNL     1     -12.845 -17.074  28.617  1.00  0.00     0.106 CG0
ATOM     16  G   UNL     1     -11.498 -17.244  27.922  1.00  0.00     0.000 G0
ENDBRANCH  13  15
ENDBRANCH  12  13
BRANCH  12  17
ATOM     17  C   UNL     1     -14.114 -14.705  31.441  1.00  0.00    -0.006 C 
ATOM     18  C   UNL     1     -14.843 -15.234  32.688  1.00  0.00     0.008 C 
ATOM     19  C   UNL     1     -15.130 -14.188  30.414  1.00  0.00     0.008 C 
ENDBRANCH  12  17
ENDBRANCH  11  12
ENDBRANCH   1  11
TORSDOF 1
ENDMDL
MODEL 4
REMARK VINA RESULT:    -4.329      1.731      3.875
REMARK INTER + INTRA:          -6.596
REMARK INTER:                  -7.297
REMARK INTRA:                   0.701
REMARK UNBOUND:                 0.011
REMARK SMILES CC1=CCC[C@H](C)C(=O)C[C@H](C(C)C)C(=O)C1
REMARK SMILES IDX 8 1 9 2 6 3 7 4 5 5 4 6 3 7 2 8 1 9 10 11 11 12 15 13 16 14
REMARK SMILES IDX 17 15 12 17 13 18 14 19
REMARK H PARENT
REMARK Flexibility Score: 70.00
ROOT
ATOM      1  C   UNL     1     -12.223 -16.176  30.732  1.00  0.00     0.136 C 
ATOM      2  O   UNL     1     -13.404 -15.902  30.877  1.00  0.00    -0.299 OA
ENDROOT
BRANCH   1   3
ATOM      3  C   UNL     1     -11.509 -16.966  31.813  1.00  0.00     0.053 C 
ATOM      4  C   UNL     1     -11.116 -16.022  32.956  1.00  0.00     0.016 C 
BRANCH   3   5
ATOM      5  C   UNL     1     -12.370 -18.127  32.353  1.00  0.00     0.015 C 
BRANCH   5   6
ATOM      6  C   UNL     1     -12.074 -19.496  31.719  1.00  0.00     0.028 C 
BRANCH   6   7
ATOM      7  C   UNL     1     -12.848 -19.766  30.450  1.00  0.00    -0.028 C 
ATOM      8  C   UNL     1     -12.603 -19.293  29.199  1.00  0.00    -0.070 CG0
ATOM      9  C   UNL     1     -13.615 -19.644  28.133  1.00  0.00     0.039 C 
ATOM     10  G   UNL     1     -11.359 -18.526  28.764  1.00  0.00     0.000 G0
ENDBRANCH   6   7
ENDBRANCH   5   6
ENDBRANCH   3   5
ENDBRANCH   1   3
BRANCH   1  11
ATOM     11  C   UNL     1     -11.469 -15.626  29.540  1.00  0.00     0.087 C 
BRANCH  11  12
ATOM     12  C   UNL     1     -11.995 -16.058  28.136  1.00  0.00     0.066 C 
BRANCH  12  13
ATOM     13  C   UNL     1     -11.545 -17.455  27.715  1.00  0.00     0.140 C 
ATOM     14  O   UNL     1     -11.191 -17.675  26.565  1.00  0.00    -0.299 OA
BRANCH  13  15
ATOM     15  C   UNL     1     -11.344 -18.525  28.757  1.00  0.00     0.106 CG0
ATOM     16  G   UNL     1     -12.597 -19.279  29.187  1.00  0.00     0.000 G0
ENDBRANCH  13  15
ENDBRANCH  12  13
BRANCH  12  17
ATOM     17  C   UNL     1     -13.519 -15.797  27.883  1.00  0.00    -0.006 C 
ATOM     18  C   UNL     1     -13.955 -16.213  26.467  1.00  0.00     0.008 C 
ATOM     19  C   UNL     1     -13.968 -14.358  28.172  1.00  0.00     0.008 C 
ENDBRANCH  12  17
ENDBRANCH  11  12
ENDBRANCH   1  11
TORSDOF 1
ENDMDL
MODEL 5
REMARK VINA RESULT:    -4.231      1.620      4.203
REMARK INTER + INTRA:          -6.446
REMARK INTER:                  -6.763
REMARK INTRA:                   0.318
REMARK UNBOUND:                 0.011
REMARK SMILES CC1=CCC[C@H](C)C(=O)C[C@H](C(C)C)C(=O)C1
REMARK SMILES IDX 8 1 9 2 6 3 7 4 5 5 4 6 3 7 2 8 1 9 10 11 11 12 15 13 16 14
REMARK SMILES IDX 17 15 12 17 13 18 14 19
REMARK H PARENT
REMARK Flexibility Score: 70.00
ROOT
ATOM      1  C   UNL     1     -13.330 -16.245  31.446  1.00  0.00     0.136 C 
ATOM      2  O   UNL     1     -14.018 -17.159  31.871  1.00  0.00    -0.299 OA
ENDROOT
BRANCH   1   3
ATOM      3  C   UNL     1     -12.548 -15.392  32.428  1.00  0.00     0.053 C 
ATOM      4  C   UNL     1     -13.489 -14.895  33.531  1.00  0.00     0.016 C 
BRANCH   3   5
ATOM      5  C   UNL     1     -11.357 -16.155  33.046  1.00  0.00     0.015 C 
BRANCH   5   6
ATOM      6  C   UNL     1     -10.666 -17.146  32.095  1.00  0.00     0.028 C 
BRANCH   6   7
ATOM      7  C   UNL     1     -11.162 -18.568  32.222  1.00  0.00    -0.028 C 
ATOM      8  C   UNL     1     -11.613 -19.391  31.239  1.00  0.00    -0.070 CG0
ATOM      9  C   UNL     1     -12.153 -20.734  31.676  1.00  0.00     0.039 C 
ATOM     10  G   UNL     1     -11.535 -19.118  29.740  1.00  0.00     0.000 G0
ENDBRANCH   6   7
ENDBRANCH   5   6
ENDBRANCH   3   5
ENDBRANCH   1   3
BRANCH   1  11
ATOM     11  C   UNL     1     -13.362 -15.908  29.971  1.00  0.00     0.087 C 
BRANCH  11  12
ATOM     12  C   UNL     1     -12.417 -16.746  29.055  1.00  0.00     0.066 C 
BRANCH  12  13
ATOM     13  C   UNL     1     -12.629 -18.254  29.170  1.00  0.00     0.140 C 
ATOM     14  O   UNL     1     -13.604 -18.785  28.656  1.00  0.00    -0.299 OA
BRANCH  13  15
ATOM     15  C   UNL     1     -11.541 -19.125  29.742  1.00  0.00     0.106 CG0
ATOM     16  G   UNL     1     -11.623 -19.394  31.241  1.00  0.00     0.000 G0
ENDBRANCH  13  15
ENDBRANCH  12  13
BRANCH  12  17
ATOM     17  C   UNL     1     -12.306 -16.249  27.574  1.00  0.00    -0.006 C 
ATOM     18  C   UNL     1     -13.681 -16.135  26.892  1.00  0.00     0.008 C 
ATOM     19  C   UNL     1     -11.351 -17.074  26.701  1.00  0.00     0.008 C 
ENDBRANCH  12  17
ENDBRANCH  11  12
ENDBRANCH   1  11
TORSDOF 1
ENDMDL
MODEL 6
REMARK VINA RESULT:    -4.144      1.403      3.811
REMARK INTER + INTRA:          -6.314
REMARK INTER:                  -6.377
REMARK INTRA:                   0.063
REMARK UNBOUND:                 0.011
REMARK SMILES CC1=CCC[C@H](C)C(=O)C[C@H](C(C)C)C(=O)C1
REMARK SMILES IDX 8 1 9 2 6 3 7 4 5 5 4 6 3 7 2 8 1 9 10 11 11 12 15 13 16 14
REMARK SMILES IDX 17 15 12 17 13 18 14 19
REMARK H PARENT
REMARK Flexibility Score: 70.00
ROOT
ATOM      1  C   UNL     1     -11.443 -15.679  30.457  1.00  0.00     0.136 C 
ATOM      2  O   UNL     1     -10.250 -15.707  30.719  1.00  0.00    -0.299 OA
ENDROOT
BRANCH   1   3
ATOM      3  C   UNL     1     -12.447 -15.616  31.593  1.00  0.00     0.053 C 
ATOM      4  C   UNL     1     -13.850 -15.392  31.018  1.00  0.00     0.016 C 
BRANCH   3   5
ATOM      5  C   UNL     1     -12.426 -16.890  32.464  1.00  0.00     0.015 C 
BRANCH   5   6
ATOM      6  C   UNL     1     -13.584 -17.867  32.203  1.00  0.00     0.028 C 
BRANCH   6   7
ATOM      7  C   UNL     1     -13.144 -19.286  31.934  1.00  0.00    -0.028 C 
ATOM      8  C   UNL     1     -12.850 -19.862  30.738  1.00  0.00    -0.070 CG0
ATOM      9  C   UNL     1     -12.540 -21.341  30.758  1.00  0.00     0.039 C 
ATOM     10  G   UNL     1     -12.715 -19.132  29.406  1.00  0.00     0.000 G0
ENDBRANCH   6   7
ENDBRANCH   5   6
ENDBRANCH   3   5
ENDBRANCH   1   3
BRANCH   1  11
ATOM     11  C   UNL     1     -11.896 -15.826  29.021  1.00  0.00     0.087 C 
BRANCH  11  12
ATOM     12  C   UNL     1     -11.432 -17.121  28.283  1.00  0.00     0.066 C 
BRANCH  12  13
ATOM     13  C   UNL     1     -11.426 -18.364  29.170  1.00  0.00     0.140 C 
ATOM     14  O   UNL     1     -10.441 -18.645  29.839  1.00  0.00    -0.299 OA
BRANCH  13  15
ATOM     15  C   UNL     1     -12.698 -19.141  29.384  1.00  0.00     0.106 CG0
ATOM     16  G   UNL     1     -12.830 -19.844  30.731  1.00  0.00     0.000 G0
ENDBRANCH  13  15
ENDBRANCH  12  13
BRANCH  12  17
ATOM     17  C   UNL     1     -12.090 -17.364  26.882  1.00  0.00    -0.006 C 
ATOM     18  C   UNL     1     -11.079 -17.222  25.731  1.00  0.00     0.008 C 
ATOM     19  C   UNL     1     -13.327 -16.500  26.608  1.00  0.00     0.008 C 
ENDBRANCH  12  17
ENDBRANCH  11  12
ENDBRANCH   1  11
TORSDOF 1
ENDMDL
MODEL 7
REMARK VINA RESULT:    -4.098      1.753      3.695
REMARK INTER + INTRA:          -6.243
REMARK INTER:                  -5.723
REMARK INTRA:                  -0.520
REMARK UNBOUND:                 0.011
REMARK SMILES CC1=CCC[C@H](C)C(=O)C[C@H](C(C)C)C(=O)C1
REMARK SMILES IDX 8 1 9 2 6 3 7 4 5 5 4 6 3 7 2 8 1 9 10 11 11 12 15 13 16 14
REMARK SMILES IDX 17 15 12 17 13 18 14 19
REMARK H PARENT
REMARK Flexibility Score: 70.00
ROOT
ATOM      1  C   UNL     1     -12.135 -18.807  28.881  1.00  0.00     0.136 C 
ATOM      2  O   UNL     1     -10.964 -19.112  29.046  1.00  0.00    -0.299 OA
ENDROOT
BRANCH   1   3
ATOM      3  C   UNL     1     -13.217 -19.649  29.532  1.00  0.00     0.053 C 
ATOM      4  C   UNL     1     -13.326 -20.991  28.799  1.00  0.00     0.016 C 
BRANCH   3   5
ATOM      5  C   UNL     1     -12.950 -19.883  31.034  1.00  0.00     0.015 C 
BRANCH   5   6
ATOM      6  C   UNL     1     -13.193 -18.656  31.928  1.00  0.00     0.028 C 
BRANCH   6   7
ATOM      7  C   UNL     1     -11.929 -17.961  32.377  1.00  0.00    -0.028 C 
ATOM      8  C   UNL     1     -11.440 -16.761  31.967  1.00  0.00    -0.070 CG0
ATOM      9  C   UNL     1     -10.086 -16.362  32.509  1.00  0.00     0.039 C 
ATOM     10  G   UNL     1     -12.173 -15.750  31.092  1.00  0.00     0.000 G0
ENDBRANCH   6   7
ENDBRANCH   5   6
ENDBRANCH   3   5
ENDBRANCH   1   3
BRANCH   1  11
ATOM     11  C   UNL     1     -12.487 -17.673  27.942  1.00  0.00     0.087 C 
BRANCH  11  12
ATOM     12  C   UNL     1     -12.870 -16.318  28.615  1.00  0.00     0.066 C 
BRANCH  12  13
ATOM     13  C   UNL     1     -11.825 -15.808  29.605  1.00  0.00     0.140 C 
ATOM     14  O   UNL     1     -10.785 -15.303  29.205  1.00  0.00    -0.299 OA
BRANCH  13  15
ATOM     15  C   UNL     1     -12.152 -15.739  31.074  1.00  0.00     0.106 CG0
ATOM     16  G   UNL     1     -11.447 -16.760  31.960  1.00  0.00     0.000 G0
ENDBRANCH  13  15
ENDBRANCH  12  13
BRANCH  12  17
ATOM     17  C   UNL     1     -13.389 -15.209  27.638  1.00  0.00    -0.006 C 
ATOM     18  C   UNL     1     -14.355 -14.229  28.328  1.00  0.00     0.008 C 
ATOM     19  C   UNL     1     -14.019 -15.751  26.348  1.00  0.00     0.008 C 
ENDBRANCH  12  17
ENDBRANCH  11  12
ENDBRANCH   1  11
TORSDOF 1
ENDMDL
MODEL 8
REMARK VINA RESULT:    -3.990      1.559      4.402
REMARK INTER + INTRA:          -6.078
REMARK INTER:                  -6.735
REMARK INTRA:                   0.657
REMARK UNBOUND:                 0.011
REMARK SMILES CC1=CCC[C@H](C)C(=O)C[C@H](C(C)C)C(=O)C1
REMARK SMILES IDX 8 1 9 2 6 3 7 4 5 5 4 6 3 7 2 8 1 9 10 11 11 12 15 13 16 14
REMARK SMILES IDX 17 15 12 17 13 18 14 19
REMARK H PARENT
REMARK Flexibility Score: 70.00
ROOT
ATOM      1  C   UNL     1     -12.862 -16.430  32.270  1.00  0.00     0.136 C 
ATOM      2  O   UNL     1     -11.960 -15.824  32.825  1.00  0.00    -0.299 OA
ENDROOT
BRANCH   1   3
ATOM      3  C   UNL     1     -14.151 -15.699  31.942  1.00  0.00     0.053 C 
ATOM      4  C   UNL     1     -14.545 -14.808  33.125  1.00  0.00     0.016 C 
BRANCH   3   5
ATOM      5  C   UNL     1     -14.033 -14.856  30.655  1.00  0.00     0.015 C 
BRANCH   5   6
ATOM      6  C   UNL     1     -12.704 -15.018  29.900  1.00  0.00     0.028 C 
BRANCH   6   7
ATOM      7  C   UNL     1     -12.832 -15.735  28.576  1.00  0.00    -0.028 C 
ATOM      8  C   UNL     1     -11.981 -16.641  28.026  1.00  0.00    -0.070 CG0
ATOM      9  C   UNL     1     -12.309 -17.117  26.629  1.00  0.00     0.039 C 
ATOM     10  G   UNL     1     -10.788 -17.285  28.726  1.00  0.00     0.000 G0
ENDBRANCH   6   7
ENDBRANCH   5   6
ENDBRANCH   3   5
ENDBRANCH   1   3
BRANCH   1  11
ATOM     11  C   UNL     1     -12.724 -17.918  32.026  1.00  0.00     0.087 C 
BRANCH  11  12
ATOM     12  C   UNL     1     -12.280 -18.340  30.592  1.00  0.00     0.066 C 
BRANCH  12  13
ATOM     13  C   UNL     1     -10.962 -17.710  30.146  1.00  0.00     0.140 C 
ATOM     14  O   UNL     1      -9.998 -17.687  30.899  1.00  0.00    -0.299 OA
BRANCH  13  15
ATOM     15  C   UNL     1     -10.776 -17.292  28.711  1.00  0.00     0.106 CG0
ATOM     16  G   UNL     1     -11.990 -16.660  28.039  1.00  0.00     0.000 G0
ENDBRANCH  13  15
ENDBRANCH  12  13
BRANCH  12  17
ATOM     17  C   UNL     1     -12.365 -19.875  30.290  1.00  0.00    -0.006 C 
ATOM     18  C   UNL     1     -13.479 -20.211  29.282  1.00  0.00     0.008 C 
ATOM     19  C   UNL     1     -12.499 -20.756  31.539  1.00  0.00     0.008 C 
ENDBRANCH  12  17
ENDBRANCH  11  12
ENDBRANCH   1  11
TORSDOF 1
ENDMDL
MODEL 9
REMARK VINA RESULT:    -3.730      1.441      1.843
REMARK INTER + INTRA:          -5.682
REMARK INTER:                  -5.535
REMARK INTRA:                  -0.147
REMARK UNBOUND:                 0.011
REMARK SMILES CC1=CCC[C@H](C)C(=O)C[C@H](C(C)C)C(=O)C1
REMARK SMILES IDX 8 1 9 2 6 3 7 4 5 5 4 6 3 7 2 8 1 9 10 11 11 12 15 13 16 14
REMARK SMILES IDX 17 15 12 17 13 18 14 19
REMARK H PARENT
REMARK Flexibility Score: 70.00
ROOT
ATOM      1  C   UNL     1     -13.180 -15.329  29.404  1.00  0.00     0.136 C 
ATOM      2  O   UNL     1     -14.049 -14.531  29.719  1.00  0.00    -0.299 OA
ENDROOT
BRANCH   1   3
ATOM      3  C   UNL     1     -13.296 -16.063  28.081  1.00  0.00     0.053 C 
ATOM      4  C   UNL     1     -14.005 -15.163  27.062  1.00  0.00     0.016 C 
BRANCH   3   5
ATOM      5  C   UNL     1     -11.922 -16.506  27.536  1.00  0.00     0.015 C 
BRANCH   5   6
ATOM      6  C   UNL     1     -11.801 -18.010  27.241  1.00  0.00     0.028 C 
BRANCH   6   7
ATOM      7  C   UNL     1     -12.526 -18.891  28.231  1.00  0.00    -0.028 C 
ATOM      8  C   UNL     1     -12.119 -19.273  29.470  1.00  0.00    -0.070 CG0
ATOM      9  C   UNL     1     -13.007 -20.255  30.200  1.00  0.00     0.039 C 
ATOM     10  G   UNL     1     -10.906 -18.729  30.218  1.00  0.00     0.000 G0
ENDBRANCH   6   7
ENDBRANCH   5   6
ENDBRANCH   3   5
ENDBRANCH   1   3
BRANCH   1  11
ATOM     11  C   UNL     1     -12.073 -15.655  30.384  1.00  0.00     0.087 C 
BRANCH  11  12
ATOM     12  C   UNL     1     -12.348 -16.842  31.358  1.00  0.00     0.066 C 
BRANCH  12  13
ATOM     13  C   UNL     1     -11.210 -17.858  31.424  1.00  0.00     0.140 C 
ATOM     14  O   UNL     1     -10.647 -18.093  32.485  1.00  0.00    -0.299 OA
BRANCH  13  15
ATOM     15  C   UNL     1     -10.905 -18.724  30.230  1.00  0.00     0.106 CG0
ATOM     16  G   UNL     1     -12.114 -19.293  29.494  1.00  0.00     0.000 G0
ENDBRANCH  13  15
ENDBRANCH  12  13
BRANCH  12  17
ATOM     17  C   UNL     1     -12.897 -16.437  32.769  1.00  0.00    -0.006 C 
ATOM     18  C   UNL     1     -14.412 -16.165  32.749  1.00  0.00     0.008 C 
ATOM     19  C   UNL     1     -12.158 -15.259  33.417  1.00  0.00     0.008 C 
ENDBRANCH  12  17
ENDBRANCH  11  12
ENDBRANCH   1  11
TORSDOF 1
ENDMDL
