MODEL 1
REMARK VINA RESULT:    -2.585      0.000      0.000
REMARK INTER + INTRA:          -2.585
REMARK INTER:                  -2.585
REMARK INTRA:                   0.000
REMARK UNBOUND:                 0.000
REMARK SMILES CC(=O)[O-]
REMARK SMILES IDX 1 1 2 2 3 3 4 4
REMARK H PARENT
REMARK Flexibility Score: inf
ROOT
ATOM      1  C   UNL     1      16.721  12.224  27.545  1.00  0.00     0.063 C 
ATOM      2  C   UNL     1      16.301  12.727  26.206  1.00  0.00     0.038 C 
ATOM      3  O   UNL     1      17.000  12.475  25.189  1.00  0.00    -0.550 OA
ATOM      4  O   UNL     1      15.112  13.429  26.068  1.00  0.00    -0.550 OA
ENDROOT
TORSDOF 0
ENDMDL
MODEL 2
REMARK VINA RESULT:    -2.550      1.719      1.979
REMARK INTER + INTRA:          -2.550
REMARK INTER:                  -2.550
REMARK INTRA:                   0.000
REMARK UNBOUND:                 0.000
REMARK SMILES CC(=O)[O-]
REMARK SMILES IDX 1 1 2 2 3 3 4 4
REMARK H PARENT
REMARK Flexibility Score: inf
ROOT
ATOM      1  C   UNL     1      15.329  12.940  25.996  1.00  0.00     0.063 C 
ATOM      2  C   UNL     1      16.636  12.960  26.714  1.00  0.00     0.038 C 
ATOM      3  O   UNL     1      17.595  13.640  26.261  1.00  0.00    -0.550 OA
ATOM      4  O   UNL     1      16.783  12.273  27.911  1.00  0.00    -0.550 OA
ENDROOT
TORSDOF 0
ENDMDL
MODEL 3
REMARK VINA RESULT:    -2.532      1.584      1.820
REMARK INTER + INTRA:          -2.532
REMARK INTER:                  -2.532
REMARK INTRA:                   0.000
REMARK UNBOUND:                 0.000
REMARK SMILES CC(=O)[O-]
REMARK SMILES IDX 1 1 2 2 3 3 4 4
REMARK H PARENT
REMARK Flexibility Score: inf
ROOT
ATOM      1  C   UNL     1      17.465  13.398  26.037  1.00  0.00     0.063 C 
ATOM      2  C   UNL     1      16.384  12.619  26.707  1.00  0.00     0.038 C 
ATOM      3  O   UNL     1      16.526  12.236  27.898  1.00  0.00    -0.550 OA
ATOM      4  O   UNL     1      15.197  12.358  26.036  1.00  0.00    -0.550 OA
ENDROOT
TORSDOF 0
ENDMDL
MODEL 4
REMARK VINA RESULT:    -2.378      2.110      2.739
REMARK INTER + INTRA:          -2.378
REMARK INTER:                  -2.378
REMARK INTRA:                   0.000
REMARK UNBOUND:                 0.000
REMARK SMILES CC(=O)[O-]
REMARK SMILES IDX 1 1 2 2 3 3 4 4
REMARK H PARENT
REMARK Flexibility Score: inf
ROOT
ATOM      1  C   UNL     1      17.222  13.228  26.416  1.00  0.00     0.063 C 
ATOM      2  C   UNL     1      17.675  11.842  26.729  1.00  0.00     0.038 C 
ATOM      3  O   UNL     1      16.838  10.903  26.789  1.00  0.00    -0.550 OA
ATOM      4  O   UNL     1      19.026  11.574  26.902  1.00  0.00    -0.550 OA
ENDROOT
TORSDOF 0
ENDMDL
MODEL 5
REMARK VINA RESULT:    -2.145     12.456     12.718
REMARK INTER + INTRA:          -2.145
REMARK INTER:                  -2.145
REMARK INTRA:                   0.000
REMARK UNBOUND:                 0.000
REMARK SMILES CC(=O)[O-]
REMARK SMILES IDX 1 1 2 2 3 3 4 4
REMARK H PARENT
REMARK Flexibility Score: inf
ROOT
ATOM      1  C   UNL     1       6.841   4.755  21.203  1.00  0.00     0.063 C 
ATOM      2  C   UNL     1       7.976   4.390  22.100  1.00  0.00     0.038 C 
ATOM      3  O   UNL     1       7.859   4.511  23.348  1.00  0.00    -0.550 OA
ATOM      4  O   UNL     1       9.145   3.867  21.564  1.00  0.00    -0.550 OA
ENDROOT
TORSDOF 0
ENDMDL
MODEL 6
REMARK VINA RESULT:    -2.007     12.440     12.659
REMARK INTER + INTRA:          -2.007
REMARK INTER:                  -2.007
REMARK INTRA:                   0.000
REMARK UNBOUND:                 0.000
REMARK SMILES CC(=O)[O-]
REMARK SMILES IDX 1 1 2 2 3 3 4 4
REMARK H PARENT
REMARK Flexibility Score: inf
ROOT
ATOM      1  C   UNL     1       6.493  20.893  30.445  1.00  0.00     0.063 C 
ATOM      2  C   UNL     1       7.662  21.216  29.578  1.00  0.00     0.038 C 
ATOM      3  O   UNL     1       8.765  21.532  30.097  1.00  0.00    -0.550 OA
ATOM      4  O   UNL     1       7.552  21.119  28.198  1.00  0.00    -0.550 OA
ENDROOT
TORSDOF 0
ENDMDL
MODEL 7
REMARK VINA RESULT:    -1.986     12.283     12.503
REMARK INTER + INTRA:          -1.986
REMARK INTER:                  -1.986
REMARK INTRA:                   0.000
REMARK UNBOUND:                 0.000
REMARK SMILES CC(=O)[O-]
REMARK SMILES IDX 1 1 2 2 3 3 4 4
REMARK H PARENT
REMARK Flexibility Score: inf
ROOT
ATOM      1  C   UNL     1       9.388   3.690  21.733  1.00  0.00     0.063 C 
ATOM      2  C   UNL     1       8.109   4.346  22.129  1.00  0.00     0.038 C 
ATOM      3  O   UNL     1       7.833   4.507  23.347  1.00  0.00    -0.550 OA
ATOM      4  O   UNL     1       7.243   4.828  21.156  1.00  0.00    -0.550 OA
ENDROOT
TORSDOF 0
ENDMDL
MODEL 8
REMARK VINA RESULT:    -1.982     11.176     11.679
REMARK INTER + INTRA:          -1.982
REMARK INTER:                  -1.982
REMARK INTRA:                   0.000
REMARK UNBOUND:                 0.000
REMARK SMILES CC(=O)[O-]
REMARK SMILES IDX 1 1 2 2 3 3 4 4
REMARK H PARENT
REMARK Flexibility Score: inf
ROOT
ATOM      1  C   UNL     1      10.010  20.156  30.951  1.00  0.00     0.063 C 
ATOM      2  C   UNL     1      10.138  21.603  30.614  1.00  0.00     0.038 C 
ATOM      3  O   UNL     1      11.253  22.074  30.267  1.00  0.00    -0.550 OA
ATOM      4  O   UNL     1       9.018  22.423  30.631  1.00  0.00    -0.550 OA
ENDROOT
TORSDOF 0
ENDMDL
MODEL 9
REMARK VINA RESULT:    -1.948     12.311     12.647
REMARK INTER + INTRA:          -1.948
REMARK INTER:                  -1.948
REMARK INTRA:                   0.000
REMARK UNBOUND:                 0.000
REMARK SMILES CC(=O)[O-]
REMARK SMILES IDX 1 1 2 2 3 3 4 4
REMARK H PARENT
REMARK Flexibility Score: inf
ROOT
ATOM      1  C   UNL     1       8.903  21.619  30.188  1.00  0.00     0.063 C 
ATOM      2  C   UNL     1       7.582  21.175  29.656  1.00  0.00     0.038 C 
ATOM      3  O   UNL     1       7.400  21.083  28.413  1.00  0.00    -0.550 OA
ATOM      4  O   UNL     1       6.566  20.813  30.530  1.00  0.00    -0.550 OA
ENDROOT
TORSDOF 0
ENDMDL
