MODEL 1
REMARK VINA RESULT:    -4.954      0.000      0.000
REMARK INTER + INTRA:          -8.238
REMARK INTER:                  -7.561
REMARK INTRA:                  -0.677
REMARK UNBOUND:                -0.677
REMARK SMILES CCCCCCCCCCC(=O)[O-]
REMARK SMILES IDX 7 1 8 2 9 3 10 4 11 5 12 6 13 7 6 8 5 9 4 10 3 11 2 12 1 13
REMARK H PARENT
REMARK Flexibility Score: inf
ROOT
ATOM      1  C   UNL     1       1.287  -9.923  -2.716  1.00  0.00     0.000 C 
ENDROOT
BRANCH   1   2
ATOM      2  C   UNL     1       1.265  -8.607  -1.924  1.00  0.00     0.000 C 
BRANCH   2   3
ATOM      3  C   UNL     1       1.138  -8.877  -0.417  1.00  0.00     0.006 C 
BRANCH   3   4
ATOM      4  C   UNL     1       0.293 -10.123  -0.119  1.00  0.00     0.053 C 
BRANCH   4   5
ATOM      5  C   UNL     1      -1.103  -9.764   0.289  1.00  0.00     0.041 C 
ATOM      6  O   UNL     1      -1.922  -9.334  -0.566  1.00  0.00    -0.550 OA
ATOM      7  O   UNL     1      -1.511  -9.937   1.605  1.00  0.00    -0.550 OA
ENDBRANCH   4   5
ENDBRANCH   3   4
ENDBRANCH   2   3
ENDBRANCH   1   2
BRANCH   1   8
ATOM      8  C   UNL     1       2.352  -9.931  -3.825  1.00  0.00     0.000 C 
BRANCH   8   9
ATOM      9  C   UNL     1       3.591  -9.096  -3.460  1.00  0.00    -0.000 C 
BRANCH   9  10
ATOM     10  C   UNL     1       4.332  -8.564  -4.699  1.00  0.00    -0.000 C 
BRANCH  10  11
ATOM     11  C   UNL     1       3.373  -8.162  -5.833  1.00  0.00    -0.000 C 
BRANCH  11  12
ATOM     12  C   UNL     1       3.871  -8.616  -7.214  1.00  0.00    -0.003 C 
ATOM     13  C   UNL     1       3.645 -10.107  -7.465  1.00  0.00     0.004 C 
ENDBRANCH  11  12
ENDBRANCH  10  11
ENDBRANCH   9  10
ENDBRANCH   8   9
ENDBRANCH   1   8
TORSDOF 9
ENDMDL
MODEL 2
REMARK VINA RESULT:    -4.818      3.925      7.118
REMARK INTER + INTRA:          -8.031
REMARK INTER:                  -7.530
REMARK INTRA:                  -0.500
REMARK UNBOUND:                -0.677
REMARK SMILES CCCCCCCCCCC(=O)[O-]
REMARK SMILES IDX 7 1 8 2 9 3 10 4 11 5 12 6 13 7 6 8 5 9 4 10 3 11 2 12 1 13
REMARK H PARENT
REMARK Flexibility Score: inf
ROOT
ATOM      1  C   UNL     1       1.721 -10.095  -2.734  1.00  0.00     0.000 C 
ENDROOT
BRANCH   1   2
ATOM      2  C   UNL     1       2.737  -9.995  -3.881  1.00  0.00     0.000 C 
BRANCH   2   3
ATOM      3  C   UNL     1       2.687  -8.608  -4.539  1.00  0.00     0.006 C 
BRANCH   3   4
ATOM      4  C   UNL     1       4.079  -8.105  -4.942  1.00  0.00     0.053 C 
BRANCH   4   5
ATOM      5  C   UNL     1       4.740  -9.021  -5.925  1.00  0.00     0.041 C 
ATOM      6  O   UNL     1       5.754  -9.687  -5.588  1.00  0.00    -0.550 OA
ATOM      7  O   UNL     1       4.215  -9.167  -7.203  1.00  0.00    -0.550 OA
ENDBRANCH   4   5
ENDBRANCH   3   4
ENDBRANCH   2   3
ENDBRANCH   1   2
BRANCH   1   8
ATOM      8  C   UNL     1       1.922  -9.007  -1.665  1.00  0.00     0.000 C 
BRANCH   8   9
ATOM      9  C   UNL     1       0.784  -8.977  -0.631  1.00  0.00    -0.000 C 
BRANCH   9  10
ATOM     10  C   UNL     1      -0.365  -8.042  -1.045  1.00  0.00    -0.000 C 
BRANCH  10  11
ATOM     11  C   UNL     1      -1.719  -8.473  -0.454  1.00  0.00    -0.000 C 
BRANCH  11  12
ATOM     12  C   UNL     1      -1.620  -9.775   0.356  1.00  0.00    -0.003 C 
ATOM     13  C   UNL     1      -2.641  -9.849   1.490  1.00  0.00     0.004 C 
ENDBRANCH  11  12
ENDBRANCH  10  11
ENDBRANCH   9  10
ENDBRANCH   8   9
ENDBRANCH   1   8
TORSDOF 9
ENDMDL
MODEL 3
REMARK VINA RESULT:    -4.591      3.652      6.787
REMARK INTER + INTRA:          -7.684
REMARK INTER:                  -7.152
REMARK INTRA:                  -0.532
REMARK UNBOUND:                -0.677
REMARK SMILES CCCCCCCCCCC(=O)[O-]
REMARK SMILES IDX 7 1 8 2 9 3 10 4 11 5 12 6 13 7 6 8 5 9 4 10 3 11 2 12 1 13
REMARK H PARENT
REMARK Flexibility Score: inf
ROOT
ATOM      1  C   UNL     1       1.770  -9.034  -2.034  1.00  0.00     0.000 C 
ENDROOT
BRANCH   1   2
ATOM      2  C   UNL     1       2.670  -9.611  -3.136  1.00  0.00     0.000 C 
BRANCH   2   3
ATOM      3  C   UNL     1       2.350  -8.970  -4.495  1.00  0.00     0.006 C 
BRANCH   3   4
ATOM      4  C   UNL     1       3.474  -9.183  -5.518  1.00  0.00     0.053 C 
BRANCH   4   5
ATOM      5  C   UNL     1       4.828  -9.021  -4.898  1.00  0.00     0.041 C 
ATOM      6  O   UNL     1       5.590 -10.016  -4.771  1.00  0.00    -0.550 OA
ATOM      7  O   UNL     1       5.263  -7.766  -4.493  1.00  0.00    -0.550 OA
ENDBRANCH   4   5
ENDBRANCH   3   4
ENDBRANCH   2   3
ENDBRANCH   1   2
BRANCH   1   8
ATOM      8  C   UNL     1       1.119 -10.125  -1.167  1.00  0.00     0.000 C 
BRANCH   8   9
ATOM      9  C   UNL     1       1.126  -9.772   0.330  1.00  0.00    -0.000 C 
BRANCH   9  10
ATOM     10  C   UNL     1      -0.203 -10.116   1.025  1.00  0.00    -0.000 C 
BRANCH  10  11
ATOM     11  C   UNL     1      -1.419  -9.923   0.102  1.00  0.00    -0.000 C 
BRANCH  11  12
ATOM     12  C   UNL     1      -1.949  -8.481   0.122  1.00  0.00    -0.003 C 
ATOM     13  C   UNL     1      -1.990  -7.845  -1.267  1.00  0.00     0.004 C 
ENDBRANCH  11  12
ENDBRANCH  10  11
ENDBRANCH   9  10
ENDBRANCH   8   9
ENDBRANCH   1   8
TORSDOF 9
ENDMDL
MODEL 4
REMARK VINA RESULT:    -4.428     10.496     12.031
REMARK INTER + INTRA:          -7.435
REMARK INTER:                  -6.631
REMARK INTRA:                  -0.804
REMARK UNBOUND:                -0.677
REMARK SMILES CCCCCCCCCCC(=O)[O-]
REMARK SMILES IDX 7 1 8 2 9 3 10 4 11 5 12 6 13 7 6 8 5 9 4 10 3 11 2 12 1 13
REMARK H PARENT
REMARK Flexibility Score: inf
ROOT
ATOM      1  C   UNL     1      -1.819   1.914  -0.079  1.00  0.00     0.000 C 
ENDROOT
BRANCH   1   2
ATOM      2  C   UNL     1      -1.705   1.085  -1.366  1.00  0.00     0.000 C 
BRANCH   2   3
ATOM      3  C   UNL     1      -1.568   1.996  -2.595  1.00  0.00     0.006 C 
BRANCH   3   4
ATOM      4  C   UNL     1      -0.105   2.181  -3.022  1.00  0.00     0.053 C 
BRANCH   4   5
ATOM      5  C   UNL     1       0.335   3.607  -2.900  1.00  0.00     0.041 C 
ATOM      6  O   UNL     1      -0.238   4.380  -2.087  1.00  0.00    -0.550 OA
ATOM      7  O   UNL     1       1.400   4.075  -3.659  1.00  0.00    -0.550 OA
ENDBRANCH   4   5
ENDBRANCH   3   4
ENDBRANCH   2   3
ENDBRANCH   1   2
BRANCH   1   8
ATOM      8  C   UNL     1      -0.548   1.849   0.785  1.00  0.00     0.000 C 
BRANCH   8   9
ATOM      9  C   UNL     1       0.361   0.666   0.410  1.00  0.00    -0.000 C 
BRANCH   9  10
ATOM     10  C   UNL     1       0.699  -0.224   1.617  1.00  0.00    -0.000 C 
BRANCH  10  11
ATOM     11  C   UNL     1       1.070  -1.660   1.207  1.00  0.00    -0.000 C 
BRANCH  11  12
ATOM     12  C   UNL     1       0.256  -2.156   0.002  1.00  0.00    -0.003 C 
ATOM     13  C   UNL     1       0.854  -3.405  -0.646  1.00  0.00     0.004 C 
ENDBRANCH  11  12
ENDBRANCH  10  11
ENDBRANCH   9  10
ENDBRANCH   8   9
ENDBRANCH   1   8
TORSDOF 9
ENDMDL
MODEL 5
REMARK VINA RESULT:    -4.356      3.531      6.903
REMARK INTER + INTRA:          -7.325
REMARK INTER:                  -6.841
REMARK INTRA:                  -0.484
REMARK UNBOUND:                -0.677
REMARK SMILES CCCCCCCCCCC(=O)[O-]
REMARK SMILES IDX 7 1 8 2 9 3 10 4 11 5 12 6 13 7 6 8 5 9 4 10 3 11 2 12 1 13
REMARK H PARENT
REMARK Flexibility Score: inf
ROOT
ATOM      1  C   UNL     1       1.864  -9.860  -3.743  1.00  0.00     0.000 C 
ENDROOT
BRANCH   1   2
ATOM      2  C   UNL     1       3.216  -9.224  -3.388  1.00  0.00     0.000 C 
BRANCH   2   3
ATOM      3  C   UNL     1       4.338  -9.796  -4.268  1.00  0.00     0.006 C 
BRANCH   3   4
ATOM      4  C   UNL     1       4.862  -8.770  -5.282  1.00  0.00     0.053 C 
BRANCH   4   5
ATOM      5  C   UNL     1       3.936  -8.619  -6.449  1.00  0.00     0.041 C 
ATOM      6  O   UNL     1       3.985  -9.435  -7.407  1.00  0.00    -0.550 OA
ATOM      7  O   UNL     1       2.995  -7.597  -6.464  1.00  0.00    -0.550 OA
ENDBRANCH   4   5
ENDBRANCH   3   4
ENDBRANCH   2   3
ENDBRANCH   1   2
BRANCH   1   8
ATOM      8  C   UNL     1       0.984 -10.114  -2.508  1.00  0.00     0.000 C 
BRANCH   8   9
ATOM      9  C   UNL     1       1.491  -9.373  -1.259  1.00  0.00    -0.000 C 
BRANCH   9  10
ATOM     10  C   UNL     1       0.670  -9.704  -0.001  1.00  0.00    -0.000 C 
BRANCH  10  11
ATOM     11  C   UNL     1      -0.772 -10.125  -0.331  1.00  0.00    -0.000 C 
BRANCH  11  12
ATOM     12  C   UNL     1      -1.803  -9.479   0.608  1.00  0.00    -0.003 C 
ATOM     13  C   UNL     1      -2.269  -8.106   0.124  1.00  0.00     0.004 C 
ENDBRANCH  11  12
ENDBRANCH  10  11
ENDBRANCH   9  10
ENDBRANCH   8   9
ENDBRANCH   1   8
TORSDOF 9
ENDMDL
MODEL 6
REMARK VINA RESULT:    -4.309     10.737     12.242
REMARK INTER + INTRA:          -7.253
REMARK INTER:                  -6.801
REMARK INTRA:                  -0.452
REMARK UNBOUND:                -0.677
REMARK SMILES CCCCCCCCCCC(=O)[O-]
REMARK SMILES IDX 7 1 8 2 9 3 10 4 11 5 12 6 13 7 6 8 5 9 4 10 3 11 2 12 1 13
REMARK H PARENT
REMARK Flexibility Score: inf
ROOT
ATOM      1  C   UNL     1      -2.155   1.962  -0.018  1.00  0.00     0.000 C 
ENDROOT
BRANCH   1   2
ATOM      2  C   UNL     1      -2.311   3.298  -0.760  1.00  0.00     0.000 C 
BRANCH   2   3
ATOM      3  C   UNL     1      -1.007   3.681  -1.476  1.00  0.00     0.006 C 
BRANCH   3   4
ATOM      4  C   UNL     1      -0.714   2.771  -2.676  1.00  0.00     0.053 C 
BRANCH   4   5
ATOM      5  C   UNL     1       0.559   3.153  -3.367  1.00  0.00     0.041 C 
ATOM      6  O   UNL     1       1.119   4.250  -3.103  1.00  0.00    -0.550 OA
ATOM      7  O   UNL     1       1.146   2.283  -4.277  1.00  0.00    -0.550 OA
ENDBRANCH   4   5
ENDBRANCH   3   4
ENDBRANCH   2   3
ENDBRANCH   1   2
BRANCH   1   8
ATOM      8  C   UNL     1      -0.813   1.847   0.725  1.00  0.00     0.000 C 
BRANCH   8   9
ATOM      9  C   UNL     1       0.001   0.618   0.286  1.00  0.00    -0.000 C 
BRANCH   9  10
ATOM     10  C   UNL     1       0.749  -0.043   1.456  1.00  0.00    -0.000 C 
BRANCH  10  11
ATOM     11  C   UNL     1       1.020  -1.538   1.213  1.00  0.00    -0.000 C 
BRANCH  11  12
ATOM     12  C   UNL     1       0.348  -2.058  -0.067  1.00  0.00    -0.003 C 
ATOM     13  C   UNL     1       0.874  -3.426  -0.500  1.00  0.00     0.004 C 
ENDBRANCH  11  12
ENDBRANCH  10  11
ENDBRANCH   9  10
ENDBRANCH   8   9
ENDBRANCH   1   8
TORSDOF 9
ENDMDL
MODEL 7
REMARK VINA RESULT:    -3.884      9.835     10.883
REMARK INTER + INTRA:          -6.605
REMARK INTER:                  -6.041
REMARK INTRA:                  -0.564
REMARK UNBOUND:                -0.677
REMARK SMILES CCCCCCCCCCC(=O)[O-]
REMARK SMILES IDX 7 1 8 2 9 3 10 4 11 5 12 6 13 7 6 8 5 9 4 10 3 11 2 12 1 13
REMARK H PARENT
REMARK Flexibility Score: inf
ROOT
ATOM      1  C   UNL     1      -0.358   0.828  -0.044  1.00  0.00     0.000 C 
ENDROOT
BRANCH   1   2
ATOM      2  C   UNL     1       0.480   0.641   1.229  1.00  0.00     0.000 C 
BRANCH   2   3
ATOM      3  C   UNL     1       0.964  -0.811   1.358  1.00  0.00     0.006 C 
BRANCH   3   4
ATOM      4  C   UNL     1       0.254  -1.750   0.373  1.00  0.00     0.053 C 
BRANCH   4   5
ATOM      5  C   UNL     1       1.098  -2.939   0.031  1.00  0.00     0.041 C 
ATOM      6  O   UNL     1       1.996  -3.328   0.824  1.00  0.00    -0.550 OA
ATOM      7  O   UNL     1       0.871  -3.639  -1.147  1.00  0.00    -0.550 OA
ENDBRANCH   4   5
ENDBRANCH   3   4
ENDBRANCH   2   3
ENDBRANCH   1   2
BRANCH   1   8
ATOM      8  C   UNL     1      -1.371   1.980   0.075  1.00  0.00     0.000 C 
BRANCH   8   9
ATOM      9  C   UNL     1      -1.779   2.551  -1.294  1.00  0.00    -0.000 C 
BRANCH   9  10
ATOM     10  C   UNL     1      -1.038   3.855  -1.635  1.00  0.00    -0.000 C 
BRANCH  10  11
ATOM     11  C   UNL     1       0.284   3.606  -2.382  1.00  0.00    -0.000 C 
BRANCH  11  12
ATOM     12  C   UNL     1       0.172   2.473  -3.414  1.00  0.00    -0.003 C 
ATOM     13  C   UNL     1       1.080   2.682  -4.625  1.00  0.00     0.004 C 
ENDBRANCH  11  12
ENDBRANCH  10  11
ENDBRANCH   9  10
ENDBRANCH   8   9
ENDBRANCH   1   8
TORSDOF 9
ENDMDL
MODEL 8
REMARK VINA RESULT:    -3.862      1.567      2.806
REMARK INTER + INTRA:          -6.571
REMARK INTER:                  -6.254
REMARK INTRA:                  -0.317
REMARK UNBOUND:                -0.677
REMARK SMILES CCCCCCCCCCC(=O)[O-]
REMARK SMILES IDX 7 1 8 2 9 3 10 4 11 5 12 6 13 7 6 8 5 9 4 10 3 11 2 12 1 13
REMARK H PARENT
REMARK Flexibility Score: inf
ROOT
ATOM      1  C   UNL     1       3.420 -10.010  -4.113  1.00  0.00     0.000 C 
ENDROOT
BRANCH   1   2
ATOM      2  C   UNL     1       3.037  -9.132  -2.912  1.00  0.00     0.000 C 
BRANCH   2   3
ATOM      3  C   UNL     1       1.705  -9.591  -2.301  1.00  0.00     0.006 C 
BRANCH   3   4
ATOM      4  C   UNL     1       0.912  -8.427  -1.693  1.00  0.00     0.053 C 
BRANCH   4   5
ATOM      5  C   UNL     1      -0.151  -8.907  -0.754  1.00  0.00     0.041 C 
ATOM      6  O   UNL     1       0.112  -9.792   0.103  1.00  0.00    -0.550 OA
ATOM      7  O   UNL     1      -1.424  -8.354  -0.801  1.00  0.00    -0.550 OA
ENDBRANCH   4   5
ENDBRANCH   3   4
ENDBRANCH   2   3
ENDBRANCH   1   2
BRANCH   1   8
ATOM      8  C   UNL     1       4.478  -9.353  -5.016  1.00  0.00     0.000 C 
BRANCH   8   9
ATOM      9  C   UNL     1       4.159  -9.515  -6.512  1.00  0.00    -0.000 C 
BRANCH   9  10
ATOM     10  C   UNL     1       3.445  -8.286  -7.100  1.00  0.00    -0.000 C 
BRANCH  10  11
ATOM     11  C   UNL     1       3.055  -7.258  -6.024  1.00  0.00    -0.000 C 
BRANCH  11  12
ATOM     12  C   UNL     1       1.987  -6.268  -6.515  1.00  0.00    -0.003 C 
ATOM     13  C   UNL     1       2.018  -4.939  -5.760  1.00  0.00     0.004 C 
ENDBRANCH  11  12
ENDBRANCH  10  11
ENDBRANCH   9  10
ENDBRANCH   8   9
ENDBRANCH   1   8
TORSDOF 9
ENDMDL
