MODEL 1
REMARK VINA RESULT:    -4.013      0.000      0.000
REMARK INTER + INTRA:          -4.823
REMARK INTER:                  -4.600
REMARK INTRA:                  -0.224
REMARK UNBOUND:                -0.224
REMARK SMILES COc1ccc(C=O)c(O)c1
REMARK SMILES IDX 3 1 11 2 9 3 6 4 5 5 4 6 2 7 1 8 10 9 7 11 8 12
REMARK H PARENT 10 10
REMARK Flexibility Score: inf
ROOT
ATOM      1  C   UNL     1     -31.849 -24.395 -37.738  1.00  0.00     0.122 A 
ATOM      2  C   UNL     1     -32.022 -24.387 -36.351  1.00  0.00     0.093 A 
ATOM      3  C   UNL     1     -32.585 -23.283 -35.697  1.00  0.00     0.129 A 
ATOM      4  C   UNL     1     -33.031 -22.172 -36.458  1.00  0.00     0.056 A 
ATOM      5  C   UNL     1     -32.832 -22.177 -37.848  1.00  0.00     0.019 A 
ATOM      6  C   UNL     1     -32.249 -23.275 -38.484  1.00  0.00     0.047 A 
ENDROOT
BRANCH   1   7
ATOM      7  O   UNL     1     -31.271 -25.529 -38.330  1.00  0.00    -0.497 OA
ATOM      8  C   UNL     1     -31.951 -26.764 -38.532  1.00  0.00     0.278 C 
ENDBRANCH   1   7
BRANCH   3   9
ATOM      9  O   UNL     1     -32.646 -23.321 -34.302  1.00  0.00    -0.507 OA
ATOM     10  H   UNL     1     -32.372 -22.552 -33.708  1.00  0.00     0.293 HD
ENDBRANCH   3   9
BRANCH   4  11
ATOM     11  C   UNL     1     -33.726 -21.008 -35.871  1.00  0.00     0.263 C 
ATOM     12  O   UNL     1     -33.194 -20.296 -34.980  1.00  0.00    -0.298 OA
ENDBRANCH   4  11
TORSDOF 3
ENDMDL
MODEL 2
REMARK VINA RESULT:    -3.903      2.905      4.722
REMARK INTER + INTRA:          -4.697
REMARK INTER:                  -4.433
REMARK INTRA:                  -0.264
REMARK UNBOUND:                -0.224
REMARK SMILES COc1ccc(C=O)c(O)c1
REMARK SMILES IDX 3 1 11 2 9 3 6 4 5 5 4 6 2 7 1 8 10 9 7 11 8 12
REMARK H PARENT 10 10
REMARK Flexibility Score: inf
ROOT
ATOM      1  C   UNL     1     -31.166 -21.225 -33.266  1.00  0.00     0.122 A 
ATOM      2  C   UNL     1     -31.436 -22.460 -33.862  1.00  0.00     0.093 A 
ATOM      3  C   UNL     1     -32.419 -22.587 -34.852  1.00  0.00     0.129 A 
ATOM      4  C   UNL     1     -33.122 -21.437 -35.292  1.00  0.00     0.056 A 
ATOM      5  C   UNL     1     -32.863 -20.204 -34.672  1.00  0.00     0.019 A 
ATOM      6  C   UNL     1     -31.896 -20.095 -33.671  1.00  0.00     0.047 A 
ENDROOT
BRANCH   1   7
ATOM      7  O   UNL     1     -30.175 -21.166 -32.274  1.00  0.00    -0.497 OA
ATOM      8  C   UNL     1     -30.298 -21.748 -30.980  1.00  0.00     0.278 C 
ENDBRANCH   1   7
BRANCH   3   9
ATOM      9  O   UNL     1     -32.683 -23.870 -35.338  1.00  0.00    -0.507 OA
ATOM     10  H   UNL     1     -32.770 -24.091 -36.319  1.00  0.00     0.293 HD
ENDBRANCH   3   9
BRANCH   4  11
ATOM     11  C   UNL     1     -34.102 -21.453 -36.398  1.00  0.00     0.263 C 
ATOM     12  O   UNL     1     -33.989 -22.241 -37.374  1.00  0.00    -0.298 OA
ENDBRANCH   4  11
TORSDOF 3
ENDMDL
MODEL 3
REMARK VINA RESULT:    -3.890      4.463      5.437
REMARK INTER + INTRA:          -4.683
REMARK INTER:                  -4.567
REMARK INTRA:                  -0.116
REMARK UNBOUND:                -0.224
REMARK SMILES COc1ccc(C=O)c(O)c1
REMARK SMILES IDX 3 1 11 2 9 3 6 4 5 5 4 6 2 7 1 8 10 9 7 11 8 12
REMARK H PARENT 10 10
REMARK Flexibility Score: inf
ROOT
ATOM      1  C   UNL     1     -31.122 -21.909 -33.629  1.00  0.00     0.122 A 
ATOM      2  C   UNL     1     -30.772 -22.626 -32.481  1.00  0.00     0.093 A 
ATOM      3  C   UNL     1     -30.660 -21.992 -31.237  1.00  0.00     0.129 A 
ATOM      4  C   UNL     1     -30.953 -20.608 -31.127  1.00  0.00     0.056 A 
ATOM      5  C   UNL     1     -31.281 -19.889 -32.289  1.00  0.00     0.019 A 
ATOM      6  C   UNL     1     -31.367 -20.530 -33.526  1.00  0.00     0.047 A 
ENDROOT
BRANCH   1   7
ATOM      7  O   UNL     1     -31.209 -22.602 -34.846  1.00  0.00    -0.497 OA
ATOM      8  C   UNL     1     -32.369 -23.294 -35.295  1.00  0.00     0.278 C 
ENDBRANCH   1   7
BRANCH   3   9
ATOM      9  O   UNL     1     -30.225 -22.763 -30.156  1.00  0.00    -0.507 OA
ATOM     10  H   UNL     1     -30.280 -22.461 -29.194  1.00  0.00     0.293 HD
ENDBRANCH   3   9
BRANCH   4  11
ATOM     11  C   UNL     1     -30.961 -19.875 -29.844  1.00  0.00     0.263 C 
ATOM     12  O   UNL     1     -31.839 -20.083 -28.966  1.00  0.00    -0.298 OA
ENDBRANCH   4  11
TORSDOF 3
ENDMDL
MODEL 4
REMARK VINA RESULT:    -3.755      4.728      5.718
REMARK INTER + INTRA:          -4.527
REMARK INTER:                  -4.450
REMARK INTRA:                  -0.077
REMARK UNBOUND:                -0.224
REMARK SMILES COc1ccc(C=O)c(O)c1
REMARK SMILES IDX 3 1 11 2 9 3 6 4 5 5 4 6 2 7 1 8 10 9 7 11 8 12
REMARK H PARENT 10 10
REMARK Flexibility Score: inf
ROOT
ATOM      1  C   UNL     1     -31.253 -22.049 -33.475  1.00  0.00     0.122 A 
ATOM      2  C   UNL     1     -30.942 -22.747 -32.304  1.00  0.00     0.093 A 
ATOM      3  C   UNL     1     -30.371 -22.096 -31.203  1.00  0.00     0.129 A 
ATOM      4  C   UNL     1     -30.148 -20.696 -31.255  1.00  0.00     0.056 A 
ATOM      5  C   UNL     1     -30.441 -20.006 -32.443  1.00  0.00     0.019 A 
ATOM      6  C   UNL     1     -30.989 -20.672 -33.541  1.00  0.00     0.047 A 
ENDROOT
BRANCH   1   7
ATOM      7  O   UNL     1     -31.815 -22.762 -34.546  1.00  0.00    -0.497 OA
ATOM      8  C   UNL     1     -32.921 -22.309 -35.319  1.00  0.00     0.278 C 
ENDBRANCH   1   7
BRANCH   3   9
ATOM      9  O   UNL     1     -30.014 -22.880 -30.103  1.00  0.00    -0.507 OA
ATOM     10  H   UNL     1     -29.566 -22.514 -29.276  1.00  0.00     0.293 HD
ENDBRANCH   3   9
BRANCH   4  11
ATOM     11  C   UNL     1     -29.646 -19.907 -30.112  1.00  0.00     0.263 C 
ATOM     12  O   UNL     1     -28.425 -19.882 -29.806  1.00  0.00    -0.298 OA
ENDBRANCH   4  11
TORSDOF 3
ENDMDL
MODEL 5
REMARK VINA RESULT:    -3.580      1.175      2.117
REMARK INTER + INTRA:          -4.326
REMARK INTER:                  -4.274
REMARK INTRA:                  -0.053
REMARK UNBOUND:                -0.224
REMARK SMILES COc1ccc(C=O)c(O)c1
REMARK SMILES IDX 3 1 11 2 9 3 6 4 5 5 4 6 2 7 1 8 10 9 7 11 8 12
REMARK H PARENT 10 10
REMARK Flexibility Score: inf
ROOT
ATOM      1  C   UNL     1     -31.858 -24.073 -37.383  1.00  0.00     0.122 A 
ATOM      2  C   UNL     1     -32.378 -23.053 -38.186  1.00  0.00     0.093 A 
ATOM      3  C   UNL     1     -33.043 -21.956 -37.624  1.00  0.00     0.129 A 
ATOM      4  C   UNL     1     -33.152 -21.851 -36.214  1.00  0.00     0.056 A 
ATOM      5  C   UNL     1     -32.649 -22.890 -35.414  1.00  0.00     0.019 A 
ATOM      6  C   UNL     1     -32.008 -23.989 -35.989  1.00  0.00     0.047 A 
ENDROOT
BRANCH   1   7
ATOM      7  O   UNL     1     -31.210 -25.149 -38.009  1.00  0.00    -0.497 OA
ATOM      8  C   UNL     1     -31.856 -26.355 -38.403  1.00  0.00     0.278 C 
ENDBRANCH   1   7
BRANCH   3   9
ATOM      9  O   UNL     1     -33.605 -21.024 -38.500  1.00  0.00    -0.507 OA
ATOM     10  H   UNL     1     -33.249 -20.840 -39.427  1.00  0.00     0.293 HD
ENDBRANCH   3   9
BRANCH   4  11
ATOM     11  C   UNL     1     -33.745 -20.684 -35.526  1.00  0.00     0.263 C 
ATOM     12  O   UNL     1     -33.060 -19.931 -34.786  1.00  0.00    -0.298 OA
ENDBRANCH   4  11
TORSDOF 3
ENDMDL
MODEL 6
REMARK VINA RESULT:    -3.387      1.536      4.788
REMARK INTER + INTRA:          -4.105
REMARK INTER:                  -4.055
REMARK INTRA:                  -0.051
REMARK UNBOUND:                -0.224
REMARK SMILES COc1ccc(C=O)c(O)c1
REMARK SMILES IDX 3 1 11 2 9 3 6 4 5 5 4 6 2 7 1 8 10 9 7 11 8 12
REMARK H PARENT 10 10
REMARK Flexibility Score: inf
ROOT
ATOM      1  C   UNL     1     -32.949 -21.715 -35.473  1.00  0.00     0.122 A 
ATOM      2  C   UNL     1     -33.318 -21.658 -36.820  1.00  0.00     0.093 A 
ATOM      3  C   UNL     1     -32.998 -22.697 -37.704  1.00  0.00     0.129 A 
ATOM      4  C   UNL     1     -32.330 -23.850 -37.216  1.00  0.00     0.056 A 
ATOM      5  C   UNL     1     -31.941 -23.890 -35.867  1.00  0.00     0.019 A 
ATOM      6  C   UNL     1     -32.247 -22.837 -35.002  1.00  0.00     0.047 A 
ENDROOT
BRANCH   1   7
ATOM      7  O   UNL     1     -33.292 -20.637 -34.642  1.00  0.00    -0.497 OA
ATOM      8  C   UNL     1     -32.355 -19.875 -33.888  1.00  0.00     0.278 C 
ENDBRANCH   1   7
BRANCH   3   9
ATOM      9  O   UNL     1     -33.330 -22.525 -39.050  1.00  0.00    -0.507 OA
ATOM     10  H   UNL     1     -32.650 -22.357 -39.777  1.00  0.00     0.293 HD
ENDBRANCH   3   9
BRANCH   4  11
ATOM     11  C   UNL     1     -32.041 -25.038 -38.046  1.00  0.00     0.263 C 
ATOM     12  O   UNL     1     -30.929 -25.627 -37.999  1.00  0.00    -0.298 OA
ENDBRANCH   4  11
TORSDOF 3
ENDMDL
MODEL 7
REMARK VINA RESULT:    -3.330      2.860      5.211
REMARK INTER + INTRA:          -4.041
REMARK INTER:                  -3.776
REMARK INTRA:                  -0.264
REMARK UNBOUND:                -0.224
REMARK SMILES COc1ccc(C=O)c(O)c1
REMARK SMILES IDX 3 1 11 2 9 3 6 4 5 5 4 6 2 7 1 8 10 9 7 11 8 12
REMARK H PARENT 10 10
REMARK Flexibility Score: inf
ROOT
ATOM      1  C   UNL     1     -31.460 -20.782 -33.280  1.00  0.00     0.122 A 
ATOM      2  C   UNL     1     -32.371 -20.071 -34.067  1.00  0.00     0.093 A 
ATOM      3  C   UNL     1     -33.020 -20.677 -35.151  1.00  0.00     0.129 A 
ATOM      4  C   UNL     1     -32.786 -22.049 -35.428  1.00  0.00     0.056 A 
ATOM      5  C   UNL     1     -31.852 -22.750 -34.648  1.00  0.00     0.019 A 
ATOM      6  C   UNL     1     -31.196 -22.127 -33.585  1.00  0.00     0.047 A 
ENDROOT
BRANCH   1   7
ATOM      7  O   UNL     1     -30.838 -20.113 -32.214  1.00  0.00    -0.497 OA
ATOM      8  C   UNL     1     -30.736 -20.632 -30.892  1.00  0.00     0.278 C 
ENDBRANCH   1   7
BRANCH   3   9
ATOM      9  O   UNL     1     -33.851 -19.876 -35.937  1.00  0.00    -0.507 OA
ATOM     10  H   UNL     1     -34.668 -20.220 -36.420  1.00  0.00     0.293 HD
ENDBRANCH   3   9
BRANCH   4  11
ATOM     11  C   UNL     1     -33.497 -22.800 -36.484  1.00  0.00     0.263 C 
ATOM     12  O   UNL     1     -33.702 -22.310 -37.625  1.00  0.00    -0.298 OA
ENDBRANCH   4  11
TORSDOF 3
ENDMDL
MODEL 8
REMARK VINA RESULT:    -3.294      1.534      2.351
REMARK INTER + INTRA:          -3.999
REMARK INTER:                  -3.947
REMARK INTRA:                  -0.052
REMARK UNBOUND:                -0.224
REMARK SMILES COc1ccc(C=O)c(O)c1
REMARK SMILES IDX 3 1 11 2 9 3 6 4 5 5 4 6 2 7 1 8 10 9 7 11 8 12
REMARK H PARENT 10 10
REMARK Flexibility Score: inf
ROOT
ATOM      1  C   UNL     1     -31.793 -25.624 -38.033  1.00  0.00     0.122 A 
ATOM      2  C   UNL     1     -31.183 -24.493 -38.584  1.00  0.00     0.093 A 
ATOM      3  C   UNL     1     -31.596 -23.202 -38.229  1.00  0.00     0.129 A 
ATOM      4  C   UNL     1     -32.618 -23.036 -37.259  1.00  0.00     0.056 A 
ATOM      5  C   UNL     1     -33.243 -24.176 -36.729  1.00  0.00     0.019 A 
ATOM      6  C   UNL     1     -32.836 -25.457 -37.108  1.00  0.00     0.047 A 
ENDROOT
BRANCH   1   7
ATOM      7  O   UNL     1     -31.339 -26.889 -38.437  1.00  0.00    -0.497 OA
ATOM      8  C   UNL     1     -32.191 -27.986 -38.747  1.00  0.00     0.278 C 
ENDBRANCH   1   7
BRANCH   3   9
ATOM      9  O   UNL     1     -30.992 -22.127 -38.886  1.00  0.00    -0.507 OA
ATOM     10  H   UNL     1     -30.839 -21.225 -38.460  1.00  0.00     0.293 HD
ENDBRANCH   3   9
BRANCH   4  11
ATOM     11  C   UNL     1     -33.051 -21.718 -36.748  1.00  0.00     0.263 C 
ATOM     12  O   UNL     1     -33.212 -21.504 -35.517  1.00  0.00    -0.298 OA
ENDBRANCH   4  11
TORSDOF 3
ENDMDL
MODEL 9
REMARK VINA RESULT:    -3.243      2.234      4.019
REMARK INTER + INTRA:          -3.941
REMARK INTER:                  -3.700
REMARK INTRA:                  -0.240
REMARK UNBOUND:                -0.224
REMARK SMILES COc1ccc(C=O)c(O)c1
REMARK SMILES IDX 3 1 11 2 9 3 6 4 5 5 4 6 2 7 1 8 10 9 7 11 8 12
REMARK H PARENT 10 10
REMARK Flexibility Score: inf
ROOT
ATOM      1  C   UNL     1     -31.930 -22.615 -34.688  1.00  0.00     0.122 A 
ATOM      2  C   UNL     1     -32.825 -21.587 -35.000  1.00  0.00     0.093 A 
ATOM      3  C   UNL     1     -33.285 -21.401 -36.310  1.00  0.00     0.129 A 
ATOM      4  C   UNL     1     -32.876 -22.298 -37.330  1.00  0.00     0.056 A 
ATOM      5  C   UNL     1     -31.958 -23.313 -37.014  1.00  0.00     0.019 A 
ATOM      6  C   UNL     1     -31.490 -23.473 -35.708  1.00  0.00     0.047 A 
ENDROOT
BRANCH   1   7
ATOM      7  O   UNL     1     -31.501 -22.742 -33.357  1.00  0.00    -0.497 OA
ATOM      8  C   UNL     1     -30.750 -21.755 -32.659  1.00  0.00     0.278 C 
ENDBRANCH   1   7
BRANCH   3   9
ATOM      9  O   UNL     1     -34.112 -20.302 -36.554  1.00  0.00    -0.507 OA
ATOM     10  H   UNL     1     -35.013 -20.367 -37.004  1.00  0.00     0.293 HD
ENDBRANCH   3   9
BRANCH   4  11
ATOM     11  C   UNL     1     -33.385 -22.244 -38.716  1.00  0.00     0.263 C 
ATOM     12  O   UNL     1     -34.125 -21.308 -39.116  1.00  0.00    -0.298 OA
ENDBRANCH   4  11
TORSDOF 3
ENDMDL
