MODEL 1
REMARK VINA RESULT:    -6.671      0.000      0.000
REMARK INTER + INTRA:          -8.365
REMARK INTER:                  -8.036
REMARK INTRA:                  -0.330
REMARK UNBOUND:                -0.330
REMARK SMILES O=c1c(O)c(-c2ccc(O)c(O)c2)oc2cc(O)cc(O)c12
REMARK SMILES IDX 5 1 3 2 2 3 1 4 22 5 20 6 19 7 17 8 16 9 15 10 14 11 6 12
REMARK SMILES IDX 7 13 8 14 9 15 13 16 11 17 10 18 12 20 4 22 21 24 18 26
REMARK H PARENT 10 19 12 21 4 23 21 25 18 27
REMARK Flexibility Score: inf
ROOT
ATOM      1  C   UNL     1      31.976 -35.247  35.605  1.00  0.00     0.180 A 
ATOM      2  C   UNL     1      32.843 -35.262  34.500  1.00  0.00     0.208 A 
ATOM      3  C   UNL     1      32.844 -36.379  33.648  1.00  0.00     0.238 A 
ATOM      4  O   UNL     1      33.662 -36.409  32.692  1.00  0.00    -0.285 OA
ATOM      5  C   UNL     1      31.966 -37.460  33.904  1.00  0.00     0.111 A 
ATOM      6  C   UNL     1      31.854 -38.624  33.085  1.00  0.00     0.134 A 
ATOM      7  C   UNL     1      31.048 -39.688  33.505  1.00  0.00     0.093 A 
ATOM      8  C   UNL     1      30.298 -39.604  34.681  1.00  0.00     0.123 A 
ATOM      9  C   UNL     1      30.355 -38.448  35.456  1.00  0.00     0.094 A 
ATOM     10  C   UNL     1      31.179 -37.384  35.082  1.00  0.00     0.146 A 
ATOM     11  O   UNL     1      31.212 -36.305  35.855  1.00  0.00    -0.452 OA
ENDROOT
BRANCH   1  12
ATOM     12  C   UNL     1      31.900 -34.096  36.533  1.00  0.00     0.025 A 
ATOM     13  C   UNL     1      31.074 -32.991  36.261  1.00  0.00     0.016 A 
ATOM     14  C   UNL     1      30.999 -31.926  37.163  1.00  0.00     0.051 A 
ATOM     15  C   UNL     1      31.734 -31.954  38.352  1.00  0.00     0.157 A 
ATOM     16  C   UNL     1      32.620 -34.130  37.739  1.00  0.00     0.062 A 
ATOM     17  C   UNL     1      32.547 -33.062  38.644  1.00  0.00     0.158 A 
BRANCH  15  18
ATOM     18  O   UNL     1      31.641 -30.875  39.232  1.00  0.00    -0.504 OA
ATOM     19  H   UNL     1      31.002 -30.105  39.071  1.00  0.00     0.293 HD
ENDBRANCH  15  18
BRANCH  17  20
ATOM     20  O   UNL     1      33.277 -33.099  39.832  1.00  0.00    -0.504 OA
ATOM     21  H   UNL     1      33.398 -33.959  40.354  1.00  0.00     0.293 HD
ENDBRANCH  17  20
ENDBRANCH   1  12
BRANCH   2  22
ATOM     22  O   UNL     1      33.718 -34.194  34.278  1.00  0.00    -0.502 OA
ATOM     23  H   UNL     1      33.392 -33.248  34.121  1.00  0.00     0.293 HD
ENDBRANCH   2  22
BRANCH   6  24
ATOM     24  O   UNL     1      32.488 -38.771  31.847  1.00  0.00    -0.507 OA
ATOM     25  H   UNL     1      32.195 -39.411  31.125  1.00  0.00     0.293 HD
ENDBRANCH   6  24
BRANCH   8  26
ATOM     26  O   UNL     1      29.486 -40.661  35.083  1.00  0.00    -0.508 OA
ATOM     27  H   UNL     1      28.498 -40.688  34.857  1.00  0.00     0.293 HD
ENDBRANCH   8  26
TORSDOF 6
ENDMDL
MODEL 2
REMARK VINA RESULT:    -6.323      4.113      6.401
REMARK INTER + INTRA:          -7.946
REMARK INTER:                  -7.637
REMARK INTRA:                  -0.309
REMARK UNBOUND:                -0.330
REMARK SMILES O=c1c(O)c(-c2ccc(O)c(O)c2)oc2cc(O)cc(O)c12
REMARK SMILES IDX 5 1 3 2 2 3 1 4 22 5 20 6 19 7 17 8 16 9 15 10 14 11 6 12
REMARK SMILES IDX 7 13 8 14 9 15 13 16 11 17 10 18 12 20 4 22 21 24 18 26
REMARK H PARENT 10 19 12 21 4 23 21 25 18 27
REMARK Flexibility Score: inf
ROOT
ATOM      1  C   UNL     1      32.218 -38.435  33.603  1.00  0.00     0.180 A 
ATOM      2  C   UNL     1      33.064 -38.049  34.657  1.00  0.00     0.208 A 
ATOM      3  C   UNL     1      34.446 -37.958  34.424  1.00  0.00     0.238 A 
ATOM      4  O   UNL     1      35.203 -37.666  35.386  1.00  0.00    -0.285 OA
ATOM      5  C   UNL     1      34.963 -38.239  33.136  1.00  0.00     0.111 A 
ATOM      6  C   UNL     1      36.341 -38.140  32.777  1.00  0.00     0.134 A 
ATOM      7  C   UNL     1      36.757 -38.568  31.510  1.00  0.00     0.093 A 
ATOM      8  C   UNL     1      35.835 -39.029  30.567  1.00  0.00     0.123 A 
ATOM      9  C   UNL     1      34.480 -39.073  30.889  1.00  0.00     0.094 A 
ATOM     10  C   UNL     1      34.039 -38.688  32.157  1.00  0.00     0.146 A 
ATOM     11  O   UNL     1      32.740 -38.756  32.425  1.00  0.00    -0.452 OA
ENDROOT
BRANCH   1  12
ATOM     12  C   UNL     1      30.750 -38.530  33.765  1.00  0.00     0.025 A 
ATOM     13  C   UNL     1      29.901 -37.485  33.359  1.00  0.00     0.016 A 
ATOM     14  C   UNL     1      28.516 -37.606  33.498  1.00  0.00     0.051 A 
ATOM     15  C   UNL     1      27.957 -38.772  34.030  1.00  0.00     0.157 A 
ATOM     16  C   UNL     1      30.184 -39.708  34.279  1.00  0.00     0.062 A 
ATOM     17  C   UNL     1      28.794 -39.830  34.421  1.00  0.00     0.158 A 
BRANCH  15  18
ATOM     18  O   UNL     1      26.571 -38.862  34.159  1.00  0.00    -0.504 OA
ATOM     19  H   UNL     1      26.018 -38.107  34.547  1.00  0.00     0.293 HD
ENDBRANCH  15  18
BRANCH  17  20
ATOM     20  O   UNL     1      28.244 -40.999  34.946  1.00  0.00    -0.504 OA
ATOM     21  H   UNL     1      27.245 -41.173  34.923  1.00  0.00     0.293 HD
ENDBRANCH  17  20
ENDBRANCH   1  12
BRANCH   2  22
ATOM     22  O   UNL     1      32.535 -37.798  35.927  1.00  0.00    -0.502 OA
ATOM     23  H   UNL     1      31.723 -37.211  36.071  1.00  0.00     0.293 HD
ENDBRANCH   2  22
BRANCH   6  24
ATOM     24  O   UNL     1      37.328 -37.607  33.611  1.00  0.00    -0.507 OA
ATOM     25  H   UNL     1      38.028 -36.941  33.321  1.00  0.00     0.293 HD
ENDBRANCH   6  24
BRANCH   8  26
ATOM     26  O   UNL     1      36.254 -39.438  29.304  1.00  0.00    -0.508 OA
ATOM     27  H   UNL     1      36.303 -38.791  28.525  1.00  0.00     0.293 HD
ENDBRANCH   8  26
TORSDOF 6
ENDMDL
MODEL 3
REMARK VINA RESULT:    -6.289      2.045      2.693
REMARK INTER + INTRA:          -7.906
REMARK INTER:                  -7.755
REMARK INTRA:                  -0.151
REMARK UNBOUND:                -0.330
REMARK SMILES O=c1c(O)c(-c2ccc(O)c(O)c2)oc2cc(O)cc(O)c12
REMARK SMILES IDX 5 1 3 2 2 3 1 4 22 5 20 6 19 7 17 8 16 9 15 10 14 11 6 12
REMARK SMILES IDX 7 13 8 14 9 15 13 16 11 17 10 18 12 20 4 22 21 24 18 26
REMARK H PARENT 10 19 12 21 4 23 21 25 18 27
REMARK Flexibility Score: inf
ROOT
ATOM      1  C   UNL     1      32.819 -35.252  35.118  1.00  0.00     0.180 A 
ATOM      2  C   UNL     1      31.860 -35.431  34.106  1.00  0.00     0.208 A 
ATOM      3  C   UNL     1      31.963 -36.545  33.258  1.00  0.00     0.238 A 
ATOM      4  O   UNL     1      31.133 -36.670  32.320  1.00  0.00    -0.285 OA
ATOM      5  C   UNL     1      33.015 -37.475  33.442  1.00  0.00     0.111 A 
ATOM      6  C   UNL     1      33.193 -38.661  32.668  1.00  0.00     0.134 A 
ATOM      7  C   UNL     1      34.341 -39.440  32.851  1.00  0.00     0.093 A 
ATOM      8  C   UNL     1      35.286 -39.112  33.827  1.00  0.00     0.123 A 
ATOM      9  C   UNL     1      35.090 -37.989  34.629  1.00  0.00     0.094 A 
ATOM     10  C   UNL     1      33.973 -37.172  34.444  1.00  0.00     0.146 A 
ATOM     11  O   UNL     1      33.831 -36.106  35.223  1.00  0.00    -0.452 OA
ENDROOT
BRANCH   1  12
ATOM     12  C   UNL     1      32.764 -34.116  36.065  1.00  0.00     0.025 A 
ATOM     13  C   UNL     1      32.893 -32.788  35.623  1.00  0.00     0.016 A 
ATOM     14  C   UNL     1      32.814 -31.729  36.532  1.00  0.00     0.051 A 
ATOM     15  C   UNL     1      32.591 -31.978  37.889  1.00  0.00     0.157 A 
ATOM     16  C   UNL     1      32.519 -34.361  37.427  1.00  0.00     0.062 A 
ATOM     17  C   UNL     1      32.440 -33.300  38.340  1.00  0.00     0.158 A 
BRANCH  15  18
ATOM     18  O   UNL     1      32.518 -30.901  38.773  1.00  0.00    -0.504 OA
ATOM     19  H   UNL     1      32.644 -29.944  38.465  1.00  0.00     0.293 HD
ENDBRANCH  15  18
BRANCH  17  20
ATOM     20  O   UNL     1      32.211 -33.555  39.692  1.00  0.00    -0.504 OA
ATOM     21  H   UNL     1      31.763 -34.410  40.002  1.00  0.00     0.293 HD
ENDBRANCH  17  20
ENDBRANCH   1  12
BRANCH   2  22
ATOM     22  O   UNL     1      30.843 -34.488  33.928  1.00  0.00    -0.502 OA
ATOM     23  H   UNL     1      30.869 -33.572  34.358  1.00  0.00     0.293 HD
ENDBRANCH   2  22
BRANCH   6  24
ATOM     24  O   UNL     1      32.265 -39.128  31.732  1.00  0.00    -0.507 OA
ATOM     25  H   UNL     1      32.320 -38.966  30.738  1.00  0.00     0.293 HD
ENDBRANCH   6  24
BRANCH   8  26
ATOM     26  O   UNL     1      36.418 -39.901  34.014  1.00  0.00    -0.508 OA
ATOM     27  H   UNL     1      37.308 -39.497  34.282  1.00  0.00     0.293 HD
ENDBRANCH   8  26
TORSDOF 6
ENDMDL
MODEL 4
REMARK VINA RESULT:    -6.155      3.849      6.416
REMARK INTER + INTRA:          -7.744
REMARK INTER:                  -7.454
REMARK INTRA:                  -0.290
REMARK UNBOUND:                -0.330
REMARK SMILES O=c1c(O)c(-c2ccc(O)c(O)c2)oc2cc(O)cc(O)c12
REMARK SMILES IDX 5 1 3 2 2 3 1 4 22 5 20 6 19 7 17 8 16 9 15 10 14 11 6 12
REMARK SMILES IDX 7 13 8 14 9 15 13 16 11 17 10 18 12 20 4 22 21 24 18 26
REMARK H PARENT 10 19 12 21 4 23 21 25 18 27
REMARK Flexibility Score: inf
ROOT
ATOM      1  C   UNL     1      33.510 -39.120  33.045  1.00  0.00     0.180 A 
ATOM      2  C   UNL     1      33.583 -38.519  31.776  1.00  0.00     0.208 A 
ATOM      3  C   UNL     1      34.669 -38.823  30.940  1.00  0.00     0.238 A 
ATOM      4  O   UNL     1      34.757 -38.240  29.828  1.00  0.00    -0.285 OA
ATOM      5  C   UNL     1      35.661 -39.734  31.376  1.00  0.00     0.111 A 
ATOM      6  C   UNL     1      36.784 -40.145  30.596  1.00  0.00     0.134 A 
ATOM      7  C   UNL     1      37.771 -40.950  31.177  1.00  0.00     0.093 A 
ATOM      8  C   UNL     1      37.643 -41.413  32.489  1.00  0.00     0.123 A 
ATOM      9  C   UNL     1      36.521 -41.066  33.238  1.00  0.00     0.094 A 
ATOM     10  C   UNL     1      35.537 -40.234  32.698  1.00  0.00     0.146 A 
ATOM     11  O   UNL     1      34.489 -39.919  33.451  1.00  0.00    -0.452 OA
ENDROOT
BRANCH   1  12
ATOM     12  C   UNL     1      32.384 -38.869  33.973  1.00  0.00     0.025 A 
ATOM     13  C   UNL     1      32.324 -37.700  34.751  1.00  0.00     0.016 A 
ATOM     14  C   UNL     1      31.240 -37.472  35.602  1.00  0.00     0.051 A 
ATOM     15  C   UNL     1      30.195 -38.398  35.680  1.00  0.00     0.157 A 
ATOM     16  C   UNL     1      31.323 -39.787  34.039  1.00  0.00     0.062 A 
ATOM     17  C   UNL     1      30.235 -39.561  34.894  1.00  0.00     0.158 A 
BRANCH  15  18
ATOM     18  O   UNL     1      29.127 -38.145  36.541  1.00  0.00    -0.504 OA
ATOM     19  H   UNL     1      29.238 -38.144  37.549  1.00  0.00     0.293 HD
ENDBRANCH  15  18
BRANCH  17  20
ATOM     20  O   UNL     1      29.193 -40.486  34.961  1.00  0.00    -0.504 OA
ATOM     21  H   UNL     1      28.334 -40.357  34.438  1.00  0.00     0.293 HD
ENDBRANCH  17  20
ENDBRANCH   1  12
BRANCH   2  22
ATOM     22  O   UNL     1      32.604 -37.605  31.375  1.00  0.00    -0.502 OA
ATOM     23  H   UNL     1      31.897 -37.833  30.687  1.00  0.00     0.293 HD
ENDBRANCH   2  22
BRANCH   6  24
ATOM     24  O   UNL     1      36.960 -39.815  29.249  1.00  0.00    -0.507 OA
ATOM     25  H   UNL     1      36.880 -38.883  28.871  1.00  0.00     0.293 HD
ENDBRANCH   6  24
BRANCH   8  26
ATOM     26  O   UNL     1      38.622 -42.227  33.054  1.00  0.00    -0.508 OA
ATOM     27  H   UNL     1      38.393 -42.928  33.749  1.00  0.00     0.293 HD
ENDBRANCH   8  26
TORSDOF 6
ENDMDL
MODEL 5
REMARK VINA RESULT:    -6.136      5.910      9.460
REMARK INTER + INTRA:          -7.721
REMARK INTER:                  -7.401
REMARK INTRA:                  -0.319
REMARK UNBOUND:                -0.330
REMARK SMILES O=c1c(O)c(-c2ccc(O)c(O)c2)oc2cc(O)cc(O)c12
REMARK SMILES IDX 5 1 3 2 2 3 1 4 22 5 20 6 19 7 17 8 16 9 15 10 14 11 6 12
REMARK SMILES IDX 7 13 8 14 9 15 13 16 11 17 10 18 12 20 4 22 21 24 18 26
REMARK H PARENT 10 19 12 21 4 23 21 25 18 27
REMARK Flexibility Score: inf
ROOT
ATOM      1  C   UNL     1      29.898 -33.931  42.259  1.00  0.00     0.180 A 
ATOM      2  C   UNL     1      29.155 -35.124  42.230  1.00  0.00     0.208 A 
ATOM      3  C   UNL     1      28.858 -35.772  43.440  1.00  0.00     0.238 A 
ATOM      4  O   UNL     1      28.239 -36.868  43.402  1.00  0.00    -0.285 OA
ATOM      5  C   UNL     1      29.294 -35.212  44.664  1.00  0.00     0.111 A 
ATOM      6  C   UNL     1      29.016 -35.762  45.952  1.00  0.00     0.134 A 
ATOM      7  C   UNL     1      29.607 -35.196  47.087  1.00  0.00     0.093 A 
ATOM      8  C   UNL     1      30.415 -34.060  46.989  1.00  0.00     0.123 A 
ATOM      9  C   UNL     1      30.643 -33.480  45.742  1.00  0.00     0.094 A 
ATOM     10  C   UNL     1      30.097 -34.044  44.587  1.00  0.00     0.146 A 
ATOM     11  O   UNL     1      30.349 -33.466  43.419  1.00  0.00    -0.452 OA
ENDROOT
BRANCH   1  12
ATOM     12  C   UNL     1      30.230 -33.177  41.029  1.00  0.00     0.025 A 
ATOM     13  C   UNL     1      29.306 -32.296  40.441  1.00  0.00     0.016 A 
ATOM     14  C   UNL     1      29.648 -31.576  39.293  1.00  0.00     0.051 A 
ATOM     15  C   UNL     1      30.918 -31.714  38.724  1.00  0.00     0.157 A 
ATOM     16  C   UNL     1      31.511 -33.298  40.467  1.00  0.00     0.062 A 
ATOM     17  C   UNL     1      31.856 -32.578  39.314  1.00  0.00     0.158 A 
BRANCH  15  18
ATOM     18  O   UNL     1      31.230 -30.985  37.577  1.00  0.00    -0.504 OA
ATOM     19  H   UNL     1      31.172 -29.973  37.551  1.00  0.00     0.293 HD
ENDBRANCH  15  18
BRANCH  17  20
ATOM     20  O   UNL     1      33.127 -32.715  38.756  1.00  0.00    -0.504 OA
ATOM     21  H   UNL     1      33.561 -33.624  38.643  1.00  0.00     0.293 HD
ENDBRANCH  17  20
ENDBRANCH   1  12
BRANCH   2  22
ATOM     22  O   UNL     1      28.753 -35.671  41.008  1.00  0.00    -0.502 OA
ATOM     23  H   UNL     1      28.250 -35.136  40.311  1.00  0.00     0.293 HD
ENDBRANCH   2  22
BRANCH   6  24
ATOM     24  O   UNL     1      28.150 -36.838  46.170  1.00  0.00    -0.507 OA
ATOM     25  H   UNL     1      27.494 -36.902  46.933  1.00  0.00     0.293 HD
ENDBRANCH   6  24
BRANCH   8  26
ATOM     26  O   UNL     1      30.987 -33.494  48.125  1.00  0.00    -0.508 OA
ATOM     27  H   UNL     1      31.715 -33.969  48.646  1.00  0.00     0.293 HD
ENDBRANCH   8  26
TORSDOF 6
ENDMDL
MODEL 6
REMARK VINA RESULT:    -6.082      2.223      6.838
REMARK INTER + INTRA:          -7.656
REMARK INTER:                  -7.665
REMARK INTRA:                   0.009
REMARK UNBOUND:                -0.330
REMARK SMILES O=c1c(O)c(-c2ccc(O)c(O)c2)oc2cc(O)cc(O)c12
REMARK SMILES IDX 5 1 3 2 2 3 1 4 22 5 20 6 19 7 17 8 16 9 15 10 14 11 6 12
REMARK SMILES IDX 7 13 8 14 9 15 13 16 11 17 10 18 12 20 4 22 21 24 18 26
REMARK H PARENT 10 19 12 21 4 23 21 25 18 27
REMARK Flexibility Score: inf
ROOT
ATOM      1  C   UNL     1      29.882 -35.755  35.343  1.00  0.00     0.180 A 
ATOM      2  C   UNL     1      29.555 -34.693  34.482  1.00  0.00     0.208 A 
ATOM      3  C   UNL     1      30.110 -33.426  34.721  1.00  0.00     0.238 A 
ATOM      4  O   UNL     1      29.769 -32.467  33.980  1.00  0.00    -0.285 OA
ATOM      5  C   UNL     1      30.997 -33.239  35.808  1.00  0.00     0.111 A 
ATOM      6  C   UNL     1      31.649 -32.008  36.120  1.00  0.00     0.134 A 
ATOM      7  C   UNL     1      32.404 -31.904  37.295  1.00  0.00     0.093 A 
ATOM      8  C   UNL     1      32.584 -33.006  38.135  1.00  0.00     0.123 A 
ATOM      9  C   UNL     1      32.001 -34.228  37.807  1.00  0.00     0.094 A 
ATOM     10  C   UNL     1      31.212 -34.352  36.661  1.00  0.00     0.146 A 
ATOM     11  O   UNL     1      30.666 -35.533  36.392  1.00  0.00    -0.452 OA
ENDROOT
BRANCH   1  12
ATOM     12  C   UNL     1      29.357 -37.125  35.142  1.00  0.00     0.025 A 
ATOM     13  C   UNL     1      27.983 -37.361  34.962  1.00  0.00     0.016 A 
ATOM     14  C   UNL     1      27.512 -38.659  34.749  1.00  0.00     0.051 A 
ATOM     15  C   UNL     1      28.403 -39.736  34.701  1.00  0.00     0.157 A 
ATOM     16  C   UNL     1      30.251 -38.206  35.072  1.00  0.00     0.062 A 
ATOM     17  C   UNL     1      29.780 -39.509  34.861  1.00  0.00     0.158 A 
BRANCH  15  18
ATOM     18  O   UNL     1      27.902 -41.021  34.490  1.00  0.00    -0.504 OA
ATOM     19  H   UNL     1      26.908 -41.217  34.491  1.00  0.00     0.293 HD
ENDBRANCH  15  18
BRANCH  17  20
ATOM     20  O   UNL     1      30.675 -40.577  34.806  1.00  0.00    -0.504 OA
ATOM     21  H   UNL     1      30.603 -41.364  35.441  1.00  0.00     0.293 HD
ENDBRANCH  17  20
ENDBRANCH   1  12
BRANCH   2  22
ATOM     22  O   UNL     1      28.659 -34.894  33.428  1.00  0.00    -0.502 OA
ATOM     23  H   UNL     1      27.659 -34.768  33.532  1.00  0.00     0.293 HD
ENDBRANCH   2  22
BRANCH   6  24
ATOM     24  O   UNL     1      31.610 -30.875  35.301  1.00  0.00    -0.507 OA
ATOM     25  H   UNL     1      31.021 -30.774  34.489  1.00  0.00     0.293 HD
ENDBRANCH   6  24
BRANCH   8  26
ATOM     26  O   UNL     1      33.350 -32.899  39.293  1.00  0.00    -0.508 OA
ATOM     27  H   UNL     1      33.798 -32.028  39.554  1.00  0.00     0.293 HD
ENDBRANCH   8  26
TORSDOF 6
ENDMDL
MODEL 7
REMARK VINA RESULT:    -6.068      1.863      6.814
REMARK INTER + INTRA:          -7.639
REMARK INTER:                  -7.316
REMARK INTRA:                  -0.323
REMARK UNBOUND:                -0.330
REMARK SMILES O=c1c(O)c(-c2ccc(O)c(O)c2)oc2cc(O)cc(O)c12
REMARK SMILES IDX 5 1 3 2 2 3 1 4 22 5 20 6 19 7 17 8 16 9 15 10 14 11 6 12
REMARK SMILES IDX 7 13 8 14 9 15 13 16 11 17 10 18 12 20 4 22 21 24 18 26
REMARK H PARENT 10 19 12 21 4 23 21 25 18 27
REMARK Flexibility Score: inf
ROOT
ATOM      1  C   UNL     1      32.641 -35.535  34.889  1.00  0.00     0.180 A 
ATOM      2  C   UNL     1      31.881 -34.653  34.103  1.00  0.00     0.208 A 
ATOM      3  C   UNL     1      31.399 -33.467  34.680  1.00  0.00     0.238 A 
ATOM      4  O   UNL     1      30.673 -32.709  33.986  1.00  0.00    -0.285 OA
ATOM      5  C   UNL     1      31.696 -33.171  36.033  1.00  0.00     0.111 A 
ATOM      6  C   UNL     1      31.293 -31.980  36.709  1.00  0.00     0.134 A 
ATOM      7  C   UNL     1      31.531 -31.852  38.082  1.00  0.00     0.093 A 
ATOM      8  C   UNL     1      32.216 -32.844  38.791  1.00  0.00     0.123 A 
ATOM      9  C   UNL     1      32.665 -33.982  38.126  1.00  0.00     0.094 A 
ATOM     10  C   UNL     1      32.411 -34.155  36.764  1.00  0.00     0.146 A 
ATOM     11  O   UNL     1      32.848 -35.261  36.172  1.00  0.00    -0.452 OA
ENDROOT
BRANCH   1  12
ATOM     12  C   UNL     1      33.204 -36.792  34.345  1.00  0.00     0.025 A 
ATOM     13  C   UNL     1      34.516 -36.847  33.842  1.00  0.00     0.016 A 
ATOM     14  C   UNL     1      35.036 -38.050  33.355  1.00  0.00     0.051 A 
ATOM     15  C   UNL     1      34.262 -39.214  33.376  1.00  0.00     0.157 A 
ATOM     16  C   UNL     1      32.438 -37.968  34.383  1.00  0.00     0.062 A 
ATOM     17  C   UNL     1      32.957 -39.175  33.894  1.00  0.00     0.158 A 
BRANCH  15  18
ATOM     18  O   UNL     1      34.807 -40.399  32.881  1.00  0.00    -0.504 OA
ATOM     19  H   UNL     1      34.755 -41.270  33.395  1.00  0.00     0.293 HD
ENDBRANCH  15  18
BRANCH  17  20
ATOM     20  O   UNL     1      32.182 -40.334  33.924  1.00  0.00    -0.504 OA
ATOM     21  H   UNL     1      32.313 -41.042  34.638  1.00  0.00     0.293 HD
ENDBRANCH  17  20
ENDBRANCH   1  12
BRANCH   2  22
ATOM     22  O   UNL     1      31.580 -34.976  32.776  1.00  0.00    -0.502 OA
ATOM     23  H   UNL     1      30.713 -34.699  32.332  1.00  0.00     0.293 HD
ENDBRANCH   2  22
BRANCH   6  24
ATOM     24  O   UNL     1      30.686 -30.891  36.076  1.00  0.00    -0.507 OA
ATOM     25  H   UNL     1      30.715 -30.714  35.084  1.00  0.00     0.293 HD
ENDBRANCH   6  24
BRANCH   8  26
ATOM     26  O   UNL     1      32.462 -32.701  40.154  1.00  0.00    -0.508 OA
ATOM     27  H   UNL     1      31.875 -32.120  40.741  1.00  0.00     0.293 HD
ENDBRANCH   8  26
TORSDOF 6
ENDMDL
MODEL 8
REMARK VINA RESULT:    -6.063      1.631      6.535
REMARK INTER + INTRA:          -7.633
REMARK INTER:                  -7.483
REMARK INTRA:                  -0.150
REMARK UNBOUND:                -0.330
REMARK SMILES O=c1c(O)c(-c2ccc(O)c(O)c2)oc2cc(O)cc(O)c12
REMARK SMILES IDX 5 1 3 2 2 3 1 4 22 5 20 6 19 7 17 8 16 9 15 10 14 11 6 12
REMARK SMILES IDX 7 13 8 14 9 15 13 16 11 17 10 18 12 20 4 22 21 24 18 26
REMARK H PARENT 10 19 12 21 4 23 21 25 18 27
REMARK Flexibility Score: inf
ROOT
ATOM      1  C   UNL     1      30.860 -36.158  34.854  1.00  0.00     0.180 A 
ATOM      2  C   UNL     1      32.026 -35.998  34.086  1.00  0.00     0.208 A 
ATOM      3  C   UNL     1      32.805 -34.843  34.261  1.00  0.00     0.238 A 
ATOM      4  O   UNL     1      33.817 -34.680  33.531  1.00  0.00    -0.285 OA
ATOM      5  C   UNL     1      32.416 -33.869  35.212  1.00  0.00     0.111 A 
ATOM      6  C   UNL     1      33.151 -32.679  35.501  1.00  0.00     0.134 A 
ATOM      7  C   UNL     1      32.606 -31.724  36.366  1.00  0.00     0.093 A 
ATOM      8  C   UNL     1      31.382 -31.945  37.005  1.00  0.00     0.123 A 
ATOM      9  C   UNL     1      30.687 -33.130  36.776  1.00  0.00     0.094 A 
ATOM     10  C   UNL     1      31.188 -34.086  35.889  1.00  0.00     0.146 A 
ATOM     11  O   UNL     1      30.487 -35.196  35.691  1.00  0.00    -0.452 OA
ENDROOT
BRANCH   1  12
ATOM     12  C   UNL     1      30.001 -37.359  34.744  1.00  0.00     0.025 A 
ATOM     13  C   UNL     1      28.688 -37.276  34.249  1.00  0.00     0.016 A 
ATOM     14  C   UNL     1      27.903 -38.426  34.131  1.00  0.00     0.051 A 
ATOM     15  C   UNL     1      28.420 -39.674  34.492  1.00  0.00     0.157 A 
ATOM     16  C   UNL     1      30.523 -38.617  35.087  1.00  0.00     0.062 A 
ATOM     17  C   UNL     1      29.737 -39.772  34.971  1.00  0.00     0.158 A 
BRANCH  15  18
ATOM     18  O   UNL     1      27.611 -40.804  34.366  1.00  0.00    -0.504 OA
ATOM     19  H   UNL     1      26.749 -40.792  33.833  1.00  0.00     0.293 HD
ENDBRANCH  15  18
BRANCH  17  20
ATOM     20  O   UNL     1      30.260 -41.015  35.326  1.00  0.00    -0.504 OA
ATOM     21  H   UNL     1      30.683 -41.173  36.233  1.00  0.00     0.293 HD
ENDBRANCH  17  20
ENDBRANCH   1  12
BRANCH   2  22
ATOM     22  O   UNL     1      32.379 -36.961  33.136  1.00  0.00    -0.502 OA
ATOM     23  H   UNL     1      32.293 -36.800  32.140  1.00  0.00     0.293 HD
ENDBRANCH   2  22
BRANCH   6  24
ATOM     24  O   UNL     1      34.422 -32.404  34.988  1.00  0.00    -0.507 OA
ATOM     25  H   UNL     1      34.664 -32.425  34.009  1.00  0.00     0.293 HD
ENDBRANCH   6  24
BRANCH   8  26
ATOM     26  O   UNL     1      30.855 -30.996  37.877  1.00  0.00    -0.508 OA
ATOM     27  H   UNL     1      30.211 -30.282  37.558  1.00  0.00     0.293 HD
ENDBRANCH   8  26
TORSDOF 6
ENDMDL
MODEL 9
REMARK VINA RESULT:    -5.867      4.195      8.374
REMARK INTER + INTRA:          -7.398
REMARK INTER:                  -7.424
REMARK INTRA:                   0.027
REMARK UNBOUND:                -0.330
REMARK SMILES O=c1c(O)c(-c2ccc(O)c(O)c2)oc2cc(O)cc(O)c12
REMARK SMILES IDX 5 1 3 2 2 3 1 4 22 5 20 6 19 7 17 8 16 9 15 10 14 11 6 12
REMARK SMILES IDX 7 13 8 14 9 15 13 16 11 17 10 18 12 20 4 22 21 24 18 26
REMARK H PARENT 10 19 12 21 4 23 21 25 18 27
REMARK Flexibility Score: inf
ROOT
ATOM      1  C   UNL     1      30.682 -32.603  40.245  1.00  0.00     0.180 A 
ATOM      2  C   UNL     1      29.554 -31.805  40.500  1.00  0.00     0.208 A 
ATOM      3  C   UNL     1      28.905 -31.917  41.740  1.00  0.00     0.238 A 
ATOM      4  O   UNL     1      27.864 -31.240  41.941  1.00  0.00    -0.285 OA
ATOM      5  C   UNL     1      29.401 -32.816  42.715  1.00  0.00     0.111 A 
ATOM      6  C   UNL     1      28.847 -32.983  44.020  1.00  0.00     0.134 A 
ATOM      7  C   UNL     1      29.338 -33.993  44.855  1.00  0.00     0.093 A 
ATOM      8  C   UNL     1      30.408 -34.800  44.458  1.00  0.00     0.123 A 
ATOM      9  C   UNL     1      30.995 -34.604  43.209  1.00  0.00     0.094 A 
ATOM     10  C   UNL     1      30.502 -33.629  42.340  1.00  0.00     0.146 A 
ATOM     11  O   UNL     1      31.084 -33.483  41.155  1.00  0.00    -0.452 OA
ENDROOT
BRANCH   1  12
ATOM     12  C   UNL     1      31.434 -32.523  38.972  1.00  0.00     0.025 A 
ATOM     13  C   UNL     1      31.795 -31.284  38.413  1.00  0.00     0.016 A 
ATOM     14  C   UNL     1      32.526 -31.232  37.223  1.00  0.00     0.051 A 
ATOM     15  C   UNL     1      32.918 -32.412  36.582  1.00  0.00     0.157 A 
ATOM     16  C   UNL     1      31.847 -33.705  38.336  1.00  0.00     0.062 A 
ATOM     17  C   UNL     1      32.579 -33.655  37.141  1.00  0.00     0.158 A 
BRANCH  15  18
ATOM     18  O   UNL     1      33.644 -32.328  35.394  1.00  0.00    -0.504 OA
ATOM     19  H   UNL     1      34.492 -32.862  35.244  1.00  0.00     0.293 HD
ENDBRANCH  15  18
BRANCH  17  20
ATOM     20  O   UNL     1      32.973 -34.835  36.511  1.00  0.00    -0.504 OA
ATOM     21  H   UNL     1      32.308 -35.424  36.024  1.00  0.00     0.293 HD
ENDBRANCH  17  20
ENDBRANCH   1  12
BRANCH   2  22
ATOM     22  O   UNL     1      29.068 -30.940  39.515  1.00  0.00    -0.502 OA
ATOM     23  H   UNL     1      28.407 -31.239  38.807  1.00  0.00     0.293 HD
ENDBRANCH   2  22
BRANCH   6  24
ATOM     24  O   UNL     1      27.839 -32.171  44.549  1.00  0.00    -0.507 OA
ATOM     25  H   UNL     1      27.998 -31.373  45.145  1.00  0.00     0.293 HD
ENDBRANCH   6  24
BRANCH   8  26
ATOM     26  O   UNL     1      30.901 -35.792  45.301  1.00  0.00    -0.508 OA
ATOM     27  H   UNL     1      30.293 -36.494  45.707  1.00  0.00     0.293 HD
ENDBRANCH   8  26
TORSDOF 6
ENDMDL
