MODEL 1
REMARK VINA RESULT:    -4.563      0.000      0.000
REMARK INTER + INTRA:          -9.750
REMARK INTER:                  -8.830
REMARK INTRA:                  -0.920
REMARK UNBOUND:                -0.920
REMARK SMILES CCCCCCCCCCCCCCCCCC(=O)[O-]
REMARK SMILES IDX 10 1 11 2 12 3 13 4 14 5 15 6 16 7 17 8 18 9 19 10 20 11
REMARK SMILES IDX 9 12 8 13 7 14 6 15 5 16 4 17 3 18 2 19 1 20
REMARK H PARENT
REMARK Flexibility Score: inf
ROOT
ATOM      1  C   UNL     1      -6.439 -11.448   0.201  1.00  0.00     0.000 C 
ENDROOT
BRANCH   1   2
ATOM      2  C   UNL     1      -6.746 -10.141  -0.540  1.00  0.00     0.000 C 
BRANCH   2   3
ATOM      3  C   UNL     1      -6.731  -8.945   0.424  1.00  0.00     0.000 C 
BRANCH   3   4
ATOM      4  C   UNL     1      -6.750  -7.594  -0.308  1.00  0.00     0.000 C 
BRANCH   4   5
ATOM      5  C   UNL     1      -6.590  -6.400   0.650  1.00  0.00     0.000 C 
BRANCH   5   6
ATOM      6  C   UNL     1      -7.414  -6.563   1.937  1.00  0.00     0.000 C 
BRANCH   6   7
ATOM      7  C   UNL     1      -8.708  -5.731   1.919  1.00  0.00     0.006 C 
BRANCH   7   8
ATOM      8  C   UNL     1      -9.964  -6.612   1.934  1.00  0.00     0.053 C 
BRANCH   8   9
ATOM      9  C   UNL     1     -10.463  -6.892   0.549  1.00  0.00     0.041 C 
ATOM     10  O   UNL     1     -10.134  -7.955  -0.040  1.00  0.00    -0.550 OA
ATOM     11  O   UNL     1     -11.321  -5.996  -0.076  1.00  0.00    -0.550 OA
ENDBRANCH   8   9
ENDBRANCH   7   8
ENDBRANCH   6   7
ENDBRANCH   5   6
ENDBRANCH   4   5
ENDBRANCH   3   4
ENDBRANCH   2   3
ENDBRANCH   1   2
BRANCH   1  12
ATOM     12  C   UNL     1      -5.222 -12.154  -0.415  1.00  0.00     0.000 C 
BRANCH  12  13
ATOM     13  C   UNL     1      -4.996 -13.561   0.163  1.00  0.00    -0.000 C 
BRANCH  13  14
ATOM     14  C   UNL     1      -6.087 -13.969   1.167  1.00  0.00    -0.000 C 
BRANCH  14  15
ATOM     15  C   UNL     1      -6.815 -15.265   0.767  1.00  0.00    -0.000 C 
BRANCH  15  16
ATOM     16  C   UNL     1      -6.221 -16.560   1.359  1.00  0.00    -0.000 C 
BRANCH  16  17
ATOM     17  C   UNL     1      -6.684 -17.862   0.677  1.00  0.00    -0.000 C 
BRANCH  17  18
ATOM     18  C   UNL     1      -5.605 -18.577  -0.161  1.00  0.00    -0.000 C 
BRANCH  18  19
ATOM     19  C   UNL     1      -5.959 -20.016  -0.579  1.00  0.00    -0.003 C 
ATOM     20  C   UNL     1      -7.465 -20.260  -0.658  1.00  0.00     0.004 C 
ENDBRANCH  18  19
ENDBRANCH  17  18
ENDBRANCH  16  17
ENDBRANCH  15  16
ENDBRANCH  14  15
ENDBRANCH  13  14
ENDBRANCH  12  13
ENDBRANCH   1  12
TORSDOF 16
ENDMDL
MODEL 2
REMARK VINA RESULT:    -4.523      4.117      9.882
REMARK INTER + INTRA:          -9.673
REMARK INTER:                  -8.097
REMARK INTRA:                  -1.576
REMARK UNBOUND:                -0.920
REMARK SMILES CCCCCCCCCCCCCCCCCC(=O)[O-]
REMARK SMILES IDX 10 1 11 2 12 3 13 4 14 5 15 6 16 7 17 8 18 9 19 10 20 11
REMARK SMILES IDX 9 12 8 13 7 14 6 15 5 16 4 17 3 18 2 19 1 20
REMARK H PARENT
REMARK Flexibility Score: inf
ROOT
ATOM      1  C   UNL     1      -7.073  -9.310  -0.276  1.00  0.00     0.000 C 
ENDROOT
BRANCH   1   2
ATOM      2  C   UNL     1      -6.386 -10.639  -0.610  1.00  0.00     0.000 C 
BRANCH   2   3
ATOM      3  C   UNL     1      -6.468 -11.614   0.574  1.00  0.00     0.000 C 
BRANCH   3   4
ATOM      4  C   UNL     1      -5.146 -12.357   0.823  1.00  0.00     0.000 C 
BRANCH   4   5
ATOM      5  C   UNL     1      -5.232 -13.852   0.469  1.00  0.00     0.000 C 
BRANCH   5   6
ATOM      6  C   UNL     1      -6.682 -14.334   0.297  1.00  0.00     0.000 C 
BRANCH   6   7
ATOM      7  C   UNL     1      -6.990 -15.589   1.131  1.00  0.00     0.006 C 
BRANCH   7   8
ATOM      8  C   UNL     1      -5.967 -16.707   0.895  1.00  0.00     0.053 C 
BRANCH   8   9
ATOM      9  C   UNL     1      -6.548 -18.060   1.171  1.00  0.00     0.041 C 
ATOM     10  O   UNL     1      -7.029 -18.747   0.231  1.00  0.00    -0.550 OA
ATOM     11  O   UNL     1      -6.526 -18.578   2.460  1.00  0.00    -0.550 OA
ENDBRANCH   8   9
ENDBRANCH   7   8
ENDBRANCH   6   7
ENDBRANCH   5   6
ENDBRANCH   4   5
ENDBRANCH   3   4
ENDBRANCH   2   3
ENDBRANCH   1   2
BRANCH   1  12
ATOM     12  C   UNL     1      -7.538  -9.285   1.188  1.00  0.00     0.000 C 
BRANCH  12  13
ATOM     13  C   UNL     1      -8.970  -8.749   1.347  1.00  0.00    -0.000 C 
BRANCH  13  14
ATOM     14  C   UNL     1      -9.523  -8.145   0.045  1.00  0.00    -0.000 C 
BRANCH  14  15
ATOM     15  C   UNL     1     -10.491  -6.974   0.292  1.00  0.00    -0.000 C 
BRANCH  15  16
ATOM     16  C   UNL     1     -10.526  -6.447   1.741  1.00  0.00    -0.000 C 
BRANCH  16  17
ATOM     17  C   UNL     1      -9.699  -5.171   1.993  1.00  0.00    -0.000 C 
BRANCH  17  18
ATOM     18  C   UNL     1      -8.304  -5.409   2.606  1.00  0.00    -0.000 C 
BRANCH  18  19
ATOM     19  C   UNL     1      -7.137  -4.789   1.816  1.00  0.00    -0.003 C 
ATOM     20  C   UNL     1      -6.390  -5.810   0.958  1.00  0.00     0.004 C 
ENDBRANCH  18  19
ENDBRANCH  17  18
ENDBRANCH  16  17
ENDBRANCH  15  16
ENDBRANCH  14  15
ENDBRANCH  13  14
ENDBRANCH  12  13
ENDBRANCH   1  12
TORSDOF 16
ENDMDL
MODEL 3
REMARK VINA RESULT:    -4.477      1.208      1.696
REMARK INTER + INTRA:          -9.584
REMARK INTER:                  -8.501
REMARK INTRA:                  -1.084
REMARK UNBOUND:                -0.920
REMARK SMILES CCCCCCCCCCCCCCCCCC(=O)[O-]
REMARK SMILES IDX 10 1 11 2 12 3 13 4 14 5 15 6 16 7 17 8 18 9 19 10 20 11
REMARK SMILES IDX 9 12 8 13 7 14 6 15 5 16 4 17 3 18 2 19 1 20
REMARK H PARENT
REMARK Flexibility Score: inf
ROOT
ATOM      1  C   UNL     1      -6.184 -11.888   1.478  1.00  0.00     0.000 C 
ENDROOT
BRANCH   1   2
ATOM      2  C   UNL     1      -6.769 -11.425   0.138  1.00  0.00     0.000 C 
BRANCH   2   3
ATOM      3  C   UNL     1      -6.244 -10.032  -0.239  1.00  0.00     0.000 C 
BRANCH   3   4
ATOM      4  C   UNL     1      -6.019  -9.132   0.987  1.00  0.00     0.000 C 
BRANCH   4   5
ATOM      5  C   UNL     1      -7.120  -8.069   1.150  1.00  0.00     0.000 C 
BRANCH   5   6
ATOM      6  C   UNL     1      -7.960  -7.891  -0.125  1.00  0.00     0.000 C 
BRANCH   6   7
ATOM      7  C   UNL     1      -9.444  -8.233   0.092  1.00  0.00     0.006 C 
BRANCH   7   8
ATOM      8  C   UNL     1     -10.046  -7.472   1.281  1.00  0.00     0.053 C 
BRANCH   8   9
ATOM      9  C   UNL     1     -10.555  -6.122   0.876  1.00  0.00     0.041 C 
ATOM     10  O   UNL     1     -11.367  -6.012  -0.079  1.00  0.00    -0.550 OA
ATOM     11  O   UNL     1     -10.161  -4.991   1.579  1.00  0.00    -0.550 OA
ENDBRANCH   8   9
ENDBRANCH   7   8
ENDBRANCH   6   7
ENDBRANCH   5   6
ENDBRANCH   4   5
ENDBRANCH   3   4
ENDBRANCH   2   3
ENDBRANCH   1   2
BRANCH   1  12
ATOM     12  C   UNL     1      -5.173 -13.026   1.272  1.00  0.00     0.000 C 
BRANCH  12  13
ATOM     13  C   UNL     1      -5.689 -14.114   0.315  1.00  0.00    -0.000 C 
BRANCH  13  14
ATOM     14  C   UNL     1      -6.726 -15.037   0.976  1.00  0.00    -0.000 C 
BRANCH  14  15
ATOM     15  C   UNL     1      -6.127 -15.905   2.097  1.00  0.00    -0.000 C 
BRANCH  15  16
ATOM     16  C   UNL     1      -5.854 -17.374   1.714  1.00  0.00    -0.000 C 
BRANCH  16  17
ATOM     17  C   UNL     1      -6.803 -17.960   0.651  1.00  0.00    -0.000 C 
BRANCH  17  18
ATOM     18  C   UNL     1      -6.346 -19.298   0.036  1.00  0.00    -0.000 C 
BRANCH  18  19
ATOM     19  C   UNL     1      -7.471 -20.135  -0.599  1.00  0.00    -0.003 C 
ATOM     20  C   UNL     1      -7.002 -20.944  -1.807  1.00  0.00     0.004 C 
ENDBRANCH  18  19
ENDBRANCH  17  18
ENDBRANCH  16  17
ENDBRANCH  15  16
ENDBRANCH  14  15
ENDBRANCH  13  14
ENDBRANCH  12  13
ENDBRANCH   1  12
TORSDOF 16
ENDMDL
MODEL 4
REMARK VINA RESULT:    -4.456      0.945      2.259
REMARK INTER + INTRA:          -9.543
REMARK INTER:                  -8.105
REMARK INTRA:                  -1.438
REMARK UNBOUND:                -0.920
REMARK SMILES CCCCCCCCCCCCCCCCCC(=O)[O-]
REMARK SMILES IDX 10 1 11 2 12 3 13 4 14 5 15 6 16 7 17 8 18 9 19 10 20 11
REMARK SMILES IDX 9 12 8 13 7 14 6 15 5 16 4 17 3 18 2 19 1 20
REMARK H PARENT
REMARK Flexibility Score: inf
ROOT
ATOM      1  C   UNL     1      -7.561  -8.900   1.122  1.00  0.00     0.000 C 
ENDROOT
BRANCH   1   2
ATOM      2  C   UNL     1      -7.461  -8.219  -0.248  1.00  0.00     0.000 C 
BRANCH   2   3
ATOM      3  C   UNL     1      -6.742  -6.866  -0.139  1.00  0.00     0.000 C 
BRANCH   3   4
ATOM      4  C   UNL     1      -6.169  -6.612   1.265  1.00  0.00     0.000 C 
BRANCH   4   5
ATOM      5  C   UNL     1      -6.629  -5.269   1.858  1.00  0.00     0.000 C 
BRANCH   5   6
ATOM      6  C   UNL     1      -7.868  -5.416   2.756  1.00  0.00     0.000 C 
BRANCH   6   7
ATOM      7  C   UNL     1      -9.171  -5.029   2.033  1.00  0.00     0.006 C 
BRANCH   7   8
ATOM      8  C   UNL     1     -10.129  -6.219   1.890  1.00  0.00     0.053 C 
BRANCH   8   9
ATOM      9  C   UNL     1     -10.792  -6.240   0.547  1.00  0.00     0.041 C 
ATOM     10  O   UNL     1     -11.269  -5.181   0.060  1.00  0.00    -0.550 OA
ATOM     11  O   UNL     1     -10.849  -7.420  -0.183  1.00  0.00    -0.550 OA
ENDBRANCH   8   9
ENDBRANCH   7   8
ENDBRANCH   6   7
ENDBRANCH   5   6
ENDBRANCH   4   5
ENDBRANCH   3   4
ENDBRANCH   2   3
ENDBRANCH   1   2
BRANCH   1  12
ATOM     12  C   UNL     1      -7.099 -10.363   1.042  1.00  0.00     0.000 C 
BRANCH  12  13
ATOM     13  C   UNL     1      -6.384 -10.689  -0.280  1.00  0.00    -0.000 C 
BRANCH  13  14
ATOM     14  C   UNL     1      -5.342 -11.810  -0.126  1.00  0.00    -0.000 C 
BRANCH  14  15
ATOM     15  C   UNL     1      -5.815 -12.944   0.801  1.00  0.00    -0.000 C 
BRANCH  15  16
ATOM     16  C   UNL     1      -6.533 -14.112   0.094  1.00  0.00    -0.000 C 
BRANCH  16  17
ATOM     17  C   UNL     1      -6.855 -15.321   0.994  1.00  0.00    -0.000 C 
BRANCH  17  18
ATOM     18  C   UNL     1      -5.931 -16.541   0.803  1.00  0.00    -0.000 C 
BRANCH  18  19
ATOM     19  C   UNL     1      -6.625 -17.907   0.953  1.00  0.00    -0.003 C 
ATOM     20  C   UNL     1      -6.105 -18.950  -0.035  1.00  0.00     0.004 C 
ENDBRANCH  18  19
ENDBRANCH  17  18
ENDBRANCH  16  17
ENDBRANCH  15  16
ENDBRANCH  14  15
ENDBRANCH  13  14
ENDBRANCH  12  13
ENDBRANCH   1  12
TORSDOF 16
ENDMDL
MODEL 5
REMARK VINA RESULT:    -4.450      4.505      9.832
REMARK INTER + INTRA:          -9.531
REMARK INTER:                  -8.166
REMARK INTRA:                  -1.365
REMARK UNBOUND:                -0.920
REMARK SMILES CCCCCCCCCCCCCCCCCC(=O)[O-]
REMARK SMILES IDX 10 1 11 2 12 3 13 4 14 5 15 6 16 7 17 8 18 9 19 10 20 11
REMARK SMILES IDX 9 12 8 13 7 14 6 15 5 16 4 17 3 18 2 19 1 20
REMARK H PARENT
REMARK Flexibility Score: inf
ROOT
ATOM      1  C   UNL     1      -6.042 -11.488   0.085  1.00  0.00     0.000 C 
ENDROOT
BRANCH   1   2
ATOM      2  C   UNL     1      -5.284 -12.805  -0.123  1.00  0.00     0.000 C 
BRANCH   2   3
ATOM      3  C   UNL     1      -6.214 -14.012   0.070  1.00  0.00     0.000 C 
BRANCH   3   4
ATOM      4  C   UNL     1      -6.560 -14.263   1.546  1.00  0.00     0.000 C 
BRANCH   4   5
ATOM      5  C   UNL     1      -6.066 -15.633   2.044  1.00  0.00     0.000 C 
BRANCH   5   6
ATOM      6  C   UNL     1      -5.770 -16.606   0.893  1.00  0.00     0.000 C 
BRANCH   6   7
ATOM      7  C   UNL     1      -6.884 -17.649   0.699  1.00  0.00     0.006 C 
BRANCH   7   8
ATOM      8  C   UNL     1      -6.340 -19.084   0.689  1.00  0.00     0.053 C 
BRANCH   8   9
ATOM      9  C   UNL     1      -6.622 -19.776  -0.609  1.00  0.00     0.041 C 
ATOM     10  O   UNL     1      -7.713 -20.382  -0.780  1.00  0.00    -0.550 OA
ATOM     11  O   UNL     1      -5.698 -19.719  -1.644  1.00  0.00    -0.550 OA
ENDBRANCH   8   9
ENDBRANCH   7   8
ENDBRANCH   6   7
ENDBRANCH   5   6
ENDBRANCH   4   5
ENDBRANCH   3   4
ENDBRANCH   2   3
ENDBRANCH   1   2
BRANCH   1  12
ATOM     12  C   UNL     1      -5.458 -10.699   1.266  1.00  0.00     0.000 C 
BRANCH  12  13
ATOM     13  C   UNL     1      -6.509 -10.365   2.337  1.00  0.00    -0.000 C 
BRANCH  13  14
ATOM     14  C   UNL     1      -6.755  -8.853   2.472  1.00  0.00    -0.000 C 
BRANCH  14  15
ATOM     15  C   UNL     1      -6.100  -8.038   1.343  1.00  0.00    -0.000 C 
BRANCH  15  16
ATOM     16  C   UNL     1      -7.079  -7.448   0.306  1.00  0.00    -0.000 C 
BRANCH  16  17
ATOM     17  C   UNL     1      -7.948  -8.483  -0.434  1.00  0.00    -0.000 C 
BRANCH  17  18
ATOM     18  C   UNL     1      -9.430  -8.514  -0.007  1.00  0.00    -0.000 C 
BRANCH  18  19
ATOM     19  C   UNL     1      -9.911  -7.262   0.746  1.00  0.00    -0.003 C 
ATOM     20  C   UNL     1     -11.157  -6.634   0.123  1.00  0.00     0.004 C 
ENDBRANCH  18  19
ENDBRANCH  17  18
ENDBRANCH  16  17
ENDBRANCH  15  16
ENDBRANCH  14  15
ENDBRANCH  13  14
ENDBRANCH  12  13
ENDBRANCH   1  12
TORSDOF 16
ENDMDL
MODEL 6
REMARK VINA RESULT:    -4.379      3.720      9.151
REMARK INTER + INTRA:          -9.394
REMARK INTER:                  -7.285
REMARK INTRA:                  -2.109
REMARK UNBOUND:                -0.920
REMARK SMILES CCCCCCCCCCCCCCCCCC(=O)[O-]
REMARK SMILES IDX 10 1 11 2 12 3 13 4 14 5 15 6 16 7 17 8 18 9 19 10 20 11
REMARK SMILES IDX 9 12 8 13 7 14 6 15 5 16 4 17 3 18 2 19 1 20
REMARK H PARENT
REMARK Flexibility Score: inf
ROOT
ATOM      1  C   UNL     1      -9.130  -7.621  -0.045  1.00  0.00     0.000 C 
ENDROOT
BRANCH   1   2
ATOM      2  C   UNL     1      -8.714  -8.832   0.799  1.00  0.00     0.000 C 
BRANCH   2   3
ATOM      3  C   UNL     1      -7.582  -9.616   0.117  1.00  0.00     0.000 C 
BRANCH   3   4
ATOM      4  C   UNL     1      -6.300  -9.663   0.964  1.00  0.00     0.000 C 
BRANCH   4   5
ATOM      5  C   UNL     1      -6.591  -9.753   2.472  1.00  0.00     0.000 C 
BRANCH   5   6
ATOM      6  C   UNL     1      -7.009 -11.166   2.908  1.00  0.00     0.000 C 
BRANCH   6   7
ATOM      7  C   UNL     1      -5.893 -12.204   2.693  1.00  0.00     0.006 C 
BRANCH   7   8
ATOM      8  C   UNL     1      -6.452 -13.610   2.434  1.00  0.00     0.053 C 
BRANCH   8   9
ATOM      9  C   UNL     1      -6.381 -13.977   0.984  1.00  0.00     0.041 C 
ATOM     10  O   UNL     1      -6.003 -13.129   0.133  1.00  0.00    -0.550 OA
ATOM     11  O   UNL     1      -6.697 -15.267   0.576  1.00  0.00    -0.550 OA
ENDBRANCH   8   9
ENDBRANCH   7   8
ENDBRANCH   6   7
ENDBRANCH   5   6
ENDBRANCH   4   5
ENDBRANCH   3   4
ENDBRANCH   2   3
ENDBRANCH   1   2
BRANCH   1  12
ATOM     12  C   UNL     1     -10.594  -7.242   0.224  1.00  0.00     0.000 C 
BRANCH  12  13
ATOM     13  C   UNL     1     -10.747  -5.814   0.773  1.00  0.00    -0.000 C 
BRANCH  13  14
ATOM     14  C   UNL     1     -10.143  -5.654   2.179  1.00  0.00    -0.000 C 
BRANCH  14  15
ATOM     15  C   UNL     1      -9.441  -4.299   2.377  1.00  0.00    -0.000 C 
BRANCH  15  16
ATOM     16  C   UNL     1      -7.901  -4.360   2.430  1.00  0.00    -0.000 C 
BRANCH  16  17
ATOM     17  C   UNL     1      -7.302  -5.781   2.433  1.00  0.00    -0.000 C 
BRANCH  17  18
ATOM     18  C   UNL     1      -5.918  -5.906   1.765  1.00  0.00    -0.000 C 
BRANCH  18  19
ATOM     19  C   UNL     1      -5.946  -5.983   0.228  1.00  0.00    -0.003 C 
ATOM     20  C   UNL     1      -5.194  -4.833  -0.440  1.00  0.00     0.004 C 
ENDBRANCH  18  19
ENDBRANCH  17  18
ENDBRANCH  16  17
ENDBRANCH  15  16
ENDBRANCH  14  15
ENDBRANCH  13  14
ENDBRANCH  12  13
ENDBRANCH   1  12
TORSDOF 16
ENDMDL
MODEL 7
REMARK VINA RESULT:    -4.329      3.682      9.242
REMARK INTER + INTRA:          -9.299
REMARK INTER:                  -7.225
REMARK INTRA:                  -2.074
REMARK UNBOUND:                -0.920
REMARK SMILES CCCCCCCCCCCCCCCCCC(=O)[O-]
REMARK SMILES IDX 10 1 11 2 12 3 13 4 14 5 15 6 16 7 17 8 18 9 19 10 20 11
REMARK SMILES IDX 9 12 8 13 7 14 6 15 5 16 4 17 3 18 2 19 1 20
REMARK H PARENT
REMARK Flexibility Score: inf
ROOT
ATOM      1  C   UNL     1      -6.423  -6.599   0.224  1.00  0.00     0.000 C 
ENDROOT
BRANCH   1   2
ATOM      2  C   UNL     1      -6.064  -7.408   1.476  1.00  0.00     0.000 C 
BRANCH   2   3
ATOM      3  C   UNL     1      -7.267  -8.229   1.965  1.00  0.00     0.000 C 
BRANCH   3   4
ATOM      4  C   UNL     1      -7.099  -9.735   1.710  1.00  0.00     0.000 C 
BRANCH   4   5
ATOM      5  C   UNL     1      -7.469 -10.137   0.272  1.00  0.00     0.000 C 
BRANCH   5   6
ATOM      6  C   UNL     1      -6.259 -10.645  -0.528  1.00  0.00     0.000 C 
BRANCH   6   7
ATOM      7  C   UNL     1      -5.408 -11.653   0.265  1.00  0.00     0.006 C 
BRANCH   7   8
ATOM      8  C   UNL     1      -5.727 -13.105  -0.115  1.00  0.00     0.053 C 
BRANCH   8   9
ATOM      9  C   UNL     1      -6.339 -13.856   1.027  1.00  0.00     0.041 C 
ATOM     10  O   UNL     1      -6.724 -13.241   2.056  1.00  0.00    -0.550 OA
ATOM     11  O   UNL     1      -6.518 -15.231   0.940  1.00  0.00    -0.550 OA
ENDBRANCH   8   9
ENDBRANCH   7   8
ENDBRANCH   6   7
ENDBRANCH   5   6
ENDBRANCH   4   5
ENDBRANCH   3   4
ENDBRANCH   2   3
ENDBRANCH   1   2
BRANCH   1  12
ATOM     12  C   UNL     1      -5.596  -5.307   0.150  1.00  0.00     0.000 C 
BRANCH  12  13
ATOM     13  C   UNL     1      -5.435  -4.625   1.519  1.00  0.00    -0.000 C 
BRANCH  13  14
ATOM     14  C   UNL     1      -6.388  -3.431   1.700  1.00  0.00    -0.000 C 
BRANCH  14  15
ATOM     15  C   UNL     1      -7.313  -3.585   2.920  1.00  0.00    -0.000 C 
BRANCH  15  16
ATOM     16  C   UNL     1      -8.261  -4.801   2.876  1.00  0.00    -0.000 C 
BRANCH  16  17
ATOM     17  C   UNL     1      -9.613  -4.551   2.179  1.00  0.00    -0.000 C 
BRANCH  17  18
ATOM     18  C   UNL     1     -10.460  -5.815   1.928  1.00  0.00    -0.000 C 
BRANCH  18  19
ATOM     19  C   UNL     1     -10.664  -6.172   0.445  1.00  0.00    -0.003 C 
ATOM     20  C   UNL     1     -10.079  -7.534   0.074  1.00  0.00     0.004 C 
ENDBRANCH  18  19
ENDBRANCH  17  18
ENDBRANCH  16  17
ENDBRANCH  15  16
ENDBRANCH  14  15
ENDBRANCH  13  14
ENDBRANCH  12  13
ENDBRANCH   1  12
TORSDOF 16
ENDMDL
MODEL 8
REMARK VINA RESULT:    -4.313      3.104      5.862
REMARK INTER + INTRA:          -9.267
REMARK INTER:                  -7.854
REMARK INTRA:                  -1.413
REMARK UNBOUND:                -0.920
REMARK SMILES CCCCCCCCCCCCCCCCCC(=O)[O-]
REMARK SMILES IDX 10 1 11 2 12 3 13 4 14 5 15 6 16 7 17 8 18 9 19 10 20 11
REMARK SMILES IDX 9 12 8 13 7 14 6 15 5 16 4 17 3 18 2 19 1 20
REMARK H PARENT
REMARK Flexibility Score: inf
ROOT
ATOM      1  C   UNL     1     -10.604  -6.478   1.669  1.00  0.00     0.000 C 
ENDROOT
BRANCH   1   2
ATOM      2  C   UNL     1      -9.821  -5.477   2.527  1.00  0.00     0.000 C 
BRANCH   2   3
ATOM      3  C   UNL     1      -8.450  -5.172   1.905  1.00  0.00     0.000 C 
BRANCH   3   4
ATOM      4  C   UNL     1      -7.282  -5.615   2.800  1.00  0.00     0.000 C 
BRANCH   4   5
ATOM      5  C   UNL     1      -5.950  -5.703   2.034  1.00  0.00     0.000 C 
BRANCH   5   6
ATOM      6  C   UNL     1      -6.152  -5.837   0.516  1.00  0.00     0.000 C 
BRANCH   6   7
ATOM      7  C   UNL     1      -5.246  -4.887  -0.286  1.00  0.00     0.006 C 
BRANCH   7   8
ATOM      8  C   UNL     1      -5.147  -3.498   0.358  1.00  0.00     0.053 C 
BRANCH   8   9
ATOM      9  C   UNL     1      -5.093  -2.411  -0.671  1.00  0.00     0.041 C 
ATOM     10  O   UNL     1      -4.942  -1.211  -0.319  1.00  0.00    -0.550 OA
ATOM     11  O   UNL     1      -5.171  -2.726  -2.022  1.00  0.00    -0.550 OA
ENDBRANCH   8   9
ENDBRANCH   7   8
ENDBRANCH   6   7
ENDBRANCH   5   6
ENDBRANCH   4   5
ENDBRANCH   3   4
ENDBRANCH   2   3
ENDBRANCH   1   2
BRANCH   1  12
ATOM     12  C   UNL     1      -9.735  -7.013   0.520  1.00  0.00     0.000 C 
BRANCH  12  13
ATOM     13  C   UNL     1      -9.139  -8.398   0.821  1.00  0.00    -0.000 C 
BRANCH  13  14
ATOM     14  C   UNL     1      -8.302  -8.947  -0.347  1.00  0.00    -0.000 C 
BRANCH  14  15
ATOM     15  C   UNL     1      -6.888  -9.380   0.082  1.00  0.00    -0.000 C 
BRANCH  15  16
ATOM     16  C   UNL     1      -6.379 -10.685  -0.563  1.00  0.00    -0.000 C 
BRANCH  16  17
ATOM     17  C   UNL     1      -5.639 -11.642   0.392  1.00  0.00    -0.000 C 
BRANCH  17  18
ATOM     18  C   UNL     1      -6.478 -12.832   0.900  1.00  0.00    -0.000 C 
BRANCH  18  19
ATOM     19  C   UNL     1      -5.928 -14.219   0.520  1.00  0.00    -0.003 C 
ATOM     20  C   UNL     1      -6.884 -15.357   0.875  1.00  0.00     0.004 C 
ENDBRANCH  18  19
ENDBRANCH  17  18
ENDBRANCH  16  17
ENDBRANCH  15  16
ENDBRANCH  14  15
ENDBRANCH  13  14
ENDBRANCH  12  13
ENDBRANCH   1  12
TORSDOF 16
ENDMDL
MODEL 9
REMARK VINA RESULT:    -4.174      4.004      9.729
REMARK INTER + INTRA:          -8.998
REMARK INTER:                  -7.706
REMARK INTRA:                  -1.293
REMARK UNBOUND:                -0.920
REMARK SMILES CCCCCCCCCCCCCCCCCC(=O)[O-]
REMARK SMILES IDX 10 1 11 2 12 3 13 4 14 5 15 6 16 7 17 8 18 9 19 10 20 11
REMARK SMILES IDX 9 12 8 13 7 14 6 15 5 16 4 17 3 18 2 19 1 20
REMARK H PARENT
REMARK Flexibility Score: inf
ROOT
ATOM      1  C   UNL     1      -7.752  -9.050  -0.191  1.00  0.00     0.000 C 
ENDROOT
BRANCH   1   2
ATOM      2  C   UNL     1      -6.776 -10.143  -0.641  1.00  0.00     0.000 C 
BRANCH   2   3
ATOM      3  C   UNL     1      -6.431 -11.086   0.521  1.00  0.00     0.000 C 
BRANCH   3   4
ATOM      4  C   UNL     1      -5.015 -11.673   0.407  1.00  0.00     0.000 C 
BRANCH   4   5
ATOM      5  C   UNL     1      -4.992 -13.019  -0.340  1.00  0.00     0.000 C 
BRANCH   5   6
ATOM      6  C   UNL     1      -5.005 -14.222   0.616  1.00  0.00     0.000 C 
BRANCH   6   7
ATOM      7  C   UNL     1      -6.373 -14.926   0.661  1.00  0.00     0.006 C 
BRANCH   7   8
ATOM      8  C   UNL     1      -6.500 -15.868   1.865  1.00  0.00     0.053 C 
BRANCH   8   9
ATOM      9  C   UNL     1      -6.132 -17.277   1.510  1.00  0.00     0.041 C 
ATOM     10  O   UNL     1      -6.245 -18.195   2.364  1.00  0.00    -0.550 OA
ATOM     11  O   UNL     1      -5.701 -17.580   0.225  1.00  0.00    -0.550 OA
ENDBRANCH   8   9
ENDBRANCH   7   8
ENDBRANCH   6   7
ENDBRANCH   5   6
ENDBRANCH   4   5
ENDBRANCH   3   4
ENDBRANCH   2   3
ENDBRANCH   1   2
BRANCH   1  12
ATOM     12  C   UNL     1      -7.115  -7.658  -0.320  1.00  0.00     0.000 C 
BRANCH  12  13
ATOM     13  C   UNL     1      -6.372  -7.224   0.954  1.00  0.00    -0.000 C 
BRANCH  13  14
ATOM     14  C   UNL     1      -6.574  -5.733   1.276  1.00  0.00    -0.000 C 
BRANCH  14  15
ATOM     15  C   UNL     1      -7.429  -5.505   2.537  1.00  0.00    -0.000 C 
BRANCH  15  16
ATOM     16  C   UNL     1      -8.689  -4.641   2.327  1.00  0.00    -0.000 C 
BRANCH  16  17
ATOM     17  C   UNL     1     -10.025  -5.351   2.625  1.00  0.00    -0.000 C 
BRANCH  17  18
ATOM     18  C   UNL     1     -10.153  -6.771   2.037  1.00  0.00    -0.000 C 
BRANCH  18  19
ATOM     19  C   UNL     1     -10.439  -6.821   0.526  1.00  0.00    -0.003 C 
ATOM     20  C   UNL     1     -11.559  -5.874   0.099  1.00  0.00     0.004 C 
ENDBRANCH  18  19
ENDBRANCH  17  18
ENDBRANCH  16  17
ENDBRANCH  15  16
ENDBRANCH  14  15
ENDBRANCH  13  14
ENDBRANCH  12  13
ENDBRANCH   1  12
TORSDOF 16
ENDMDL
