MODEL 1
REMARK VINA RESULT:    -5.314      0.000      0.000
REMARK INTER + INTRA:          -5.314
REMARK INTER:                  -5.314
REMARK INTRA:                   0.000
REMARK UNBOUND:                 0.000
REMARK SMILES CC1=CC(=O)[C@H]2C[C@@H]1C2(C)C
REMARK SMILES IDX 1 1 2 2 3 3 4 4 5 5 6 6 7 7 8 8 9 9 10 10 11 11
REMARK H PARENT
REMARK Flexibility Score: inf
ROOT
ATOM      1  C   UNL     1     -15.253  12.519 -28.664  1.00  0.00     0.040 C 
ATOM      2  C   UNL     1     -14.759  13.140 -29.932  1.00  0.00    -0.066 C 
ATOM      3  C   UNL     1     -15.271  12.781 -31.142  1.00  0.00     0.047 C 
ATOM      4  C   UNL     1     -14.671  13.452 -32.341  1.00  0.00     0.159 C 
ATOM      5  O   UNL     1     -15.031  13.178 -33.515  1.00  0.00    -0.295 OA
ATOM      6  C   UNL     1     -13.590  14.490 -32.037  1.00  0.00     0.067 C 
ATOM      7  C   UNL     1     -14.182  15.326 -30.882  1.00  0.00     0.021 C 
ATOM      8  C   UNL     1     -13.661  14.225 -29.932  1.00  0.00     0.022 C 
ATOM      9  C   UNL     1     -12.593  13.881 -31.011  1.00  0.00    -0.019 C 
ATOM     10  C   UNL     1     -11.308  14.733 -30.860  1.00  0.00     0.012 C 
ATOM     11  C   UNL     1     -12.173  12.393 -31.182  1.00  0.00     0.012 C 
ENDROOT
TORSDOF 0
ENDMDL
MODEL 2
REMARK VINA RESULT:    -5.170     12.106     13.517
REMARK INTER + INTRA:          -5.170
REMARK INTER:                  -5.170
REMARK INTRA:                   0.000
REMARK UNBOUND:                 0.000
REMARK SMILES CC1=CC(=O)[C@H]2C[C@@H]1C2(C)C
REMARK SMILES IDX 1 1 2 2 3 3 4 4 5 5 6 6 7 7 8 8 9 9 10 10 11 11
REMARK H PARENT
REMARK Flexibility Score: inf
ROOT
ATOM      1  C   UNL     1     -29.820  13.611 -30.496  1.00  0.00     0.040 C 
ATOM      2  C   UNL     1     -28.362  13.276 -30.501  1.00  0.00    -0.066 C 
ATOM      3  C   UNL     1     -27.425  14.200 -30.853  1.00  0.00     0.047 C 
ATOM      4  C   UNL     1     -26.000  13.733 -30.847  1.00  0.00     0.159 C 
ATOM      5  O   UNL     1     -25.047  14.480 -31.191  1.00  0.00    -0.295 OA
ATOM      6  C   UNL     1     -25.787  12.288 -30.398  1.00  0.00     0.067 C 
ATOM      7  C   UNL     1     -26.665  12.151 -29.135  1.00  0.00     0.021 C 
ATOM      8  C   UNL     1     -27.847  11.880 -30.091  1.00  0.00     0.022 C 
ATOM      9  C   UNL     1     -26.811  11.382 -31.139  1.00  0.00    -0.019 C 
ATOM     10  C   UNL     1     -26.488   9.875 -30.979  1.00  0.00     0.012 C 
ATOM     11  C   UNL     1     -27.093  11.663 -32.643  1.00  0.00     0.012 C 
ENDROOT
TORSDOF 0
ENDMDL
MODEL 3
REMARK VINA RESULT:    -5.105     13.395     14.634
REMARK INTER + INTRA:          -5.105
REMARK INTER:                  -5.105
REMARK INTRA:                   0.000
REMARK UNBOUND:                 0.000
REMARK SMILES CC1=CC(=O)[C@H]2C[C@@H]1C2(C)C
REMARK SMILES IDX 1 1 2 2 3 3 4 4 5 5 6 6 7 7 8 8 9 9 10 10 11 11
REMARK H PARENT
REMARK Flexibility Score: inf
ROOT
ATOM      1  C   UNL     1     -26.418  10.032 -31.786  1.00  0.00     0.040 C 
ATOM      2  C   UNL     1     -26.961  10.809 -30.629  1.00  0.00    -0.066 C 
ATOM      3  C   UNL     1     -26.882  10.333 -29.356  1.00  0.00     0.047 C 
ATOM      4  C   UNL     1     -27.490  11.192 -28.288  1.00  0.00     0.159 C 
ATOM      5  O   UNL     1     -27.516  10.843 -27.079  1.00  0.00    -0.295 OA
ATOM      6  C   UNL     1     -28.080  12.517 -28.771  1.00  0.00     0.067 C 
ATOM      7  C   UNL     1     -27.003  13.086 -29.720  1.00  0.00     0.021 C 
ATOM      8  C   UNL     1     -27.620  12.192 -30.818  1.00  0.00     0.022 C 
ATOM      9  C   UNL     1     -28.958  12.240 -30.024  1.00  0.00    -0.019 C 
ATOM     10  C   UNL     1     -29.830  13.461 -30.413  1.00  0.00     0.012 C 
ATOM     11  C   UNL     1     -29.862  10.975 -30.029  1.00  0.00     0.012 C 
ENDROOT
TORSDOF 0
ENDMDL
MODEL 4
REMARK VINA RESULT:    -5.070     12.538     14.226
REMARK INTER + INTRA:          -5.070
REMARK INTER:                  -5.070
REMARK INTRA:                   0.000
REMARK UNBOUND:                 0.000
REMARK SMILES CC1=CC(=O)[C@H]2C[C@@H]1C2(C)C
REMARK SMILES IDX 1 1 2 2 3 3 4 4 5 5 6 6 7 7 8 8 9 9 10 10 11 11
REMARK H PARENT
REMARK Flexibility Score: inf
ROOT
ATOM      1  C   UNL     1     -25.256  11.414 -28.502  1.00  0.00     0.040 C 
ATOM      2  C   UNL     1     -26.292  11.912 -29.459  1.00  0.00    -0.066 C 
ATOM      3  C   UNL     1     -26.310  13.211 -29.869  1.00  0.00     0.047 C 
ATOM      4  C   UNL     1     -27.417  13.594 -30.806  1.00  0.00     0.159 C 
ATOM      5  O   UNL     1     -27.565  14.772 -31.225  1.00  0.00    -0.295 OA
ATOM      6  C   UNL     1     -28.352  12.456 -31.214  1.00  0.00     0.067 C 
ATOM      7  C   UNL     1     -27.401  11.288 -31.555  1.00  0.00     0.021 C 
ATOM      8  C   UNL     1     -27.375  10.980 -30.042  1.00  0.00     0.022 C 
ATOM      9  C   UNL     1     -28.765  11.672 -29.936  1.00  0.00    -0.019 C 
ATOM     10  C   UNL     1     -29.934  10.690 -30.199  1.00  0.00     0.012 C 
ATOM     11  C   UNL     1     -29.088  12.479 -28.646  1.00  0.00     0.012 C 
ENDROOT
TORSDOF 0
ENDMDL
MODEL 5
REMARK VINA RESULT:    -5.045     13.021     14.761
REMARK INTER + INTRA:          -5.045
REMARK INTER:                  -5.045
REMARK INTRA:                   0.000
REMARK UNBOUND:                 0.000
REMARK SMILES CC1=CC(=O)[C@H]2C[C@@H]1C2(C)C
REMARK SMILES IDX 1 1 2 2 3 3 4 4 5 5 6 6 7 7 8 8 9 9 10 10 11 11
REMARK H PARENT
REMARK Flexibility Score: inf
ROOT
ATOM      1  C   UNL     1     -26.590  14.114 -30.558  1.00  0.00     0.040 C 
ATOM      2  C   UNL     1     -27.222  13.031 -29.742  1.00  0.00    -0.066 C 
ATOM      3  C   UNL     1     -26.535  12.401 -28.749  1.00  0.00     0.047 C 
ATOM      4  C   UNL     1     -27.269  11.312 -28.025  1.00  0.00     0.159 C 
ATOM      5  O   UNL     1     -26.730  10.630 -27.114  1.00  0.00    -0.295 OA
ATOM      6  C   UNL     1     -28.713  11.088 -28.470  1.00  0.00     0.067 C 
ATOM      7  C   UNL     1     -29.306  12.511 -28.561  1.00  0.00     0.021 C 
ATOM      8  C   UNL     1     -28.682  12.588 -29.972  1.00  0.00     0.022 C 
ATOM      9  C   UNL     1     -28.750  11.034 -30.024  1.00  0.00    -0.019 C 
ATOM     10  C   UNL     1     -30.108  10.521 -30.564  1.00  0.00     0.012 C 
ATOM     11  C   UNL     1     -27.613  10.273 -30.764  1.00  0.00     0.012 C 
ENDROOT
TORSDOF 0
ENDMDL
MODEL 6
REMARK VINA RESULT:    -5.022     12.808     14.124
REMARK INTER + INTRA:          -5.022
REMARK INTER:                  -5.022
REMARK INTRA:                   0.000
REMARK UNBOUND:                 0.000
REMARK SMILES CC1=CC(=O)[C@H]2C[C@@H]1C2(C)C
REMARK SMILES IDX 1 1 2 2 3 3 4 4 5 5 6 6 7 7 8 8 9 9 10 10 11 11
REMARK H PARENT
REMARK Flexibility Score: inf
ROOT
ATOM      1  C   UNL     1     -28.812  10.039 -32.540  1.00  0.00     0.040 C 
ATOM      2  C   UNL     1     -28.214  11.182 -31.783  1.00  0.00    -0.066 C 
ATOM      3  C   UNL     1     -27.117  11.843 -32.250  1.00  0.00     0.047 C 
ATOM      4  C   UNL     1     -26.594  12.951 -31.385  1.00  0.00     0.159 C 
ATOM      5  O   UNL     1     -25.565  13.610 -31.687  1.00  0.00    -0.295 OA
ATOM      6  C   UNL     1     -27.396  13.222 -30.112  1.00  0.00     0.067 C 
ATOM      7  C   UNL     1     -28.867  13.219 -30.584  1.00  0.00     0.021 C 
ATOM      8  C   UNL     1     -28.816  11.681 -30.452  1.00  0.00     0.022 C 
ATOM      9  C   UNL     1     -27.678  11.865 -29.406  1.00  0.00    -0.019 C 
ATOM     10  C   UNL     1     -28.224  12.051 -27.968  1.00  0.00     0.012 C 
ATOM     11  C   UNL     1     -26.541  10.804 -29.362  1.00  0.00     0.012 C 
ENDROOT
TORSDOF 0
ENDMDL
MODEL 7
REMARK VINA RESULT:    -5.021     11.819     13.257
REMARK INTER + INTRA:          -5.021
REMARK INTER:                  -5.021
REMARK INTRA:                   0.000
REMARK UNBOUND:                 0.000
REMARK SMILES CC1=CC(=O)[C@H]2C[C@@H]1C2(C)C
REMARK SMILES IDX 1 1 2 2 3 3 4 4 5 5 6 6 7 7 8 8 9 9 10 10 11 11
REMARK H PARENT
REMARK Flexibility Score: inf
ROOT
ATOM      1  C   UNL     1     -29.774  12.099 -29.423  1.00  0.00     0.040 C 
ATOM      2  C   UNL     1     -28.399  12.352 -29.954  1.00  0.00    -0.066 C 
ATOM      3  C   UNL     1     -28.186  12.611 -31.275  1.00  0.00     0.047 C 
ATOM      4  C   UNL     1     -26.760  12.817 -31.688  1.00  0.00     0.159 C 
ATOM      5  O   UNL     1     -26.431  13.024 -32.885  1.00  0.00    -0.295 OA
ATOM      6  C   UNL     1     -25.735  12.757 -30.556  1.00  0.00     0.067 C 
ATOM      7  C   UNL     1     -26.361  13.613 -29.433  1.00  0.00     0.021 C 
ATOM      8  C   UNL     1     -27.159  12.352 -29.034  1.00  0.00     0.022 C 
ATOM      9  C   UNL     1     -26.031  11.501 -29.687  1.00  0.00    -0.019 C 
ATOM     10  C   UNL     1     -24.882  11.187 -28.695  1.00  0.00     0.012 C 
ATOM     11  C   UNL     1     -26.428  10.181 -30.407  1.00  0.00     0.012 C 
ENDROOT
TORSDOF 0
ENDMDL
MODEL 8
REMARK VINA RESULT:    -5.007     12.682     14.363
REMARK INTER + INTRA:          -5.007
REMARK INTER:                  -5.007
REMARK INTRA:                   0.000
REMARK UNBOUND:                 0.000
REMARK SMILES CC1=CC(=O)[C@H]2C[C@@H]1C2(C)C
REMARK SMILES IDX 1 1 2 2 3 3 4 4 5 5 6 6 7 7 8 8 9 9 10 10 11 11
REMARK H PARENT
REMARK Flexibility Score: inf
ROOT
ATOM      1  C   UNL     1     -26.004  14.792 -30.196  1.00  0.00     0.040 C 
ATOM      2  C   UNL     1     -26.737  13.504 -30.395  1.00  0.00    -0.066 C 
ATOM      3  C   UNL     1     -26.855  12.940 -31.629  1.00  0.00     0.047 C 
ATOM      4  C   UNL     1     -27.640  11.665 -31.702  1.00  0.00     0.159 C 
ATOM      5  O   UNL     1     -27.853  11.068 -32.790  1.00  0.00    -0.295 OA
ATOM      6  C   UNL     1     -28.166  11.142 -30.366  1.00  0.00     0.067 C 
ATOM      7  C   UNL     1     -26.960  11.270 -29.409  1.00  0.00     0.021 C 
ATOM      8  C   UNL     1     -27.380  12.744 -29.215  1.00  0.00     0.022 C 
ATOM      9  C   UNL     1     -28.828  12.322 -29.599  1.00  0.00    -0.019 C 
ATOM     10  C   UNL     1     -29.646  11.843 -28.373  1.00  0.00     0.012 C 
ATOM     11  C   UNL     1     -29.699  13.329 -30.402  1.00  0.00     0.012 C 
ENDROOT
TORSDOF 0
ENDMDL
MODEL 9
REMARK VINA RESULT:    -4.977     13.149     14.767
REMARK INTER + INTRA:          -4.977
REMARK INTER:                  -4.977
REMARK INTRA:                   0.000
REMARK UNBOUND:                 0.000
REMARK SMILES CC1=CC(=O)[C@H]2C[C@@H]1C2(C)C
REMARK SMILES IDX 1 1 2 2 3 3 4 4 5 5 6 6 7 7 8 8 9 9 10 10 11 11
REMARK H PARENT
REMARK Flexibility Score: inf
ROOT
ATOM      1  C   UNL     1     -30.099  13.604 -30.518  1.00  0.00     0.040 C 
ATOM      2  C   UNL     1     -29.221  12.502 -30.016  1.00  0.00    -0.066 C 
ATOM      3  C   UNL     1     -28.821  12.452 -28.715  1.00  0.00     0.047 C 
ATOM      4  C   UNL     1     -27.917  11.315 -28.342  1.00  0.00     0.159 C 
ATOM      5  O   UNL     1     -27.448  11.182 -27.182  1.00  0.00    -0.295 OA
ATOM      6  C   UNL     1     -27.604  10.332 -29.470  1.00  0.00     0.067 C 
ATOM      7  C   UNL     1     -28.975  10.065 -30.130  1.00  0.00     0.021 C 
ATOM      8  C   UNL     1     -28.741  11.360 -30.938  1.00  0.00     0.022 C 
ATOM      9  C   UNL     1     -27.213  11.141 -30.739  1.00  0.00    -0.019 C 
ATOM     10  C   UNL     1     -26.598  10.245 -31.843  1.00  0.00     0.012 C 
ATOM     11  C   UNL     1     -26.307  12.394 -30.567  1.00  0.00     0.012 C 
ENDROOT
TORSDOF 0
ENDMDL
