MODEL 1
REMARK VINA RESULT:    -5.853      0.000      0.000
REMARK INTER + INTRA:         -11.891
REMARK INTER:                 -10.302
REMARK INTRA:                  -1.589
REMARK UNBOUND:                -1.589
REMARK SMILES CCCCCCCCCCCCCCC(=O)[O-]
REMARK SMILES IDX 9 1 10 2 11 3 12 4 13 5 14 6 15 7 16 8 17 9 8 10 7 11 6 12
REMARK SMILES IDX 5 13 4 14 3 15 2 16 1 17
REMARK H PARENT
REMARK Flexibility Score: inf
ROOT
ATOM      1  C   UNL     1      17.244  -0.849  16.442  1.00  0.00     0.000 C 
ENDROOT
BRANCH   1   2
ATOM      2  C   UNL     1      16.229  -0.364  15.392  1.00  0.00     0.000 C 
BRANCH   2   3
ATOM      3  C   UNL     1      16.156   1.169  15.305  1.00  0.00     0.000 C 
BRANCH   3   4
ATOM      4  C   UNL     1      15.022   1.654  14.385  1.00  0.00     0.000 C 
BRANCH   4   5
ATOM      5  C   UNL     1      15.513   2.646  13.317  1.00  0.00     0.006 C 
BRANCH   5   6
ATOM      6  C   UNL     1      15.560   2.028  11.912  1.00  0.00     0.053 C 
BRANCH   6   7
ATOM      7  C   UNL     1      16.944   1.555  11.598  1.00  0.00     0.041 C 
ATOM      8  O   UNL     1      17.724   2.279  10.926  1.00  0.00    -0.550 OA
ATOM      9  O   UNL     1      17.390   0.335  12.091  1.00  0.00    -0.550 OA
ENDBRANCH   6   7
ENDBRANCH   5   6
ENDBRANCH   4   5
ENDBRANCH   3   4
ENDBRANCH   2   3
ENDBRANCH   1   2
BRANCH   1  10
ATOM     10  C   UNL     1      16.624  -1.818  17.461  1.00  0.00     0.000 C 
BRANCH  10  11
ATOM     11  C   UNL     1      17.162  -1.608  18.884  1.00  0.00    -0.000 C 
BRANCH  11  12
ATOM     12  C   UNL     1      17.010  -0.143  19.319  1.00  0.00    -0.000 C 
BRANCH  12  13
ATOM     13  C   UNL     1      15.611   0.175  19.876  1.00  0.00    -0.000 C 
BRANCH  13  14
ATOM     14  C   UNL     1      15.012   1.486  19.328  1.00  0.00    -0.000 C 
BRANCH  14  15
ATOM     15  C   UNL     1      13.909   1.228  18.284  1.00  0.00    -0.000 C 
BRANCH  15  16
ATOM     16  C   UNL     1      13.369   2.526  17.664  1.00  0.00    -0.003 C 
ATOM     17  C   UNL     1      14.091   3.770  18.182  1.00  0.00     0.004 C 
ENDBRANCH  15  16
ENDBRANCH  14  15
ENDBRANCH  13  14
ENDBRANCH  12  13
ENDBRANCH  11  12
ENDBRANCH  10  11
ENDBRANCH   1  10
TORSDOF 13
ENDMDL
MODEL 2
REMARK VINA RESULT:    -5.799      3.108      6.948
REMARK INTER + INTRA:         -11.796
REMARK INTER:                 -10.597
REMARK INTRA:                  -1.199
REMARK UNBOUND:                -1.589
REMARK SMILES CCCCCCCCCCCCCCC(=O)[O-]
REMARK SMILES IDX 9 1 10 2 11 3 12 4 13 5 14 6 15 7 16 8 17 9 8 10 7 11 6 12
REMARK SMILES IDX 5 13 4 14 3 15 2 16 1 17
REMARK H PARENT
REMARK Flexibility Score: inf
ROOT
ATOM      1  C   UNL     1      14.566   2.676  15.429  1.00  0.00     0.000 C 
ENDROOT
BRANCH   1   2
ATOM      2  C   UNL     1      13.152   2.932  15.980  1.00  0.00     0.000 C 
BRANCH   2   3
ATOM      3  C   UNL     1      13.169   3.610  17.360  1.00  0.00     0.000 C 
BRANCH   3   4
ATOM      4  C   UNL     1      14.209   2.989  18.309  1.00  0.00     0.000 C 
BRANCH   4   5
ATOM      5  C   UNL     1      13.865   1.541  18.695  1.00  0.00     0.006 C 
BRANCH   5   6
ATOM      6  C   UNL     1      15.036   0.574  18.468  1.00  0.00     0.053 C 
BRANCH   6   7
ATOM      7  C   UNL     1      15.933   0.553  19.665  1.00  0.00     0.041 C 
ATOM      8  O   UNL     1      17.175   0.403  19.524  1.00  0.00    -0.550 OA
ATOM      9  O   UNL     1      15.402   0.749  20.935  1.00  0.00    -0.550 OA
ENDBRANCH   6   7
ENDBRANCH   5   6
ENDBRANCH   4   5
ENDBRANCH   3   4
ENDBRANCH   2   3
ENDBRANCH   1   2
BRANCH   1  10
ATOM     10  C   UNL     1      14.552   1.897  14.105  1.00  0.00     0.000 C 
BRANCH  10  11
ATOM     11  C   UNL     1      15.341   2.602  12.992  1.00  0.00    -0.000 C 
BRANCH  11  12
ATOM     12  C   UNL     1      15.584   1.658  11.807  1.00  0.00    -0.000 C 
BRANCH  12  13
ATOM     13  C   UNL     1      16.913   1.933  11.082  1.00  0.00    -0.000 C 
BRANCH  13  14
ATOM     14  C   UNL     1      18.091   1.088  11.609  1.00  0.00    -0.000 C 
BRANCH  14  15
ATOM     15  C   UNL     1      17.614  -0.197  12.310  1.00  0.00    -0.000 C 
BRANCH  15  16
ATOM     16  C   UNL     1      18.312  -0.424  13.660  1.00  0.00    -0.003 C 
ATOM     17  C   UNL     1      17.356  -0.295  14.845  1.00  0.00     0.004 C 
ENDBRANCH  15  16
ENDBRANCH  14  15
ENDBRANCH  13  14
ENDBRANCH  12  13
ENDBRANCH  11  12
ENDBRANCH  10  11
ENDBRANCH   1  10
TORSDOF 13
ENDMDL
MODEL 3
REMARK VINA RESULT:    -5.757      2.947      6.742
REMARK INTER + INTRA:         -11.721
REMARK INTER:                 -10.418
REMARK INTRA:                  -1.303
REMARK UNBOUND:                -1.589
REMARK SMILES CCCCCCCCCCCCCCC(=O)[O-]
REMARK SMILES IDX 9 1 10 2 11 3 12 4 13 5 14 6 15 7 16 8 17 9 8 10 7 11 6 12
REMARK SMILES IDX 5 13 4 14 3 15 2 16 1 17
REMARK H PARENT
REMARK Flexibility Score: inf
ROOT
ATOM      1  C   UNL     1      15.368   3.219  16.926  1.00  0.00     0.000 C 
ENDROOT
BRANCH   1   2
ATOM      2  C   UNL     1      14.284   3.171  18.017  1.00  0.00     0.000 C 
BRANCH   2   3
ATOM      3  C   UNL     1      14.185   1.792  18.691  1.00  0.00     0.000 C 
BRANCH   3   4
ATOM      4  C   UNL     1      14.790   1.783  20.106  1.00  0.00     0.000 C 
BRANCH   4   5
ATOM      5  C   UNL     1      15.190   0.371  20.567  1.00  0.00     0.006 C 
BRANCH   5   6
ATOM      6  C   UNL     1      15.418  -0.592  19.394  1.00  0.00     0.053 C 
BRANCH   6   7
ATOM      7  C   UNL     1      16.880  -0.836  19.196  1.00  0.00     0.041 C 
ATOM      8  O   UNL     1      17.302  -1.996  18.952  1.00  0.00    -0.550 OA
ATOM      9  O   UNL     1      17.773   0.228  19.232  1.00  0.00    -0.550 OA
ENDBRANCH   6   7
ENDBRANCH   5   6
ENDBRANCH   4   5
ENDBRANCH   3   4
ENDBRANCH   2   3
ENDBRANCH   1   2
BRANCH   1  10
ATOM     10  C   UNL     1      15.828   1.820  16.487  1.00  0.00     0.000 C 
BRANCH  10  11
ATOM     11  C   UNL     1      15.256   1.407  15.124  1.00  0.00    -0.000 C 
BRANCH  11  12
ATOM     12  C   UNL     1      14.618   2.607  14.409  1.00  0.00    -0.000 C 
BRANCH  12  13
ATOM     13  C   UNL     1      15.318   2.958  13.084  1.00  0.00    -0.000 C 
BRANCH  13  14
ATOM     14  C   UNL     1      15.603   1.733  12.192  1.00  0.00    -0.000 C 
BRANCH  14  15
ATOM     15  C   UNL     1      16.802   1.965  11.254  1.00  0.00    -0.000 C 
BRANCH  15  16
ATOM     16  C   UNL     1      17.868   0.866  11.378  1.00  0.00    -0.003 C 
ATOM     17  C   UNL     1      17.739   0.065  12.672  1.00  0.00     0.004 C 
ENDBRANCH  15  16
ENDBRANCH  14  15
ENDBRANCH  13  14
ENDBRANCH  12  13
ENDBRANCH  11  12
ENDBRANCH  10  11
ENDBRANCH   1  10
TORSDOF 13
ENDMDL
MODEL 4
REMARK VINA RESULT:    -5.747      0.875      3.238
REMARK INTER + INTRA:         -11.705
REMARK INTER:                 -10.055
REMARK INTRA:                  -1.649
REMARK UNBOUND:                -1.589
REMARK SMILES CCCCCCCCCCCCCCC(=O)[O-]
REMARK SMILES IDX 9 1 10 2 11 3 12 4 13 5 14 6 15 7 16 8 17 9 8 10 7 11 6 12
REMARK SMILES IDX 5 13 4 14 3 15 2 16 1 17
REMARK H PARENT
REMARK Flexibility Score: inf
ROOT
ATOM      1  C   UNL     1      15.301   3.097  16.751  1.00  0.00     0.000 C 
ENDROOT
BRANCH   1   2
ATOM      2  C   UNL     1      16.072   1.846  16.295  1.00  0.00     0.000 C 
BRANCH   2   3
ATOM      3  C   UNL     1      15.657   1.374  14.892  1.00  0.00     0.000 C 
BRANCH   3   4
ATOM      4  C   UNL     1      14.831   2.429  14.135  1.00  0.00     0.000 C 
BRANCH   4   5
ATOM      5  C   UNL     1      15.476   2.837  12.801  1.00  0.00     0.006 C 
BRANCH   5   6
ATOM      6  C   UNL     1      15.629   1.656  11.832  1.00  0.00     0.053 C 
BRANCH   6   7
ATOM      7  C   UNL     1      17.072   1.425  11.515  1.00  0.00     0.041 C 
ATOM      8  O   UNL     1      17.702   2.241  10.793  1.00  0.00    -0.550 OA
ATOM      9  O   UNL     1      17.737   0.333  12.060  1.00  0.00    -0.550 OA
ENDBRANCH   6   7
ENDBRANCH   5   6
ENDBRANCH   4   5
ENDBRANCH   3   4
ENDBRANCH   2   3
ENDBRANCH   1   2
BRANCH   1  10
ATOM     10  C   UNL     1      14.634   2.913  18.123  1.00  0.00     0.000 C 
BRANCH  10  11
ATOM     11  C   UNL     1      13.519   1.857  18.105  1.00  0.00    -0.000 C 
BRANCH  11  12
ATOM     12  C   UNL     1      13.855   0.686  19.039  1.00  0.00    -0.000 C 
BRANCH  12  13
ATOM     13  C   UNL     1      15.133   0.923  19.864  1.00  0.00    -0.000 C 
BRANCH  13  14
ATOM     14  C   UNL     1      16.071  -0.300  19.916  1.00  0.00    -0.000 C 
BRANCH  14  15
ATOM     15  C   UNL     1      17.390  -0.051  19.164  1.00  0.00    -0.000 C 
BRANCH  15  16
ATOM     16  C   UNL     1      17.645  -1.090  18.061  1.00  0.00    -0.003 C 
ATOM     17  C   UNL     1      16.366  -1.794  17.610  1.00  0.00     0.004 C 
ENDBRANCH  15  16
ENDBRANCH  14  15
ENDBRANCH  13  14
ENDBRANCH  12  13
ENDBRANCH  11  12
ENDBRANCH  10  11
ENDBRANCH   1  10
TORSDOF 13
ENDMDL
MODEL 5
REMARK VINA RESULT:    -5.734      2.060      4.680
REMARK INTER + INTRA:         -11.680
REMARK INTER:                 -10.141
REMARK INTRA:                  -1.539
REMARK UNBOUND:                -1.589
REMARK SMILES CCCCCCCCCCCCCCC(=O)[O-]
REMARK SMILES IDX 9 1 10 2 11 3 12 4 13 5 14 6 15 7 16 8 17 9 8 10 7 11 6 12
REMARK SMILES IDX 5 13 4 14 3 15 2 16 1 17
REMARK H PARENT
REMARK Flexibility Score: inf
ROOT
ATOM      1  C   UNL     1      15.937   0.380  20.028  1.00  0.00     0.000 C 
ENDROOT
BRANCH   1   2
ATOM      2  C   UNL     1      15.522  -0.799  19.131  1.00  0.00     0.000 C 
BRANCH   2   3
ATOM      3  C   UNL     1      16.689  -1.756  18.835  1.00  0.00     0.000 C 
BRANCH   3   4
ATOM      4  C   UNL     1      16.837  -2.057  17.333  1.00  0.00     0.000 C 
BRANCH   4   5
ATOM      5  C   UNL     1      16.207  -0.970  16.448  1.00  0.00     0.006 C 
BRANCH   5   6
ATOM      6  C   UNL     1      17.235  -0.270  15.547  1.00  0.00     0.053 C 
BRANCH   6   7
ATOM      7  C   UNL     1      18.175   0.552  16.371  1.00  0.00     0.041 C 
ATOM      8  O   UNL     1      19.419   0.452  16.202  1.00  0.00    -0.550 OA
ATOM      9  O   UNL     1      17.676   1.466  17.291  1.00  0.00    -0.550 OA
ENDBRANCH   6   7
ENDBRANCH   5   6
ENDBRANCH   4   5
ENDBRANCH   3   4
ENDBRANCH   2   3
ENDBRANCH   1   2
BRANCH   1  10
ATOM     10  C   UNL     1      14.892   1.507  20.044  1.00  0.00     0.000 C 
BRANCH  10  11
ATOM     11  C   UNL     1      14.076   1.580  18.746  1.00  0.00    -0.000 C 
BRANCH  11  12
ATOM     12  C   UNL     1      14.318   2.910  18.018  1.00  0.00    -0.000 C 
BRANCH  12  13
ATOM     13  C   UNL     1      13.163   3.299  17.078  1.00  0.00    -0.000 C 
BRANCH  13  14
ATOM     14  C   UNL     1      13.231   2.613  15.699  1.00  0.00    -0.000 C 
BRANCH  14  15
ATOM     15  C   UNL     1      14.670   2.537  15.159  1.00  0.00    -0.000 C 
BRANCH  15  16
ATOM     16  C   UNL     1      14.756   1.803  13.812  1.00  0.00    -0.003 C 
ATOM     17  C   UNL     1      15.463   2.627  12.737  1.00  0.00     0.004 C 
ENDBRANCH  15  16
ENDBRANCH  14  15
ENDBRANCH  13  14
ENDBRANCH  12  13
ENDBRANCH  11  12
ENDBRANCH  10  11
ENDBRANCH   1  10
TORSDOF 13
ENDMDL
MODEL 6
REMARK VINA RESULT:    -5.731      2.947      6.562
REMARK INTER + INTRA:         -11.675
REMARK INTER:                 -10.187
REMARK INTRA:                  -1.488
REMARK UNBOUND:                -1.589
REMARK SMILES CCCCCCCCCCCCCCC(=O)[O-]
REMARK SMILES IDX 9 1 10 2 11 3 12 4 13 5 14 6 15 7 16 8 17 9 8 10 7 11 6 12
REMARK SMILES IDX 5 13 4 14 3 15 2 16 1 17
REMARK H PARENT
REMARK Flexibility Score: inf
ROOT
ATOM      1  C   UNL     1      15.200   2.617  14.518  1.00  0.00     0.000 C 
ENDROOT
BRANCH   1   2
ATOM      2  C   UNL     1      13.719   2.265  14.743  1.00  0.00     0.000 C 
BRANCH   2   3
ATOM      3  C   UNL     1      13.241   2.604  16.165  1.00  0.00     0.000 C 
BRANCH   3   4
ATOM      4  C   UNL     1      14.307   3.355  16.982  1.00  0.00     0.000 C 
BRANCH   4   5
ATOM      5  C   UNL     1      14.201   3.074  18.490  1.00  0.00     0.006 C 
BRANCH   5   6
ATOM      6  C   UNL     1      14.132   1.573  18.808  1.00  0.00     0.053 C 
BRANCH   6   7
ATOM      7  C   UNL     1      15.422   1.108  19.406  1.00  0.00     0.041 C 
ATOM      8  O   UNL     1      16.475   1.101  18.715  1.00  0.00    -0.550 OA
ATOM      9  O   UNL     1      15.472   0.728  20.741  1.00  0.00    -0.550 OA
ENDBRANCH   6   7
ENDBRANCH   5   6
ENDBRANCH   4   5
ENDBRANCH   3   4
ENDBRANCH   2   3
ENDBRANCH   1   2
BRANCH   1  10
ATOM     10  C   UNL     1      15.504   2.988  13.057  1.00  0.00     0.000 C 
BRANCH  10  11
ATOM     11  C   UNL     1      15.565   1.763  12.134  1.00  0.00    -0.000 C 
BRANCH  11  12
ATOM     12  C   UNL     1      16.868   1.750  11.323  1.00  0.00    -0.000 C 
BRANCH  12  13
ATOM     13  C   UNL     1      17.863   0.679  11.802  1.00  0.00    -0.000 C 
BRANCH  13  14
ATOM     14  C   UNL     1      17.333  -0.180  12.968  1.00  0.00    -0.000 C 
BRANCH  14  15
ATOM     15  C   UNL     1      18.378  -0.351  14.085  1.00  0.00    -0.000 C 
BRANCH  15  16
ATOM     16  C   UNL     1      17.776  -0.177  15.487  1.00  0.00    -0.003 C 
ATOM     17  C   UNL     1      16.326  -0.652  15.567  1.00  0.00     0.004 C 
ENDBRANCH  15  16
ENDBRANCH  14  15
ENDBRANCH  13  14
ENDBRANCH  12  13
ENDBRANCH  11  12
ENDBRANCH  10  11
ENDBRANCH   1  10
TORSDOF 13
ENDMDL
MODEL 7
REMARK VINA RESULT:    -5.699      1.375      2.084
REMARK INTER + INTRA:         -11.620
REMARK INTER:                 -10.202
REMARK INTRA:                  -1.418
REMARK UNBOUND:                -1.589
REMARK SMILES CCCCCCCCCCCCCCC(=O)[O-]
REMARK SMILES IDX 9 1 10 2 11 3 12 4 13 5 14 6 15 7 16 8 17 9 8 10 7 11 6 12
REMARK SMILES IDX 5 13 4 14 3 15 2 16 1 17
REMARK H PARENT
REMARK Flexibility Score: inf
ROOT
ATOM      1  C   UNL     1      17.403  -1.879  17.801  1.00  0.00     0.000 C 
ENDROOT
BRANCH   1   2
ATOM      2  C   UNL     1      16.245  -1.930  16.790  1.00  0.00     0.000 C 
BRANCH   2   3
ATOM      3  C   UNL     1      16.001  -0.576  16.102  1.00  0.00     0.000 C 
BRANCH   3   4
ATOM      4  C   UNL     1      17.206  -0.115  15.263  1.00  0.00     0.000 C 
BRANCH   4   5
ATOM      5  C   UNL     1      16.813   0.263  13.825  1.00  0.00     0.006 C 
BRANCH   5   6
ATOM      6  C   UNL     1      15.397   0.849  13.733  1.00  0.00     0.053 C 
BRANCH   6   7
ATOM      7  C   UNL     1      15.374   2.008  12.787  1.00  0.00     0.041 C 
ATOM      8  O   UNL     1      15.164   3.173  13.216  1.00  0.00    -0.550 OA
ATOM      9  O   UNL     1      15.635   1.808  11.437  1.00  0.00    -0.550 OA
ENDBRANCH   6   7
ENDBRANCH   5   6
ENDBRANCH   4   5
ENDBRANCH   3   4
ENDBRANCH   2   3
ENDBRANCH   1   2
BRANCH   1  10
ATOM     10  C   UNL     1      16.942  -1.463  19.207  1.00  0.00     0.000 C 
BRANCH  10  11
ATOM     11  C   UNL     1      17.166   0.029  19.489  1.00  0.00    -0.000 C 
BRANCH  11  12
ATOM     12  C   UNL     1      15.881   0.690  20.007  1.00  0.00    -0.000 C 
BRANCH  12  13
ATOM     13  C   UNL     1      14.603   0.033  19.456  1.00  0.00    -0.000 C 
BRANCH  13  14
ATOM     14  C   UNL     1      13.621   1.033  18.814  1.00  0.00    -0.000 C 
BRANCH  14  15
ATOM     15  C   UNL     1      14.264   2.414  18.589  1.00  0.00    -0.000 C 
BRANCH  15  16
ATOM     16  C   UNL     1      13.333   3.383  17.846  1.00  0.00    -0.003 C 
ATOM     17  C   UNL     1      13.189   3.042  16.364  1.00  0.00     0.004 C 
ENDBRANCH  15  16
ENDBRANCH  14  15
ENDBRANCH  13  14
ENDBRANCH  12  13
ENDBRANCH  11  12
ENDBRANCH  10  11
ENDBRANCH   1  10
TORSDOF 13
ENDMDL
MODEL 8
REMARK VINA RESULT:    -5.699      2.256      6.309
REMARK INTER + INTRA:         -11.619
REMARK INTER:                 -10.582
REMARK INTRA:                  -1.037
REMARK UNBOUND:                -1.589
REMARK SMILES CCCCCCCCCCCCCCC(=O)[O-]
REMARK SMILES IDX 9 1 10 2 11 3 12 4 13 5 14 6 15 7 16 8 17 9 8 10 7 11 6 12
REMARK SMILES IDX 5 13 4 14 3 15 2 16 1 17
REMARK H PARENT
REMARK Flexibility Score: inf
ROOT
ATOM      1  C   UNL     1      14.194   3.024  18.274  1.00  0.00     0.000 C 
ENDROOT
BRANCH   1   2
ATOM      2  C   UNL     1      14.030   1.635  18.916  1.00  0.00     0.000 C 
BRANCH   2   3
ATOM      3  C   UNL     1      14.793   1.505  20.245  1.00  0.00     0.000 C 
BRANCH   3   4
ATOM      4  C   UNL     1      15.524   0.157  20.375  1.00  0.00     0.000 C 
BRANCH   4   5
ATOM      5  C   UNL     1      16.547  -0.071  19.250  1.00  0.00     0.006 C 
BRANCH   5   6
ATOM      6  C   UNL     1      16.688  -1.551  18.869  1.00  0.00     0.053 C 
BRANCH   6   7
ATOM      7  C   UNL     1      15.856  -1.860  17.664  1.00  0.00     0.041 C 
ATOM      8  O   UNL     1      14.647  -2.188  17.796  1.00  0.00    -0.550 OA
ATOM      9  O   UNL     1      16.402  -1.736  16.392  1.00  0.00    -0.550 OA
ENDBRANCH   6   7
ENDBRANCH   5   6
ENDBRANCH   4   5
ENDBRANCH   3   4
ENDBRANCH   2   3
ENDBRANCH   1   2
BRANCH   1  10
ATOM     10  C   UNL     1      13.112   3.321  17.223  1.00  0.00     0.000 C 
BRANCH  10  11
ATOM     11  C   UNL     1      13.400   2.654  15.871  1.00  0.00    -0.000 C 
BRANCH  11  12
ATOM     12  C   UNL     1      14.879   2.804  15.487  1.00  0.00    -0.000 C 
BRANCH  12  13
ATOM     13  C   UNL     1      15.573   1.455  15.231  1.00  0.00    -0.000 C 
BRANCH  13  14
ATOM     14  C   UNL     1      15.701   1.100  13.736  1.00  0.00    -0.000 C 
BRANCH  14  15
ATOM     15  C   UNL     1      15.506   2.329  12.829  1.00  0.00    -0.000 C 
BRANCH  15  16
ATOM     16  C   UNL     1      15.930   2.062  11.376  1.00  0.00    -0.003 C 
ATOM     17  C   UNL     1      17.216   1.242  11.280  1.00  0.00     0.004 C 
ENDBRANCH  15  16
ENDBRANCH  14  15
ENDBRANCH  13  14
ENDBRANCH  12  13
ENDBRANCH  11  12
ENDBRANCH  10  11
ENDBRANCH   1  10
TORSDOF 13
ENDMDL
MODEL 9
REMARK VINA RESULT:    -5.675      2.910      6.334
REMARK INTER + INTRA:         -11.576
REMARK INTER:                 -10.103
REMARK INTRA:                  -1.473
REMARK UNBOUND:                -1.589
REMARK SMILES CCCCCCCCCCCCCCC(=O)[O-]
REMARK SMILES IDX 9 1 10 2 11 3 12 4 13 5 14 6 15 7 16 8 17 9 8 10 7 11 6 12
REMARK SMILES IDX 5 13 4 14 3 15 2 16 1 17
REMARK H PARENT
REMARK Flexibility Score: inf
ROOT
ATOM      1  C   UNL     1      17.245  -0.647  16.592  1.00  0.00     0.000 C 
ENDROOT
BRANCH   1   2
ATOM      2  C   UNL     1      18.079   0.299  17.474  1.00  0.00     0.000 C 
BRANCH   2   3
ATOM      3  C   UNL     1      17.738   0.169  18.967  1.00  0.00     0.000 C 
BRANCH   3   4
ATOM      4  C   UNL     1      16.704  -0.937  19.241  1.00  0.00     0.000 C 
BRANCH   4   5
ATOM      5  C   UNL     1      15.458  -0.411  19.973  1.00  0.00     0.006 C 
BRANCH   5   6
ATOM      6  C   UNL     1      15.395   1.122  20.007  1.00  0.00     0.053 C 
BRANCH   6   7
ATOM      7  C   UNL     1      14.355   1.623  19.056  1.00  0.00     0.041 C 
ATOM      8  O   UNL     1      14.170   2.860  18.912  1.00  0.00    -0.550 OA
ATOM      9  O   UNL     1      13.623   0.723  18.291  1.00  0.00    -0.550 OA
ENDBRANCH   6   7
ENDBRANCH   5   6
ENDBRANCH   4   5
ENDBRANCH   3   4
ENDBRANCH   2   3
ENDBRANCH   1   2
BRANCH   1  10
ATOM     10  C   UNL     1      16.045   0.057  15.940  1.00  0.00     0.000 C 
BRANCH  10  11
ATOM     11  C   UNL     1      16.215   1.582  15.873  1.00  0.00    -0.000 C 
BRANCH  11  12
ATOM     12  C   UNL     1      15.023   2.238  15.163  1.00  0.00    -0.000 C 
BRANCH  12  13
ATOM     13  C   UNL     1      14.836   1.741  13.718  1.00  0.00    -0.000 C 
BRANCH  13  14
ATOM     14  C   UNL     1      15.465   2.668  12.659  1.00  0.00    -0.000 C 
BRANCH  14  15
ATOM     15  C   UNL     1      15.883   1.901  11.392  1.00  0.00    -0.000 C 
BRANCH  15  16
ATOM     16  C   UNL     1      17.401   1.675  11.314  1.00  0.00    -0.003 C 
ATOM     17  C   UNL     1      17.851   0.438  12.090  1.00  0.00     0.004 C 
ENDBRANCH  15  16
ENDBRANCH  14  15
ENDBRANCH  13  14
ENDBRANCH  12  13
ENDBRANCH  11  12
ENDBRANCH  10  11
ENDBRANCH   1  10
TORSDOF 13
ENDMDL
