MODEL 1
REMARK VINA RESULT:    -5.814      0.000      0.000
REMARK INTER + INTRA:          -6.580
REMARK INTER:                  -6.834
REMARK INTRA:                   0.254
REMARK UNBOUND:                 0.254
REMARK SMILES O=C([O-])C=Cc1ccc(O)c(O)c1
REMARK SMILES IDX 6 1 13 2 7 3 11 4 8 5 9 6 5 7 4 8 2 9 1 10 3 11 12 12 10 14
REMARK H PARENT 12 13 10 15
REMARK Flexibility Score: inf
ROOT
ATOM      1  C   UNL     1       8.414  -2.597  32.123  1.00  0.00    -0.022 A 
ATOM      2  C   UNL     1       7.979  -3.416  31.070  1.00  0.00     0.058 A 
ATOM      3  C   UNL     1       7.630  -1.495  32.507  1.00  0.00     0.012 A 
ATOM      4  C   UNL     1       6.802  -3.110  30.372  1.00  0.00     0.157 A 
ATOM      5  C   UNL     1       6.458  -1.189  31.811  1.00  0.00     0.051 A 
ATOM      6  C   UNL     1       6.043  -1.991  30.740  1.00  0.00     0.157 A 
ENDROOT
BRANCH   1   7
ATOM      7  C   UNL     1       9.629  -2.971  32.877  1.00  0.00     0.010 C 
ATOM      8  C   UNL     1      10.460  -2.113  33.488  1.00  0.00     0.025 C 
BRANCH   8   9
ATOM      9  C   UNL     1      10.420  -0.642  33.372  1.00  0.00     0.064 C 
ATOM     10  O   UNL     1      10.916  -0.045  32.381  1.00  0.00    -0.545 OA
ATOM     11  O   UNL     1       9.882   0.104  34.412  1.00  0.00    -0.545 OA
ENDBRANCH   8   9
ENDBRANCH   1   7
BRANCH   4  12
ATOM     12  O   UNL     1       6.381  -3.912  29.313  1.00  0.00    -0.504 OA
ATOM     13  H   UNL     1       5.412  -3.931  29.016  1.00  0.00     0.293 HD
ENDBRANCH   4  12
BRANCH   6  14
ATOM     14  O   UNL     1       4.875  -1.688  30.042  1.00  0.00    -0.504 OA
ATOM     15  H   UNL     1       4.718  -0.768  29.646  1.00  0.00     0.293 HD
ENDBRANCH   6  14
TORSDOF 4
ENDMDL
MODEL 2
REMARK VINA RESULT:    -5.781      1.348      2.301
REMARK INTER + INTRA:          -6.541
REMARK INTER:                  -6.616
REMARK INTRA:                   0.075
REMARK UNBOUND:                 0.254
REMARK SMILES O=C([O-])C=Cc1ccc(O)c(O)c1
REMARK SMILES IDX 6 1 13 2 7 3 11 4 8 5 9 6 5 7 4 8 2 9 1 10 3 11 12 12 10 14
REMARK H PARENT 12 13 10 15
REMARK Flexibility Score: inf
ROOT
ATOM      1  C   UNL     1       9.484  -2.391  32.885  1.00  0.00    -0.022 A 
ATOM      2  C   UNL     1       8.600  -1.302  32.884  1.00  0.00     0.058 A 
ATOM      3  C   UNL     1       9.247  -3.471  32.017  1.00  0.00     0.012 A 
ATOM      4  C   UNL     1       7.463  -1.311  32.063  1.00  0.00     0.157 A 
ATOM      5  C   UNL     1       8.114  -3.481  31.199  1.00  0.00     0.051 A 
ATOM      6  C   UNL     1       7.218  -2.404  31.222  1.00  0.00     0.157 A 
ENDROOT
BRANCH   1   7
ATOM      7  C   UNL     1      10.702  -2.335  33.720  1.00  0.00     0.010 C 
ATOM      8  C   UNL     1      11.595  -1.333  33.727  1.00  0.00     0.025 C 
BRANCH   8   9
ATOM      9  C   UNL     1      11.625  -0.198  32.783  1.00  0.00     0.064 C 
ATOM     10  O   UNL     1      12.247  -0.266  31.690  1.00  0.00    -0.545 OA
ATOM     11  O   UNL     1      11.010   0.994  33.139  1.00  0.00    -0.545 OA
ENDBRANCH   8   9
ENDBRANCH   1   7
BRANCH   4  12
ATOM     12  O   UNL     1       6.575  -0.237  32.076  1.00  0.00    -0.504 OA
ATOM     13  H   UNL     1       5.662  -0.311  32.508  1.00  0.00     0.293 HD
ENDBRANCH   4  12
BRANCH   6  14
ATOM     14  O   UNL     1       6.085  -2.411  30.410  1.00  0.00    -0.504 OA
ATOM     15  H   UNL     1       5.928  -1.691  29.713  1.00  0.00     0.293 HD
ENDBRANCH   6  14
TORSDOF 4
ENDMDL
MODEL 3
REMARK VINA RESULT:    -5.719      8.522     11.063
REMARK INTER + INTRA:          -6.468
REMARK INTER:                  -6.574
REMARK INTRA:                   0.106
REMARK UNBOUND:                 0.254
REMARK SMILES O=C([O-])C=Cc1ccc(O)c(O)c1
REMARK SMILES IDX 6 1 13 2 7 3 11 4 8 5 9 6 5 7 4 8 2 9 1 10 3 11 12 12 10 14
REMARK H PARENT 12 13 10 15
REMARK Flexibility Score: inf
ROOT
ATOM      1  C   UNL     1       7.239  -7.429  22.631  1.00  0.00    -0.022 A 
ATOM      2  C   UNL     1       7.275  -6.245  23.382  1.00  0.00     0.058 A 
ATOM      3  C   UNL     1       6.871  -8.631  23.259  1.00  0.00     0.012 A 
ATOM      4  C   UNL     1       6.997  -6.267  24.757  1.00  0.00     0.157 A 
ATOM      5  C   UNL     1       6.595  -8.654  24.628  1.00  0.00     0.051 A 
ATOM      6  C   UNL     1       6.660  -7.475  25.381  1.00  0.00     0.157 A 
ENDROOT
BRANCH   1   7
ATOM      7  C   UNL     1       7.484  -7.370  21.175  1.00  0.00     0.010 C 
ATOM      8  C   UNL     1       8.600  -7.785  20.556  1.00  0.00     0.025 C 
BRANCH   8   9
ATOM      9  C   UNL     1       9.849  -8.206  21.221  1.00  0.00     0.064 C 
ATOM     10  O   UNL     1       9.847  -9.058  22.148  1.00  0.00    -0.545 OA
ATOM     11  O   UNL     1      11.045  -7.600  20.861  1.00  0.00    -0.545 OA
ENDBRANCH   8   9
ENDBRANCH   1   7
BRANCH   4  12
ATOM     12  O   UNL     1       7.051  -5.094  25.507  1.00  0.00    -0.504 OA
ATOM     13  H   UNL     1       7.791  -4.414  25.374  1.00  0.00     0.293 HD
ENDBRANCH   4  12
BRANCH   6  14
ATOM     14  O   UNL     1       6.388  -7.494  26.748  1.00  0.00    -0.504 OA
ATOM     15  H   UNL     1       5.460  -7.701  27.101  1.00  0.00     0.293 HD
ENDBRANCH   6  14
TORSDOF 4
ENDMDL
MODEL 4
REMARK VINA RESULT:    -5.553      8.289     10.475
REMARK INTER + INTRA:          -6.274
REMARK INTER:                  -6.298
REMARK INTRA:                   0.024
REMARK UNBOUND:                 0.254
REMARK SMILES O=C([O-])C=Cc1ccc(O)c(O)c1
REMARK SMILES IDX 6 1 13 2 7 3 11 4 8 5 9 6 5 7 4 8 2 9 1 10 3 11 12 12 10 14
REMARK H PARENT 12 13 10 15
REMARK Flexibility Score: inf
ROOT
ATOM      1  C   UNL     1       7.048  -7.717  23.294  1.00  0.00    -0.022 A 
ATOM      2  C   UNL     1       7.990  -8.265  22.411  1.00  0.00     0.058 A 
ATOM      3  C   UNL     1       6.363  -6.546  22.928  1.00  0.00     0.012 A 
ATOM      4  C   UNL     1       8.284  -7.626  21.198  1.00  0.00     0.157 A 
ATOM      5  C   UNL     1       6.655  -5.907  21.721  1.00  0.00     0.051 A 
ATOM      6  C   UNL     1       7.618  -6.441  20.855  1.00  0.00     0.157 A 
ENDROOT
BRANCH   1   7
ATOM      7  C   UNL     1       6.718  -8.438  24.541  1.00  0.00     0.010 C 
ATOM      8  C   UNL     1       6.577  -7.876  25.751  1.00  0.00     0.025 C 
BRANCH   8   9
ATOM      9  C   UNL     1       6.897  -6.477  26.095  1.00  0.00     0.064 C 
ATOM     10  O   UNL     1       8.087  -6.073  26.172  1.00  0.00    -0.545 OA
ATOM     11  O   UNL     1       5.864  -5.603  26.406  1.00  0.00    -0.545 OA
ENDBRANCH   8   9
ENDBRANCH   1   7
BRANCH   4  12
ATOM     12  O   UNL     1       9.233  -8.161  20.330  1.00  0.00    -0.504 OA
ATOM     13  H   UNL     1       9.675  -9.054  20.514  1.00  0.00     0.293 HD
ENDBRANCH   4  12
BRANCH   6  14
ATOM     14  O   UNL     1       7.915  -5.806  19.650  1.00  0.00    -0.504 OA
ATOM     15  H   UNL     1       7.392  -4.997  19.334  1.00  0.00     0.293 HD
ENDBRANCH   6  14
TORSDOF 4
ENDMDL
MODEL 5
REMARK VINA RESULT:    -5.551     18.220     19.424
REMARK INTER + INTRA:          -6.271
REMARK INTER:                  -5.979
REMARK INTRA:                  -0.293
REMARK UNBOUND:                 0.254
REMARK SMILES O=C([O-])C=Cc1ccc(O)c(O)c1
REMARK SMILES IDX 6 1 13 2 7 3 11 4 8 5 9 6 5 7 4 8 2 9 1 10 3 11 12 12 10 14
REMARK H PARENT 12 13 10 15
REMARK Flexibility Score: inf
ROOT
ATOM      1  C   UNL     1      18.469 -14.229  21.559  1.00  0.00    -0.022 A 
ATOM      2  C   UNL     1      19.581 -14.787  20.910  1.00  0.00     0.058 A 
ATOM      3  C   UNL     1      17.632 -13.348  20.852  1.00  0.00     0.012 A 
ATOM      4  C   UNL     1      19.885 -14.432  19.588  1.00  0.00     0.157 A 
ATOM      5  C   UNL     1      17.934 -12.992  19.535  1.00  0.00     0.051 A 
ATOM      6  C   UNL     1      19.062 -13.529  18.901  1.00  0.00     0.157 A 
ENDROOT
BRANCH   1   7
ATOM      7  C   UNL     1      18.140 -14.659  22.933  1.00  0.00     0.010 C 
ATOM      8  C   UNL     1      18.513 -14.028  24.057  1.00  0.00     0.025 C 
BRANCH   8   9
ATOM      9  C   UNL     1      19.461 -12.899  24.138  1.00  0.00     0.064 C 
ATOM     10  O   UNL     1      19.063 -11.710  24.250  1.00  0.00    -0.545 OA
ATOM     11  O   UNL     1      20.822 -13.150  24.020  1.00  0.00    -0.545 OA
ENDBRANCH   8   9
ENDBRANCH   1   7
BRANCH   4  12
ATOM     12  O   UNL     1      21.000 -14.972  18.951  1.00  0.00    -0.504 OA
ATOM     13  H   UNL     1      21.002 -15.161  17.956  1.00  0.00     0.293 HD
ENDBRANCH   4  12
BRANCH   6  14
ATOM     14  O   UNL     1      19.370 -13.175  17.588  1.00  0.00    -0.504 OA
ATOM     15  H   UNL     1      20.328 -13.148  17.257  1.00  0.00     0.293 HD
ENDBRANCH   6  14
TORSDOF 4
ENDMDL
MODEL 6
REMARK VINA RESULT:    -5.466      5.672      8.797
REMARK INTER + INTRA:          -6.171
REMARK INTER:                  -5.895
REMARK INTRA:                  -0.276
REMARK UNBOUND:                 0.254
REMARK SMILES O=C([O-])C=Cc1ccc(O)c(O)c1
REMARK SMILES IDX 6 1 13 2 7 3 11 4 8 5 9 6 5 7 4 8 2 9 1 10 3 11 12 12 10 14
REMARK H PARENT 12 13 10 15
REMARK Flexibility Score: inf
ROOT
ATOM      1  C   UNL     1      14.884   0.626  32.019  1.00  0.00    -0.022 A 
ATOM      2  C   UNL     1      15.878  -0.312  31.703  1.00  0.00     0.058 A 
ATOM      3  C   UNL     1      15.257   1.859  32.581  1.00  0.00     0.012 A 
ATOM      4  C   UNL     1      17.224  -0.046  31.993  1.00  0.00     0.157 A 
ATOM      5  C   UNL     1      16.597   2.125  32.871  1.00  0.00     0.051 A 
ATOM      6  C   UNL     1      17.584   1.173  32.582  1.00  0.00     0.157 A 
ENDROOT
BRANCH   1   7
ATOM      7  C   UNL     1      13.480   0.344  31.655  1.00  0.00     0.010 C 
ATOM      8  C   UNL     1      12.551  -0.165  32.478  1.00  0.00     0.025 C 
BRANCH   8   9
ATOM      9  C   UNL     1      12.797  -0.703  33.831  1.00  0.00     0.064 C 
ATOM     10  O   UNL     1      13.323  -1.833  34.005  1.00  0.00    -0.545 OA
ATOM     11  O   UNL     1      12.379   0.027  34.935  1.00  0.00    -0.545 OA
ENDBRANCH   8   9
ENDBRANCH   1   7
BRANCH   4  12
ATOM     12  O   UNL     1      18.209  -0.987  31.696  1.00  0.00    -0.504 OA
ATOM     13  H   UNL     1      18.637  -1.551  32.421  1.00  0.00     0.293 HD
ENDBRANCH   4  12
BRANCH   6  14
ATOM     14  O   UNL     1      18.922   1.432  32.872  1.00  0.00    -0.504 OA
ATOM     15  H   UNL     1      19.213   2.306  33.297  1.00  0.00     0.293 HD
ENDBRANCH   6  14
TORSDOF 4
ENDMDL
MODEL 7
REMARK VINA RESULT:    -5.446     17.062     18.305
REMARK INTER + INTRA:          -6.148
REMARK INTER:                  -6.053
REMARK INTRA:                  -0.094
REMARK UNBOUND:                 0.254
REMARK SMILES O=C([O-])C=Cc1ccc(O)c(O)c1
REMARK SMILES IDX 6 1 13 2 7 3 11 4 8 5 9 6 5 7 4 8 2 9 1 10 3 11 12 12 10 14
REMARK H PARENT 12 13 10 15
REMARK Flexibility Score: inf
ROOT
ATOM      1  C   UNL     1      18.877 -12.635  22.475  1.00  0.00    -0.022 A 
ATOM      2  C   UNL     1      20.203 -12.929  22.124  1.00  0.00     0.058 A 
ATOM      3  C   UNL     1      17.852 -12.860  21.540  1.00  0.00     0.012 A 
ATOM      4  C   UNL     1      20.511 -13.393  20.837  1.00  0.00     0.157 A 
ATOM      5  C   UNL     1      18.158 -13.322  20.257  1.00  0.00     0.051 A 
ATOM      6  C   UNL     1      19.486 -13.586  19.900  1.00  0.00     0.157 A 
ENDROOT
BRANCH   1   7
ATOM      7  C   UNL     1      18.572 -12.198  23.853  1.00  0.00     0.010 C 
ATOM      8  C   UNL     1      18.129 -10.981  24.203  1.00  0.00     0.025 C 
BRANCH   8   9
ATOM      9  C   UNL     1      18.036  -9.808  23.312  1.00  0.00     0.064 C 
ATOM     10  O   UNL     1      18.805  -8.819  23.441  1.00  0.00    -0.545 OA
ATOM     11  O   UNL     1      17.033  -9.765  22.353  1.00  0.00    -0.545 OA
ENDBRANCH   8   9
ENDBRANCH   1   7
BRANCH   4  12
ATOM     12  O   UNL     1      21.831 -13.667  20.482  1.00  0.00    -0.504 OA
ATOM     13  H   UNL     1      22.168 -13.515  19.539  1.00  0.00     0.293 HD
ENDBRANCH   4  12
BRANCH   6  14
ATOM     14  O   UNL     1      19.797 -14.044  18.621  1.00  0.00    -0.504 OA
ATOM     15  H   UNL     1      20.286 -13.459  17.952  1.00  0.00     0.293 HD
ENDBRANCH   6  14
TORSDOF 4
ENDMDL
MODEL 8
REMARK VINA RESULT:    -5.383     17.833     19.249
REMARK INTER + INTRA:          -6.074
REMARK INTER:                  -5.809
REMARK INTRA:                  -0.265
REMARK UNBOUND:                 0.254
REMARK SMILES O=C([O-])C=Cc1ccc(O)c(O)c1
REMARK SMILES IDX 6 1 13 2 7 3 11 4 8 5 9 6 5 7 4 8 2 9 1 10 3 11 12 12 10 14
REMARK H PARENT 12 13 10 15
REMARK Flexibility Score: inf
ROOT
ATOM      1  C   UNL     1      19.422 -13.275  22.398  1.00  0.00    -0.022 A 
ATOM      2  C   UNL     1      18.441 -12.740  21.551  1.00  0.00     0.058 A 
ATOM      3  C   UNL     1      20.509 -13.969  21.839  1.00  0.00     0.012 A 
ATOM      4  C   UNL     1      18.514 -12.938  20.164  1.00  0.00     0.157 A 
ATOM      5  C   UNL     1      20.582 -14.168  20.458  1.00  0.00     0.051 A 
ATOM      6  C   UNL     1      19.585 -13.657  19.617  1.00  0.00     0.157 A 
ENDROOT
BRANCH   1   7
ATOM      7  C   UNL     1      19.351 -13.008  23.849  1.00  0.00     0.010 C 
ATOM      8  C   UNL     1      18.884 -13.859  24.775  1.00  0.00     0.025 C 
BRANCH   8   9
ATOM      9  C   UNL     1      18.196 -15.136  24.504  1.00  0.00     0.064 C 
ATOM     10  O   UNL     1      18.747 -16.244  24.736  1.00  0.00    -0.545 OA
ATOM     11  O   UNL     1      16.938 -15.116  23.917  1.00  0.00    -0.545 OA
ENDBRANCH   8   9
ENDBRANCH   1   7
BRANCH   4  12
ATOM     12  O   UNL     1      17.528 -12.422  19.325  1.00  0.00    -0.504 OA
ATOM     13  H   UNL     1      17.526 -11.447  19.048  1.00  0.00     0.293 HD
ENDBRANCH   4  12
BRANCH   6  14
ATOM     14  O   UNL     1      19.652 -13.855  18.239  1.00  0.00    -0.504 OA
ATOM     15  H   UNL     1      19.009 -13.394  17.605  1.00  0.00     0.293 HD
ENDBRANCH   6  14
TORSDOF 4
ENDMDL
