MODEL 1
REMARK VINA RESULT:    -5.239      0.000      0.000
REMARK INTER + INTRA:          -5.239
REMARK INTER:                  -5.239
REMARK INTRA:                   0.000
REMARK UNBOUND:                 0.000
REMARK SMILES CC1=CC[C@]23C[C@H]1C(C)(C)[C@@H]2CC[C@@H]3C
REMARK SMILES IDX 15 1 14 2 13 3 12 4 11 5 5 6 4 7 3 8 2 9 7 10 6 11 8 12 9 13
REMARK SMILES IDX 10 14 1 15
REMARK H PARENT
REMARK Flexibility Score: inf
ROOT
ATOM      1  C   UNL     1      31.782  28.653  11.806  1.00  0.00     0.008 C 
ATOM      2  C   UNL     1      30.630  27.778  12.319  1.00  0.00    -0.007 C 
ATOM      3  C   UNL     1      29.247  28.179  11.722  1.00  0.00     0.004 C 
ATOM      4  C   UNL     1      28.416  26.874  11.591  1.00  0.00     0.005 C 
ATOM      5  C   UNL     1      29.283  25.875  12.334  1.00  0.00     0.002 C 
ATOM      6  C   UNL     1      30.717  26.270  12.001  1.00  0.00    -0.020 C 
ATOM      7  C   UNL     1      31.165  26.004  10.500  1.00  0.00     0.035 C 
ATOM      8  C   UNL     1      31.495  24.558  10.180  1.00  0.00    -0.027 C 
ATOM      9  C   UNL     1      31.353  23.590  11.105  1.00  0.00    -0.074 C 
ATOM     10  C   UNL     1      30.754  23.964  12.448  1.00  0.00     0.021 C 
ATOM     11  C   UNL     1      31.453  25.282  12.899  1.00  0.00     0.016 C 
ATOM     12  C   UNL     1      29.222  24.333  12.300  1.00  0.00    -0.025 C 
ATOM     13  C   UNL     1      28.451  23.783  13.525  1.00  0.00     0.012 C 
ATOM     14  C   UNL     1      28.510  23.804  11.028  1.00  0.00     0.012 C 
ATOM     15  C   UNL     1      31.742  22.172  10.791  1.00  0.00     0.039 C 
ENDROOT
TORSDOF 0
ENDMDL
MODEL 2
REMARK VINA RESULT:    -4.929      1.201      2.982
REMARK INTER + INTRA:          -4.929
REMARK INTER:                  -4.929
REMARK INTRA:                   0.000
REMARK UNBOUND:                 0.000
REMARK SMILES CC1=CC[C@]23C[C@H]1C(C)(C)[C@@H]2CC[C@@H]3C
REMARK SMILES IDX 15 1 14 2 13 3 12 4 11 5 5 6 4 7 3 8 2 9 7 10 6 11 8 12 9 13
REMARK SMILES IDX 10 14 1 15
REMARK H PARENT
REMARK Flexibility Score: inf
ROOT
ATOM      1  C   UNL     1      30.914  28.716  10.830  1.00  0.00     0.008 C 
ATOM      2  C   UNL     1      31.443  27.360  11.317  1.00  0.00    -0.007 C 
ATOM      3  C   UNL     1      32.124  27.439  12.717  1.00  0.00     0.004 C 
ATOM      4  C   UNL     1      31.846  26.089  13.432  1.00  0.00     0.005 C 
ATOM      5  C   UNL     1      31.242  25.262  12.312  1.00  0.00     0.002 C 
ATOM      6  C   UNL     1      30.397  26.241  11.507  1.00  0.00    -0.020 C 
ATOM      7  C   UNL     1      29.088  26.769  12.235  1.00  0.00     0.035 C 
ATOM      8  C   UNL     1      27.928  25.789  12.251  1.00  0.00    -0.027 C 
ATOM      9  C   UNL     1      28.052  24.556  11.728  1.00  0.00    -0.074 C 
ATOM     10  C   UNL     1      29.415  24.127  11.216  1.00  0.00     0.021 C 
ATOM     11  C   UNL     1      29.971  25.314  10.373  1.00  0.00     0.016 C 
ATOM     12  C   UNL     1      30.437  23.948  12.411  1.00  0.00    -0.025 C 
ATOM     13  C   UNL     1      31.338  22.723  12.123  1.00  0.00     0.012 C 
ATOM     14  C   UNL     1      29.817  23.747  13.818  1.00  0.00     0.012 C 
ATOM     15  C   UNL     1      26.877  23.619  11.696  1.00  0.00     0.039 C 
ENDROOT
TORSDOF 0
ENDMDL
MODEL 3
REMARK VINA RESULT:    -4.527      1.728      4.857
REMARK INTER + INTRA:          -4.527
REMARK INTER:                  -4.527
REMARK INTRA:                   0.000
REMARK UNBOUND:                 0.000
REMARK SMILES CC1=CC[C@]23C[C@H]1C(C)(C)[C@@H]2CC[C@@H]3C
REMARK SMILES IDX 15 1 14 2 13 3 12 4 11 5 5 6 4 7 3 8 2 9 7 10 6 11 8 12 9 13
REMARK SMILES IDX 10 14 1 15
REMARK H PARENT
REMARK Flexibility Score: inf
ROOT
ATOM      1  C   UNL     1      31.535  21.087  15.065  1.00  0.00     0.008 C 
ATOM      2  C   UNL     1      32.001  21.750  13.761  1.00  0.00    -0.007 C 
ATOM      3  C   UNL     1      32.122  20.744  12.575  1.00  0.00     0.004 C 
ATOM      4  C   UNL     1      31.757  21.522  11.283  1.00  0.00     0.005 C 
ATOM      5  C   UNL     1      31.689  22.951  11.787  1.00  0.00     0.002 C 
ATOM      6  C   UNL     1      31.086  22.851  13.183  1.00  0.00    -0.020 C 
ATOM      7  C   UNL     1      29.553  22.436  13.234  1.00  0.00     0.035 C 
ATOM      8  C   UNL     1      28.579  23.552  12.899  1.00  0.00    -0.027 C 
ATOM      9  C   UNL     1      29.017  24.772  12.537  1.00  0.00    -0.074 C 
ATOM     10  C   UNL     1      30.511  24.977  12.367  1.00  0.00     0.021 C 
ATOM     11  C   UNL     1      31.197  24.313  13.599  1.00  0.00     0.016 C 
ATOM     12  C   UNL     1      31.051  24.183  11.110  1.00  0.00    -0.025 C 
ATOM     13  C   UNL     1      32.125  25.040  10.396  1.00  0.00     0.012 C 
ATOM     14  C   UNL     1      29.995  23.784  10.046  1.00  0.00     0.012 C 
ATOM     15  C   UNL     1      28.042  25.884  12.269  1.00  0.00     0.039 C 
ENDROOT
TORSDOF 0
ENDMDL
MODEL 4
REMARK VINA RESULT:    -3.843      1.409      4.006
REMARK INTER + INTRA:          -3.843
REMARK INTER:                  -3.843
REMARK INTRA:                   0.000
REMARK UNBOUND:                 0.000
REMARK SMILES CC1=CC[C@]23C[C@H]1C(C)(C)[C@@H]2CC[C@@H]3C
REMARK SMILES IDX 15 1 14 2 13 3 12 4 11 5 5 6 4 7 3 8 2 9 7 10 6 11 8 12 9 13
REMARK SMILES IDX 10 14 1 15
REMARK H PARENT
REMARK Flexibility Score: inf
ROOT
ATOM      1  C   UNL     1      32.125  21.532  14.157  1.00  0.00     0.008 C 
ATOM      2  C   UNL     1      30.787  21.904  13.503  1.00  0.00    -0.007 C 
ATOM      3  C   UNL     1      29.659  22.187  14.541  1.00  0.00     0.004 C 
ATOM      4  C   UNL     1      28.744  23.281  13.928  1.00  0.00     0.005 C 
ATOM      5  C   UNL     1      29.271  23.368  12.508  1.00  0.00     0.002 C 
ATOM      6  C   UNL     1      30.777  23.177  12.631  1.00  0.00    -0.020 C 
ATOM      7  C   UNL     1      31.561  24.375  13.320  1.00  0.00     0.035 C 
ATOM      8  C   UNL     1      31.793  25.582  12.429  1.00  0.00    -0.027 C 
ATOM      9  C   UNL     1      31.308  25.624  11.174  1.00  0.00    -0.074 C 
ATOM     10  C   UNL     1      30.433  24.477  10.705  1.00  0.00     0.021 C 
ATOM     11  C   UNL     1      31.140  23.161  11.150  1.00  0.00     0.016 C 
ATOM     12  C   UNL     1      29.043  24.481  11.461  1.00  0.00    -0.025 C 
ATOM     13  C   UNL     1      27.926  24.084  10.466  1.00  0.00     0.012 C 
ATOM     14  C   UNL     1      28.624  25.822  12.117  1.00  0.00     0.012 C 
ATOM     15  C   UNL     1      31.598  26.799  10.283  1.00  0.00     0.039 C 
ENDROOT
TORSDOF 0
ENDMDL
MODEL 5
REMARK VINA RESULT:    -3.331      1.507      3.746
REMARK INTER + INTRA:          -3.331
REMARK INTER:                  -3.331
REMARK INTRA:                   0.000
REMARK UNBOUND:                 0.000
REMARK SMILES CC1=CC[C@]23C[C@H]1C(C)(C)[C@@H]2CC[C@@H]3C
REMARK SMILES IDX 15 1 14 2 13 3 12 4 11 5 5 6 4 7 3 8 2 9 7 10 6 11 8 12 9 13
REMARK SMILES IDX 10 14 1 15
REMARK H PARENT
REMARK Flexibility Score: inf
ROOT
ATOM      1  C   UNL     1      26.235  23.759  11.827  1.00  0.00     0.008 C 
ATOM      2  C   UNL     1      27.503  24.531  11.438  1.00  0.00    -0.007 C 
ATOM      3  C   UNL     1      27.463  26.028  11.873  1.00  0.00     0.004 C 
ATOM      4  C   UNL     1      28.921  26.438  12.215  1.00  0.00     0.005 C 
ATOM      5  C   UNL     1      29.706  25.235  11.727  1.00  0.00     0.002 C 
ATOM      6  C   UNL     1      28.829  24.032  12.049  1.00  0.00    -0.020 C 
ATOM      7  C   UNL     1      28.680  23.691  13.593  1.00  0.00     0.035 C 
ATOM      8  C   UNL     1      29.872  22.979  14.207  1.00  0.00    -0.027 C 
ATOM      9  C   UNL     1      30.977  22.722  13.483  1.00  0.00    -0.074 C 
ATOM     10  C   UNL     1      31.046  23.255  12.065  1.00  0.00     0.021 C 
ATOM     11  C   UNL     1      29.672  22.939  11.400  1.00  0.00     0.016 C 
ATOM     12  C   UNL     1      31.160  24.833  12.059  1.00  0.00    -0.025 C 
ATOM     13  C   UNL     1      32.125  25.265  10.928  1.00  0.00     0.012 C 
ATOM     14  C   UNL     1      31.662  25.488  13.372  1.00  0.00     0.012 C 
ATOM     15  C   UNL     1      32.125  21.962  14.088  1.00  0.00     0.039 C 
ENDROOT
TORSDOF 0
ENDMDL
MODEL 6
REMARK VINA RESULT:    -3.327      1.299      2.785
REMARK INTER + INTRA:          -3.327
REMARK INTER:                  -3.327
REMARK INTRA:                   0.000
REMARK UNBOUND:                 0.000
REMARK SMILES CC1=CC[C@]23C[C@H]1C(C)(C)[C@@H]2CC[C@@H]3C
REMARK SMILES IDX 15 1 14 2 13 3 12 4 11 5 5 6 4 7 3 8 2 9 7 10 6 11 8 12 9 13
REMARK SMILES IDX 10 14 1 15
REMARK H PARENT
REMARK Flexibility Score: inf
ROOT
ATOM      1  C   UNL     1      30.226  29.599  11.794  1.00  0.00     0.008 C 
ATOM      2  C   UNL     1      30.193  28.345  10.909  1.00  0.00    -0.007 C 
ATOM      3  C   UNL     1      31.301  28.344   9.813  1.00  0.00     0.004 C 
ATOM      4  C   UNL     1      31.721  26.865   9.596  1.00  0.00     0.005 C 
ATOM      5  C   UNL     1      30.670  26.121  10.399  1.00  0.00     0.002 C 
ATOM      6  C   UNL     1      30.413  26.994  11.621  1.00  0.00    -0.020 C 
ATOM      7  C   UNL     1      31.605  27.063  12.670  1.00  0.00     0.035 C 
ATOM      8  C   UNL     1      31.733  25.847  13.571  1.00  0.00    -0.027 C 
ATOM      9  C   UNL     1      30.917  24.786  13.427  1.00  0.00    -0.074 C 
ATOM     10  C   UNL     1      29.933  24.789  12.272  1.00  0.00     0.021 C 
ATOM     11  C   UNL     1      29.273  26.200  12.249  1.00  0.00     0.016 C 
ATOM     12  C   UNL     1      30.687  24.657  10.888  1.00  0.00    -0.025 C 
ATOM     13  C   UNL     1      29.858  23.749   9.947  1.00  0.00     0.012 C 
ATOM     14  C   UNL     1      32.125  24.077  10.943  1.00  0.00     0.012 C 
ATOM     15  C   UNL     1      31.015  23.616  14.367  1.00  0.00     0.039 C 
ENDROOT
TORSDOF 0
ENDMDL
MODEL 7
REMARK VINA RESULT:    -2.800      1.159      3.112
REMARK INTER + INTRA:          -2.800
REMARK INTER:                  -2.800
REMARK INTRA:                   0.000
REMARK UNBOUND:                 0.000
REMARK SMILES CC1=CC[C@]23C[C@H]1C(C)(C)[C@@H]2CC[C@@H]3C
REMARK SMILES IDX 15 1 14 2 13 3 12 4 11 5 5 6 4 7 3 8 2 9 7 10 6 11 8 12 9 13
REMARK SMILES IDX 10 14 1 15
REMARK H PARENT
REMARK Flexibility Score: inf
ROOT
ATOM      1  C   UNL     1      27.703  27.882  11.500  1.00  0.00     0.008 C 
ATOM      2  C   UNL     1      28.958  27.205  10.931  1.00  0.00    -0.007 C 
ATOM      3  C   UNL     1      30.267  27.997  11.232  1.00  0.00     0.004 C 
ATOM      4  C   UNL     1      31.399  26.949  11.405  1.00  0.00     0.005 C 
ATOM      5  C   UNL     1      30.713  25.671  10.959  1.00  0.00     0.002 C 
ATOM      6  C   UNL     1      29.281  25.793  11.464  1.00  0.00    -0.020 C 
ATOM      7  C   UNL     1      29.105  25.699  13.041  1.00  0.00     0.035 C 
ATOM      8  C   UNL     1      29.179  24.293  13.608  1.00  0.00    -0.027 C 
ATOM      9  C   UNL     1      29.433  23.235  12.815  1.00  0.00    -0.074 C 
ATOM     10  C   UNL     1      29.748  23.494  11.353  1.00  0.00     0.021 C 
ATOM     11  C   UNL     1      28.698  24.528  10.844  1.00  0.00     0.016 C 
ATOM     12  C   UNL     1      31.150  24.209  11.195  1.00  0.00    -0.025 C 
ATOM     13  C   UNL     1      31.869  23.638   9.949  1.00  0.00     0.012 C 
ATOM     14  C   UNL     1      32.125  24.077  12.394  1.00  0.00     0.012 C 
ATOM     15  C   UNL     1      29.442  21.843  13.381  1.00  0.00     0.039 C 
ENDROOT
TORSDOF 0
ENDMDL
