MODEL 1
REMARK VINA RESULT:    -4.268      0.000      0.000
REMARK INTER + INTRA:         -16.419
REMARK INTER:                 -11.253
REMARK INTRA:                  -5.166
REMARK UNBOUND:                -5.166
REMARK SMILES CCCCCCCCCCCCCCCCCCCCCCCCCCCCCC(=O)[O-]
REMARK SMILES IDX 16 1 17 2 18 3 19 4 20 5 21 6 22 7 23 8 24 9 25 10 26 11
REMARK SMILES IDX 27 12 28 13 29 14 30 15 31 16 32 17 15 18 14 19 13 20 12 21
REMARK SMILES IDX 11 22 10 23 9 24 8 25 7 26 6 27 5 28 4 29 3 30 2 31 1 32
REMARK H PARENT
REMARK Flexibility Score: inf
ROOT
ATOM      1  C   UNL     1      12.852 -29.458  43.113  1.00  0.00     0.000 C 
ENDROOT
BRANCH   1   2
ATOM      2  C   UNL     1      13.988 -30.175  42.361  1.00  0.00     0.000 C 
BRANCH   2   3
ATOM      3  C   UNL     1      13.535 -31.490  41.708  1.00  0.00     0.000 C 
BRANCH   3   4
ATOM      4  C   UNL     1      13.837 -31.538  40.200  1.00  0.00     0.000 C 
BRANCH   4   5
ATOM      5  C   UNL     1      12.811 -30.754  39.363  1.00  0.00     0.000 C 
BRANCH   5   6
ATOM      6  C   UNL     1      13.325 -29.423  38.777  1.00  0.00     0.000 C 
BRANCH   6   7
ATOM      7  C   UNL     1      14.859 -29.273  38.739  1.00  0.00     0.000 C 
BRANCH   7   8
ATOM      8  C   UNL     1      15.377 -27.842  38.970  1.00  0.00     0.000 C 
BRANCH   8   9
ATOM      9  C   UNL     1      15.278 -27.404  40.440  1.00  0.00     0.000 C 
BRANCH   9  10
ATOM     10  C   UNL     1      14.757 -25.963  40.552  1.00  0.00     0.000 C 
BRANCH  10  11
ATOM     11  C   UNL     1      13.241 -25.868  40.317  1.00  0.00     0.000 C 
BRANCH  11  12
ATOM     12  C   UNL     1      12.893 -25.474  38.870  1.00  0.00     0.000 C 
BRANCH  12  13
ATOM     13  C   UNL     1      13.905 -24.484  38.269  1.00  0.00     0.006 C 
BRANCH  13  14
ATOM     14  C   UNL     1      13.323 -23.073  38.115  1.00  0.00     0.053 C 
BRANCH  14  15
ATOM     15  C   UNL     1      14.181 -22.245  37.213  1.00  0.00     0.041 C 
ATOM     16  O   UNL     1      15.431 -22.401  37.210  1.00  0.00    -0.550 OA
ATOM     17  O   UNL     1      13.605 -21.283  36.390  1.00  0.00    -0.550 OA
ENDBRANCH  14  15
ENDBRANCH  13  14
ENDBRANCH  12  13
ENDBRANCH  11  12
ENDBRANCH  10  11
ENDBRANCH   9  10
ENDBRANCH   8   9
ENDBRANCH   7   8
ENDBRANCH   6   7
ENDBRANCH   5   6
ENDBRANCH   4   5
ENDBRANCH   3   4
ENDBRANCH   2   3
ENDBRANCH   1   2
BRANCH   1  18
ATOM     18  C   UNL     1      11.766 -28.931  42.153  1.00  0.00     0.000 C 
BRANCH  18  19
ATOM     19  C   UNL     1      10.405 -29.640  42.297  1.00  0.00     0.000 C 
BRANCH  19  20
ATOM     20  C   UNL     1       9.560 -29.664  41.005  1.00  0.00     0.000 C 
BRANCH  20  21
ATOM     21  C   UNL     1       9.121 -28.278  40.488  1.00  0.00     0.000 C 
BRANCH  21  22
ATOM     22  C   UNL     1       8.152 -27.502  41.402  1.00  0.00     0.000 C 
BRANCH  22  23
ATOM     23  C   UNL     1       8.168 -25.984  41.154  1.00  0.00     0.000 C 
BRANCH  23  24
ATOM     24  C   UNL     1       9.581 -25.454  40.853  1.00  0.00    -0.000 C 
BRANCH  24  25
ATOM     25  C   UNL     1       9.564 -24.213  39.947  1.00  0.00    -0.000 C 
BRANCH  25  26
ATOM     26  C   UNL     1       9.619 -22.925  40.783  1.00  0.00    -0.000 C 
BRANCH  26  27
ATOM     27  C   UNL     1      11.026 -22.303  40.835  1.00  0.00    -0.000 C 
BRANCH  27  28
ATOM     28  C   UNL     1      11.930 -22.820  41.973  1.00  0.00    -0.000 C 
BRANCH  28  29
ATOM     29  C   UNL     1      13.369 -22.273  41.970  1.00  0.00    -0.000 C 
BRANCH  29  30
ATOM     30  C   UNL     1      13.435 -20.774  41.629  1.00  0.00    -0.000 C 
BRANCH  30  31
ATOM     31  C   UNL     1      14.472 -20.464  40.538  1.00  0.00    -0.003 C 
ATOM     32  C   UNL     1      13.991 -19.402  39.548  1.00  0.00     0.004 C 
ENDBRANCH  30  31
ENDBRANCH  29  30
ENDBRANCH  28  29
ENDBRANCH  27  28
ENDBRANCH  26  27
ENDBRANCH  25  26
ENDBRANCH  24  25
ENDBRANCH  23  24
ENDBRANCH  22  23
ENDBRANCH  21  22
ENDBRANCH  20  21
ENDBRANCH  19  20
ENDBRANCH  18  19
ENDBRANCH   1  18
TORSDOF 28
ENDMDL
MODEL 2
REMARK VINA RESULT:    -4.258      1.485      6.501
REMARK INTER + INTRA:         -16.394
REMARK INTER:                 -11.092
REMARK INTRA:                  -5.301
REMARK UNBOUND:                -5.166
REMARK SMILES CCCCCCCCCCCCCCCCCCCCCCCCCCCCCC(=O)[O-]
REMARK SMILES IDX 16 1 17 2 18 3 19 4 20 5 21 6 22 7 23 8 24 9 25 10 26 11
REMARK SMILES IDX 27 12 28 13 29 14 30 15 31 16 32 17 15 18 14 19 13 20 12 21
REMARK SMILES IDX 11 22 10 23 9 24 8 25 7 26 6 27 5 28 4 29 3 30 2 31 1 32
REMARK H PARENT
REMARK Flexibility Score: inf
ROOT
ATOM      1  C   UNL     1      12.764 -26.701  40.685  1.00  0.00     0.000 C 
ENDROOT
BRANCH   1   2
ATOM      2  C   UNL     1      12.682 -28.142  41.218  1.00  0.00     0.000 C 
BRANCH   2   3
ATOM      3  C   UNL     1      11.287 -28.505  41.748  1.00  0.00     0.000 C 
BRANCH   3   4
ATOM      4  C   UNL     1      10.154 -27.878  40.915  1.00  0.00     0.000 C 
BRANCH   4   5
ATOM      5  C   UNL     1       9.247 -26.954  41.746  1.00  0.00     0.000 C 
BRANCH   5   6
ATOM      6  C   UNL     1       8.637 -25.767  40.973  1.00  0.00     0.000 C 
BRANCH   6   7
ATOM      7  C   UNL     1       9.441 -25.309  39.739  1.00  0.00     0.000 C 
BRANCH   7   8
ATOM      8  C   UNL     1       9.461 -23.787  39.507  1.00  0.00     0.000 C 
BRANCH   8   9
ATOM      9  C   UNL     1       9.490 -22.986  40.819  1.00  0.00     0.000 C 
BRANCH   9  10
ATOM     10  C   UNL     1      10.836 -22.267  40.997  1.00  0.00     0.000 C 
BRANCH  10  11
ATOM     11  C   UNL     1      11.949 -23.215  41.473  1.00  0.00     0.000 C 
BRANCH  11  12
ATOM     12  C   UNL     1      13.333 -22.820  40.928  1.00  0.00     0.000 C 
BRANCH  12  13
ATOM     13  C   UNL     1      13.248 -22.081  39.583  1.00  0.00     0.006 C 
BRANCH  13  14
ATOM     14  C   UNL     1      13.112 -23.042  38.394  1.00  0.00     0.053 C 
BRANCH  14  15
ATOM     15  C   UNL     1      14.183 -22.783  37.382  1.00  0.00     0.041 C 
ATOM     16  O   UNL     1      15.384 -23.046  37.650  1.00  0.00    -0.550 OA
ATOM     17  O   UNL     1      13.858 -22.227  36.149  1.00  0.00    -0.550 OA
ENDBRANCH  14  15
ENDBRANCH  13  14
ENDBRANCH  12  13
ENDBRANCH  11  12
ENDBRANCH  10  11
ENDBRANCH   9  10
ENDBRANCH   8   9
ENDBRANCH   7   8
ENDBRANCH   6   7
ENDBRANCH   5   6
ENDBRANCH   4   5
ENDBRANCH   3   4
ENDBRANCH   2   3
ENDBRANCH   1   2
BRANCH   1  18
ATOM     18  C   UNL     1      13.427 -26.635  39.295  1.00  0.00     0.000 C 
BRANCH  18  19
ATOM     19  C   UNL     1      12.435 -26.763  38.121  1.00  0.00     0.000 C 
BRANCH  19  20
ATOM     20  C   UNL     1      12.748 -27.920  37.147  1.00  0.00     0.000 C 
BRANCH  20  21
ATOM     21  C   UNL     1      13.029 -29.280  37.820  1.00  0.00     0.000 C 
BRANCH  21  22
ATOM     22  C   UNL     1      11.786 -30.125  38.160  1.00  0.00     0.000 C 
BRANCH  22  23
ATOM     23  C   UNL     1      12.090 -31.300  39.105  1.00  0.00     0.000 C 
BRANCH  23  24
ATOM     24  C   UNL     1      13.469 -31.173  39.773  1.00  0.00    -0.000 C 
BRANCH  24  25
ATOM     25  C   UNL     1      13.524 -31.857  41.148  1.00  0.00    -0.000 C 
BRANCH  25  26
ATOM     26  C   UNL     1      12.112 -32.206  41.642  1.00  0.00    -0.000 C 
BRANCH  26  27
ATOM     27  C   UNL     1      11.903 -31.891  43.134  1.00  0.00    -0.000 C 
BRANCH  27  28
ATOM     28  C   UNL     1      12.926 -32.538  44.090  1.00  0.00    -0.000 C 
BRANCH  28  29
ATOM     29  C   UNL     1      13.447 -31.622  45.213  1.00  0.00    -0.000 C 
BRANCH  29  30
ATOM     30  C   UNL     1      14.735 -30.875  44.824  1.00  0.00    -0.000 C 
BRANCH  30  31
ATOM     31  C   UNL     1      14.465 -29.430  44.375  1.00  0.00    -0.003 C 
ATOM     32  C   UNL     1      15.388 -28.979  43.243  1.00  0.00     0.004 C 
ENDBRANCH  30  31
ENDBRANCH  29  30
ENDBRANCH  28  29
ENDBRANCH  27  28
ENDBRANCH  26  27
ENDBRANCH  25  26
ENDBRANCH  24  25
ENDBRANCH  23  24
ENDBRANCH  22  23
ENDBRANCH  21  22
ENDBRANCH  20  21
ENDBRANCH  19  20
ENDBRANCH  18  19
ENDBRANCH   1  18
TORSDOF 28
ENDMDL
MODEL 3
REMARK VINA RESULT:    -4.199      2.991      5.624
REMARK INTER + INTRA:         -16.238
REMARK INTER:                  -9.998
REMARK INTRA:                  -6.240
REMARK UNBOUND:                -5.166
REMARK SMILES CCCCCCCCCCCCCCCCCCCCCCCCCCCCCC(=O)[O-]
REMARK SMILES IDX 16 1 17 2 18 3 19 4 20 5 21 6 22 7 23 8 24 9 25 10 26 11
REMARK SMILES IDX 27 12 28 13 29 14 30 15 31 16 32 17 15 18 14 19 13 20 12 21
REMARK SMILES IDX 11 22 10 23 9 24 8 25 7 26 6 27 5 28 4 29 3 30 2 31 1 32
REMARK H PARENT
REMARK Flexibility Score: inf
ROOT
ATOM      1  C   UNL     1       7.829 -27.531  41.349  1.00  0.00     0.000 C 
ENDROOT
BRANCH   1   2
ATOM      2  C   UNL     1       8.488 -28.660  42.161  1.00  0.00     0.000 C 
BRANCH   2   3
ATOM      3  C   UNL     1       8.753 -29.921  41.324  1.00  0.00     0.000 C 
BRANCH   3   4
ATOM      4  C   UNL     1       9.844 -30.819  41.933  1.00  0.00     0.000 C 
BRANCH   4   5
ATOM      5  C   UNL     1      10.972 -30.014  42.602  1.00  0.00     0.000 C 
BRANCH   5   6
ATOM      6  C   UNL     1      12.374 -30.650  42.511  1.00  0.00     0.000 C 
BRANCH   6   7
ATOM      7  C   UNL     1      13.339 -29.967  41.520  1.00  0.00     0.000 C 
BRANCH   7   8
ATOM      8  C   UNL     1      13.527 -30.708  40.184  1.00  0.00     0.000 C 
BRANCH   8   9
ATOM      9  C   UNL     1      13.068 -32.174  40.247  1.00  0.00     0.000 C 
BRANCH   9  10
ATOM     10  C   UNL     1      12.057 -32.482  39.132  1.00  0.00     0.000 C 
BRANCH  10  11
ATOM     11  C   UNL     1      11.483 -31.208  38.492  1.00  0.00     0.000 C 
BRANCH  11  12
ATOM     12  C   UNL     1       9.995 -31.353  38.123  1.00  0.00     0.000 C 
BRANCH  12  13
ATOM     13  C   UNL     1       9.731 -31.102  36.629  1.00  0.00     0.006 C 
BRANCH  13  14
ATOM     14  C   UNL     1      10.389 -29.810  36.127  1.00  0.00     0.053 C 
BRANCH  14  15
ATOM     15  C   UNL     1      11.128 -30.056  34.850  1.00  0.00     0.041 C 
ATOM     16  O   UNL     1      10.607 -30.758  33.944  1.00  0.00    -0.550 OA
ATOM     17  O   UNL     1      12.403 -29.531  34.669  1.00  0.00    -0.550 OA
ENDBRANCH  14  15
ENDBRANCH  13  14
ENDBRANCH  12  13
ENDBRANCH  11  12
ENDBRANCH  10  11
ENDBRANCH   9  10
ENDBRANCH   8   9
ENDBRANCH   7   8
ENDBRANCH   6   7
ENDBRANCH   5   6
ENDBRANCH   4   5
ENDBRANCH   3   4
ENDBRANCH   2   3
ENDBRANCH   1   2
BRANCH   1  18
ATOM     18  C   UNL     1       8.865 -26.529  40.804  1.00  0.00     0.000 C 
BRANCH  18  19
ATOM     19  C   UNL     1      10.159 -26.449  41.639  1.00  0.00     0.000 C 
BRANCH  19  20
ATOM     20  C   UNL     1      11.437 -26.853  40.872  1.00  0.00     0.000 C 
BRANCH  20  21
ATOM     21  C   UNL     1      11.196 -27.694  39.601  1.00  0.00     0.000 C 
BRANCH  21  22
ATOM     22  C   UNL     1      11.756 -27.100  38.293  1.00  0.00     0.000 C 
BRANCH  22  23
ATOM     23  C   UNL     1      12.992 -27.850  37.766  1.00  0.00     0.000 C 
BRANCH  23  24
ATOM     24  C   UNL     1      14.293 -27.059  37.982  1.00  0.00    -0.000 C 
BRANCH  24  25
ATOM     25  C   UNL     1      15.142 -27.622  39.132  1.00  0.00    -0.000 C 
BRANCH  25  26
ATOM     26  C   UNL     1      15.297 -26.586  40.256  1.00  0.00    -0.000 C 
BRANCH  26  27
ATOM     27  C   UNL     1      14.928 -25.160  39.811  1.00  0.00    -0.000 C 
BRANCH  27  28
ATOM     28  C   UNL     1      13.806 -24.488  40.630  1.00  0.00    -0.000 C 
BRANCH  28  29
ATOM     29  C   UNL     1      13.140 -23.273  39.959  1.00  0.00    -0.000 C 
BRANCH  29  30
ATOM     30  C   UNL     1      11.664 -23.523  39.604  1.00  0.00    -0.000 C 
BRANCH  30  31
ATOM     31  C   UNL     1      10.699 -22.844  40.589  1.00  0.00    -0.003 C 
ATOM     32  C   UNL     1      11.407 -21.893  41.554  1.00  0.00     0.004 C 
ENDBRANCH  30  31
ENDBRANCH  29  30
ENDBRANCH  28  29
ENDBRANCH  27  28
ENDBRANCH  26  27
ENDBRANCH  25  26
ENDBRANCH  24  25
ENDBRANCH  23  24
ENDBRANCH  22  23
ENDBRANCH  21  22
ENDBRANCH  20  21
ENDBRANCH  19  20
ENDBRANCH  18  19
ENDBRANCH   1  18
TORSDOF 28
ENDMDL
MODEL 4
REMARK VINA RESULT:    -4.188      1.884      6.860
REMARK INTER + INTRA:         -16.209
REMARK INTER:                 -10.063
REMARK INTRA:                  -6.147
REMARK UNBOUND:                -5.166
REMARK SMILES CCCCCCCCCCCCCCCCCCCCCCCCCCCCCC(=O)[O-]
REMARK SMILES IDX 16 1 17 2 18 3 19 4 20 5 21 6 22 7 23 8 24 9 25 10 26 11
REMARK SMILES IDX 27 12 28 13 29 14 30 15 31 16 32 17 15 18 14 19 13 20 12 21
REMARK SMILES IDX 11 22 10 23 9 24 8 25 7 26 6 27 5 28 4 29 3 30 2 31 1 32
REMARK H PARENT
REMARK Flexibility Score: inf
ROOT
ATOM      1  C   UNL     1       8.609 -25.646  41.004  1.00  0.00     0.000 C 
ENDROOT
BRANCH   1   2
ATOM      2  C   UNL     1       9.103 -25.308  39.586  1.00  0.00     0.000 C 
BRANCH   2   3
ATOM      3  C   UNL     1      10.096 -24.137  39.563  1.00  0.00     0.000 C 
BRANCH   3   4
ATOM      4  C   UNL     1       9.852 -23.129  40.701  1.00  0.00     0.000 C 
BRANCH   4   5
ATOM      5  C   UNL     1      11.048 -23.019  41.664  1.00  0.00     0.000 C 
BRANCH   5   6
ATOM      6  C   UNL     1      11.852 -21.707  41.563  1.00  0.00     0.000 C 
BRANCH   6   7
ATOM      7  C   UNL     1      12.646 -21.527  40.254  1.00  0.00     0.000 C 
BRANCH   7   8
ATOM      8  C   UNL     1      13.502 -22.738  39.841  1.00  0.00     0.000 C 
BRANCH   8   9
ATOM      9  C   UNL     1      14.757 -22.904  40.714  1.00  0.00     0.000 C 
BRANCH   9  10
ATOM     10  C   UNL     1      14.755 -24.264  41.429  1.00  0.00     0.000 C 
BRANCH  10  11
ATOM     11  C   UNL     1      13.788 -25.267  40.778  1.00  0.00     0.000 C 
BRANCH  11  12
ATOM     12  C   UNL     1      14.443 -26.637  40.526  1.00  0.00     0.000 C 
BRANCH  12  13
ATOM     13  C   UNL     1      13.718 -27.447  39.438  1.00  0.00     0.006 C 
BRANCH  13  14
ATOM     14  C   UNL     1      12.779 -26.578  38.591  1.00  0.00     0.053 C 
BRANCH  14  15
ATOM     15  C   UNL     1      13.302 -26.443  37.196  1.00  0.00     0.041 C 
ATOM     16  O   UNL     1      14.399 -25.862  36.986  1.00  0.00    -0.550 OA
ATOM     17  O   UNL     1      12.567 -26.939  36.124  1.00  0.00    -0.550 OA
ENDBRANCH  14  15
ENDBRANCH  13  14
ENDBRANCH  12  13
ENDBRANCH  11  12
ENDBRANCH  10  11
ENDBRANCH   9  10
ENDBRANCH   8   9
ENDBRANCH   7   8
ENDBRANCH   6   7
ENDBRANCH   5   6
ENDBRANCH   4   5
ENDBRANCH   3   4
ENDBRANCH   2   3
ENDBRANCH   1   2
BRANCH   1  18
ATOM     18  C   UNL     1       9.062 -27.048  41.456  1.00  0.00     0.000 C 
BRANCH  18  19
ATOM     19  C   UNL     1      10.586 -27.180  41.653  1.00  0.00     0.000 C 
BRANCH  19  20
ATOM     20  C   UNL     1      11.099 -28.636  41.691  1.00  0.00     0.000 C 
BRANCH  20  21
ATOM     21  C   UNL     1      10.008 -29.706  41.913  1.00  0.00     0.000 C 
BRANCH  21  22
ATOM     22  C   UNL     1      10.512 -31.080  42.396  1.00  0.00     0.000 C 
BRANCH  22  23
ATOM     23  C   UNL     1      11.918 -31.028  43.017  1.00  0.00     0.000 C 
BRANCH  23  24
ATOM     24  C   UNL     1      12.929 -31.901  42.253  1.00  0.00    -0.000 C 
BRANCH  24  25
ATOM     25  C   UNL     1      13.943 -31.068  41.454  1.00  0.00    -0.000 C 
BRANCH  25  26
ATOM     26  C   UNL     1      13.732 -31.249  39.944  1.00  0.00    -0.000 C 
BRANCH  26  27
ATOM     27  C   UNL     1      12.564 -32.195  39.611  1.00  0.00    -0.000 C 
BRANCH  27  28
ATOM     28  C   UNL     1      11.485 -31.603  38.681  1.00  0.00    -0.000 C 
BRANCH  28  29
ATOM     29  C   UNL     1      11.679 -30.122  38.310  1.00  0.00    -0.000 C 
BRANCH  29  30
ATOM     30  C   UNL     1      10.585 -29.596  37.364  1.00  0.00    -0.000 C 
BRANCH  30  31
ATOM     31  C   UNL     1       9.569 -28.694  38.082  1.00  0.00    -0.003 C 
ATOM     32  C   UNL     1       8.428 -29.482  38.726  1.00  0.00     0.004 C 
ENDBRANCH  30  31
ENDBRANCH  29  30
ENDBRANCH  28  29
ENDBRANCH  27  28
ENDBRANCH  26  27
ENDBRANCH  25  26
ENDBRANCH  24  25
ENDBRANCH  23  24
ENDBRANCH  22  23
ENDBRANCH  21  22
ENDBRANCH  20  21
ENDBRANCH  19  20
ENDBRANCH  18  19
ENDBRANCH   1  18
TORSDOF 28
ENDMDL
MODEL 5
REMARK VINA RESULT:    -4.185      2.090      4.878
REMARK INTER + INTRA:         -16.200
REMARK INTER:                  -9.718
REMARK INTRA:                  -6.483
REMARK UNBOUND:                -5.166
REMARK SMILES CCCCCCCCCCCCCCCCCCCCCCCCCCCCCC(=O)[O-]
REMARK SMILES IDX 16 1 17 2 18 3 19 4 20 5 21 6 22 7 23 8 24 9 25 10 26 11
REMARK SMILES IDX 27 12 28 13 29 14 30 15 31 16 32 17 15 18 14 19 13 20 12 21
REMARK SMILES IDX 11 22 10 23 9 24 8 25 7 26 6 27 5 28 4 29 3 30 2 31 1 32
REMARK H PARENT
REMARK Flexibility Score: inf
ROOT
ATOM      1  C   UNL     1      12.388 -30.708  42.801  1.00  0.00     0.000 C 
ENDROOT
BRANCH   1   2
ATOM      2  C   UNL     1      13.430 -31.748  42.354  1.00  0.00     0.000 C 
BRANCH   2   3
ATOM      3  C   UNL     1      13.883 -31.552  40.899  1.00  0.00     0.000 C 
BRANCH   3   4
ATOM      4  C   UNL     1      12.922 -30.659  40.093  1.00  0.00     0.000 C 
BRANCH   4   5
ATOM      5  C   UNL     1      12.034 -31.463  39.127  1.00  0.00     0.000 C 
BRANCH   5   6
ATOM      6  C   UNL     1      10.580 -30.963  39.005  1.00  0.00     0.000 C 
BRANCH   6   7
ATOM      7  C   UNL     1       9.708 -31.177  40.259  1.00  0.00     0.000 C 
BRANCH   7   8
ATOM      8  C   UNL     1       8.692 -30.055  40.541  1.00  0.00     0.000 C 
BRANCH   8   9
ATOM      9  C   UNL     1       9.118 -29.147  41.706  1.00  0.00     0.000 C 
BRANCH   9  10
ATOM     10  C   UNL     1       9.630 -27.793  41.191  1.00  0.00     0.000 C 
BRANCH  10  11
ATOM     11  C   UNL     1      11.149 -27.636  41.365  1.00  0.00     0.000 C 
BRANCH  11  12
ATOM     12  C   UNL     1      11.836 -27.108  40.092  1.00  0.00     0.000 C 
BRANCH  12  13
ATOM     13  C   UNL     1      10.866 -26.984  38.906  1.00  0.00     0.006 C 
BRANCH  13  14
ATOM     14  C   UNL     1      11.306 -27.824  37.699  1.00  0.00     0.053 C 
BRANCH  14  15
ATOM     15  C   UNL     1      12.725 -27.520  37.336  1.00  0.00     0.041 C 
ATOM     16  O   UNL     1      13.023 -26.409  36.825  1.00  0.00    -0.550 OA
ATOM     17  O   UNL     1      13.717 -28.473  37.542  1.00  0.00    -0.550 OA
ENDBRANCH  14  15
ENDBRANCH  13  14
ENDBRANCH  12  13
ENDBRANCH  11  12
ENDBRANCH  10  11
ENDBRANCH   9  10
ENDBRANCH   8   9
ENDBRANCH   7   8
ENDBRANCH   6   7
ENDBRANCH   5   6
ENDBRANCH   4   5
ENDBRANCH   3   4
ENDBRANCH   2   3
ENDBRANCH   1   2
BRANCH   1  18
ATOM     18  C   UNL     1      12.729 -30.102  44.178  1.00  0.00     0.000 C 
BRANCH  18  19
ATOM     19  C   UNL     1      14.228 -30.169  44.537  1.00  0.00     0.000 C 
BRANCH  19  20
ATOM     20  C   UNL     1      14.973 -28.823  44.407  1.00  0.00     0.000 C 
BRANCH  20  21
ATOM     21  C   UNL     1      15.631 -28.572  43.033  1.00  0.00     0.000 C 
BRANCH  21  22
ATOM     22  C   UNL     1      14.778 -27.781  42.022  1.00  0.00     0.000 C 
BRANCH  22  23
ATOM     23  C   UNL     1      15.370 -27.776  40.602  1.00  0.00     0.000 C 
BRANCH  23  24
ATOM     24  C   UNL     1      15.640 -26.353  40.085  1.00  0.00    -0.000 C 
BRANCH  24  25
ATOM     25  C   UNL     1      15.554 -25.295  41.196  1.00  0.00    -0.000 C 
BRANCH  25  26
ATOM     26  C   UNL     1      14.424 -24.295  40.914  1.00  0.00    -0.000 C 
BRANCH  26  27
ATOM     27  C   UNL     1      13.969 -24.304  39.443  1.00  0.00    -0.000 C 
BRANCH  27  28
ATOM     28  C   UNL     1      12.651 -23.554  39.160  1.00  0.00    -0.000 C 
BRANCH  28  29
ATOM     29  C   UNL     1      12.441 -22.263  39.973  1.00  0.00    -0.000 C 
BRANCH  29  30
ATOM     30  C   UNL     1      11.175 -22.307  40.846  1.00  0.00    -0.000 C 
BRANCH  30  31
ATOM     31  C   UNL     1      10.741 -23.743  41.182  1.00  0.00    -0.003 C 
ATOM     32  C   UNL     1       9.343 -24.077  40.661  1.00  0.00     0.004 C 
ENDBRANCH  30  31
ENDBRANCH  29  30
ENDBRANCH  28  29
ENDBRANCH  27  28
ENDBRANCH  26  27
ENDBRANCH  25  26
ENDBRANCH  24  25
ENDBRANCH  23  24
ENDBRANCH  22  23
ENDBRANCH  21  22
ENDBRANCH  20  21
ENDBRANCH  19  20
ENDBRANCH  18  19
ENDBRANCH   1  18
TORSDOF 28
ENDMDL
MODEL 6
REMARK VINA RESULT:    -4.163      2.354      5.060
REMARK INTER + INTRA:         -16.145
REMARK INTER:                  -9.728
REMARK INTRA:                  -6.417
REMARK UNBOUND:                -5.166
REMARK SMILES CCCCCCCCCCCCCCCCCCCCCCCCCCCCCC(=O)[O-]
REMARK SMILES IDX 16 1 17 2 18 3 19 4 20 5 21 6 22 7 23 8 24 9 25 10 26 11
REMARK SMILES IDX 27 12 28 13 29 14 30 15 31 16 32 17 15 18 14 19 13 20 12 21
REMARK SMILES IDX 11 22 10 23 9 24 8 25 7 26 6 27 5 28 4 29 3 30 2 31 1 32
REMARK H PARENT
REMARK Flexibility Score: inf
ROOT
ATOM      1  C   UNL     1      14.272 -32.491  42.107  1.00  0.00     0.000 C 
ENDROOT
BRANCH   1   2
ATOM      2  C   UNL     1      13.790 -32.560  40.647  1.00  0.00     0.000 C 
BRANCH   2   3
ATOM      3  C   UNL     1      13.888 -31.209  39.921  1.00  0.00     0.000 C 
BRANCH   3   4
ATOM      4  C   UNL     1      12.655 -30.319  40.156  1.00  0.00     0.000 C 
BRANCH   4   5
ATOM      5  C   UNL     1      11.344 -31.122  40.217  1.00  0.00     0.000 C 
BRANCH   5   6
ATOM      6  C   UNL     1      10.057 -30.274  40.248  1.00  0.00     0.000 C 
BRANCH   6   7
ATOM      7  C   UNL     1       9.158 -30.494  41.482  1.00  0.00     0.000 C 
BRANCH   7   8
ATOM      8  C   UNL     1       8.977 -29.258  42.381  1.00  0.00     0.000 C 
BRANCH   8   9
ATOM      9  C   UNL     1       8.591 -27.998  41.589  1.00  0.00     0.000 C 
BRANCH   9  10
ATOM     10  C   UNL     1       9.458 -26.800  42.004  1.00  0.00     0.000 C 
BRANCH  10  11
ATOM     11  C   UNL     1      10.200 -26.173  40.812  1.00  0.00     0.000 C 
BRANCH  11  12
ATOM     12  C   UNL     1      11.619 -26.744  40.635  1.00  0.00     0.000 C 
BRANCH  12  13
ATOM     13  C   UNL     1      12.008 -26.911  39.157  1.00  0.00     0.006 C 
BRANCH  13  14
ATOM     14  C   UNL     1      10.822 -27.344  38.285  1.00  0.00     0.053 C 
BRANCH  14  15
ATOM     15  C   UNL     1      11.303 -28.020  37.040  1.00  0.00     0.041 C 
ATOM     16  O   UNL     1      11.936 -27.366  36.170  1.00  0.00    -0.550 OA
ATOM     17  O   UNL     1      11.033 -29.368  36.829  1.00  0.00    -0.550 OA
ENDBRANCH  14  15
ENDBRANCH  13  14
ENDBRANCH  12  13
ENDBRANCH  11  12
ENDBRANCH  10  11
ENDBRANCH   9  10
ENDBRANCH   8   9
ENDBRANCH   7   8
ENDBRANCH   6   7
ENDBRANCH   5   6
ENDBRANCH   4   5
ENDBRANCH   3   4
ENDBRANCH   2   3
ENDBRANCH   1   2
BRANCH   1  18
ATOM     18  C   UNL     1      13.157 -32.872  43.102  1.00  0.00     0.000 C 
BRANCH  18  19
ATOM     19  C   UNL     1      12.961 -31.854  44.244  1.00  0.00     0.000 C 
BRANCH  19  20
ATOM     20  C   UNL     1      12.051 -30.661  43.882  1.00  0.00     0.000 C 
BRANCH  20  21
ATOM     21  C   UNL     1      12.795 -29.356  43.527  1.00  0.00     0.000 C 
BRANCH  21  22
ATOM     22  C   UNL     1      14.252 -29.265  44.023  1.00  0.00     0.000 C 
BRANCH  22  23
ATOM     23  C   UNL     1      15.259 -28.970  42.898  1.00  0.00     0.000 C 
BRANCH  23  24
ATOM     24  C   UNL     1      14.940 -27.662  42.154  1.00  0.00    -0.000 C 
BRANCH  24  25
ATOM     25  C   UNL     1      15.327 -27.720  40.668  1.00  0.00    -0.000 C 
BRANCH  25  26
ATOM     26  C   UNL     1      15.774 -26.340  40.164  1.00  0.00    -0.000 C 
BRANCH  26  27
ATOM     27  C   UNL     1      14.883 -25.196  40.679  1.00  0.00    -0.000 C 
BRANCH  27  28
ATOM     28  C   UNL     1      14.342 -24.245  39.590  1.00  0.00    -0.000 C 
BRANCH  28  29
ATOM     29  C   UNL     1      13.171 -23.346  40.025  1.00  0.00    -0.000 C 
BRANCH  29  30
ATOM     30  C   UNL     1      13.056 -23.217  41.554  1.00  0.00    -0.000 C 
BRANCH  30  31
ATOM     31  C   UNL     1      11.627 -22.882  42.010  1.00  0.00    -0.003 C 
ATOM     32  C   UNL     1      10.708 -22.498  40.850  1.00  0.00     0.004 C 
ENDBRANCH  30  31
ENDBRANCH  29  30
ENDBRANCH  28  29
ENDBRANCH  27  28
ENDBRANCH  26  27
ENDBRANCH  25  26
ENDBRANCH  24  25
ENDBRANCH  23  24
ENDBRANCH  22  23
ENDBRANCH  21  22
ENDBRANCH  20  21
ENDBRANCH  19  20
ENDBRANCH  18  19
ENDBRANCH   1  18
TORSDOF 28
ENDMDL
MODEL 7
REMARK VINA RESULT:    -4.156      2.232      5.359
REMARK INTER + INTRA:         -16.124
REMARK INTER:                  -9.996
REMARK INTRA:                  -6.128
REMARK UNBOUND:                -5.166
REMARK SMILES CCCCCCCCCCCCCCCCCCCCCCCCCCCCCC(=O)[O-]
REMARK SMILES IDX 16 1 17 2 18 3 19 4 20 5 21 6 22 7 23 8 24 9 25 10 26 11
REMARK SMILES IDX 27 12 28 13 29 14 30 15 31 16 32 17 15 18 14 19 13 20 12 21
REMARK SMILES IDX 11 22 10 23 9 24 8 25 7 26 6 27 5 28 4 29 3 30 2 31 1 32
REMARK H PARENT
REMARK Flexibility Score: inf
ROOT
ATOM      1  C   UNL     1       7.894 -26.506  41.372  1.00  0.00     0.000 C 
ENDROOT
BRANCH   1   2
ATOM      2  C   UNL     1       8.132 -27.984  41.014  1.00  0.00     0.000 C 
BRANCH   2   3
ATOM      3  C   UNL     1       8.749 -28.787  42.169  1.00  0.00     0.000 C 
BRANCH   3   4
ATOM      4  C   UNL     1      10.008 -29.564  41.746  1.00  0.00     0.000 C 
BRANCH   4   5
ATOM      5  C   UNL     1      11.297 -28.739  41.902  1.00  0.00     0.000 C 
BRANCH   5   6
ATOM      6  C   UNL     1      12.321 -29.307  42.906  1.00  0.00     0.000 C 
BRANCH   6   7
ATOM      7  C   UNL     1      13.612 -29.868  42.276  1.00  0.00     0.000 C 
BRANCH   7   8
ATOM      8  C   UNL     1      13.556 -31.361  41.905  1.00  0.00     0.000 C 
BRANCH   8   9
ATOM      9  C   UNL     1      13.546 -31.596  40.386  1.00  0.00     0.000 C 
BRANCH   9  10
ATOM     10  C   UNL     1      13.985 -30.332  39.630  1.00  0.00     0.000 C 
BRANCH  10  11
ATOM     11  C   UNL     1      12.911 -29.832  38.651  1.00  0.00     0.000 C 
BRANCH  11  12
ATOM     12  C   UNL     1      11.706 -30.786  38.560  1.00  0.00     0.000 C 
BRANCH  12  13
ATOM     13  C   UNL     1      10.421 -30.074  38.108  1.00  0.00     0.006 C 
BRANCH  13  14
ATOM     14  C   UNL     1      10.557 -28.545  38.141  1.00  0.00     0.053 C 
BRANCH  14  15
ATOM     15  C   UNL     1      10.464 -27.978  36.760  1.00  0.00     0.041 C 
ATOM     16  O   UNL     1      11.291 -28.326  35.877  1.00  0.00    -0.550 OA
ATOM     17  O   UNL     1       9.478 -27.047  36.453  1.00  0.00    -0.550 OA
ENDBRANCH  14  15
ENDBRANCH  13  14
ENDBRANCH  12  13
ENDBRANCH  11  12
ENDBRANCH  10  11
ENDBRANCH   9  10
ENDBRANCH   8   9
ENDBRANCH   7   8
ENDBRANCH   6   7
ENDBRANCH   5   6
ENDBRANCH   4   5
ENDBRANCH   3   4
ENDBRANCH   2   3
ENDBRANCH   1   2
BRANCH   1  18
ATOM     18  C   UNL     1       9.200 -25.687  41.345  1.00  0.00     0.000 C 
BRANCH  18  19
ATOM     19  C   UNL     1       9.817 -25.539  39.940  1.00  0.00     0.000 C 
BRANCH  19  20
ATOM     20  C   UNL     1      10.100 -24.080  39.520  1.00  0.00     0.000 C 
BRANCH  20  21
ATOM     21  C   UNL     1       9.635 -23.009  40.530  1.00  0.00     0.000 C 
BRANCH  21  22
ATOM     22  C   UNL     1      10.759 -22.200  41.208  1.00  0.00     0.000 C 
BRANCH  22  23
ATOM     23  C   UNL     1      11.610 -23.038  42.178  1.00  0.00     0.000 C 
BRANCH  23  24
ATOM     24  C   UNL     1      13.051 -22.514  42.296  1.00  0.00    -0.000 C 
BRANCH  24  25
ATOM     25  C   UNL     1      13.752 -22.403  40.934  1.00  0.00    -0.000 C 
BRANCH  25  26
ATOM     26  C   UNL     1      15.178 -22.970  41.004  1.00  0.00    -0.000 C 
BRANCH  26  27
ATOM     27  C   UNL     1      15.276 -24.240  41.867  1.00  0.00    -0.000 C 
BRANCH  27  28
ATOM     28  C   UNL     1      15.729 -25.510  41.117  1.00  0.00    -0.000 C 
BRANCH  28  29
ATOM     29  C   UNL     1      14.663 -26.613  40.990  1.00  0.00    -0.000 C 
BRANCH  29  30
ATOM     30  C   UNL     1      13.347 -26.103  40.376  1.00  0.00    -0.000 C 
BRANCH  30  31
ATOM     31  C   UNL     1      13.344 -26.181  38.841  1.00  0.00    -0.003 C 
ATOM     32  C   UNL     1      13.595 -24.827  38.178  1.00  0.00     0.004 C 
ENDBRANCH  30  31
ENDBRANCH  29  30
ENDBRANCH  28  29
ENDBRANCH  27  28
ENDBRANCH  26  27
ENDBRANCH  25  26
ENDBRANCH  24  25
ENDBRANCH  23  24
ENDBRANCH  22  23
ENDBRANCH  21  22
ENDBRANCH  20  21
ENDBRANCH  19  20
ENDBRANCH  18  19
ENDBRANCH   1  18
TORSDOF 28
ENDMDL
MODEL 8
REMARK VINA RESULT:    -4.125      1.309      6.086
REMARK INTER + INTRA:         -16.044
REMARK INTER:                 -10.390
REMARK INTRA:                  -5.655
REMARK UNBOUND:                -5.166
REMARK SMILES CCCCCCCCCCCCCCCCCCCCCCCCCCCCCC(=O)[O-]
REMARK SMILES IDX 16 1 17 2 18 3 19 4 20 5 21 6 22 7 23 8 24 9 25 10 26 11
REMARK SMILES IDX 27 12 28 13 29 14 30 15 31 16 32 17 15 18 14 19 13 20 12 21
REMARK SMILES IDX 11 22 10 23 9 24 8 25 7 26 6 27 5 28 4 29 3 30 2 31 1 32
REMARK H PARENT
REMARK Flexibility Score: inf
ROOT
ATOM      1  C   UNL     1      15.178 -26.740  40.981  1.00  0.00     0.000 C 
ENDROOT
BRANCH   1   2
ATOM      2  C   UNL     1      15.535 -26.777  39.484  1.00  0.00     0.000 C 
BRANCH   2   3
ATOM      3  C   UNL     1      14.472 -27.491  38.635  1.00  0.00     0.000 C 
BRANCH   3   4
ATOM      4  C   UNL     1      13.328 -26.556  38.205  1.00  0.00     0.000 C 
BRANCH   4   5
ATOM      5  C   UNL     1      12.005 -26.864  38.928  1.00  0.00     0.000 C 
BRANCH   5   6
ATOM      6  C   UNL     1      11.579 -25.826  39.985  1.00  0.00     0.000 C 
BRANCH   6   7
ATOM      7  C   UNL     1      10.438 -24.883  39.554  1.00  0.00     0.000 C 
BRANCH   7   8
ATOM      8  C   UNL     1       9.805 -24.066  40.694  1.00  0.00     0.000 C 
BRANCH   8   9
ATOM      9  C   UNL     1      10.258 -22.597  40.696  1.00  0.00     0.000 C 
BRANCH   9  10
ATOM     10  C   UNL     1      11.334 -22.353  41.765  1.00  0.00     0.000 C 
BRANCH  10  11
ATOM     11  C   UNL     1      12.669 -21.892  41.159  1.00  0.00     0.000 C 
BRANCH  11  12
ATOM     12  C   UNL     1      13.636 -23.063  40.904  1.00  0.00     0.000 C 
BRANCH  12  13
ATOM     13  C   UNL     1      14.406 -22.915  39.582  1.00  0.00     0.006 C 
BRANCH  13  14
ATOM     14  C   UNL     1      13.477 -22.920  38.360  1.00  0.00     0.053 C 
BRANCH  14  15
ATOM     15  C   UNL     1      13.848 -21.825  37.411  1.00  0.00     0.041 C 
ATOM     16  O   UNL     1      14.022 -22.078  36.190  1.00  0.00    -0.550 OA
ATOM     17  O   UNL     1      14.026 -20.527  37.879  1.00  0.00    -0.550 OA
ENDBRANCH  14  15
ENDBRANCH  13  14
ENDBRANCH  12  13
ENDBRANCH  11  12
ENDBRANCH  10  11
ENDBRANCH   9  10
ENDBRANCH   8   9
ENDBRANCH   7   8
ENDBRANCH   6   7
ENDBRANCH   5   6
ENDBRANCH   4   5
ENDBRANCH   3   4
ENDBRANCH   2   3
ENDBRANCH   1   2
BRANCH   1  18
ATOM     18  C   UNL     1      14.545 -28.062  41.458  1.00  0.00     0.000 C 
BRANCH  18  19
ATOM     19  C   UNL     1      15.123 -28.589  42.788  1.00  0.00     0.000 C 
BRANCH  19  20
ATOM     20  C   UNL     1      14.130 -29.423  43.626  1.00  0.00     0.000 C 
BRANCH  20  21
ATOM     21  C   UNL     1      12.745 -29.633  42.977  1.00  0.00     0.000 C 
BRANCH  21  22
ATOM     22  C   UNL     1      12.340 -31.099  42.730  1.00  0.00     0.000 C 
BRANCH  22  23
ATOM     23  C   UNL     1      13.517 -31.989  42.292  1.00  0.00     0.000 C 
BRANCH  23  24
ATOM     24  C   UNL     1      13.891 -31.780  40.815  1.00  0.00    -0.000 C 
BRANCH  24  25
ATOM     25  C   UNL     1      12.672 -31.844  39.882  1.00  0.00    -0.000 C 
BRANCH  25  26
ATOM     26  C   UNL     1      12.524 -30.539  39.085  1.00  0.00    -0.000 C 
BRANCH  26  27
ATOM     27  C   UNL     1      11.138 -30.390  38.432  1.00  0.00    -0.000 C 
BRANCH  27  28
ATOM     28  C   UNL     1       9.940 -30.582  39.385  1.00  0.00    -0.000 C 
BRANCH  28  29
ATOM     29  C   UNL     1       9.315 -29.283  39.925  1.00  0.00    -0.000 C 
BRANCH  29  30
ATOM     30  C   UNL     1       9.532 -29.101  41.437  1.00  0.00    -0.000 C 
BRANCH  30  31
ATOM     31  C   UNL     1       9.104 -27.709  41.930  1.00  0.00    -0.003 C 
ATOM     32  C   UNL     1       7.852 -27.189  41.223  1.00  0.00     0.004 C 
ENDBRANCH  30  31
ENDBRANCH  29  30
ENDBRANCH  28  29
ENDBRANCH  27  28
ENDBRANCH  26  27
ENDBRANCH  25  26
ENDBRANCH  24  25
ENDBRANCH  23  24
ENDBRANCH  22  23
ENDBRANCH  21  22
ENDBRANCH  20  21
ENDBRANCH  19  20
ENDBRANCH  18  19
ENDBRANCH   1  18
TORSDOF 28
ENDMDL
MODEL 9
REMARK VINA RESULT:    -4.119      2.378      6.755
REMARK INTER + INTRA:         -16.028
REMARK INTER:                 -10.441
REMARK INTRA:                  -5.587
REMARK UNBOUND:                -5.166
REMARK SMILES CCCCCCCCCCCCCCCCCCCCCCCCCCCCCC(=O)[O-]
REMARK SMILES IDX 16 1 17 2 18 3 19 4 20 5 21 6 22 7 23 8 24 9 25 10 26 11
REMARK SMILES IDX 27 12 28 13 29 14 30 15 31 16 32 17 15 18 14 19 13 20 12 21
REMARK SMILES IDX 11 22 10 23 9 24 8 25 7 26 6 27 5 28 4 29 3 30 2 31 1 32
REMARK H PARENT
REMARK Flexibility Score: inf
ROOT
ATOM      1  C   UNL     1       9.711 -22.992  40.940  1.00  0.00     0.000 C 
ENDROOT
BRANCH   1   2
ATOM      2  C   UNL     1      11.109 -22.352  40.873  1.00  0.00     0.000 C 
BRANCH   2   3
ATOM      3  C   UNL     1      12.236 -23.390  40.753  1.00  0.00     0.000 C 
BRANCH   3   4
ATOM      4  C   UNL     1      12.941 -23.346  39.386  1.00  0.00     0.000 C 
BRANCH   4   5
ATOM      5  C   UNL     1      14.316 -24.035  39.404  1.00  0.00     0.000 C 
BRANCH   5   6
ATOM      6  C   UNL     1      14.974 -24.149  40.794  1.00  0.00     0.000 C 
BRANCH   6   7
ATOM      7  C   UNL     1      15.873 -25.386  40.993  1.00  0.00     0.000 C 
BRANCH   7   8
ATOM      8  C   UNL     1      16.016 -26.290  39.755  1.00  0.00     0.000 C 
BRANCH   8   9
ATOM      9  C   UNL     1      15.534 -27.728  40.011  1.00  0.00     0.000 C 
BRANCH   9  10
ATOM     10  C   UNL     1      14.725 -27.814  41.315  1.00  0.00     0.000 C 
BRANCH  10  11
ATOM     11  C   UNL     1      13.252 -28.179  41.068  1.00  0.00     0.000 C 
BRANCH  11  12
ATOM     12  C   UNL     1      12.441 -27.001  40.499  1.00  0.00     0.000 C 
BRANCH  12  13
ATOM     13  C   UNL     1      11.709 -27.363  39.197  1.00  0.00     0.006 C 
BRANCH  13  14
ATOM     14  C   UNL     1      12.678 -27.679  38.049  1.00  0.00     0.053 C 
BRANCH  14  15
ATOM     15  C   UNL     1      11.930 -28.156  36.845  1.00  0.00     0.041 C 
ATOM     16  O   UNL     1      12.255 -29.236  36.285  1.00  0.00    -0.550 OA
ATOM     17  O   UNL     1      10.888 -27.396  36.324  1.00  0.00    -0.550 OA
ENDBRANCH  14  15
ENDBRANCH  13  14
ENDBRANCH  12  13
ENDBRANCH  11  12
ENDBRANCH  10  11
ENDBRANCH   9  10
ENDBRANCH   8   9
ENDBRANCH   7   8
ENDBRANCH   6   7
ENDBRANCH   5   6
ENDBRANCH   4   5
ENDBRANCH   3   4
ENDBRANCH   2   3
ENDBRANCH   1   2
BRANCH   1  18
ATOM     18  C   UNL     1       9.694 -24.410  40.335  1.00  0.00     0.000 C 
BRANCH  18  19
ATOM     19  C   UNL     1       8.620 -25.337  40.941  1.00  0.00     0.000 C 
BRANCH  19  20
ATOM     20  C   UNL     1       9.187 -26.571  41.675  1.00  0.00     0.000 C 
BRANCH  20  21
ATOM     21  C   UNL     1       8.248 -27.796  41.712  1.00  0.00     0.000 C 
BRANCH  21  22
ATOM     22  C   UNL     1       8.927 -29.148  42.005  1.00  0.00     0.000 C 
BRANCH  22  23
ATOM     23  C   UNL     1       9.252 -29.953  40.735  1.00  0.00     0.000 C 
BRANCH  23  24
ATOM     24  C   UNL     1      10.627 -30.638  40.811  1.00  0.00    -0.000 C 
BRANCH  24  25
ATOM     25  C   UNL     1      11.192 -30.981  39.424  1.00  0.00    -0.000 C 
BRANCH  25  26
ATOM     26  C   UNL     1      12.268 -32.073  39.527  1.00  0.00    -0.000 C 
BRANCH  26  27
ATOM     27  C   UNL     1      13.651 -31.518  39.912  1.00  0.00    -0.000 C 
BRANCH  27  28
ATOM     28  C   UNL     1      14.294 -32.166  41.156  1.00  0.00    -0.000 C 
BRANCH  28  29
ATOM     29  C   UNL     1      13.586 -31.872  42.491  1.00  0.00    -0.000 C 
BRANCH  29  30
ATOM     30  C   UNL     1      14.408 -30.953  43.411  1.00  0.00    -0.000 C 
BRANCH  30  31
ATOM     31  C   UNL     1      13.523 -30.029  44.264  1.00  0.00    -0.003 C 
ATOM     32  C   UNL     1      12.054 -30.452  44.266  1.00  0.00     0.004 C 
ENDBRANCH  30  31
ENDBRANCH  29  30
ENDBRANCH  28  29
ENDBRANCH  27  28
ENDBRANCH  26  27
ENDBRANCH  25  26
ENDBRANCH  24  25
ENDBRANCH  23  24
ENDBRANCH  22  23
ENDBRANCH  21  22
ENDBRANCH  20  21
ENDBRANCH  19  20
ENDBRANCH  18  19
ENDBRANCH   1  18
TORSDOF 28
ENDMDL
