MODEL 1
REMARK VINA RESULT:    -1.577      0.000      0.000
REMARK INTER + INTRA:         -10.520
REMARK INTER:                  -4.158
REMARK INTRA:                  -6.362
REMARK UNBOUND:                -6.362
REMARK SMILES CCCCCCCCCCCCCCCCCCCCCCCCCCCCCC(=O)[O-]
REMARK SMILES IDX 16 1 17 2 18 3 19 4 20 5 21 6 22 7 23 8 24 9 25 10 26 11
REMARK SMILES IDX 27 12 28 13 29 14 30 15 31 16 32 17 15 18 14 19 13 20 12 21
REMARK SMILES IDX 11 22 10 23 9 24 8 25 7 26 6 27 5 28 4 29 3 30 2 31 1 32
REMARK H PARENT
REMARK Flexibility Score: inf
ROOT
ATOM      1  C   UNL     1     165.830 196.340 185.755  1.00  0.00     0.000 C 
ENDROOT
BRANCH   1   2
ATOM      2  C   UNL     1     165.463 195.385 186.902  1.00  0.00     0.000 C 
BRANCH   2   3
ATOM      3  C   UNL     1     164.513 194.259 186.465  1.00  0.00     0.000 C 
BRANCH   3   4
ATOM      4  C   UNL     1     163.296 194.178 187.398  1.00  0.00     0.000 C 
BRANCH   4   5
ATOM      5  C   UNL     1     162.160 193.327 186.811  1.00  0.00     0.000 C 
BRANCH   5   6
ATOM      6  C   UNL     1     162.196 193.271 185.272  1.00  0.00     0.000 C 
BRANCH   6   7
ATOM      7  C   UNL     1     161.283 194.338 184.629  1.00  0.00     0.000 C 
BRANCH   7   8
ATOM      8  C   UNL     1     162.055 195.463 183.917  1.00  0.00     0.000 C 
BRANCH   8   9
ATOM      9  C   UNL     1     162.086 196.771 184.726  1.00  0.00     0.000 C 
BRANCH   9  10
ATOM     10  C   UNL     1     161.098 196.768 185.904  1.00  0.00     0.000 C 
BRANCH  10  11
ATOM     11  C   UNL     1     161.499 197.726 187.047  1.00  0.00     0.000 C 
BRANCH  11  12
ATOM     12  C   UNL     1     162.973 198.157 186.946  1.00  0.00     0.000 C 
BRANCH  12  13
ATOM     13  C   UNL     1     163.650 198.286 188.319  1.00  0.00     0.006 C 
BRANCH  13  14
ATOM     14  C   UNL     1     164.977 199.053 188.252  1.00  0.00     0.053 C 
BRANCH  14  15
ATOM     15  C   UNL     1     165.894 198.622 189.354  1.00  0.00     0.041 C 
ATOM     16  O   UNL     1     166.821 197.802 189.120  1.00  0.00    -0.550 OA
ATOM     17  O   UNL     1     165.702 199.095 190.646  1.00  0.00    -0.550 OA
ENDBRANCH  14  15
ENDBRANCH  13  14
ENDBRANCH  12  13
ENDBRANCH  11  12
ENDBRANCH  10  11
ENDBRANCH   9  10
ENDBRANCH   8   9
ENDBRANCH   7   8
ENDBRANCH   6   7
ENDBRANCH   5   6
ENDBRANCH   4   5
ENDBRANCH   3   4
ENDBRANCH   2   3
ENDBRANCH   1   2
BRANCH   1  18
ATOM     18  C   UNL     1     165.672 195.689 184.365  1.00  0.00     0.000 C 
BRANCH  18  19
ATOM     19  C   UNL     1     165.434 196.724 183.246  1.00  0.00     0.000 C 
BRANCH  19  20
ATOM     20  C   UNL     1     165.863 198.157 183.611  1.00  0.00     0.000 C 
BRANCH  20  21
ATOM     21  C   UNL     1     164.696 199.154 183.611  1.00  0.00     0.000 C 
BRANCH  21  22
ATOM     22  C   UNL     1     164.894 200.233 184.685  1.00  0.00     0.000 C 
BRANCH  22  23
ATOM     23  C   UNL     1     165.482 201.539 184.119  1.00  0.00     0.000 C 
BRANCH  23  24
ATOM     24  C   UNL     1     165.750 202.640 185.167  1.00  0.00    -0.000 C 
BRANCH  24  25
ATOM     25  C   UNL     1     164.755 202.689 186.344  1.00  0.00    -0.000 C 
BRANCH  25  26
ATOM     26  C   UNL     1     163.574 203.659 186.163  1.00  0.00    -0.000 C 
BRANCH  26  27
ATOM     27  C   UNL     1     162.223 203.019 186.526  1.00  0.00    -0.000 C 
BRANCH  27  28
ATOM     28  C   UNL     1     162.380 201.659 187.224  1.00  0.00    -0.000 C 
BRANCH  28  29
ATOM     29  C   UNL     1     161.663 201.601 188.585  1.00  0.00    -0.000 C 
BRANCH  29  30
ATOM     30  C   UNL     1     162.359 202.450 189.665  1.00  0.00    -0.000 C 
BRANCH  30  31
ATOM     31  C   UNL     1     163.830 202.087 189.938  1.00  0.00    -0.003 C 
ATOM     32  C   UNL     1     164.747 203.307 190.021  1.00  0.00     0.004 C 
ENDBRANCH  30  31
ENDBRANCH  29  30
ENDBRANCH  28  29
ENDBRANCH  27  28
ENDBRANCH  26  27
ENDBRANCH  25  26
ENDBRANCH  24  25
ENDBRANCH  23  24
ENDBRANCH  22  23
ENDBRANCH  21  22
ENDBRANCH  20  21
ENDBRANCH  19  20
ENDBRANCH  18  19
ENDBRANCH   1  18
TORSDOF 28
ENDMDL
MODEL 2
REMARK VINA RESULT:    -1.558      2.479      7.541
REMARK INTER + INTRA:         -10.470
REMARK INTER:                  -4.391
REMARK INTRA:                  -6.079
REMARK UNBOUND:                -6.362
REMARK SMILES CCCCCCCCCCCCCCCCCCCCCCCCCCCCCC(=O)[O-]
REMARK SMILES IDX 16 1 17 2 18 3 19 4 20 5 21 6 22 7 23 8 24 9 25 10 26 11
REMARK SMILES IDX 27 12 28 13 29 14 30 15 31 16 32 17 15 18 14 19 13 20 12 21
REMARK SMILES IDX 11 22 10 23 9 24 8 25 7 26 6 27 5 28 4 29 3 30 2 31 1 32
REMARK H PARENT
REMARK Flexibility Score: inf
ROOT
ATOM      1  C   UNL     1     165.648 201.420 185.806  1.00  0.00     0.000 C 
ENDROOT
BRANCH   1   2
ATOM      2  C   UNL     1     164.576 202.049 186.711  1.00  0.00     0.000 C 
BRANCH   2   3
ATOM      3  C   UNL     1     163.747 203.129 185.999  1.00  0.00     0.000 C 
BRANCH   3   4
ATOM      4  C   UNL     1     163.456 204.304 186.943  1.00  0.00     0.000 C 
BRANCH   4   5
ATOM      5  C   UNL     1     163.053 205.580 186.187  1.00  0.00     0.000 C 
BRANCH   5   6
ATOM      6  C   UNL     1     162.554 205.290 184.759  1.00  0.00     0.000 C 
BRANCH   6   7
ATOM      7  C   UNL     1     163.404 206.009 183.689  1.00  0.00     0.000 C 
BRANCH   7   8
ATOM      8  C   UNL     1     164.456 205.103 183.025  1.00  0.00     0.000 C 
BRANCH   8   9
ATOM      9  C   UNL     1     165.884 205.660 183.144  1.00  0.00     0.000 C 
BRANCH   9  10
ATOM     10  C   UNL     1     166.021 206.725 184.245  1.00  0.00     0.000 C 
BRANCH  10  11
ATOM     11  C   UNL     1     166.604 206.176 185.564  1.00  0.00     0.000 C 
BRANCH  11  12
ATOM     12  C   UNL     1     167.285 204.809 185.369  1.00  0.00     0.000 C 
BRANCH  12  13
ATOM     13  C   UNL     1     167.892 204.257 186.667  1.00  0.00     0.006 C 
BRANCH  13  14
ATOM     14  C   UNL     1     167.037 204.578 187.900  1.00  0.00     0.053 C 
BRANCH  14  15
ATOM     15  C   UNL     1     167.477 203.763 189.076  1.00  0.00     0.041 C 
ATOM     16  O   UNL     1     168.310 204.235 189.895  1.00  0.00    -0.550 OA
ATOM     17  O   UNL     1     166.998 202.470 189.248  1.00  0.00    -0.550 OA
ENDBRANCH  14  15
ENDBRANCH  13  14
ENDBRANCH  12  13
ENDBRANCH  11  12
ENDBRANCH  10  11
ENDBRANCH   9  10
ENDBRANCH   8   9
ENDBRANCH   7   8
ENDBRANCH   6   7
ENDBRANCH   5   6
ENDBRANCH   4   5
ENDBRANCH   3   4
ENDBRANCH   2   3
ENDBRANCH   1   2
BRANCH   1  18
ATOM     18  C   UNL     1     165.508 201.849 184.331  1.00  0.00     0.000 C 
BRANCH  18  19
ATOM     19  C   UNL     1     165.432 200.648 183.366  1.00  0.00     0.000 C 
BRANCH  19  20
ATOM     20  C   UNL     1     164.720 199.415 183.950  1.00  0.00     0.000 C 
BRANCH  20  21
ATOM     21  C   UNL     1     164.484 198.308 182.912  1.00  0.00     0.000 C 
BRANCH  21  22
ATOM     22  C   UNL     1     165.092 196.978 183.379  1.00  0.00     0.000 C 
BRANCH  22  23
ATOM     23  C   UNL     1     164.085 196.091 184.136  1.00  0.00     0.000 C 
BRANCH  23  24
ATOM     24  C   UNL     1     162.601 196.409 183.860  1.00  0.00    -0.000 C 
BRANCH  24  25
ATOM     25  C   UNL     1     161.775 196.826 185.094  1.00  0.00    -0.000 C 
BRANCH  25  26
ATOM     26  C   UNL     1     162.546 196.831 186.427  1.00  0.00    -0.000 C 
BRANCH  26  27
ATOM     27  C   UNL     1     162.911 198.251 186.893  1.00  0.00    -0.000 C 
BRANCH  27  28
ATOM     28  C   UNL     1     164.360 198.356 187.397  1.00  0.00    -0.000 C 
BRANCH  28  29
ATOM     29  C   UNL     1     165.009 196.981 187.636  1.00  0.00    -0.000 C 
BRANCH  29  30
ATOM     30  C   UNL     1     166.354 196.818 186.902  1.00  0.00    -0.000 C 
BRANCH  30  31
ATOM     31  C   UNL     1     167.254 198.067 186.900  1.00  0.00    -0.003 C 
ATOM     32  C   UNL     1     167.819 198.400 185.519  1.00  0.00     0.004 C 
ENDBRANCH  30  31
ENDBRANCH  29  30
ENDBRANCH  28  29
ENDBRANCH  27  28
ENDBRANCH  26  27
ENDBRANCH  25  26
ENDBRANCH  24  25
ENDBRANCH  23  24
ENDBRANCH  22  23
ENDBRANCH  21  22
ENDBRANCH  20  21
ENDBRANCH  19  20
ENDBRANCH  18  19
ENDBRANCH   1  18
TORSDOF 28
ENDMDL
MODEL 3
REMARK VINA RESULT:    -1.520      2.691      5.983
REMARK INTER + INTRA:         -10.371
REMARK INTER:                  -4.153
REMARK INTRA:                  -6.218
REMARK UNBOUND:                -6.362
REMARK SMILES CCCCCCCCCCCCCCCCCCCCCCCCCCCCCC(=O)[O-]
REMARK SMILES IDX 16 1 17 2 18 3 19 4 20 5 21 6 22 7 23 8 24 9 25 10 26 11
REMARK SMILES IDX 27 12 28 13 29 14 30 15 31 16 32 17 15 18 14 19 13 20 12 21
REMARK SMILES IDX 11 22 10 23 9 24 8 25 7 26 6 27 5 28 4 29 3 30 2 31 1 32
REMARK H PARENT
REMARK Flexibility Score: inf
ROOT
ATOM      1  C   UNL     1     165.828 202.788 189.084  1.00  0.00     0.000 C 
ENDROOT
BRANCH   1   2
ATOM      2  C   UNL     1     166.850 203.593 188.266  1.00  0.00     0.000 C 
BRANCH   2   3
ATOM      3  C   UNL     1     168.206 202.882 188.133  1.00  0.00     0.000 C 
BRANCH   3   4
ATOM      4  C   UNL     1     168.142 201.469 188.729  1.00  0.00     0.000 C 
BRANCH   4   5
ATOM      5  C   UNL     1     168.741 200.407 187.794  1.00  0.00     0.000 C 
BRANCH   5   6
ATOM      6  C   UNL     1     167.739 199.288 187.450  1.00  0.00     0.000 C 
BRANCH   6   7
ATOM      7  C   UNL     1     166.584 199.208 188.472  1.00  0.00     0.000 C 
BRANCH   7   8
ATOM      8  C   UNL     1     165.233 198.817 187.846  1.00  0.00     0.000 C 
BRANCH   8   9
ATOM      9  C   UNL     1     165.385 198.138 186.475  1.00  0.00     0.000 C 
BRANCH   9  10
ATOM     10  C   UNL     1     164.061 198.054 185.699  1.00  0.00     0.000 C 
BRANCH  10  11
ATOM     11  C   UNL     1     164.248 197.881 184.176  1.00  0.00     0.000 C 
BRANCH  11  12
ATOM     12  C   UNL     1     163.002 197.269 183.509  1.00  0.00     0.000 C 
BRANCH  12  13
ATOM     13  C   UNL     1     162.100 196.525 184.505  1.00  0.00     0.006 C 
BRANCH  13  14
ATOM     14  C   UNL     1     162.084 195.009 184.266  1.00  0.00     0.053 C 
BRANCH  14  15
ATOM     15  C   UNL     1     162.174 194.268 185.564  1.00  0.00     0.041 C 
ATOM     16  O   UNL     1     161.321 193.385 185.847  1.00  0.00    -0.550 OA
ATOM     17  O   UNL     1     163.175 194.577 186.477  1.00  0.00    -0.550 OA
ENDBRANCH  14  15
ENDBRANCH  13  14
ENDBRANCH  12  13
ENDBRANCH  11  12
ENDBRANCH  10  11
ENDBRANCH   9  10
ENDBRANCH   8   9
ENDBRANCH   7   8
ENDBRANCH   6   7
ENDBRANCH   5   6
ENDBRANCH   4   5
ENDBRANCH   3   4
ENDBRANCH   2   3
ENDBRANCH   1   2
BRANCH   1  18
ATOM     18  C   UNL     1     164.543 202.476 188.289  1.00  0.00     0.000 C 
BRANCH  18  19
ATOM     19  C   UNL     1     164.671 202.821 186.791  1.00  0.00     0.000 C 
BRANCH  19  20
ATOM     20  C   UNL     1     164.213 201.695 185.845  1.00  0.00     0.000 C 
BRANCH  20  21
ATOM     21  C   UNL     1     165.124 201.531 184.620  1.00  0.00     0.000 C 
BRANCH  21  22
ATOM     22  C   UNL     1     166.601 201.686 185.008  1.00  0.00     0.000 C 
BRANCH  22  23
ATOM     23  C   UNL     1     167.376 202.616 184.056  1.00  0.00     0.000 C 
BRANCH  23  24
ATOM     24  C   UNL     1     167.561 204.061 184.563  1.00  0.00    -0.000 C 
BRANCH  24  25
ATOM     25  C   UNL     1     166.385 205.017 184.280  1.00  0.00    -0.000 C 
BRANCH  25  26
ATOM     26  C   UNL     1     166.014 205.960 185.439  1.00  0.00    -0.000 C 
BRANCH  26  27
ATOM     27  C   UNL     1     164.518 206.316 185.454  1.00  0.00    -0.000 C 
BRANCH  27  28
ATOM     28  C   UNL     1     163.715 205.554 184.388  1.00  0.00    -0.000 C 
BRANCH  28  29
ATOM     29  C   UNL     1     162.339 205.088 184.896  1.00  0.00    -0.000 C 
BRANCH  29  30
ATOM     30  C   UNL     1     162.044 205.551 186.336  1.00  0.00    -0.000 C 
BRANCH  30  31
ATOM     31  C   UNL     1     161.274 204.539 187.204  1.00  0.00    -0.003 C 
ATOM     32  C   UNL     1     161.003 203.215 186.489  1.00  0.00     0.004 C 
ENDBRANCH  30  31
ENDBRANCH  29  30
ENDBRANCH  28  29
ENDBRANCH  27  28
ENDBRANCH  26  27
ENDBRANCH  25  26
ENDBRANCH  24  25
ENDBRANCH  23  24
ENDBRANCH  22  23
ENDBRANCH  21  22
ENDBRANCH  20  21
ENDBRANCH  19  20
ENDBRANCH  18  19
ENDBRANCH   1  18
TORSDOF 28
ENDMDL
MODEL 4
REMARK VINA RESULT:    -1.511      1.930      4.140
REMARK INTER + INTRA:         -10.346
REMARK INTER:                  -4.895
REMARK INTRA:                  -5.451
REMARK UNBOUND:                -6.362
REMARK SMILES CCCCCCCCCCCCCCCCCCCCCCCCCCCCCC(=O)[O-]
REMARK SMILES IDX 16 1 17 2 18 3 19 4 20 5 21 6 22 7 23 8 24 9 25 10 26 11
REMARK SMILES IDX 27 12 28 13 29 14 30 15 31 16 32 17 15 18 14 19 13 20 12 21
REMARK SMILES IDX 11 22 10 23 9 24 8 25 7 26 6 27 5 28 4 29 3 30 2 31 1 32
REMARK H PARENT
REMARK Flexibility Score: inf
ROOT
ATOM      1  C   UNL     1     165.489 200.603 183.150  1.00  0.00     0.000 C 
ENDROOT
BRANCH   1   2
ATOM      2  C   UNL     1     165.028 200.253 184.575  1.00  0.00     0.000 C 
BRANCH   2   3
ATOM      3  C   UNL     1     164.373 198.866 184.670  1.00  0.00     0.000 C 
BRANCH   3   4
ATOM      4  C   UNL     1     164.252 198.224 183.280  1.00  0.00     0.000 C 
BRANCH   4   5
ATOM      5  C   UNL     1     163.278 197.035 183.264  1.00  0.00     0.000 C 
BRANCH   5   6
ATOM      6  C   UNL     1     162.227 197.116 184.388  1.00  0.00     0.000 C 
BRANCH   6   7
ATOM      7  C   UNL     1     162.107 195.789 185.168  1.00  0.00     0.000 C 
BRANCH   7   8
ATOM      8  C   UNL     1     162.477 195.914 186.657  1.00  0.00     0.000 C 
BRANCH   8   9
ATOM      9  C   UNL     1     161.255 196.169 187.556  1.00  0.00     0.000 C 
BRANCH   9  10
ATOM     10  C   UNL     1     161.397 197.439 188.411  1.00  0.00     0.000 C 
BRANCH  10  11
ATOM     11  C   UNL     1     161.645 198.717 187.581  1.00  0.00     0.000 C 
BRANCH  11  12
ATOM     12  C   UNL     1     162.922 199.453 188.025  1.00  0.00     0.000 C 
BRANCH  12  13
ATOM     13  C   UNL     1     163.830 198.586 188.909  1.00  0.00     0.006 C 
BRANCH  13  14
ATOM     14  C   UNL     1     165.114 198.153 188.188  1.00  0.00     0.053 C 
BRANCH  14  15
ATOM     15  C   UNL     1     166.194 199.174 188.370  1.00  0.00     0.041 C 
ATOM     16  O   UNL     1     166.265 199.833 189.442  1.00  0.00    -0.550 OA
ATOM     17  O   UNL     1     167.098 199.425 187.345  1.00  0.00    -0.550 OA
ENDBRANCH  14  15
ENDBRANCH  13  14
ENDBRANCH  12  13
ENDBRANCH  11  12
ENDBRANCH  10  11
ENDBRANCH   9  10
ENDBRANCH   8   9
ENDBRANCH   7   8
ENDBRANCH   6   7
ENDBRANCH   5   6
ENDBRANCH   4   5
ENDBRANCH   3   4
ENDBRANCH   2   3
ENDBRANCH   1   2
BRANCH   1  18
ATOM     18  C   UNL     1     165.753 202.111 182.965  1.00  0.00     0.000 C 
BRANCH  18  19
ATOM     19  C   UNL     1     165.900 202.861 184.305  1.00  0.00     0.000 C 
BRANCH  19  20
ATOM     20  C   UNL     1     165.593 204.367 184.221  1.00  0.00     0.000 C 
BRANCH  20  21
ATOM     21  C   UNL     1     164.675 204.730 183.046  1.00  0.00     0.000 C 
BRANCH  21  22
ATOM     22  C   UNL     1     163.426 205.477 183.534  1.00  0.00     0.000 C 
BRANCH  22  23
ATOM     23  C   UNL     1     163.224 205.376 185.057  1.00  0.00     0.000 C 
BRANCH  23  24
ATOM     24  C   UNL     1     161.776 205.088 185.505  1.00  0.00    -0.000 C 
BRANCH  24  25
ATOM     25  C   UNL     1     161.553 203.718 186.178  1.00  0.00    -0.000 C 
BRANCH  25  26
ATOM     26  C   UNL     1     162.826 202.878 186.389  1.00  0.00    -0.000 C 
BRANCH  26  27
ATOM     27  C   UNL     1     163.396 203.017 187.812  1.00  0.00    -0.000 C 
BRANCH  27  28
ATOM     28  C   UNL     1     164.903 202.721 187.879  1.00  0.00    -0.000 C 
BRANCH  28  29
ATOM     29  C   UNL     1     165.761 203.999 187.920  1.00  0.00    -0.000 C 
BRANCH  29  30
ATOM     30  C   UNL     1     164.957 205.247 188.333  1.00  0.00    -0.000 C 
BRANCH  30  31
ATOM     31  C   UNL     1     165.728 206.578 188.253  1.00  0.00    -0.003 C 
ATOM     32  C   UNL     1     166.079 206.985 186.822  1.00  0.00     0.004 C 
ENDBRANCH  30  31
ENDBRANCH  29  30
ENDBRANCH  28  29
ENDBRANCH  27  28
ENDBRANCH  26  27
ENDBRANCH  25  26
ENDBRANCH  24  25
ENDBRANCH  23  24
ENDBRANCH  22  23
ENDBRANCH  21  22
ENDBRANCH  20  21
ENDBRANCH  19  20
ENDBRANCH  18  19
ENDBRANCH   1  18
TORSDOF 28
ENDMDL
MODEL 5
REMARK VINA RESULT:    -1.510      2.135      5.335
REMARK INTER + INTRA:         -10.345
REMARK INTER:                  -5.196
REMARK INTRA:                  -5.149
REMARK UNBOUND:                -6.362
REMARK SMILES CCCCCCCCCCCCCCCCCCCCCCCCCCCCCC(=O)[O-]
REMARK SMILES IDX 16 1 17 2 18 3 19 4 20 5 21 6 22 7 23 8 24 9 25 10 26 11
REMARK SMILES IDX 27 12 28 13 29 14 30 15 31 16 32 17 15 18 14 19 13 20 12 21
REMARK SMILES IDX 11 22 10 23 9 24 8 25 7 26 6 27 5 28 4 29 3 30 2 31 1 32
REMARK H PARENT
REMARK Flexibility Score: inf
ROOT
ATOM      1  C   UNL     1     163.365 202.324 186.786  1.00  0.00     0.000 C 
ENDROOT
BRANCH   1   2
ATOM      2  C   UNL     1     163.707 200.826 186.718  1.00  0.00     0.000 C 
BRANCH   2   3
ATOM      3  C   UNL     1     165.019 200.544 185.971  1.00  0.00     0.000 C 
BRANCH   3   4
ATOM      4  C   UNL     1     165.046 201.271 184.619  1.00  0.00     0.000 C 
BRANCH   4   5
ATOM      5  C   UNL     1     165.481 200.354 183.466  1.00  0.00     0.000 C 
BRANCH   5   6
ATOM      6  C   UNL     1     164.614 199.085 183.360  1.00  0.00     0.000 C 
BRANCH   6   7
ATOM      7  C   UNL     1     165.454 197.795 183.495  1.00  0.00     0.000 C 
BRANCH   7   8
ATOM      8  C   UNL     1     164.605 196.518 183.630  1.00  0.00     0.000 C 
BRANCH   8   9
ATOM      9  C   UNL     1     163.094 196.803 183.628  1.00  0.00     0.000 C 
BRANCH   9  10
ATOM     10  C   UNL     1     162.266 195.648 184.214  1.00  0.00     0.000 C 
BRANCH  10  11
ATOM     11  C   UNL     1     161.612 195.984 185.571  1.00  0.00     0.000 C 
BRANCH  11  12
ATOM     12  C   UNL     1     162.051 197.363 186.097  1.00  0.00     0.000 C 
BRANCH  12  13
ATOM     13  C   UNL     1     162.826 197.274 187.420  1.00  0.00     0.006 C 
BRANCH  13  14
ATOM     14  C   UNL     1     164.164 196.539 187.271  1.00  0.00     0.053 C 
BRANCH  14  15
ATOM     15  C   UNL     1     165.252 197.266 187.999  1.00  0.00     0.041 C 
ATOM     16  O   UNL     1     166.451 196.900 187.871  1.00  0.00    -0.550 OA
ATOM     17  O   UNL     1     164.940 198.323 188.845  1.00  0.00    -0.550 OA
ENDBRANCH  14  15
ENDBRANCH  13  14
ENDBRANCH  12  13
ENDBRANCH  11  12
ENDBRANCH  10  11
ENDBRANCH   9  10
ENDBRANCH   8   9
ENDBRANCH   7   8
ENDBRANCH   6   7
ENDBRANCH   5   6
ENDBRANCH   4   5
ENDBRANCH   3   4
ENDBRANCH   2   3
ENDBRANCH   1   2
BRANCH   1  18
ATOM     18  C   UNL     1     161.869 202.581 187.056  1.00  0.00     0.000 C 
BRANCH  18  19
ATOM     19  C   UNL     1     161.311 203.768 186.242  1.00  0.00     0.000 C 
BRANCH  19  20
ATOM     20  C   UNL     1     161.820 205.144 186.708  1.00  0.00     0.000 C 
BRANCH  20  21
ATOM     21  C   UNL     1     162.388 205.995 185.563  1.00  0.00     0.000 C 
BRANCH  21  22
ATOM     22  C   UNL     1     162.546 205.162 184.284  1.00  0.00     0.000 C 
BRANCH  22  23
ATOM     23  C   UNL     1     163.503 205.805 183.264  1.00  0.00     0.000 C 
BRANCH  23  24
ATOM     24  C   UNL     1     164.720 204.940 182.875  1.00  0.00    -0.000 C 
BRANCH  24  25
ATOM     25  C   UNL     1     165.736 204.684 184.006  1.00  0.00    -0.000 C 
BRANCH  25  26
ATOM     26  C   UNL     1     166.480 205.933 184.513  1.00  0.00    -0.000 C 
BRANCH  26  27
ATOM     27  C   UNL     1     166.027 206.361 185.919  1.00  0.00    -0.000 C 
BRANCH  27  28
ATOM     28  C   UNL     1     165.806 205.165 186.860  1.00  0.00    -0.000 C 
BRANCH  28  29
ATOM     29  C   UNL     1     167.124 204.566 187.383  1.00  0.00    -0.000 C 
BRANCH  29  30
ATOM     30  C   UNL     1     167.026 203.054 187.660  1.00  0.00    -0.000 C 
BRANCH  30  31
ATOM     31  C   UNL     1     168.125 202.196 187.007  1.00  0.00    -0.003 C 
ATOM     32  C   UNL     1     168.453 202.624 185.576  1.00  0.00     0.004 C 
ENDBRANCH  30  31
ENDBRANCH  29  30
ENDBRANCH  28  29
ENDBRANCH  27  28
ENDBRANCH  26  27
ENDBRANCH  25  26
ENDBRANCH  24  25
ENDBRANCH  23  24
ENDBRANCH  22  23
ENDBRANCH  21  22
ENDBRANCH  20  21
ENDBRANCH  19  20
ENDBRANCH  18  19
ENDBRANCH   1  18
TORSDOF 28
ENDMDL
MODEL 6
REMARK VINA RESULT:    -1.507     13.964     18.488
REMARK INTER + INTRA:         -10.336
REMARK INTER:                  -3.499
REMARK INTRA:                  -6.837
REMARK UNBOUND:                -6.362
REMARK SMILES CCCCCCCCCCCCCCCCCCCCCCCCCCCCCC(=O)[O-]
REMARK SMILES IDX 16 1 17 2 18 3 19 4 20 5 21 6 22 7 23 8 24 9 25 10 26 11
REMARK SMILES IDX 27 12 28 13 29 14 30 15 31 16 32 17 15 18 14 19 13 20 12 21
REMARK SMILES IDX 11 22 10 23 9 24 8 25 7 26 6 27 5 28 4 29 3 30 2 31 1 32
REMARK H PARENT
REMARK Flexibility Score: inf
ROOT
ATOM      1  C   UNL     1     175.504 203.408 199.490  1.00  0.00     0.000 C 
ENDROOT
BRANCH   1   2
ATOM      2  C   UNL     1     174.973 204.327 198.378  1.00  0.00     0.000 C 
BRANCH   2   3
ATOM      3  C   UNL     1     175.708 205.675 198.312  1.00  0.00     0.000 C 
BRANCH   3   4
ATOM      4  C   UNL     1     174.742 206.804 197.924  1.00  0.00     0.000 C 
BRANCH   4   5
ATOM      5  C   UNL     1     175.457 207.984 197.248  1.00  0.00     0.000 C 
BRANCH   5   6
ATOM      6  C   UNL     1     175.089 208.125 195.759  1.00  0.00     0.000 C 
BRANCH   6   7
ATOM      7  C   UNL     1     175.685 206.986 194.903  1.00  0.00     0.000 C 
BRANCH   7   8
ATOM      8  C   UNL     1     174.622 206.114 194.211  1.00  0.00     0.000 C 
BRANCH   8   9
ATOM      9  C   UNL     1     174.526 204.701 194.813  1.00  0.00     0.000 C 
BRANCH   9  10
ATOM     10  C   UNL     1     173.092 204.146 194.807  1.00  0.00     0.000 C 
BRANCH  10  11
ATOM     11  C   UNL     1     172.227 204.659 195.978  1.00  0.00     0.000 C 
BRANCH  11  12
ATOM     12  C   UNL     1     171.386 203.534 196.609  1.00  0.00     0.000 C 
BRANCH  12  13
ATOM     13  C   UNL     1     171.417 202.238 195.787  1.00  0.00     0.006 C 
BRANCH  13  14
ATOM     14  C   UNL     1     171.679 200.997 196.652  1.00  0.00     0.053 C 
BRANCH  14  15
ATOM     15  C   UNL     1     173.005 201.102 197.339  1.00  0.00     0.041 C 
ATOM     16  O   UNL     1     173.067 201.076 198.597  1.00  0.00    -0.550 OA
ATOM     17  O   UNL     1     174.166 201.266 196.594  1.00  0.00    -0.550 OA
ENDBRANCH  14  15
ENDBRANCH  13  14
ENDBRANCH  12  13
ENDBRANCH  11  12
ENDBRANCH  10  11
ENDBRANCH   9  10
ENDBRANCH   8   9
ENDBRANCH   7   8
ENDBRANCH   6   7
ENDBRANCH   5   6
ENDBRANCH   4   5
ENDBRANCH   3   4
ENDBRANCH   2   3
ENDBRANCH   1   2
BRANCH   1  18
ATOM     18  C   UNL     1     176.869 203.869 200.042  1.00  0.00     0.000 C 
BRANCH  18  19
ATOM     19  C   UNL     1     176.813 204.237 201.539  1.00  0.00     0.000 C 
BRANCH  19  20
ATOM     20  C   UNL     1     175.425 204.695 202.023  1.00  0.00     0.000 C 
BRANCH  20  21
ATOM     21  C   UNL     1     175.221 206.213 201.917  1.00  0.00     0.000 C 
BRANCH  21  22
ATOM     22  C   UNL     1     176.568 206.951 201.921  1.00  0.00     0.000 C 
BRANCH  22  23
ATOM     23  C   UNL     1     176.625 208.100 200.898  1.00  0.00     0.000 C 
BRANCH  23  24
ATOM     24  C   UNL     1     177.890 208.125 200.015  1.00  0.00    -0.000 C 
BRANCH  24  25
ATOM     25  C   UNL     1     178.898 206.986 200.274  1.00  0.00    -0.000 C 
BRANCH  25  26
ATOM     26  C   UNL     1     179.495 206.342 199.009  1.00  0.00    -0.000 C 
BRANCH  26  27
ATOM     27  C   UNL     1     179.044 207.046 197.718  1.00  0.00    -0.000 C 
BRANCH  27  28
ATOM     28  C   UNL     1     179.124 206.132 196.485  1.00  0.00    -0.000 C 
BRANCH  28  29
ATOM     29  C   UNL     1     178.784 204.666 196.805  1.00  0.00    -0.000 C 
BRANCH  29  30
ATOM     30  C   UNL     1     177.827 204.034 195.777  1.00  0.00    -0.000 C 
BRANCH  30  31
ATOM     31  C   UNL     1     177.902 202.500 195.668  1.00  0.00    -0.003 C 
ATOM     32  C   UNL     1     177.775 201.793 197.017  1.00  0.00     0.004 C 
ENDBRANCH  30  31
ENDBRANCH  29  30
ENDBRANCH  28  29
ENDBRANCH  27  28
ENDBRANCH  26  27
ENDBRANCH  25  26
ENDBRANCH  24  25
ENDBRANCH  23  24
ENDBRANCH  22  23
ENDBRANCH  21  22
ENDBRANCH  20  21
ENDBRANCH  19  20
ENDBRANCH  18  19
ENDBRANCH   1  18
TORSDOF 28
ENDMDL
MODEL 7
REMARK VINA RESULT:    -1.504      1.775      6.587
REMARK INTER + INTRA:         -10.329
REMARK INTER:                  -4.237
REMARK INTRA:                  -6.092
REMARK UNBOUND:                -6.362
REMARK SMILES CCCCCCCCCCCCCCCCCCCCCCCCCCCCCC(=O)[O-]
REMARK SMILES IDX 16 1 17 2 18 3 19 4 20 5 21 6 22 7 23 8 24 9 25 10 26 11
REMARK SMILES IDX 27 12 28 13 29 14 30 15 31 16 32 17 15 18 14 19 13 20 12 21
REMARK SMILES IDX 11 22 10 23 9 24 8 25 7 26 6 27 5 28 4 29 3 30 2 31 1 32
REMARK H PARENT
REMARK Flexibility Score: inf
ROOT
ATOM      1  C   UNL     1     165.168 200.905 185.691  1.00  0.00     0.000 C 
ENDROOT
BRANCH   1   2
ATOM      2  C   UNL     1     164.699 202.287 185.208  1.00  0.00     0.000 C 
BRANCH   2   3
ATOM      3  C   UNL     1     165.533 203.440 185.788  1.00  0.00     0.000 C 
BRANCH   3   4
ATOM      4  C   UNL     1     164.748 204.759 185.738  1.00  0.00     0.000 C 
BRANCH   4   5
ATOM      5  C   UNL     1     163.926 204.907 184.448  1.00  0.00     0.000 C 
BRANCH   5   6
ATOM      6  C   UNL     1     162.506 205.443 184.710  1.00  0.00     0.000 C 
BRANCH   6   7
ATOM      7  C   UNL     1     161.942 204.959 186.064  1.00  0.00     0.000 C 
BRANCH   7   8
ATOM      8  C   UNL     1     161.134 203.653 185.964  1.00  0.00     0.000 C 
BRANCH   8   9
ATOM      9  C   UNL     1     161.456 202.665 187.099  1.00  0.00     0.000 C 
BRANCH   9  10
ATOM     10  C   UNL     1     162.446 203.237 188.127  1.00  0.00     0.000 C 
BRANCH  10  11
ATOM     11  C   UNL     1     163.285 202.157 188.842  1.00  0.00     0.000 C 
BRANCH  11  12
ATOM     12  C   UNL     1     164.667 202.688 189.265  1.00  0.00     0.000 C 
BRANCH  12  13
ATOM     13  C   UNL     1     165.760 201.610 189.207  1.00  0.00     0.006 C 
BRANCH  13  14
ATOM     14  C   UNL     1     167.153 202.198 188.944  1.00  0.00     0.053 C 
BRANCH  14  15
ATOM     15  C   UNL     1     168.025 201.202 188.245  1.00  0.00     0.041 C 
ATOM     16  O   UNL     1     168.348 201.381 187.040  1.00  0.00    -0.550 OA
ATOM     17  O   UNL     1     168.449 200.057 188.909  1.00  0.00    -0.550 OA
ENDBRANCH  14  15
ENDBRANCH  13  14
ENDBRANCH  12  13
ENDBRANCH  11  12
ENDBRANCH  10  11
ENDBRANCH   9  10
ENDBRANCH   8   9
ENDBRANCH   7   8
ENDBRANCH   6   7
ENDBRANCH   5   6
ENDBRANCH   4   5
ENDBRANCH   3   4
ENDBRANCH   2   3
ENDBRANCH   1   2
BRANCH   1  18
ATOM     18  C   UNL     1     165.912 200.112 184.597  1.00  0.00     0.000 C 
BRANCH  18  19
ATOM     19  C   UNL     1     166.057 198.615 184.938  1.00  0.00     0.000 C 
BRANCH  19  20
ATOM     20  C   UNL     1     165.436 197.668 183.895  1.00  0.00     0.000 C 
BRANCH  20  21
ATOM     21  C   UNL     1     164.170 198.240 183.241  1.00  0.00     0.000 C 
BRANCH  21  22
ATOM     22  C   UNL     1     163.040 197.201 183.229  1.00  0.00     0.000 C 
BRANCH  22  23
ATOM     23  C   UNL     1     163.352 195.965 184.093  1.00  0.00     0.000 C 
BRANCH  23  24
ATOM     24  C   UNL     1     162.465 195.805 185.345  1.00  0.00    -0.000 C 
BRANCH  24  25
ATOM     25  C   UNL     1     161.376 196.882 185.526  1.00  0.00    -0.000 C 
BRANCH  25  26
ATOM     26  C   UNL     1     161.528 197.761 186.781  1.00  0.00    -0.000 C 
BRANCH  26  27
ATOM     27  C   UNL     1     162.940 198.355 186.918  1.00  0.00    -0.000 C 
BRANCH  27  28
ATOM     28  C   UNL     1     163.261 198.796 188.356  1.00  0.00    -0.000 C 
BRANCH  28  29
ATOM     29  C   UNL     1     164.209 197.824 189.080  1.00  0.00    -0.000 C 
BRANCH  29  30
ATOM     30  C   UNL     1     165.637 197.836 188.501  1.00  0.00    -0.000 C 
BRANCH  30  31
ATOM     31  C   UNL     1     166.086 196.521 187.837  1.00  0.00    -0.003 C 
ATOM     32  C   UNL     1     165.056 195.399 187.968  1.00  0.00     0.004 C 
ENDBRANCH  30  31
ENDBRANCH  29  30
ENDBRANCH  28  29
ENDBRANCH  27  28
ENDBRANCH  26  27
ENDBRANCH  25  26
ENDBRANCH  24  25
ENDBRANCH  23  24
ENDBRANCH  22  23
ENDBRANCH  21  22
ENDBRANCH  20  21
ENDBRANCH  19  20
ENDBRANCH  18  19
ENDBRANCH   1  18
TORSDOF 28
ENDMDL
MODEL 8
REMARK VINA RESULT:    -1.489     15.328     19.331
REMARK INTER + INTRA:         -10.287
REMARK INTER:                  -3.817
REMARK INTRA:                  -6.470
REMARK UNBOUND:                -6.362
REMARK SMILES CCCCCCCCCCCCCCCCCCCCCCCCCCCCCC(=O)[O-]
REMARK SMILES IDX 16 1 17 2 18 3 19 4 20 5 21 6 22 7 23 8 24 9 25 10 26 11
REMARK SMILES IDX 27 12 28 13 29 14 30 15 31 16 32 17 15 18 14 19 13 20 12 21
REMARK SMILES IDX 11 22 10 23 9 24 8 25 7 26 6 27 5 28 4 29 3 30 2 31 1 32
REMARK H PARENT
REMARK Flexibility Score: inf
ROOT
ATOM      1  C   UNL     1     174.522 203.337 198.666  1.00  0.00     0.000 C 
ENDROOT
BRANCH   1   2
ATOM      2  C   UNL     1     175.615 204.402 198.851  1.00  0.00     0.000 C 
BRANCH   2   3
ATOM      3  C   UNL     1     177.032 203.852 198.630  1.00  0.00     0.000 C 
BRANCH   3   4
ATOM      4  C   UNL     1     177.548 203.151 199.896  1.00  0.00     0.000 C 
BRANCH   4   5
ATOM      5  C   UNL     1     176.960 203.749 201.182  1.00  0.00     0.000 C 
BRANCH   5   6
ATOM      6  C   UNL     1     178.023 204.448 202.050  1.00  0.00     0.000 C 
BRANCH   6   7
ATOM      7  C   UNL     1     177.426 205.609 202.877  1.00  0.00     0.000 C 
BRANCH   7   8
ATOM      8  C   UNL     1     176.150 206.211 202.264  1.00  0.00     0.000 C 
BRANCH   8   9
ATOM      9  C   UNL     1     176.379 207.607 201.660  1.00  0.00     0.000 C 
BRANCH   9  10
ATOM     10  C   UNL     1     175.915 207.710 200.198  1.00  0.00     0.000 C 
BRANCH  10  11
ATOM     11  C   UNL     1     177.079 207.778 199.185  1.00  0.00     0.000 C 
BRANCH  11  12
ATOM     12  C   UNL     1     178.451 207.712 199.880  1.00  0.00     0.000 C 
BRANCH  12  13
ATOM     13  C   UNL     1     179.323 206.557 199.365  1.00  0.00     0.006 C 
BRANCH  13  14
ATOM     14  C   UNL     1     180.434 207.034 198.420  1.00  0.00     0.053 C 
BRANCH  14  15
ATOM     15  C   UNL     1     180.056 206.791 196.992  1.00  0.00     0.041 C 
ATOM     16  O   UNL     1     179.305 205.824 196.694  1.00  0.00    -0.550 OA
ATOM     17  O   UNL     1     180.560 207.608 195.987  1.00  0.00    -0.550 OA
ENDBRANCH  14  15
ENDBRANCH  13  14
ENDBRANCH  12  13
ENDBRANCH  11  12
ENDBRANCH  10  11
ENDBRANCH   9  10
ENDBRANCH   8   9
ENDBRANCH   7   8
ENDBRANCH   6   7
ENDBRANCH   5   6
ENDBRANCH   4   5
ENDBRANCH   3   4
ENDBRANCH   2   3
ENDBRANCH   1   2
BRANCH   1  18
ATOM     18  C   UNL     1     173.265 203.620 199.515  1.00  0.00     0.000 C 
BRANCH  18  19
ATOM     19  C   UNL     1     173.363 204.944 200.301  1.00  0.00     0.000 C 
BRANCH  19  20
ATOM     20  C   UNL     1     172.187 205.908 200.059  1.00  0.00     0.000 C 
BRANCH  20  21
ATOM     21  C   UNL     1     171.943 206.200 198.571  1.00  0.00     0.000 C 
BRANCH  21  22
ATOM     22  C   UNL     1     172.711 207.451 198.123  1.00  0.00     0.000 C 
BRANCH  22  23
ATOM     23  C   UNL     1     173.873 207.131 197.165  1.00  0.00     0.000 C 
BRANCH  23  24
ATOM     24  C   UNL     1     173.555 206.077 196.084  1.00  0.00    -0.000 C 
BRANCH  24  25
ATOM     25  C   UNL     1     174.781 205.477 195.365  1.00  0.00    -0.000 C 
BRANCH  25  26
ATOM     26  C   UNL     1     174.646 203.995 194.969  1.00  0.00    -0.000 C 
BRANCH  26  27
ATOM     27  C   UNL     1     175.940 203.200 195.212  1.00  0.00    -0.000 C 
BRANCH  27  28
ATOM     28  C   UNL     1     176.100 202.016 194.243  1.00  0.00    -0.000 C 
BRANCH  28  29
ATOM     29  C   UNL     1     175.983 200.651 194.945  1.00  0.00    -0.000 C 
BRANCH  29  30
ATOM     30  C   UNL     1     175.619 200.773 196.436  1.00  0.00    -0.000 C 
BRANCH  30  31
ATOM     31  C   UNL     1     176.720 200.330 197.418  1.00  0.00    -0.003 C 
ATOM     32  C   UNL     1     176.172 199.852 198.762  1.00  0.00     0.004 C 
ENDBRANCH  30  31
ENDBRANCH  29  30
ENDBRANCH  28  29
ENDBRANCH  27  28
ENDBRANCH  26  27
ENDBRANCH  25  26
ENDBRANCH  24  25
ENDBRANCH  23  24
ENDBRANCH  22  23
ENDBRANCH  21  22
ENDBRANCH  20  21
ENDBRANCH  19  20
ENDBRANCH  18  19
ENDBRANCH   1  18
TORSDOF 28
ENDMDL
MODEL 9
REMARK VINA RESULT:    -1.472     15.543     19.569
REMARK INTER + INTRA:         -10.243
REMARK INTER:                  -4.011
REMARK INTRA:                  -6.231
REMARK UNBOUND:                -6.362
REMARK SMILES CCCCCCCCCCCCCCCCCCCCCCCCCCCCCC(=O)[O-]
REMARK SMILES IDX 16 1 17 2 18 3 19 4 20 5 21 6 22 7 23 8 24 9 25 10 26 11
REMARK SMILES IDX 27 12 28 13 29 14 30 15 31 16 32 17 15 18 14 19 13 20 12 21
REMARK SMILES IDX 11 22 10 23 9 24 8 25 7 26 6 27 5 28 4 29 3 30 2 31 1 32
REMARK H PARENT
REMARK Flexibility Score: inf
ROOT
ATOM      1  C   UNL     1     178.444 203.391 197.954  1.00  0.00     0.000 C 
ENDROOT
BRANCH   1   2
ATOM      2  C   UNL     1     177.005 203.474 198.490  1.00  0.00     0.000 C 
BRANCH   2   3
ATOM      3  C   UNL     1     176.879 203.004 199.948  1.00  0.00     0.000 C 
BRANCH   3   4
ATOM      4  C   UNL     1     178.187 203.248 200.715  1.00  0.00     0.000 C 
BRANCH   4   5
ATOM      5  C   UNL     1     177.997 204.181 201.921  1.00  0.00     0.000 C 
BRANCH   5   6
ATOM      6  C   UNL     1     176.617 204.016 202.585  1.00  0.00     0.000 C 
BRANCH   6   7
ATOM      7  C   UNL     1     175.788 205.318 202.534  1.00  0.00     0.000 C 
BRANCH   7   8
ATOM      8  C   UNL     1     176.645 206.591 202.409  1.00  0.00     0.000 C 
BRANCH   8   9
ATOM      9  C   UNL     1     175.886 207.760 201.760  1.00  0.00     0.000 C 
BRANCH   9  10
ATOM     10  C   UNL     1     174.515 207.346 201.201  1.00  0.00     0.000 C 
BRANCH  10  11
ATOM     11  C   UNL     1     174.107 208.123 199.931  1.00  0.00     0.000 C 
BRANCH  11  12
ATOM     12  C   UNL     1     173.767 207.179 198.763  1.00  0.00     0.000 C 
BRANCH  12  13
ATOM     13  C   UNL     1     174.128 205.716 199.057  1.00  0.00     0.006 C 
BRANCH  13  14
ATOM     14  C   UNL     1     173.432 204.734 198.104  1.00  0.00     0.053 C 
BRANCH  14  15
ATOM     15  C   UNL     1     171.983 204.595 198.453  1.00  0.00     0.041 C 
ATOM     16  O   UNL     1     171.176 204.110 197.616  1.00  0.00    -0.550 OA
ATOM     17  O   UNL     1     171.517 205.033 199.686  1.00  0.00    -0.550 OA
ENDBRANCH  14  15
ENDBRANCH  13  14
ENDBRANCH  12  13
ENDBRANCH  11  12
ENDBRANCH  10  11
ENDBRANCH   9  10
ENDBRANCH   8   9
ENDBRANCH   7   8
ENDBRANCH   6   7
ENDBRANCH   5   6
ENDBRANCH   4   5
ENDBRANCH   3   4
ENDBRANCH   2   3
ENDBRANCH   1   2
BRANCH   1  18
ATOM     18  C   UNL     1     178.542 203.750 196.458  1.00  0.00     0.000 C 
BRANCH  18  19
ATOM     19  C   UNL     1     179.938 203.464 195.867  1.00  0.00     0.000 C 
BRANCH  19  20
ATOM     20  C   UNL     1     180.955 204.601 196.073  1.00  0.00     0.000 C 
BRANCH  20  21
ATOM     21  C   UNL     1     180.354 205.995 195.841  1.00  0.00     0.000 C 
BRANCH  21  22
ATOM     22  C   UNL     1     180.927 207.014 196.837  1.00  0.00     0.000 C 
BRANCH  22  23
ATOM     23  C   UNL     1     181.087 206.440 198.256  1.00  0.00     0.000 C 
BRANCH  23  24
ATOM     24  C   UNL     1     180.285 207.174 199.351  1.00  0.00    -0.000 C 
BRANCH  24  25
ATOM     25  C   UNL     1     178.822 206.717 199.517  1.00  0.00    -0.000 C 
BRANCH  25  26
ATOM     26  C   UNL     1     177.775 207.611 198.826  1.00  0.00    -0.000 C 
BRANCH  26  27
ATOM     27  C   UNL     1     177.172 206.953 197.574  1.00  0.00    -0.000 C 
BRANCH  27  28
ATOM     28  C   UNL     1     176.763 207.978 196.503  1.00  0.00    -0.000 C 
BRANCH  28  29
ATOM     29  C   UNL     1     176.014 207.339 195.320  1.00  0.00    -0.000 C 
BRANCH  29  30
ATOM     30  C   UNL     1     176.767 206.140 194.711  1.00  0.00    -0.000 C 
BRANCH  30  31
ATOM     31  C   UNL     1     175.886 205.129 193.955  1.00  0.00    -0.003 C 
ATOM     32  C   UNL     1     175.254 204.079 194.870  1.00  0.00     0.004 C 
ENDBRANCH  30  31
ENDBRANCH  29  30
ENDBRANCH  28  29
ENDBRANCH  27  28
ENDBRANCH  26  27
ENDBRANCH  25  26
ENDBRANCH  24  25
ENDBRANCH  23  24
ENDBRANCH  22  23
ENDBRANCH  21  22
ENDBRANCH  20  21
ENDBRANCH  19  20
ENDBRANCH  18  19
ENDBRANCH   1  18
TORSDOF 28
ENDMDL
