MODEL 1
REMARK VINA RESULT:    -6.387      0.000      0.000
REMARK INTER + INTRA:         -10.623
REMARK INTER:                  -9.934
REMARK INTRA:                  -0.688
REMARK UNBOUND:                -0.688
REMARK SMILES COc1cc(CNC(=O)CCCCC=CC(C)C)ccc1O
REMARK SMILES IDX 11 1 12 2 13 3 14 4 15 5 16 6 17 7 18 8 10 9 8 10 9 11 7 12
REMARK SMILES IDX 6 14 5 15 4 16 19 17 3 18 20 19 21 20 2 21 1 22 22 23
REMARK H PARENT 7 13 22 24
REMARK Flexibility Score: inf
ROOT
ATOM      1  C   UNL     1      10.548   9.609 -16.297  1.00  0.00     0.010 C 
ENDROOT
BRANCH   1   2
ATOM      2  C   UNL     1      10.763   8.253 -15.604  1.00  0.00     0.005 C 
BRANCH   2   3
ATOM      3  C   UNL     1       9.440   7.523 -15.336  1.00  0.00     0.027 C 
BRANCH   3   4
ATOM      4  C   UNL     1       8.511   8.351 -14.490  1.00  0.00    -0.031 C 
ATOM      5  C   UNL     1       7.963   7.864 -13.363  1.00  0.00    -0.028 C 
BRANCH   5   6
ATOM      6  C   UNL     1       6.985   8.654 -12.524  1.00  0.00     0.005 C 
ATOM      7  C   UNL     1       7.006   8.195 -11.060  1.00  0.00     0.012 C 
ATOM      8  C   UNL     1       7.242  10.163 -12.638  1.00  0.00     0.012 C 
ENDBRANCH   5   6
ENDBRANCH   3   4
ENDBRANCH   2   3
ENDBRANCH   1   2
BRANCH   1   9
ATOM      9  C   UNL     1      10.678   9.509 -17.823  1.00  0.00     0.100 C 
BRANCH   9  10
ATOM     10  C   UNL     1       9.613  10.300 -18.526  1.00  0.00     0.220 C 
ATOM     11  O   UNL     1       8.403  10.120 -18.215  1.00  0.00    -0.275 OA
ATOM     12  N   UNL     1       9.967  11.218 -19.571  1.00  0.00    -0.352 N 
ATOM     13  H   UNL     1      10.967  11.300 -19.859  1.00  0.00     0.163 HD
BRANCH  12  14
ATOM     14  C   UNL     1       8.969  12.008 -20.288  1.00  0.00     0.151 C 
BRANCH  14  15
ATOM     15  C   UNL     1       9.161  13.474 -20.005  1.00  0.00    -0.025 A 
ATOM     16  C   UNL     1       8.721  14.444 -20.920  1.00  0.00     0.056 A 
ATOM     17  C   UNL     1       9.759  13.879 -18.802  1.00  0.00     0.009 A 
ATOM     18  C   UNL     1       8.883  15.816 -20.641  1.00  0.00     0.160 A 
ATOM     19  C   UNL     1       9.922  15.236 -18.521  1.00  0.00     0.050 A 
ATOM     20  C   UNL     1       9.486  16.205 -19.435  1.00  0.00     0.157 A 
BRANCH  18  21
ATOM     21  O   UNL     1       8.456  16.817 -21.528  1.00  0.00    -0.493 OA
ATOM     22  C   UNL     1       8.605  16.758 -22.943  1.00  0.00     0.278 C 
ENDBRANCH  18  21
BRANCH  20  23
ATOM     23  O   UNL     1       9.645  17.560 -19.152  1.00  0.00    -0.504 OA
ATOM     24  H   UNL     1      10.169  17.879 -18.344  1.00  0.00     0.293 HD
ENDBRANCH  20  23
ENDBRANCH  14  15
ENDBRANCH  12  14
ENDBRANCH   9  10
ENDBRANCH   1   9
TORSDOF 10
ENDMDL
MODEL 2
REMARK VINA RESULT:    -6.304      2.383      9.169
REMARK INTER + INTRA:         -10.493
REMARK INTER:                  -9.877
REMARK INTRA:                  -0.617
REMARK UNBOUND:                -0.688
REMARK SMILES COc1cc(CNC(=O)CCCCC=CC(C)C)ccc1O
REMARK SMILES IDX 11 1 12 2 13 3 14 4 15 5 16 6 17 7 18 8 10 9 8 10 9 11 7 12
REMARK SMILES IDX 6 14 5 15 4 16 19 17 3 18 20 19 21 20 2 21 1 22 22 23
REMARK H PARENT 7 13 22 24
REMARK Flexibility Score: inf
ROOT
ATOM      1  C   UNL     1       9.355  14.813 -18.157  1.00  0.00     0.010 C 
ENDROOT
BRANCH   1   2
ATOM      2  C   UNL     1      10.037  15.973 -18.904  1.00  0.00     0.005 C 
BRANCH   2   3
ATOM      3  C   UNL     1       9.046  17.083 -19.279  1.00  0.00     0.027 C 
BRANCH   3   4
ATOM      4  C   UNL     1       8.599  16.967 -20.712  1.00  0.00    -0.031 C 
ATOM      5  C   UNL     1       9.222  16.151 -21.579  1.00  0.00    -0.028 C 
BRANCH   5   6
ATOM      6  C   UNL     1       8.829  16.056 -23.036  1.00  0.00     0.005 C 
ATOM      7  C   UNL     1       8.094  17.321 -23.499  1.00  0.00     0.012 C 
ATOM      8  C   UNL     1      10.044  15.761 -23.926  1.00  0.00     0.012 C 
ENDBRANCH   5   6
ENDBRANCH   3   4
ENDBRANCH   2   3
ENDBRANCH   1   2
BRANCH   1   9
ATOM      9  C   UNL     1      10.349  13.995 -17.323  1.00  0.00     0.100 C 
BRANCH   9  10
ATOM     10  C   UNL     1      10.249  12.526 -17.621  1.00  0.00     0.220 C 
ATOM     11  O   UNL     1       9.426  12.126 -18.490  1.00  0.00    -0.275 OA
ATOM     12  N   UNL     1      11.053  11.586 -16.893  1.00  0.00    -0.352 N 
ATOM     13  H   UNL     1      11.677  11.932 -16.130  1.00  0.00     0.163 HD
BRANCH  12  14
ATOM     14  C   UNL     1      10.991  10.148 -17.141  1.00  0.00     0.151 C 
BRANCH  14  15
ATOM     15  C   UNL     1      10.224   9.461 -16.043  1.00  0.00    -0.025 A 
ATOM     16  C   UNL     1       9.304  10.175 -15.258  1.00  0.00     0.056 A 
ATOM     17  C   UNL     1      10.405   8.088 -15.819  1.00  0.00     0.009 A 
ATOM     18  C   UNL     1       8.572   9.523 -14.245  1.00  0.00     0.160 A 
ATOM     19  C   UNL     1       9.682   7.438 -14.817  1.00  0.00     0.050 A 
ATOM     20  C   UNL     1       8.767   8.150 -14.031  1.00  0.00     0.157 A 
BRANCH  18  21
ATOM     21  O   UNL     1       7.642  10.200 -13.439  1.00  0.00    -0.493 OA
ATOM     22  C   UNL     1       7.840  11.502 -12.898  1.00  0.00     0.278 C 
ENDBRANCH  18  21
BRANCH  20  23
ATOM     23  O   UNL     1       8.042   7.500 -13.034  1.00  0.00    -0.504 OA
ATOM     24  H   UNL     1       8.429   6.717 -12.518  1.00  0.00     0.293 HD
ENDBRANCH  20  23
ENDBRANCH  14  15
ENDBRANCH  12  14
ENDBRANCH   9  10
ENDBRANCH   1   9
TORSDOF 10
ENDMDL
MODEL 3
REMARK VINA RESULT:    -6.203      1.274      2.062
REMARK INTER + INTRA:         -10.336
REMARK INTER:                  -9.547
REMARK INTRA:                  -0.790
REMARK UNBOUND:                -0.688
REMARK SMILES COc1cc(CNC(=O)CCCCC=CC(C)C)ccc1O
REMARK SMILES IDX 11 1 12 2 13 3 14 4 15 5 16 6 17 7 18 8 10 9 8 10 9 11 7 12
REMARK SMILES IDX 6 14 5 15 4 16 19 17 3 18 20 19 21 20 2 21 1 22 22 23
REMARK H PARENT 7 13 22 24
REMARK Flexibility Score: inf
ROOT
ATOM      1  C   UNL     1      10.949   8.452 -16.027  1.00  0.00     0.010 C 
ENDROOT
BRANCH   1   2
ATOM      2  C   UNL     1      10.309   7.870 -14.754  1.00  0.00     0.005 C 
BRANCH   2   3
ATOM      3  C   UNL     1       9.075   7.012 -15.067  1.00  0.00     0.027 C 
BRANCH   3   4
ATOM      4  C   UNL     1       7.852   7.517 -14.349  1.00  0.00    -0.031 C 
ATOM      5  C   UNL     1       7.881   7.825 -13.041  1.00  0.00    -0.028 C 
BRANCH   5   6
ATOM      6  C   UNL     1       6.655   8.281 -12.283  1.00  0.00     0.005 C 
ATOM      7  C   UNL     1       6.840   8.115 -10.770  1.00  0.00     0.012 C 
ATOM      8  C   UNL     1       6.280   9.725 -12.644  1.00  0.00     0.012 C 
ENDBRANCH   5   6
ENDBRANCH   3   4
ENDBRANCH   2   3
ENDBRANCH   1   2
BRANCH   1   9
ATOM      9  C   UNL     1       9.902   8.985 -17.013  1.00  0.00     0.100 C 
BRANCH   9  10
ATOM     10  C   UNL     1       9.660  10.456 -16.828  1.00  0.00     0.220 C 
ATOM     11  O   UNL     1       8.810  10.840 -15.978  1.00  0.00    -0.275 OA
ATOM     12  N   UNL     1      10.358  11.410 -17.643  1.00  0.00    -0.352 N 
ATOM     13  H   UNL     1      11.004  11.067 -18.388  1.00  0.00     0.163 HD
BRANCH  12  14
ATOM     14  C   UNL     1      10.155  12.850 -17.506  1.00  0.00     0.151 C 
BRANCH  14  15
ATOM     15  C   UNL     1       9.618  13.426 -18.789  1.00  0.00    -0.025 A 
ATOM     16  C   UNL     1       9.474  14.814 -18.947  1.00  0.00     0.056 A 
ATOM     17  C   UNL     1       9.287  12.572 -19.851  1.00  0.00     0.009 A 
ATOM     18  C   UNL     1       8.992  15.349 -20.158  1.00  0.00     0.160 A 
ATOM     19  C   UNL     1       8.809  13.097 -21.053  1.00  0.00     0.050 A 
ATOM     20  C   UNL     1       8.661  14.482 -21.210  1.00  0.00     0.157 A 
BRANCH  18  21
ATOM     21  O   UNL     1       8.834  16.731 -20.356  1.00  0.00    -0.493 OA
ATOM     22  C   UNL     1       8.765  17.694 -19.309  1.00  0.00     0.278 C 
ENDBRANCH  18  21
BRANCH  20  23
ATOM     23  O   UNL     1       8.188  15.006 -22.411  1.00  0.00    -0.504 OA
ATOM     24  H   UNL     1       8.793  15.517 -23.045  1.00  0.00     0.293 HD
ENDBRANCH  20  23
ENDBRANCH  14  15
ENDBRANCH  12  14
ENDBRANCH   9  10
ENDBRANCH   1   9
TORSDOF 10
ENDMDL
MODEL 4
REMARK VINA RESULT:    -6.180      2.689      9.737
REMARK INTER + INTRA:         -10.300
REMARK INTER:                  -9.692
REMARK INTRA:                  -0.608
REMARK UNBOUND:                -0.688
REMARK SMILES COc1cc(CNC(=O)CCCCC=CC(C)C)ccc1O
REMARK SMILES IDX 11 1 12 2 13 3 14 4 15 5 16 6 17 7 18 8 10 9 8 10 9 11 7 12
REMARK SMILES IDX 6 14 5 15 4 16 19 17 3 18 20 19 21 20 2 21 1 22 22 23
REMARK H PARENT 7 13 22 24
REMARK Flexibility Score: inf
ROOT
ATOM      1  C   UNL     1       9.946  14.448 -18.364  1.00  0.00     0.010 C 
ENDROOT
BRANCH   1   2
ATOM      2  C   UNL     1      10.324  15.742 -19.105  1.00  0.00     0.005 C 
BRANCH   2   3
ATOM      3  C   UNL     1       9.120  16.675 -19.293  1.00  0.00     0.027 C 
BRANCH   3   4
ATOM      4  C   UNL     1       8.714  16.772 -20.739  1.00  0.00    -0.031 C 
ATOM      5  C   UNL     1       9.182  15.913 -21.661  1.00  0.00    -0.028 C 
BRANCH   5   6
ATOM      6  C   UNL     1       8.833  16.021 -23.128  1.00  0.00     0.005 C 
ATOM      7  C   UNL     1       8.118  17.343 -23.435  1.00  0.00     0.012 C 
ATOM      8  C   UNL     1      10.074  15.841 -24.013  1.00  0.00     0.012 C 
ENDBRANCH   5   6
ENDBRANCH   3   4
ENDBRANCH   2   3
ENDBRANCH   1   2
BRANCH   1   9
ATOM      9  C   UNL     1      10.493  14.417 -16.931  1.00  0.00     0.100 C 
BRANCH   9  10
ATOM     10  C   UNL     1       9.448  13.980 -15.945  1.00  0.00     0.220 C 
ATOM     11  O   UNL     1       8.527  14.781 -15.624  1.00  0.00    -0.275 OA
ATOM     12  N   UNL     1       9.524  12.680 -15.342  1.00  0.00    -0.352 N 
ATOM     13  H   UNL     1      10.333  12.059 -15.569  1.00  0.00     0.163 HD
BRANCH  12  14
ATOM     14  C   UNL     1       8.536  12.208 -14.374  1.00  0.00     0.151 C 
BRANCH  14  15
ATOM     15  C   UNL     1       8.536  10.704 -14.320  1.00  0.00    -0.025 A 
ATOM     16  C   UNL     1       7.762  10.021 -13.367  1.00  0.00     0.056 A 
ATOM     17  C   UNL     1       9.290   9.972 -15.250  1.00  0.00     0.009 A 
ATOM     18  C   UNL     1       7.748   8.613 -13.334  1.00  0.00     0.160 A 
ATOM     19  C   UNL     1       9.279   8.577 -15.222  1.00  0.00     0.050 A 
ATOM     20  C   UNL     1       8.510   7.895 -14.268  1.00  0.00     0.157 A 
BRANCH  18  21
ATOM     21  O   UNL     1       6.988   7.893 -12.398  1.00  0.00    -0.493 OA
ATOM     22  C   UNL     1       6.993   8.137 -10.995  1.00  0.00     0.278 C 
ENDBRANCH  18  21
BRANCH  20  23
ATOM     23  O   UNL     1       8.496   6.502 -14.244  1.00  0.00    -0.504 OA
ATOM     24  H   UNL     1       8.774   5.951 -15.049  1.00  0.00     0.293 HD
ENDBRANCH  20  23
ENDBRANCH  14  15
ENDBRANCH  12  14
ENDBRANCH   9  10
ENDBRANCH   1   9
TORSDOF 10
ENDMDL
MODEL 5
REMARK VINA RESULT:    -6.176      1.689      2.468
REMARK INTER + INTRA:         -10.294
REMARK INTER:                  -9.653
REMARK INTRA:                  -0.641
REMARK UNBOUND:                -0.688
REMARK SMILES COc1cc(CNC(=O)CCCCC=CC(C)C)ccc1O
REMARK SMILES IDX 11 1 12 2 13 3 14 4 15 5 16 6 17 7 18 8 10 9 8 10 9 11 7 12
REMARK SMILES IDX 6 14 5 15 4 16 19 17 3 18 20 19 21 20 2 21 1 22 22 23
REMARK H PARENT 7 13 22 24
REMARK Flexibility Score: inf
ROOT
ATOM      1  C   UNL     1       9.731   9.773 -16.071  1.00  0.00     0.010 C 
ENDROOT
BRANCH   1   2
ATOM      2  C   UNL     1      10.508   8.477 -15.782  1.00  0.00     0.005 C 
BRANCH   2   3
ATOM      3  C   UNL     1       9.698   7.494 -14.926  1.00  0.00     0.027 C 
BRANCH   3   4
ATOM      4  C   UNL     1       8.448   8.132 -14.382  1.00  0.00    -0.031 C 
ATOM      5  C   UNL     1       7.966   7.812 -13.169  1.00  0.00    -0.028 C 
BRANCH   5   6
ATOM      6  C   UNL     1       6.683   8.397 -12.621  1.00  0.00     0.005 C 
ATOM      7  C   UNL     1       6.517   8.079 -11.129  1.00  0.00     0.012 C 
ATOM      8  C   UNL     1       6.602   9.907 -12.881  1.00  0.00     0.012 C 
ENDBRANCH   5   6
ENDBRANCH   3   4
ENDBRANCH   2   3
ENDBRANCH   1   2
BRANCH   1   9
ATOM      9  C   UNL     1      10.595  10.824 -16.779  1.00  0.00     0.100 C 
BRANCH   9  10
ATOM     10  C   UNL     1      10.182  12.221 -16.417  1.00  0.00     0.220 C 
ATOM     11  O   UNL     1       9.598  12.428 -15.317  1.00  0.00    -0.275 OA
ATOM     12  N   UNL     1      10.410  13.301 -17.335  1.00  0.00    -0.352 N 
ATOM     13  H   UNL     1      10.831  13.097 -18.268  1.00  0.00     0.163 HD
BRANCH  12  14
ATOM     14  C   UNL     1      10.022  14.678 -17.033  1.00  0.00     0.151 C 
BRANCH  14  15
ATOM     15  C   UNL     1       9.503  15.357 -18.271  1.00  0.00    -0.025 A 
ATOM     16  C   UNL     1       8.974  16.657 -18.207  1.00  0.00     0.056 A 
ATOM     17  C   UNL     1       9.576  14.701 -19.509  1.00  0.00     0.009 A 
ATOM     18  C   UNL     1       8.509  17.297 -19.373  1.00  0.00     0.160 A 
ATOM     19  C   UNL     1       9.116  15.331 -20.667  1.00  0.00     0.050 A 
ATOM     20  C   UNL     1       8.584  16.626 -20.603  1.00  0.00     0.157 A 
BRANCH  18  21
ATOM     21  O   UNL     1       7.973  18.595 -19.352  1.00  0.00    -0.493 OA
ATOM     22  C   UNL     1       8.442  19.648 -18.515  1.00  0.00     0.278 C 
ENDBRANCH  18  21
BRANCH  20  23
ATOM     23  O   UNL     1       8.131  17.256 -21.760  1.00  0.00    -0.504 OA
ATOM     24  H   UNL     1       8.578  18.091 -22.123  1.00  0.00     0.293 HD
ENDBRANCH  20  23
ENDBRANCH  14  15
ENDBRANCH  12  14
ENDBRANCH   9  10
ENDBRANCH   1   9
TORSDOF 10
ENDMDL
MODEL 6
REMARK VINA RESULT:    -6.174      1.465      2.187
REMARK INTER + INTRA:         -10.291
REMARK INTER:                  -9.674
REMARK INTRA:                  -0.617
REMARK UNBOUND:                -0.688
REMARK SMILES COc1cc(CNC(=O)CCCCC=CC(C)C)ccc1O
REMARK SMILES IDX 11 1 12 2 13 3 14 4 15 5 16 6 17 7 18 8 10 9 8 10 9 11 7 12
REMARK SMILES IDX 6 14 5 15 4 16 19 17 3 18 20 19 21 20 2 21 1 22 22 23
REMARK H PARENT 7 13 22 24
REMARK Flexibility Score: inf
ROOT
ATOM      1  C   UNL     1      10.500   9.663 -16.355  1.00  0.00     0.010 C 
ENDROOT
BRANCH   1   2
ATOM      2  C   UNL     1      10.260   8.230 -15.848  1.00  0.00     0.005 C 
BRANCH   2   3
ATOM      3  C   UNL     1       9.580   8.207 -14.473  1.00  0.00     0.027 C 
BRANCH   3   4
ATOM      4  C   UNL     1       8.396   7.277 -14.455  1.00  0.00    -0.031 C 
ATOM      5  C   UNL     1       8.406   6.114 -15.128  1.00  0.00    -0.028 C 
BRANCH   5   6
ATOM      6  C   UNL     1       7.211   5.187 -15.171  1.00  0.00     0.005 C 
ATOM      7  C   UNL     1       5.910   5.965 -15.403  1.00  0.00     0.012 C 
ATOM      8  C   UNL     1       7.397   4.085 -16.223  1.00  0.00     0.012 C 
ENDBRANCH   5   6
ENDBRANCH   3   4
ENDBRANCH   2   3
ENDBRANCH   1   2
BRANCH   1   9
ATOM      9  C   UNL     1      10.744   9.711 -17.869  1.00  0.00     0.100 C 
BRANCH   9  10
ATOM     10  C   UNL     1       9.647  10.442 -18.587  1.00  0.00     0.220 C 
ATOM     11  O   UNL     1       8.459  10.334 -18.175  1.00  0.00    -0.275 OA
ATOM     12  N   UNL     1       9.943  11.220 -19.757  1.00  0.00    -0.352 N 
ATOM     13  H   UNL     1      10.921  11.239 -20.122  1.00  0.00     0.163 HD
BRANCH  12  14
ATOM     14  C   UNL     1       8.911  11.946 -20.494  1.00  0.00     0.151 C 
BRANCH  14  15
ATOM     15  C   UNL     1       9.064  13.428 -20.282  1.00  0.00    -0.025 A 
ATOM     16  C   UNL     1       8.747  14.335 -21.306  1.00  0.00     0.056 A 
ATOM     17  C   UNL     1       9.497  13.913 -19.039  1.00  0.00     0.009 A 
ATOM     18  C   UNL     1       8.870  15.723 -21.095  1.00  0.00     0.160 A 
ATOM     19  C   UNL     1       9.621  15.287 -18.825  1.00  0.00     0.050 A 
ATOM     20  C   UNL     1       9.309  16.193 -19.848  1.00  0.00     0.157 A 
BRANCH  18  21
ATOM     21  O   UNL     1       8.563  16.663 -22.093  1.00  0.00    -0.493 OA
ATOM     22  C   UNL     1       8.773  16.459 -23.486  1.00  0.00     0.278 C 
ENDBRANCH  18  21
BRANCH  20  23
ATOM     23  O   UNL     1       9.428  17.564 -19.632  1.00  0.00    -0.504 OA
ATOM     24  H   UNL     1      10.063  18.137 -20.178  1.00  0.00     0.293 HD
ENDBRANCH  20  23
ENDBRANCH  14  15
ENDBRANCH  12  14
ENDBRANCH   9  10
ENDBRANCH   1   9
TORSDOF 10
ENDMDL
MODEL 7
REMARK VINA RESULT:    -6.055      2.843      9.633
REMARK INTER + INTRA:         -10.107
REMARK INTER:                  -9.512
REMARK INTRA:                  -0.595
REMARK UNBOUND:                -0.688
REMARK SMILES COc1cc(CNC(=O)CCCCC=CC(C)C)ccc1O
REMARK SMILES IDX 11 1 12 2 13 3 14 4 15 5 16 6 17 7 18 8 10 9 8 10 9 11 7 12
REMARK SMILES IDX 6 14 5 15 4 16 19 17 3 18 20 19 21 20 2 21 1 22 22 23
REMARK H PARENT 7 13 22 24
REMARK Flexibility Score: inf
ROOT
ATOM      1  C   UNL     1       9.483  11.968 -19.684  1.00  0.00     0.010 C 
ENDROOT
BRANCH   1   2
ATOM      2  C   UNL     1       8.742  12.904 -20.655  1.00  0.00     0.005 C 
BRANCH   2   3
ATOM      3  C   UNL     1       8.886  14.380 -20.260  1.00  0.00     0.027 C 
BRANCH   3   4
ATOM      4  C   UNL     1       8.585  15.296 -21.416  1.00  0.00    -0.031 C 
ATOM      5  C   UNL     1       8.888  14.956 -22.680  1.00  0.00    -0.028 C 
BRANCH   5   6
ATOM      6  C   UNL     1       8.646  15.880 -23.853  1.00  0.00     0.005 C 
ATOM      7  C   UNL     1       8.170  17.261 -23.386  1.00  0.00     0.012 C 
ATOM      8  C   UNL     1       9.892  15.991 -24.743  1.00  0.00     0.012 C 
ENDBRANCH   5   6
ENDBRANCH   3   4
ENDBRANCH   2   3
ENDBRANCH   1   2
BRANCH   1   9
ATOM      9  C   UNL     1       8.522  11.219 -18.752  1.00  0.00     0.100 C 
BRANCH   9  10
ATOM     10  C   UNL     1       9.132  10.973 -17.403  1.00  0.00     0.220 C 
ATOM     11  O   UNL     1      10.298  10.494 -17.330  1.00  0.00    -0.275 OA
ATOM     12  N   UNL     1       8.379  11.239 -16.210  1.00  0.00    -0.352 N 
ATOM     13  H   UNL     1       7.391  11.569 -16.294  1.00  0.00     0.163 HD
BRANCH  12  14
ATOM     14  C   UNL     1       8.925  11.013 -14.874  1.00  0.00     0.151 C 
BRANCH  14  15
ATOM     15  C   UNL     1       8.107   9.982 -14.144  1.00  0.00    -0.025 A 
ATOM     16  C   UNL     1       8.046   8.657 -14.606  1.00  0.00     0.056 A 
ATOM     17  C   UNL     1       7.423  10.337 -12.972  1.00  0.00     0.009 A 
ATOM     18  C   UNL     1       7.296   7.690 -13.907  1.00  0.00     0.160 A 
ATOM     19  C   UNL     1       6.679   9.383 -12.276  1.00  0.00     0.050 A 
ATOM     20  C   UNL     1       6.614   8.062 -12.738  1.00  0.00     0.157 A 
BRANCH  18  21
ATOM     21  O   UNL     1       7.210   6.355 -14.335  1.00  0.00    -0.493 OA
ATOM     22  C   UNL     1       6.775   5.949 -15.628  1.00  0.00     0.278 C 
ENDBRANCH  18  21
BRANCH  20  23
ATOM     23  O   UNL     1       5.875   7.109 -12.040  1.00  0.00    -0.504 OA
ATOM     24  H   UNL     1       6.263   6.202 -11.803  1.00  0.00     0.293 HD
ENDBRANCH  20  23
ENDBRANCH  14  15
ENDBRANCH  12  14
ENDBRANCH   9  10
ENDBRANCH   1   9
TORSDOF 10
ENDMDL
MODEL 8
REMARK VINA RESULT:    -5.927      2.238      3.223
REMARK INTER + INTRA:          -9.907
REMARK INTER:                  -9.249
REMARK INTRA:                  -0.658
REMARK UNBOUND:                -0.688
REMARK SMILES COc1cc(CNC(=O)CCCCC=CC(C)C)ccc1O
REMARK SMILES IDX 11 1 12 2 13 3 14 4 15 5 16 6 17 7 18 8 10 9 8 10 9 11 7 12
REMARK SMILES IDX 6 14 5 15 4 16 19 17 3 18 20 19 21 20 2 21 1 22 22 23
REMARK H PARENT 7 13 22 24
REMARK Flexibility Score: inf
ROOT
ATOM      1  C   UNL     1       8.820  12.129 -14.536  1.00  0.00     0.010 C 
ENDROOT
BRANCH   1   2
ATOM      2  C   UNL     1       7.305  11.958 -14.748  1.00  0.00     0.005 C 
BRANCH   2   3
ATOM      3  C   UNL     1       6.566  11.659 -13.437  1.00  0.00     0.027 C 
BRANCH   3   4
ATOM      4  C   UNL     1       6.364  10.180 -13.239  1.00  0.00    -0.031 C 
ATOM      5  C   UNL     1       7.326   9.403 -12.712  1.00  0.00    -0.028 C 
BRANCH   5   6
ATOM      6  C   UNL     1       7.169   7.907 -12.553  1.00  0.00     0.005 C 
ATOM      7  C   UNL     1       6.191   7.565 -11.423  1.00  0.00     0.012 C 
ATOM      8  C   UNL     1       6.748   7.246 -13.873  1.00  0.00     0.012 C 
ENDBRANCH   5   6
ENDBRANCH   3   4
ENDBRANCH   2   3
ENDBRANCH   1   2
BRANCH   1   9
ATOM      9  C   UNL     1       9.349  13.433 -15.145  1.00  0.00     0.100 C 
BRANCH   9  10
ATOM     10  C   UNL     1       9.934  13.214 -16.510  1.00  0.00     0.220 C 
ATOM     11  O   UNL     1      11.189  13.184 -16.647  1.00  0.00    -0.275 OA
ATOM     12  N   UNL     1       9.074  13.085 -17.652  1.00  0.00    -0.352 N 
ATOM     13  H   UNL     1       8.042  13.183 -17.526  1.00  0.00     0.163 HD
BRANCH  12  14
ATOM     14  C   UNL     1       9.593  12.875 -19.001  1.00  0.00     0.151 C 
BRANCH  14  15
ATOM     15  C   UNL     1       9.219  14.030 -19.890  1.00  0.00    -0.025 A 
ATOM     16  C   UNL     1       9.196  15.342 -19.389  1.00  0.00     0.056 A 
ATOM     17  C   UNL     1       8.919  13.802 -21.242  1.00  0.00     0.009 A 
ATOM     18  C   UNL     1       8.866  16.423 -20.230  1.00  0.00     0.160 A 
ATOM     19  C   UNL     1       8.592  14.870 -22.079  1.00  0.00     0.050 A 
ATOM     20  C   UNL     1       8.565  16.178 -21.578  1.00  0.00     0.157 A 
BRANCH  18  21
ATOM     21  O   UNL     1       8.833  17.749 -19.768  1.00  0.00    -0.493 OA
ATOM     22  C   UNL     1       8.088  18.191 -18.638  1.00  0.00     0.278 C 
ENDBRANCH  18  21
BRANCH  20  23
ATOM     23  O   UNL     1       8.243  17.244 -22.416  1.00  0.00    -0.504 OA
ATOM     24  H   UNL     1       8.836  18.065 -22.488  1.00  0.00     0.293 HD
ENDBRANCH  20  23
ENDBRANCH  14  15
ENDBRANCH  12  14
ENDBRANCH   9  10
ENDBRANCH   1   9
TORSDOF 10
ENDMDL
MODEL 9
REMARK VINA RESULT:    -5.920      3.103      9.396
REMARK INTER + INTRA:          -9.896
REMARK INTER:                  -9.189
REMARK INTRA:                  -0.706
REMARK UNBOUND:                -0.688
REMARK SMILES COc1cc(CNC(=O)CCCCC=CC(C)C)ccc1O
REMARK SMILES IDX 11 1 12 2 13 3 14 4 15 5 16 6 17 7 18 8 10 9 8 10 9 11 7 12
REMARK SMILES IDX 6 14 5 15 4 16 19 17 3 18 20 19 21 20 2 21 1 22 22 23
REMARK H PARENT 7 13 22 24
REMARK Flexibility Score: inf
ROOT
ATOM      1  C   UNL     1      10.569  14.376 -17.426  1.00  0.00     0.010 C 
ENDROOT
BRANCH   1   2
ATOM      2  C   UNL     1      10.683  15.670 -18.251  1.00  0.00     0.005 C 
BRANCH   2   3
ATOM      3  C   UNL     1       9.613  15.754 -19.348  1.00  0.00     0.027 C 
BRANCH   3   4
ATOM      4  C   UNL     1       9.102  17.160 -19.518  1.00  0.00    -0.031 C 
ATOM      5  C   UNL     1       8.442  17.792 -18.532  1.00  0.00    -0.028 C 
BRANCH   5   6
ATOM      6  C   UNL     1       7.870  19.182 -18.695  1.00  0.00     0.005 C 
ATOM      7  C   UNL     1       6.558  19.341 -17.916  1.00  0.00     0.012 C 
ATOM      8  C   UNL     1       8.890  20.257 -18.293  1.00  0.00     0.012 C 
ENDBRANCH   5   6
ENDBRANCH   3   4
ENDBRANCH   2   3
ENDBRANCH   1   2
BRANCH   1   9
ATOM      9  C   UNL     1      10.098  14.642 -15.990  1.00  0.00     0.100 C 
BRANCH   9  10
ATOM     10  C   UNL     1       8.884  13.830 -15.642  1.00  0.00     0.220 C 
ATOM     11  O   UNL     1       7.846  13.934 -16.352  1.00  0.00    -0.275 OA
ATOM     12  N   UNL     1       8.893  12.977 -14.487  1.00  0.00    -0.352 N 
ATOM     13  H   UNL     1       9.738  12.959 -13.874  1.00  0.00     0.163 HD
BRANCH  12  14
ATOM     14  C   UNL     1       7.738  12.170 -14.103  1.00  0.00     0.151 C 
BRANCH  14  15
ATOM     15  C   UNL     1       8.087  10.707 -14.143  1.00  0.00    -0.025 A 
ATOM     16  C   UNL     1       7.493   9.803 -13.247  1.00  0.00     0.056 A 
ATOM     17  C   UNL     1       8.992  10.232 -15.105  1.00  0.00     0.009 A 
ATOM     18  C   UNL     1       7.806   8.430 -13.303  1.00  0.00     0.160 A 
ATOM     19  C   UNL     1       9.306   8.873 -15.164  1.00  0.00     0.050 A 
ATOM     20  C   UNL     1       8.716   7.971 -14.268  1.00  0.00     0.157 A 
BRANCH  18  21
ATOM     21  O   UNL     1       7.233   7.494 -12.426  1.00  0.00    -0.493 OA
ATOM     22  C   UNL     1       6.632   7.821 -11.178  1.00  0.00     0.278 C 
ENDBRANCH  18  21
BRANCH  20  23
ATOM     23  O   UNL     1       9.026   6.614 -14.331  1.00  0.00    -0.504 OA
ATOM     24  H   UNL     1       9.886   6.282 -14.755  1.00  0.00     0.293 HD
ENDBRANCH  20  23
ENDBRANCH  14  15
ENDBRANCH  12  14
ENDBRANCH   9  10
ENDBRANCH   1   9
TORSDOF 10
ENDMDL
