MODEL 1
REMARK VINA RESULT:    -4.313      0.000      0.000
REMARK INTER + INTRA:          -4.439
REMARK INTER:                  -4.439
REMARK INTRA:                   0.000
REMARK UNBOUND:                 0.000
REMARK SMILES CC1(C)[C@H]2CC[C@](C)(C2)[C@H]1O
REMARK SMILES IDX 1 1 2 2 4 3 5 4 6 5 7 6 9 7 10 8 8 9 3 10 11 11
REMARK H PARENT 11 12
REMARK Flexibility Score: inf
ROOT
ATOM      1  C   UNL     1     107.499 103.998 102.437  1.00  0.00     0.014 C 
ATOM      2  C   UNL     1     106.940 104.921 103.551  1.00  0.00    -0.006 C 
ATOM      3  C   UNL     1     107.869 106.144 103.869  1.00  0.00    -0.002 C 
ATOM      4  C   UNL     1     108.290 106.875 102.576  1.00  0.00     0.005 C 
ATOM      5  C   UNL     1     106.970 107.495 102.092  1.00  0.00     0.010 C 
ATOM      6  C   UNL     1     105.985 107.136 103.231  1.00  0.00    -0.006 C 
ATOM      7  C   UNL     1     106.896 107.162 104.438  1.00  0.00     0.013 C 
ATOM      8  C   UNL     1     105.602 105.636 103.162  1.00  0.00     0.126 C 
ATOM      9  C   UNL     1     104.785 108.082 103.334  1.00  0.00     0.014 C 
ATOM     10  C   UNL     1     106.753 104.052 104.819  1.00  0.00     0.014 C 
ENDROOT
BRANCH   8  11
ATOM     11  O   UNL     1     105.125 105.288 101.886  1.00  0.00    -0.392 OA
ATOM     12  H   UNL     1     104.138 105.221 101.964  1.00  0.00     0.211 HD
ENDBRANCH   8  11
TORSDOF 1
ENDMDL
MODEL 2
REMARK VINA RESULT:    -4.313      1.578      3.124
REMARK INTER + INTRA:          -4.439
REMARK INTER:                  -4.439
REMARK INTRA:                   0.000
REMARK UNBOUND:                 0.000
REMARK SMILES CC1(C)[C@H]2CC[C@](C)(C2)[C@H]1O
REMARK SMILES IDX 1 1 2 2 4 3 5 4 6 5 7 6 9 7 10 8 8 9 3 10 11 11
REMARK H PARENT 11 12
REMARK Flexibility Score: inf
ROOT
ATOM      1  C   UNL     1     103.900 105.269 104.329  1.00  0.00     0.014 C 
ATOM      2  C   UNL     1     104.386 105.907 103.001  1.00  0.00    -0.006 C 
ATOM      3  C   UNL     1     104.427 107.474 103.043  1.00  0.00    -0.002 C 
ATOM      4  C   UNL     1     105.155 107.979 104.306  1.00  0.00     0.005 C 
ATOM      5  C   UNL     1     106.609 107.552 104.054  1.00  0.00     0.010 C 
ATOM      6  C   UNL     1     106.548 106.958 102.625  1.00  0.00    -0.006 C 
ATOM      7  C   UNL     1     105.470 107.808 101.990  1.00  0.00     0.013 C 
ATOM      8  C   UNL     1     105.873 105.564 102.647  1.00  0.00     0.126 C 
ATOM      9  C   UNL     1     107.887 106.991 101.883  1.00  0.00     0.014 C 
ATOM     10  C   UNL     1     103.428 105.430 101.882  1.00  0.00     0.014 C 
ENDROOT
BRANCH   8  11
ATOM     11  O   UNL     1     106.492 104.710 103.577  1.00  0.00    -0.392 OA
ATOM     12  H   UNL     1     107.006 104.045 103.048  1.00  0.00     0.211 HD
ENDBRANCH   8  11
TORSDOF 1
ENDMDL
MODEL 3
REMARK VINA RESULT:    -4.311      1.368      2.625
REMARK INTER + INTRA:          -4.437
REMARK INTER:                  -4.437
REMARK INTRA:                   0.000
REMARK UNBOUND:                 0.000
REMARK SMILES CC1(C)[C@H]2CC[C@](C)(C2)[C@H]1O
REMARK SMILES IDX 1 1 2 2 4 3 5 4 6 5 7 6 9 7 10 8 8 9 3 10 11 11
REMARK H PARENT 11 12
REMARK Flexibility Score: inf
ROOT
ATOM      1  C   UNL     1     103.982 104.925 102.067  1.00  0.00     0.014 C 
ATOM      2  C   UNL     1     104.907 105.181 103.285  1.00  0.00    -0.006 C 
ATOM      3  C   UNL     1     106.060 104.127 103.422  1.00  0.00    -0.002 C 
ATOM      4  C   UNL     1     106.798 103.931 102.081  1.00  0.00     0.005 C 
ATOM      5  C   UNL     1     107.513 105.277 101.887  1.00  0.00     0.010 C 
ATOM      6  C   UNL     1     107.185 106.030 103.199  1.00  0.00    -0.006 C 
ATOM      7  C   UNL     1     107.121 104.892 104.194  1.00  0.00     0.013 C 
ATOM      8  C   UNL     1     105.715 106.519 103.190  1.00  0.00     0.126 C 
ATOM      9  C   UNL     1     108.202 107.117 103.560  1.00  0.00     0.014 C 
ATOM     10  C   UNL     1     104.017 105.163 104.552  1.00  0.00     0.014 C 
ENDROOT
BRANCH   8  11
ATOM     11  O   UNL     1     105.433 107.269 102.035  1.00  0.00    -0.392 OA
ATOM     12  H   UNL     1     106.179 107.100 101.402  1.00  0.00     0.211 HD
ENDBRANCH   8  11
TORSDOF 1
ENDMDL
MODEL 4
REMARK VINA RESULT:    -4.310      1.079      3.256
REMARK INTER + INTRA:          -4.436
REMARK INTER:                  -4.436
REMARK INTRA:                   0.000
REMARK UNBOUND:                 0.000
REMARK SMILES CC1(C)[C@H]2CC[C@](C)(C2)[C@H]1O
REMARK SMILES IDX 1 1 2 2 4 3 5 4 6 5 7 6 9 7 10 8 8 9 3 10 11 11
REMARK H PARENT 11 12
REMARK Flexibility Score: inf
ROOT
ATOM      1  C   UNL     1     105.238 108.048 104.323  1.00  0.00     0.014 C 
ATOM      2  C   UNL     1     105.880 107.549 103.003  1.00  0.00    -0.006 C 
ATOM      3  C   UNL     1     107.447 107.495 103.056  1.00  0.00    -0.002 C 
ATOM      4  C   UNL     1     107.937 106.771 104.327  1.00  0.00     0.005 C 
ATOM      5  C   UNL     1     107.500 105.318 104.080  1.00  0.00     0.010 C 
ATOM      6  C   UNL     1     106.917 105.376 102.647  1.00  0.00    -0.006 C 
ATOM      7  C   UNL     1     107.780 106.444 102.011  1.00  0.00     0.013 C 
ATOM      8  C   UNL     1     105.527 106.063 102.655  1.00  0.00     0.126 C 
ATOM      9  C   UNL     1     106.944 104.032 101.912  1.00  0.00     0.014 C 
ATOM     10  C   UNL     1     105.418 108.504 101.875  1.00  0.00     0.014 C 
ENDROOT
BRANCH   8  11
ATOM     11  O   UNL     1     104.663 105.455 103.583  1.00  0.00    -0.392 OA
ATOM     12  H   UNL     1     104.622 106.063 104.367  1.00  0.00     0.211 HD
ENDBRANCH   8  11
TORSDOF 1
ENDMDL
MODEL 5
REMARK VINA RESULT:    -4.309      1.391      3.117
REMARK INTER + INTRA:          -4.435
REMARK INTER:                  -4.435
REMARK INTRA:                   0.000
REMARK UNBOUND:                 0.000
REMARK SMILES CC1(C)[C@H]2CC[C@](C)(C2)[C@H]1O
REMARK SMILES IDX 1 1 2 2 4 3 5 4 6 5 7 6 9 7 10 8 8 9 3 10 11 11
REMARK H PARENT 11 12
REMARK Flexibility Score: inf
ROOT
ATOM      1  C   UNL     1     108.038 106.750 104.321  1.00  0.00     0.014 C 
ATOM      2  C   UNL     1     107.394 105.941 103.164  1.00  0.00    -0.006 C 
ATOM      3  C   UNL     1     107.390 104.393 103.416  1.00  0.00    -0.002 C 
ATOM      4  C   UNL     1     106.844 104.059 104.820  1.00  0.00     0.005 C 
ATOM      5  C   UNL     1     105.361 104.445 104.709  1.00  0.00     0.010 C 
ATOM      6  C   UNL     1     105.223 104.844 103.220  1.00  0.00    -0.006 C 
ATOM      7  C   UNL     1     106.225 103.920 102.564  1.00  0.00     0.013 C 
ATOM      8  C   UNL     1     105.867 106.231 102.969  1.00  0.00     0.126 C 
ATOM      9  C   UNL     1     103.798 104.710 102.672  1.00  0.00     0.014 C 
ATOM     10  C   UNL     1     108.187 106.268 101.875  1.00  0.00     0.014 C 
ENDROOT
BRANCH   8  11
ATOM     11  O   UNL     1     105.358 107.199 103.853  1.00  0.00    -0.392 OA
ATOM     12  H   UNL     1     105.979 107.226 104.626  1.00  0.00     0.211 HD
ENDBRANCH   8  11
TORSDOF 1
ENDMDL
MODEL 6
REMARK VINA RESULT:    -4.306      1.691      2.911
REMARK INTER + INTRA:          -4.432
REMARK INTER:                  -4.432
REMARK INTRA:                   0.000
REMARK UNBOUND:                 0.000
REMARK SMILES CC1(C)[C@H]2CC[C@](C)(C2)[C@H]1O
REMARK SMILES IDX 1 1 2 2 4 3 5 4 6 5 7 6 9 7 10 8 8 9 3 10 11 11
REMARK H PARENT 11 12
REMARK Flexibility Score: inf
ROOT
ATOM      1  C   UNL     1     106.748 103.995 104.320  1.00  0.00     0.014 C 
ATOM      2  C   UNL     1     105.942 104.589 103.135  1.00  0.00    -0.006 C 
ATOM      3  C   UNL     1     104.399 104.655 103.405  1.00  0.00    -0.002 C 
ATOM      4  C   UNL     1     104.100 105.296 104.776  1.00  0.00     0.005 C 
ATOM      5  C   UNL     1     104.527 106.757 104.568  1.00  0.00     0.010 C 
ATOM      6  C   UNL     1     104.910 106.791 103.069  1.00  0.00    -0.006 C 
ATOM      7  C   UNL     1     103.948 105.778 102.488  1.00  0.00     0.013 C 
ATOM      8  C   UNL     1     106.274 106.092 102.842  1.00  0.00     0.126 C 
ATOM      9  C   UNL     1     104.809 108.182 102.435  1.00  0.00     0.014 C 
ATOM     10  C   UNL     1     106.229 103.708 101.894  1.00  0.00     0.014 C 
ENDROOT
BRANCH   8  11
ATOM     11  O   UNL     1     107.268 106.626 103.681  1.00  0.00    -0.392 OA
ATOM     12  H   UNL     1     106.809 106.909 104.514  1.00  0.00     0.211 HD
ENDBRANCH   8  11
TORSDOF 1
ENDMDL
MODEL 7
REMARK VINA RESULT:    -4.297      1.302      2.532
REMARK INTER + INTRA:          -4.422
REMARK INTER:                  -4.422
REMARK INTRA:                   0.000
REMARK UNBOUND:                 0.000
REMARK SMILES CC1(C)[C@H]2CC[C@](C)(C2)[C@H]1O
REMARK SMILES IDX 1 1 2 2 4 3 5 4 6 5 7 6 9 7 10 8 8 9 3 10 11 11
REMARK H PARENT 11 12
REMARK Flexibility Score: inf
ROOT
ATOM      1  C   UNL     1     107.974 107.141 102.160  1.00  0.00     0.014 C 
ATOM      2  C   UNL     1     107.071 106.849 103.387  1.00  0.00    -0.006 C 
ATOM      3  C   UNL     1     105.893 107.871 103.548  1.00  0.00    -0.002 C 
ATOM      4  C   UNL     1     105.134 108.061 102.218  1.00  0.00     0.005 C 
ATOM      5  C   UNL     1     104.451 106.698 102.019  1.00  0.00     0.010 C 
ATOM      6  C   UNL     1     104.815 105.941 103.320  1.00  0.00    -0.006 C 
ATOM      7  C   UNL     1     104.862 107.071 104.325  1.00  0.00     0.013 C 
ATOM      8  C   UNL     1     106.297 105.491 103.288  1.00  0.00     0.126 C 
ATOM      9  C   UNL     1     103.831 104.824 103.682  1.00  0.00     0.014 C 
ATOM     10  C   UNL     1     107.976 106.878 104.643  1.00  0.00     0.014 C 
ENDROOT
BRANCH   8  11
ATOM     11  O   UNL     1     106.584 104.760 102.121  1.00  0.00    -0.392 OA
ATOM     12  H   UNL     1     107.088 105.373 101.524  1.00  0.00     0.211 HD
ENDBRANCH   8  11
TORSDOF 1
ENDMDL
MODEL 8
REMARK VINA RESULT:    -4.288      1.509      3.636
REMARK INTER + INTRA:          -4.413
REMARK INTER:                  -4.413
REMARK INTRA:                   0.000
REMARK UNBOUND:                 0.000
REMARK SMILES CC1(C)[C@H]2CC[C@](C)(C2)[C@H]1O
REMARK SMILES IDX 1 1 2 2 4 3 5 4 6 5 7 6 9 7 10 8 8 9 3 10 11 11
REMARK H PARENT 11 12
REMARK Flexibility Score: inf
ROOT
ATOM      1  C   UNL     1     104.491 107.974 102.623  1.00  0.00     0.014 C 
ATOM      2  C   UNL     1     105.084 107.063 103.729  1.00  0.00    -0.006 C 
ATOM      3  C   UNL     1     104.150 105.863 104.113  1.00  0.00    -0.002 C 
ATOM      4  C   UNL     1     103.658 105.115 102.856  1.00  0.00     0.005 C 
ATOM      5  C   UNL     1     104.944 104.462 102.325  1.00  0.00     0.010 C 
ATOM      6  C   UNL     1     105.985 104.825 103.411  1.00  0.00    -0.006 C 
ATOM      7  C   UNL     1     105.130 104.839 104.659  1.00  0.00     0.013 C 
ATOM      8  C   UNL     1     106.391 106.316 103.295  1.00  0.00     0.126 C 
ATOM      9  C   UNL     1     107.173 103.860 103.478  1.00  0.00     0.014 C 
ATOM     10  C   UNL     1     105.343 107.953 104.970  1.00  0.00     0.014 C 
ENDROOT
BRANCH   8  11
ATOM     11  O   UNL     1     106.814 106.631 101.991  1.00  0.00    -0.392 OA
ATOM     12  H   UNL     1     105.993 106.832 101.471  1.00  0.00     0.211 HD
ENDBRANCH   8  11
TORSDOF 1
ENDMDL
MODEL 9
REMARK VINA RESULT:    -4.154      1.404      2.924
REMARK INTER + INTRA:          -4.275
REMARK INTER:                  -4.275
REMARK INTRA:                   0.000
REMARK UNBOUND:                 0.000
REMARK SMILES CC1(C)[C@H]2CC[C@](C)(C2)[C@H]1O
REMARK SMILES IDX 1 1 2 2 4 3 5 4 6 5 7 6 9 7 10 8 8 9 3 10 11 11
REMARK H PARENT 11 12
REMARK Flexibility Score: inf
ROOT
ATOM      1  C   UNL     1     104.413 106.205 104.289  1.00  0.00     0.014 C 
ATOM      2  C   UNL     1     105.687 107.020 104.635  1.00  0.00    -0.006 C 
ATOM      3  C   UNL     1     106.829 106.148 105.262  1.00  0.00    -0.002 C 
ATOM      4  C   UNL     1     107.083 104.876 104.426  1.00  0.00     0.005 C 
ATOM      5  C   UNL     1     107.681 105.438 103.127  1.00  0.00     0.010 C 
ATOM      6  C   UNL     1     107.800 106.951 103.431  1.00  0.00    -0.006 C 
ATOM      7  C   UNL     1     108.079 106.940 104.918  1.00  0.00     0.013 C 
ATOM      8  C   UNL     1     106.405 107.624 103.382  1.00  0.00     0.126 C 
ATOM      9  C   UNL     1     108.869 107.668 102.601  1.00  0.00     0.014 C 
ATOM     10  C   UNL     1     105.267 108.136 105.623  1.00  0.00     0.014 C 
ENDROOT
BRANCH   8  11
ATOM     11  O   UNL     1     105.749 107.352 102.168  1.00  0.00    -0.392 OA
ATOM     12  H   UNL     1     106.393 106.842 101.610  1.00  0.00     0.211 HD
ENDBRANCH   8  11
TORSDOF 1
ENDMDL
