MODEL 1
REMARK VINA RESULT:    -6.144      0.000      0.000
REMARK INTER + INTRA:         -12.852
REMARK INTER:                 -11.172
REMARK INTRA:                  -1.680
REMARK UNBOUND:                -1.680
REMARK SMILES CCCCCCCCCCCCCC[C@@H](C)C(=O)[O-]
REMARK SMILES IDX 9 1 10 2 11 3 12 4 13 5 14 6 15 7 16 8 17 9 18 10 19 11 8 12
REMARK SMILES IDX 7 13 6 14 5 15 4 16 3 17 2 18 1 19
REMARK H PARENT
REMARK Flexibility Score: inf
ROOT
ATOM      1  C   UNL     1      93.759  -4.116   8.645  1.00  0.00     0.000 C 
ENDROOT
BRANCH   1   2
ATOM      2  C   UNL     1      93.802  -3.853  10.159  1.00  0.00     0.000 C 
BRANCH   2   3
ATOM      3  C   UNL     1      95.130  -4.337  10.761  1.00  0.00     0.000 C 
BRANCH   3   4
ATOM      4  C   UNL     1      96.026  -3.176  11.231  1.00  0.00     0.000 C 
BRANCH   4   5
ATOM      5  C   UNL     1      96.976  -2.647  10.139  1.00  0.00     0.001 C 
BRANCH   5   6
ATOM      6  C   UNL     1      97.357  -3.721   9.091  1.00  0.00     0.009 C 
BRANCH   6   7
ATOM      7  C   UNL     1      97.470  -3.167   7.654  1.00  0.00     0.032 C 
ATOM      8  C   UNL     1      98.605  -2.144   7.511  1.00  0.00     0.014 C 
BRANCH   7   9
ATOM      9  C   UNL     1      97.689  -4.299   6.686  1.00  0.00     0.044 C 
ATOM     10  O   UNL     1      96.910  -5.288   6.682  1.00  0.00    -0.550 OA
ATOM     11  O   UNL     1      98.750  -4.260   5.789  1.00  0.00    -0.550 OA
ENDBRANCH   7   9
ENDBRANCH   6   7
ENDBRANCH   5   6
ENDBRANCH   4   5
ENDBRANCH   3   4
ENDBRANCH   2   3
ENDBRANCH   1   2
BRANCH   1  12
ATOM     12  C   UNL     1      93.786  -2.821   7.818  1.00  0.00     0.000 C 
BRANCH  12  13
ATOM     13  C   UNL     1      92.376  -2.289   7.506  1.00  0.00    -0.000 C 
BRANCH  13  14
ATOM     14  C   UNL     1      92.356  -1.359   6.283  1.00  0.00    -0.000 C 
BRANCH  14  15
ATOM     15  C   UNL     1      91.169  -1.644   5.346  1.00  0.00    -0.000 C 
BRANCH  15  16
ATOM     16  C   UNL     1      90.181  -2.663   5.937  1.00  0.00    -0.000 C 
BRANCH  16  17
ATOM     17  C   UNL     1      89.927  -3.852   4.994  1.00  0.00    -0.000 C 
BRANCH  17  18
ATOM     18  C   UNL     1      90.460  -5.177   5.561  1.00  0.00    -0.003 C 
ATOM     19  C   UNL     1      90.254  -5.303   7.070  1.00  0.00     0.004 C 
ENDBRANCH  17  18
ENDBRANCH  16  17
ENDBRANCH  15  16
ENDBRANCH  14  15
ENDBRANCH  13  14
ENDBRANCH  12  13
ENDBRANCH   1  12
TORSDOF 14
ENDMDL
MODEL 2
REMARK VINA RESULT:    -6.126      1.218      2.543
REMARK INTER + INTRA:         -12.820
REMARK INTER:                 -11.115
REMARK INTRA:                  -1.705
REMARK UNBOUND:                -1.680
REMARK SMILES CCCCCCCCCCCCCC[C@@H](C)C(=O)[O-]
REMARK SMILES IDX 9 1 10 2 11 3 12 4 13 5 14 6 15 7 16 8 17 9 18 10 19 11 8 12
REMARK SMILES IDX 7 13 6 14 5 15 4 16 3 17 2 18 1 19
REMARK H PARENT
REMARK Flexibility Score: inf
ROOT
ATOM      1  C   UNL     1      92.292  -1.896   7.072  1.00  0.00     0.000 C 
ENDROOT
BRANCH   1   2
ATOM      2  C   UNL     1      93.550  -2.667   7.500  1.00  0.00     0.000 C 
BRANCH   2   3
ATOM      3  C   UNL     1      93.181  -3.890   8.353  1.00  0.00     0.000 C 
BRANCH   3   4
ATOM      4  C   UNL     1      93.629  -3.746   9.820  1.00  0.00     0.000 C 
BRANCH   4   5
ATOM      5  C   UNL     1      94.552  -4.885  10.298  1.00  0.00     0.001 C 
BRANCH   5   6
ATOM      6  C   UNL     1      96.019  -4.437  10.499  1.00  0.00     0.009 C 
BRANCH   6   7
ATOM      7  C   UNL     1      96.357  -3.100   9.804  1.00  0.00     0.032 C 
ATOM      8  C   UNL     1      97.192  -2.174  10.697  1.00  0.00     0.014 C 
BRANCH   7   9
ATOM      9  C   UNL     1      97.098  -3.363   8.521  1.00  0.00     0.044 C 
ATOM     10  O   UNL     1      97.980  -2.558   8.123  1.00  0.00    -0.550 OA
ATOM     11  O   UNL     1      96.817  -4.497   7.768  1.00  0.00    -0.550 OA
ENDBRANCH   7   9
ENDBRANCH   6   7
ENDBRANCH   5   6
ENDBRANCH   4   5
ENDBRANCH   3   4
ENDBRANCH   2   3
ENDBRANCH   1   2
BRANCH   1  12
ATOM     12  C   UNL     1      92.584  -0.831   6.005  1.00  0.00     0.000 C 
BRANCH  12  13
ATOM     13  C   UNL     1      91.493  -0.766   4.920  1.00  0.00    -0.000 C 
BRANCH  13  14
ATOM     14  C   UNL     1      90.077  -0.715   5.515  1.00  0.00    -0.000 C 
BRANCH  14  15
ATOM     15  C   UNL     1      89.131  -1.745   4.871  1.00  0.00    -0.000 C 
BRANCH  15  16
ATOM     16  C   UNL     1      89.191  -3.116   5.564  1.00  0.00    -0.000 C 
BRANCH  16  17
ATOM     17  C   UNL     1      90.049  -4.130   4.787  1.00  0.00    -0.000 C 
BRANCH  17  18
ATOM     18  C   UNL     1      90.794  -5.104   5.713  1.00  0.00    -0.003 C 
ATOM     19  C   UNL     1      90.046  -5.370   7.020  1.00  0.00     0.004 C 
ENDBRANCH  17  18
ENDBRANCH  16  17
ENDBRANCH  15  16
ENDBRANCH  14  15
ENDBRANCH  13  14
ENDBRANCH  12  13
ENDBRANCH   1  12
TORSDOF 14
ENDMDL
MODEL 3
REMARK VINA RESULT:    -6.022      8.710     13.250
REMARK INTER + INTRA:         -12.630
REMARK INTER:                 -10.884
REMARK INTRA:                  -1.746
REMARK UNBOUND:                -1.680
REMARK SMILES CCCCCCCCCCCCCC[C@@H](C)C(=O)[O-]
REMARK SMILES IDX 9 1 10 2 11 3 12 4 13 5 14 6 15 7 16 8 17 9 18 10 19 11 8 12
REMARK SMILES IDX 7 13 6 14 5 15 4 16 3 17 2 18 1 19
REMARK H PARENT
REMARK Flexibility Score: inf
ROOT
ATOM      1  C   UNL     1      83.989  -3.424   2.559  1.00  0.00     0.000 C 
ENDROOT
BRANCH   1   2
ATOM      2  C   UNL     1      82.830  -3.490   3.565  1.00  0.00     0.000 C 
BRANCH   2   3
ATOM      3  C   UNL     1      81.475  -3.511   2.839  1.00  0.00     0.000 C 
BRANCH   3   4
ATOM      4  C   UNL     1      81.615  -3.798   1.333  1.00  0.00     0.000 C 
BRANCH   4   5
ATOM      5  C   UNL     1      81.048  -2.680   0.436  1.00  0.00     0.001 C 
BRANCH   5   6
ATOM      6  C   UNL     1      82.110  -1.636   0.017  1.00  0.00     0.009 C 
BRANCH   6   7
ATOM      7  C   UNL     1      81.883  -0.241   0.640  1.00  0.00     0.032 C 
ATOM      8  C   UNL     1      82.523  -0.113   2.028  1.00  0.00     0.014 C 
BRANCH   7   9
ATOM      9  C   UNL     1      82.438   0.821  -0.270  1.00  0.00     0.044 C 
ATOM     10  O   UNL     1      83.628   0.748  -0.677  1.00  0.00    -0.550 OA
ATOM     11  O   UNL     1      81.643   1.889  -0.670  1.00  0.00    -0.550 OA
ENDBRANCH   7   9
ENDBRANCH   6   7
ENDBRANCH   5   6
ENDBRANCH   4   5
ENDBRANCH   3   4
ENDBRANCH   2   3
ENDBRANCH   1   2
BRANCH   1  12
ATOM     12  C   UNL     1      85.172  -2.589   3.073  1.00  0.00     0.000 C 
BRANCH  12  13
ATOM     13  C   UNL     1      86.025  -2.007   1.931  1.00  0.00    -0.000 C 
BRANCH  13  14
ATOM     14  C   UNL     1      87.462  -2.554   1.934  1.00  0.00    -0.000 C 
BRANCH  14  15
ATOM     15  C   UNL     1      88.292  -2.019   3.115  1.00  0.00    -0.000 C 
BRANCH  15  16
ATOM     16  C   UNL     1      88.929  -3.144   3.948  1.00  0.00    -0.000 C 
BRANCH  16  17
ATOM     17  C   UNL     1      88.565  -3.049   5.440  1.00  0.00    -0.000 C 
BRANCH  17  18
ATOM     18  C   UNL     1      87.383  -2.103   5.700  1.00  0.00    -0.003 C 
ATOM     19  C   UNL     1      86.305  -2.728   6.585  1.00  0.00     0.004 C 
ENDBRANCH  17  18
ENDBRANCH  16  17
ENDBRANCH  15  16
ENDBRANCH  14  15
ENDBRANCH  13  14
ENDBRANCH  12  13
ENDBRANCH   1  12
TORSDOF 14
ENDMDL
MODEL 4
REMARK VINA RESULT:    -6.009      1.602      2.081
REMARK INTER + INTRA:         -12.607
REMARK INTER:                 -11.169
REMARK INTRA:                  -1.439
REMARK UNBOUND:                -1.680
REMARK SMILES CCCCCCCCCCCCCC[C@@H](C)C(=O)[O-]
REMARK SMILES IDX 9 1 10 2 11 3 12 4 13 5 14 6 15 7 16 8 17 9 18 10 19 11 8 12
REMARK SMILES IDX 7 13 6 14 5 15 4 16 3 17 2 18 1 19
REMARK H PARENT
REMARK Flexibility Score: inf
ROOT
ATOM      1  C   UNL     1      93.411  -3.473   9.396  1.00  0.00     0.000 C 
ENDROOT
BRANCH   1   2
ATOM      2  C   UNL     1      93.693  -4.913   9.853  1.00  0.00     0.000 C 
BRANCH   2   3
ATOM      3  C   UNL     1      94.970  -4.978  10.704  1.00  0.00     0.000 C 
BRANCH   3   4
ATOM      4  C   UNL     1      95.492  -3.582  11.097  1.00  0.00     0.000 C 
BRANCH   4   5
ATOM      5  C   UNL     1      96.947  -3.322  10.659  1.00  0.00     0.001 C 
BRANCH   5   6
ATOM      6  C   UNL     1      97.060  -2.754   9.224  1.00  0.00     0.009 C 
BRANCH   6   7
ATOM      7  C   UNL     1      97.627  -3.765   8.204  1.00  0.00     0.032 C 
ATOM      8  C   UNL     1      96.521  -4.489   7.425  1.00  0.00     0.014 C 
BRANCH   7   9
ATOM      9  C   UNL     1      98.542  -3.060   7.240  1.00  0.00     0.044 C 
ATOM     10  O   UNL     1      98.863  -1.858   7.436  1.00  0.00    -0.550 OA
ATOM     11  O   UNL     1      99.041  -3.728   6.128  1.00  0.00    -0.550 OA
ENDBRANCH   7   9
ENDBRANCH   6   7
ENDBRANCH   5   6
ENDBRANCH   4   5
ENDBRANCH   3   4
ENDBRANCH   2   3
ENDBRANCH   1   2
BRANCH   1  12
ATOM     12  C   UNL     1      93.003  -3.390   7.917  1.00  0.00     0.000 C 
BRANCH  12  13
ATOM     13  C   UNL     1      93.243  -1.993   7.315  1.00  0.00    -0.000 C 
BRANCH  13  14
ATOM     14  C   UNL     1      92.181  -1.613   6.271  1.00  0.00    -0.000 C 
BRANCH  14  15
ATOM     15  C   UNL     1      90.903  -2.462   6.397  1.00  0.00    -0.000 C 
BRANCH  15  16
ATOM     16  C   UNL     1      89.708  -1.845   5.651  1.00  0.00    -0.000 C 
BRANCH  16  17
ATOM     17  C   UNL     1      88.521  -2.818   5.534  1.00  0.00    -0.000 C 
BRANCH  17  18
ATOM     18  C   UNL     1      87.211  -2.217   6.065  1.00  0.00    -0.003 C 
ATOM     19  C   UNL     1      86.309  -3.255   6.731  1.00  0.00     0.004 C 
ENDBRANCH  17  18
ENDBRANCH  16  17
ENDBRANCH  15  16
ENDBRANCH  14  15
ENDBRANCH  13  14
ENDBRANCH  12  13
ENDBRANCH   1  12
TORSDOF 14
ENDMDL
MODEL 5
REMARK VINA RESULT:    -6.005      3.984      8.032
REMARK INTER + INTRA:         -12.600
REMARK INTER:                 -11.270
REMARK INTRA:                  -1.330
REMARK UNBOUND:                -1.680
REMARK SMILES CCCCCCCCCCCCCC[C@@H](C)C(=O)[O-]
REMARK SMILES IDX 9 1 10 2 11 3 12 4 13 5 14 6 15 7 16 8 17 9 18 10 19 11 8 12
REMARK SMILES IDX 7 13 6 14 5 15 4 16 3 17 2 18 1 19
REMARK H PARENT
REMARK Flexibility Score: inf
ROOT
ATOM      1  C   UNL     1      93.740  -3.055   7.884  1.00  0.00     0.000 C 
ENDROOT
BRANCH   1   2
ATOM      2  C   UNL     1      92.507  -2.313   7.346  1.00  0.00     0.000 C 
BRANCH   2   3
ATOM      3  C   UNL     1      92.914  -1.251   6.312  1.00  0.00     0.000 C 
BRANCH   3   4
ATOM      4  C   UNL     1      91.764  -0.286   5.970  1.00  0.00     0.000 C 
BRANCH   4   5
ATOM      5  C   UNL     1      90.647  -0.932   5.126  1.00  0.00     0.001 C 
BRANCH   5   6
ATOM      6  C   UNL     1      89.264  -0.900   5.819  1.00  0.00     0.009 C 
BRANCH   6   7
ATOM      7  C   UNL     1      88.392  -2.138   5.513  1.00  0.00     0.032 C 
ATOM      8  C   UNL     1      89.045  -3.441   5.991  1.00  0.00     0.014 C 
BRANCH   7   9
ATOM      9  C   UNL     1      87.043  -1.985   6.161  1.00  0.00     0.044 C 
ATOM     10  O   UNL     1      86.683  -0.869   6.621  1.00  0.00    -0.550 OA
ATOM     11  O   UNL     1      86.182  -3.073   6.256  1.00  0.00    -0.550 OA
ENDBRANCH   7   9
ENDBRANCH   6   7
ENDBRANCH   5   6
ENDBRANCH   4   5
ENDBRANCH   3   4
ENDBRANCH   2   3
ENDBRANCH   1   2
BRANCH   1  12
ATOM     12  C   UNL     1      93.391  -4.051   9.001  1.00  0.00     0.000 C 
BRANCH  12  13
ATOM     13  C   UNL     1      94.095  -3.720  10.329  1.00  0.00    -0.000 C 
BRANCH  13  14
ATOM     14  C   UNL     1      95.010  -4.858  10.809  1.00  0.00    -0.000 C 
BRANCH  14  15
ATOM     15  C   UNL     1      96.489  -4.438  10.871  1.00  0.00    -0.000 C 
BRANCH  15  16
ATOM     16  C   UNL     1      96.667  -2.911  10.933  1.00  0.00    -0.000 C 
BRANCH  16  17
ATOM     17  C   UNL     1      97.290  -2.339   9.647  1.00  0.00    -0.000 C 
BRANCH  17  18
ATOM     18  C   UNL     1      97.389  -3.384   8.525  1.00  0.00    -0.003 C 
ATOM     19  C   UNL     1      97.399  -2.758   7.130  1.00  0.00     0.004 C 
ENDBRANCH  17  18
ENDBRANCH  16  17
ENDBRANCH  15  16
ENDBRANCH  14  15
ENDBRANCH  13  14
ENDBRANCH  12  13
ENDBRANCH   1  12
TORSDOF 14
ENDMDL
MODEL 6
REMARK VINA RESULT:    -6.000      8.152     12.690
REMARK INTER + INTRA:         -12.590
REMARK INTER:                 -11.013
REMARK INTRA:                  -1.577
REMARK UNBOUND:                -1.680
REMARK SMILES CCCCCCCCCCCCCC[C@@H](C)C(=O)[O-]
REMARK SMILES IDX 9 1 10 2 11 3 12 4 13 5 14 6 15 7 16 8 17 9 18 10 19 11 8 12
REMARK SMILES IDX 7 13 6 14 5 15 4 16 3 17 2 18 1 19
REMARK H PARENT
REMARK Flexibility Score: inf
ROOT
ATOM      1  C   UNL     1      86.342  -2.718   2.756  1.00  0.00     0.000 C 
ENDROOT
BRANCH   1   2
ATOM      2  C   UNL     1      84.898  -2.374   2.361  1.00  0.00     0.000 C 
BRANCH   2   3
ATOM      3  C   UNL     1      83.895  -3.035   3.319  1.00  0.00     0.000 C 
BRANCH   3   4
ATOM      4  C   UNL     1      82.810  -3.839   2.579  1.00  0.00     0.000 C 
BRANCH   4   5
ATOM      5  C   UNL     1      81.396  -3.241   2.716  1.00  0.00     0.001 C 
BRANCH   5   6
ATOM      6  C   UNL     1      80.836  -2.687   1.384  1.00  0.00     0.009 C 
BRANCH   6   7
ATOM      7  C   UNL     1      81.932  -2.300   0.368  1.00  0.00     0.032 C 
ATOM      8  C   UNL     1      81.575  -2.723  -1.063  1.00  0.00     0.014 C 
BRANCH   7   9
ATOM      9  C   UNL     1      82.165  -0.814   0.409  1.00  0.00     0.044 C 
ATOM     10  O   UNL     1      83.245  -0.330  -0.023  1.00  0.00    -0.550 OA
ATOM     11  O   UNL     1      81.190   0.036   0.920  1.00  0.00    -0.550 OA
ENDBRANCH   7   9
ENDBRANCH   6   7
ENDBRANCH   5   6
ENDBRANCH   4   5
ENDBRANCH   3   4
ENDBRANCH   2   3
ENDBRANCH   1   2
BRANCH   1  12
ATOM     12  C   UNL     1      87.382  -2.006   1.877  1.00  0.00     0.000 C 
BRANCH  12  13
ATOM     13  C   UNL     1      88.782  -2.639   1.988  1.00  0.00    -0.000 C 
BRANCH  13  14
ATOM     14  C   UNL     1      89.502  -2.246   3.288  1.00  0.00    -0.000 C 
BRANCH  14  15
ATOM     15  C   UNL     1      89.546  -3.398   4.307  1.00  0.00    -0.000 C 
BRANCH  15  16
ATOM     16  C   UNL     1      88.936  -3.010   5.664  1.00  0.00    -0.000 C 
BRANCH  16  17
ATOM     17  C   UNL     1      88.228  -1.644   5.621  1.00  0.00    -0.000 C 
BRANCH  17  18
ATOM     18  C   UNL     1      86.897  -1.646   6.389  1.00  0.00    -0.003 C 
ATOM     19  C   UNL     1      86.235  -3.023   6.427  1.00  0.00     0.004 C 
ENDBRANCH  17  18
ENDBRANCH  16  17
ENDBRANCH  15  16
ENDBRANCH  14  15
ENDBRANCH  13  14
ENDBRANCH  12  13
ENDBRANCH   1  12
TORSDOF 14
ENDMDL
MODEL 7
REMARK VINA RESULT:    -5.986      6.716     10.311
REMARK INTER + INTRA:         -12.565
REMARK INTER:                 -10.970
REMARK INTRA:                  -1.595
REMARK UNBOUND:                -1.680
REMARK SMILES CCCCCCCCCCCCCC[C@@H](C)C(=O)[O-]
REMARK SMILES IDX 9 1 10 2 11 3 12 4 13 5 14 6 15 7 16 8 17 9 18 10 19 11 8 12
REMARK SMILES IDX 7 13 6 14 5 15 4 16 3 17 2 18 1 19
REMARK H PARENT
REMARK Flexibility Score: inf
ROOT
ATOM      1  C   UNL     1      84.056  -3.110   2.626  1.00  0.00     0.000 C 
ENDROOT
BRANCH   1   2
ATOM      2  C   UNL     1      85.196  -2.363   3.334  1.00  0.00     0.000 C 
BRANCH   2   3
ATOM      3  C   UNL     1      86.547  -2.664   2.666  1.00  0.00     0.000 C 
BRANCH   3   4
ATOM      4  C   UNL     1      87.711  -2.699   3.673  1.00  0.00     0.000 C 
BRANCH   4   5
ATOM      5  C   UNL     1      87.257  -2.633   5.145  1.00  0.00     0.001 C 
BRANCH   5   6
ATOM      6  C   UNL     1      88.201  -3.391   6.109  1.00  0.00     0.009 C 
BRANCH   6   7
ATOM      7  C   UNL     1      89.643  -3.533   5.575  1.00  0.00     0.032 C 
ATOM      8  C   UNL     1      90.563  -2.415   6.081  1.00  0.00     0.014 C 
BRANCH   7   9
ATOM      9  C   UNL     1      90.207  -4.869   5.978  1.00  0.00     0.044 C 
ATOM     10  O   UNL     1      91.108  -5.410   5.284  1.00  0.00    -0.550 OA
ATOM     11  O   UNL     1      89.742  -5.513   7.118  1.00  0.00    -0.550 OA
ENDBRANCH   7   9
ENDBRANCH   6   7
ENDBRANCH   5   6
ENDBRANCH   4   5
ENDBRANCH   3   4
ENDBRANCH   2   3
ENDBRANCH   1   2
BRANCH   1  12
ATOM     12  C   UNL     1      82.888  -3.438   3.569  1.00  0.00     0.000 C 
BRANCH  12  13
ATOM     13  C   UNL     1      81.570  -3.687   2.813  1.00  0.00    -0.000 C 
BRANCH  13  14
ATOM     14  C   UNL     1      81.800  -4.084   1.346  1.00  0.00    -0.000 C 
BRANCH  14  15
ATOM     15  C   UNL     1      81.027  -3.184   0.366  1.00  0.00    -0.000 C 
BRANCH  15  16
ATOM     16  C   UNL     1      81.153  -1.691   0.709  1.00  0.00    -0.000 C 
BRANCH  16  17
ATOM     17  C   UNL     1      82.378  -1.036   0.047  1.00  0.00    -0.000 C 
BRANCH  17  18
ATOM     18  C   UNL     1      82.834   0.235   0.779  1.00  0.00    -0.003 C 
ATOM     19  C   UNL     1      82.445   0.242   2.257  1.00  0.00     0.004 C 
ENDBRANCH  17  18
ENDBRANCH  16  17
ENDBRANCH  15  16
ENDBRANCH  14  15
ENDBRANCH  13  14
ENDBRANCH  12  13
ENDBRANCH   1  12
TORSDOF 14
ENDMDL
MODEL 8
REMARK VINA RESULT:    -5.979      7.348     11.015
REMARK INTER + INTRA:         -12.553
REMARK INTER:                 -10.567
REMARK INTRA:                  -1.986
REMARK UNBOUND:                -1.680
REMARK SMILES CCCCCCCCCCCCCC[C@@H](C)C(=O)[O-]
REMARK SMILES IDX 9 1 10 2 11 3 12 4 13 5 14 6 15 7 16 8 17 9 18 10 19 11 8 12
REMARK SMILES IDX 7 13 6 14 5 15 4 16 3 17 2 18 1 19
REMARK H PARENT
REMARK Flexibility Score: inf
ROOT
ATOM      1  C   UNL     1      84.556  -2.525   3.463  1.00  0.00     0.000 C 
ENDROOT
BRANCH   1   2
ATOM      2  C   UNL     1      85.348  -2.926   2.209  1.00  0.00     0.000 C 
BRANCH   2   3
ATOM      3  C   UNL     1      86.481  -1.925   1.933  1.00  0.00     0.000 C 
BRANCH   3   4
ATOM      4  C   UNL     1      87.874  -2.582   1.973  1.00  0.00     0.000 C 
BRANCH   4   5
ATOM      5  C   UNL     1      88.682  -2.240   3.240  1.00  0.00     0.001 C 
BRANCH   5   6
ATOM      6  C   UNL     1      88.404  -3.204   4.419  1.00  0.00     0.009 C 
BRANCH   6   7
ATOM      7  C   UNL     1      88.362  -2.501   5.793  1.00  0.00     0.032 C 
ATOM      8  C   UNL     1      89.126  -1.171   5.791  1.00  0.00     0.014 C 
BRANCH   7   9
ATOM      9  C   UNL     1      86.933  -2.259   6.200  1.00  0.00     0.044 C 
ATOM     10  O   UNL     1      86.216  -3.216   6.594  1.00  0.00    -0.550 OA
ATOM     11  O   UNL     1      86.395  -0.978   6.145  1.00  0.00    -0.550 OA
ENDBRANCH   7   9
ENDBRANCH   6   7
ENDBRANCH   5   6
ENDBRANCH   4   5
ENDBRANCH   3   4
ENDBRANCH   2   3
ENDBRANCH   1   2
BRANCH   1  12
ATOM     12  C   UNL     1      83.372  -3.465   3.740  1.00  0.00     0.000 C 
BRANCH  12  13
ATOM     13  C   UNL     1      82.611  -3.852   2.459  1.00  0.00    -0.000 C 
BRANCH  13  14
ATOM     14  C   UNL     1      81.145  -3.392   2.486  1.00  0.00    -0.000 C 
BRANCH  14  15
ATOM     15  C   UNL     1      80.684  -2.817   1.134  1.00  0.00    -0.000 C 
BRANCH  15  16
ATOM     16  C   UNL     1      81.851  -2.593   0.158  1.00  0.00    -0.000 C 
BRANCH  16  17
ATOM     17  C   UNL     1      82.119  -1.101  -0.106  1.00  0.00    -0.000 C 
BRANCH  17  18
ATOM     18  C   UNL     1      83.009  -0.462   0.970  1.00  0.00    -0.003 C 
ATOM     19  C   UNL     1      82.240   0.485   1.891  1.00  0.00     0.004 C 
ENDBRANCH  17  18
ENDBRANCH  16  17
ENDBRANCH  15  16
ENDBRANCH  14  15
ENDBRANCH  13  14
ENDBRANCH  12  13
ENDBRANCH   1  12
TORSDOF 14
ENDMDL
MODEL 9
REMARK VINA RESULT:    -5.935      3.933      7.906
REMARK INTER + INTRA:         -12.472
REMARK INTER:                 -10.769
REMARK INTRA:                  -1.703
REMARK UNBOUND:                -1.680
REMARK SMILES CCCCCCCCCCCCCC[C@@H](C)C(=O)[O-]
REMARK SMILES IDX 9 1 10 2 11 3 12 4 13 5 14 6 15 7 16 8 17 9 18 10 19 11 8 12
REMARK SMILES IDX 7 13 6 14 5 15 4 16 3 17 2 18 1 19
REMARK H PARENT
REMARK Flexibility Score: inf
ROOT
ATOM      1  C   UNL     1      93.255  -2.922   7.892  1.00  0.00     0.000 C 
ENDROOT
BRANCH   1   2
ATOM      2  C   UNL     1      92.058  -3.020   6.935  1.00  0.00     0.000 C 
BRANCH   2   3
ATOM      3  C   UNL     1      91.500  -4.451   6.899  1.00  0.00     0.000 C 
BRANCH   3   4
ATOM      4  C   UNL     1      90.050  -4.509   6.382  1.00  0.00     0.000 C 
BRANCH   4   5
ATOM      5  C   UNL     1      89.911  -4.148   4.890  1.00  0.00     0.001 C 
BRANCH   5   6
ATOM      6  C   UNL     1      88.881  -3.023   4.628  1.00  0.00     0.009 C 
BRANCH   6   7
ATOM      7  C   UNL     1      88.635  -2.115   5.853  1.00  0.00     0.032 C 
ATOM      8  C   UNL     1      89.285  -0.735   5.694  1.00  0.00     0.014 C 
BRANCH   7   9
ATOM      9  C   UNL     1      87.156  -1.952   6.079  1.00  0.00     0.044 C 
ATOM     10  O   UNL     1      86.383  -2.938   5.953  1.00  0.00    -0.550 OA
ATOM     11  O   UNL     1      86.632  -0.713   6.430  1.00  0.00    -0.550 OA
ENDBRANCH   7   9
ENDBRANCH   6   7
ENDBRANCH   5   6
ENDBRANCH   4   5
ENDBRANCH   3   4
ENDBRANCH   2   3
ENDBRANCH   1   2
BRANCH   1  12
ATOM     12  C   UNL     1      93.343  -4.116   8.856  1.00  0.00     0.000 C 
BRANCH  12  13
ATOM     13  C   UNL     1      94.008  -3.747  10.194  1.00  0.00    -0.000 C 
BRANCH  13  14
ATOM     14  C   UNL     1      95.061  -4.779  10.631  1.00  0.00    -0.000 C 
BRANCH  14  15
ATOM     15  C   UNL     1      96.460  -4.159  10.792  1.00  0.00    -0.000 C 
BRANCH  15  16
ATOM     16  C   UNL     1      96.582  -2.789  10.107  1.00  0.00    -0.000 C 
BRANCH  16  17
ATOM     17  C   UNL     1      97.559  -2.811   8.918  1.00  0.00    -0.000 C 
BRANCH  17  18
ATOM     18  C   UNL     1      96.851  -3.066   7.578  1.00  0.00    -0.003 C 
ATOM     19  C   UNL     1      96.756  -4.551   7.231  1.00  0.00     0.004 C 
ENDBRANCH  17  18
ENDBRANCH  16  17
ENDBRANCH  15  16
ENDBRANCH  14  15
ENDBRANCH  13  14
ENDBRANCH  12  13
ENDBRANCH   1  12
TORSDOF 14
ENDMDL
