MODEL 1
REMARK VINA RESULT:    -5.385      0.000      0.000
REMARK INTER + INTRA:          -6.229
REMARK INTER:                  -6.015
REMARK INTRA:                  -0.214
REMARK UNBOUND:                -0.214
REMARK SMILES CC(C)c1ccc(C(=O)[O-])cc1
REMARK SMILES IDX 7 1 6 2 11 3 5 4 12 5 4 6 8 7 9 8 10 9 2 10 1 11 3 12
REMARK H PARENT
REMARK Flexibility Score: inf
ROOT
ATOM      1  C   UNL     1      29.777  34.049  34.468  1.00  0.00    -0.003 A 
ATOM      2  C   UNL     1      31.117  34.458  34.374  1.00  0.00     0.010 A 
ATOM      3  C   UNL     1      29.492  32.683  34.636  1.00  0.00     0.010 A 
ATOM      4  C   UNL     1      32.152  33.521  34.445  1.00  0.00     0.004 A 
ATOM      5  C   UNL     1      30.526  31.746  34.708  1.00  0.00     0.004 A 
ATOM      6  C   UNL     1      31.867  32.153  34.614  1.00  0.00    -0.045 A 
ENDROOT
BRANCH   1   7
ATOM      7  C   UNL     1      28.685  35.044  34.392  1.00  0.00     0.071 C 
ATOM      8  O   UNL     1      28.607  35.976  35.236  1.00  0.00    -0.545 OA
ATOM      9  O   UNL     1      27.727  34.963  33.386  1.00  0.00    -0.545 OA
ENDBRANCH   1   7
BRANCH   6  10
ATOM     10  C   UNL     1      32.981  31.125  34.692  1.00  0.00     0.013 C 
ATOM     11  C   UNL     1      34.151  31.640  35.539  1.00  0.00     0.012 C 
ATOM     12  C   UNL     1      32.461  29.786  35.227  1.00  0.00     0.012 C 
ENDBRANCH   6  10
TORSDOF 2
ENDMDL
MODEL 2
REMARK VINA RESULT:    -4.841     16.618     17.940
REMARK INTER + INTRA:          -5.621
REMARK INTER:                  -5.410
REMARK INTRA:                  -0.211
REMARK UNBOUND:                -0.214
REMARK SMILES CC(C)c1ccc(C(=O)[O-])cc1
REMARK SMILES IDX 7 1 6 2 11 3 5 4 12 5 4 6 8 7 9 8 10 9 2 10 1 11 3 12
REMARK H PARENT
REMARK Flexibility Score: inf
ROOT
ATOM      1  C   UNL     1      41.147  19.802  39.371  1.00  0.00    -0.003 A 
ATOM      2  C   UNL     1      41.443  18.434  39.254  1.00  0.00     0.010 A 
ATOM      3  C   UNL     1      39.808  20.219  39.284  1.00  0.00     0.010 A 
ATOM      4  C   UNL     1      40.421  17.502  39.052  1.00  0.00     0.004 A 
ATOM      5  C   UNL     1      38.786  19.287  39.084  1.00  0.00     0.004 A 
ATOM      6  C   UNL     1      39.080  17.919  38.965  1.00  0.00    -0.045 A 
ENDROOT
BRANCH   1   7
ATOM      7  C   UNL     1      42.231  20.786  39.584  1.00  0.00     0.071 C 
ATOM      8  O   UNL     1      43.305  20.444  40.146  1.00  0.00    -0.545 OA
ATOM      9  O   UNL     1      42.079  22.103  39.165  1.00  0.00    -0.545 OA
ENDBRANCH   1   7
BRANCH   6  10
ATOM     10  C   UNL     1      37.961  16.917  38.747  1.00  0.00     0.013 C 
ATOM     11  C   UNL     1      36.649  17.407  39.371  1.00  0.00     0.012 C 
ATOM     12  C   UNL     1      37.780  16.606  37.256  1.00  0.00     0.012 C 
ENDBRANCH   6  10
TORSDOF 2
ENDMDL
MODEL 3
REMARK VINA RESULT:    -4.801     10.335     11.676
REMARK INTER + INTRA:          -5.576
REMARK INTER:                  -5.361
REMARK INTRA:                  -0.215
REMARK UNBOUND:                -0.214
REMARK SMILES CC(C)c1ccc(C(=O)[O-])cc1
REMARK SMILES IDX 7 1 6 2 11 3 5 4 12 5 4 6 8 7 9 8 10 9 2 10 1 11 3 12
REMARK H PARENT
REMARK Flexibility Score: inf
ROOT
ATOM      1  C   UNL     1      37.841  24.870  33.415  1.00  0.00    -0.003 A 
ATOM      2  C   UNL     1      39.024  24.484  32.764  1.00  0.00     0.010 A 
ATOM      3  C   UNL     1      37.913  25.807  34.460  1.00  0.00     0.010 A 
ATOM      4  C   UNL     1      40.255  25.023  33.150  1.00  0.00     0.004 A 
ATOM      5  C   UNL     1      39.143  26.347  34.845  1.00  0.00     0.004 A 
ATOM      6  C   UNL     1      40.327  25.962  34.196  1.00  0.00    -0.045 A 
ENDROOT
BRANCH   1   7
ATOM      7  C   UNL     1      36.541  24.296  33.004  1.00  0.00     0.071 C 
ATOM      8  O   UNL     1      36.354  23.051  33.025  1.00  0.00    -0.545 OA
ATOM      9  O   UNL     1      35.505  25.127  32.589  1.00  0.00    -0.545 OA
ENDBRANCH   1   7
BRANCH   6  10
ATOM     10  C   UNL     1      41.657  26.556  34.625  1.00  0.00     0.013 C 
ATOM     11  C   UNL     1      42.599  26.725  33.428  1.00  0.00     0.012 C 
ATOM     12  C   UNL     1      41.457  27.885  35.362  1.00  0.00     0.012 C 
ENDBRANCH   6  10
TORSDOF 2
ENDMDL
MODEL 4
REMARK VINA RESULT:    -4.798     16.296     17.673
REMARK INTER + INTRA:          -5.573
REMARK INTER:                  -5.360
REMARK INTRA:                  -0.213
REMARK UNBOUND:                -0.214
REMARK SMILES CC(C)c1ccc(C(=O)[O-])cc1
REMARK SMILES IDX 7 1 6 2 11 3 5 4 12 5 4 6 8 7 9 8 10 9 2 10 1 11 3 12
REMARK H PARENT
REMARK Flexibility Score: inf
ROOT
ATOM      1  C   UNL     1      39.205  18.154  38.937  1.00  0.00    -0.003 A 
ATOM      2  C   UNL     1      38.581  19.407  39.056  1.00  0.00     0.010 A 
ATOM      3  C   UNL     1      40.597  18.067  39.116  1.00  0.00     0.010 A 
ATOM      4  C   UNL     1      39.333  20.549  39.346  1.00  0.00     0.004 A 
ATOM      5  C   UNL     1      41.348  19.209  39.407  1.00  0.00     0.004 A 
ATOM      6  C   UNL     1      40.726  20.462  39.526  1.00  0.00    -0.045 A 
ENDROOT
BRANCH   1   7
ATOM      7  C   UNL     1      38.407  16.948  38.629  1.00  0.00     0.071 C 
ATOM      8  O   UNL     1      38.969  15.888  38.245  1.00  0.00    -0.545 OA
ATOM      9  O   UNL     1      37.022  16.967  38.761  1.00  0.00    -0.545 OA
ENDBRANCH   1   7
BRANCH   6  10
ATOM     10  C   UNL     1      41.553  21.695  39.842  1.00  0.00     0.013 C 
ATOM     11  C   UNL     1      42.891  21.313  40.486  1.00  0.00     0.012 C 
ATOM     12  C   UNL     1      41.769  22.551  38.589  1.00  0.00     0.012 C 
ENDBRANCH   6  10
TORSDOF 2
ENDMDL
MODEL 5
REMARK VINA RESULT:    -4.785     10.295     11.624
REMARK INTER + INTRA:          -5.558
REMARK INTER:                  -5.345
REMARK INTRA:                  -0.214
REMARK UNBOUND:                -0.214
REMARK SMILES CC(C)c1ccc(C(=O)[O-])cc1
REMARK SMILES IDX 7 1 6 2 11 3 5 4 12 5 4 6 8 7 9 8 10 9 2 10 1 11 3 12
REMARK H PARENT
REMARK Flexibility Score: inf
ROOT
ATOM      1  C   UNL     1      37.779  24.853  33.423  1.00  0.00    -0.003 A 
ATOM      2  C   UNL     1      37.810  25.801  34.459  1.00  0.00     0.010 A 
ATOM      3  C   UNL     1      38.986  24.479  32.807  1.00  0.00     0.010 A 
ATOM      4  C   UNL     1      39.021  26.365  34.870  1.00  0.00     0.004 A 
ATOM      5  C   UNL     1      40.197  25.042  33.218  1.00  0.00     0.004 A 
ATOM      6  C   UNL     1      40.230  25.991  34.253  1.00  0.00    -0.045 A 
ENDROOT
BRANCH   1   7
ATOM      7  C   UNL     1      36.496  24.258  32.991  1.00  0.00     0.071 C 
ATOM      8  O   UNL     1      36.300  23.018  33.086  1.00  0.00    -0.545 OA
ATOM      9  O   UNL     1      35.486  25.063  32.474  1.00  0.00    -0.545 OA
ENDBRANCH   1   7
BRANCH   6  10
ATOM     10  C   UNL     1      41.551  26.596  34.689  1.00  0.00     0.013 C 
ATOM     11  C   UNL     1      42.502  26.765  33.499  1.00  0.00     0.012 C 
ATOM     12  C   UNL     1      41.336  27.927  35.418  1.00  0.00     0.012 C 
ENDBRANCH   6  10
TORSDOF 2
ENDMDL
MODEL 6
REMARK VINA RESULT:    -4.757      2.224      3.754
REMARK INTER + INTRA:          -5.527
REMARK INTER:                  -5.322
REMARK INTRA:                  -0.205
REMARK UNBOUND:                -0.214
REMARK SMILES CC(C)c1ccc(C(=O)[O-])cc1
REMARK SMILES IDX 7 1 6 2 11 3 5 4 12 5 4 6 8 7 9 8 10 9 2 10 1 11 3 12
REMARK H PARENT
REMARK Flexibility Score: inf
ROOT
ATOM      1  C   UNL     1      32.090  32.174  34.073  1.00  0.00    -0.003 A 
ATOM      2  C   UNL     1      32.557  30.931  34.530  1.00  0.00     0.010 A 
ATOM      3  C   UNL     1      32.796  33.338  34.423  1.00  0.00     0.010 A 
ATOM      4  C   UNL     1      33.707  30.853  35.321  1.00  0.00     0.004 A 
ATOM      5  C   UNL     1      33.946  33.260  35.213  1.00  0.00     0.004 A 
ATOM      6  C   UNL     1      34.415  32.017  35.671  1.00  0.00    -0.045 A 
ENDROOT
BRANCH   1   7
ATOM      7  C   UNL     1      30.873  32.253  33.236  1.00  0.00     0.071 C 
ATOM      8  O   UNL     1      30.949  32.157  31.982  1.00  0.00    -0.545 OA
ATOM      9  O   UNL     1      29.625  32.435  33.823  1.00  0.00    -0.545 OA
ENDBRANCH   1   7
BRANCH   6  10
ATOM     10  C   UNL     1      35.665  31.946  36.530  1.00  0.00     0.013 C 
ATOM     11  C   UNL     1      36.851  31.390  35.735  1.00  0.00     0.012 C 
ATOM     12  C   UNL     1      35.998  33.315  37.135  1.00  0.00     0.012 C 
ENDBRANCH   6  10
TORSDOF 2
ENDMDL
MODEL 7
REMARK VINA RESULT:    -4.714      1.834      3.232
REMARK INTER + INTRA:          -5.479
REMARK INTER:                  -5.259
REMARK INTRA:                  -0.220
REMARK UNBOUND:                -0.214
REMARK SMILES CC(C)c1ccc(C(=O)[O-])cc1
REMARK SMILES IDX 7 1 6 2 11 3 5 4 12 5 4 6 8 7 9 8 10 9 2 10 1 11 3 12
REMARK H PARENT
REMARK Flexibility Score: inf
ROOT
ATOM      1  C   UNL     1      31.615  32.476  34.843  1.00  0.00    -0.003 A 
ATOM      2  C   UNL     1      30.626  31.570  35.260  1.00  0.00     0.010 A 
ATOM      3  C   UNL     1      32.952  32.046  34.786  1.00  0.00     0.010 A 
ATOM      4  C   UNL     1      30.967  30.261  35.614  1.00  0.00     0.004 A 
ATOM      5  C   UNL     1      33.293  30.738  35.139  1.00  0.00     0.004 A 
ATOM      6  C   UNL     1      32.306  29.830  35.556  1.00  0.00    -0.045 A 
ENDROOT
BRANCH   1   7
ATOM      7  C   UNL     1      31.250  33.860  34.470  1.00  0.00     0.071 C 
ATOM      8  O   UNL     1      32.133  34.676  34.095  1.00  0.00    -0.545 OA
ATOM      9  O   UNL     1      29.925  34.280  34.529  1.00  0.00    -0.545 OA
ENDBRANCH   1   7
BRANCH   6  10
ATOM     10  C   UNL     1      32.689  28.412  35.937  1.00  0.00     0.013 C 
ATOM     11  C   UNL     1      31.447  27.557  36.212  1.00  0.00     0.012 C 
ATOM     12  C   UNL     1      33.573  27.770  34.860  1.00  0.00     0.012 C 
ENDBRANCH   6  10
TORSDOF 2
ENDMDL
MODEL 8
REMARK VINA RESULT:    -4.711     11.177     12.509
REMARK INTER + INTRA:          -5.476
REMARK INTER:                  -5.261
REMARK INTRA:                  -0.215
REMARK UNBOUND:                -0.214
REMARK SMILES CC(C)c1ccc(C(=O)[O-])cc1
REMARK SMILES IDX 7 1 6 2 11 3 5 4 12 5 4 6 8 7 9 8 10 9 2 10 1 11 3 12
REMARK H PARENT
REMARK Flexibility Score: inf
ROOT
ATOM      1  C   UNL     1      39.284  25.474  33.957  1.00  0.00    -0.003 A 
ATOM      2  C   UNL     1      40.242  25.129  32.990  1.00  0.00     0.010 A 
ATOM      3  C   UNL     1      39.617  26.428  34.934  1.00  0.00     0.010 A 
ATOM      4  C   UNL     1      41.507  25.726  32.999  1.00  0.00     0.004 A 
ATOM      5  C   UNL     1      40.880  27.025  34.943  1.00  0.00     0.004 A 
ATOM      6  C   UNL     1      41.840  26.681  33.977  1.00  0.00    -0.045 A 
ENDROOT
BRANCH   1   7
ATOM      7  C   UNL     1      37.947  24.841  33.944  1.00  0.00     0.071 C 
ATOM      8  O   UNL     1      37.374  24.576  32.854  1.00  0.00    -0.545 OA
ATOM      9  O   UNL     1      37.305  24.529  35.137  1.00  0.00    -0.545 OA
ENDBRANCH   1   7
BRANCH   6  10
ATOM     10  C   UNL     1      43.209  27.336  33.998  1.00  0.00     0.013 C 
ATOM     11  C   UNL     1      43.848  27.237  35.388  1.00  0.00     0.012 C 
ATOM     12  C   UNL     1      44.125  26.736  32.926  1.00  0.00     0.012 C 
ENDBRANCH   6  10
TORSDOF 2
ENDMDL
MODEL 9
REMARK VINA RESULT:    -4.682      9.850     10.716
REMARK INTER + INTRA:          -5.444
REMARK INTER:                  -5.229
REMARK INTRA:                  -0.215
REMARK UNBOUND:                -0.214
REMARK SMILES CC(C)c1ccc(C(=O)[O-])cc1
REMARK SMILES IDX 7 1 6 2 11 3 5 4 12 5 4 6 8 7 9 8 10 9 2 10 1 11 3 12
REMARK H PARENT
REMARK Flexibility Score: inf
ROOT
ATOM      1  C   UNL     1      26.595  28.382  43.279  1.00  0.00    -0.003 A 
ATOM      2  C   UNL     1      27.692  28.709  42.465  1.00  0.00     0.010 A 
ATOM      3  C   UNL     1      26.604  27.162  43.977  1.00  0.00     0.010 A 
ATOM      4  C   UNL     1      28.776  27.833  42.350  1.00  0.00     0.004 A 
ATOM      5  C   UNL     1      27.687  26.288  43.863  1.00  0.00     0.004 A 
ATOM      6  C   UNL     1      28.786  26.612  43.050  1.00  0.00    -0.045 A 
ENDROOT
BRANCH   1   7
ATOM      7  C   UNL     1      25.449  29.311  43.397  1.00  0.00     0.071 C 
ATOM      8  O   UNL     1      25.628  30.508  43.745  1.00  0.00    -0.545 OA
ATOM      9  O   UNL     1      24.157  28.874  43.125  1.00  0.00    -0.545 OA
ENDBRANCH   1   7
BRANCH   6  10
ATOM     10  C   UNL     1      29.956  25.653  42.934  1.00  0.00     0.013 C 
ATOM     11  C   UNL     1      31.233  26.386  42.508  1.00  0.00     0.012 C 
ATOM     12  C   UNL     1      30.172  24.885  44.243  1.00  0.00     0.012 C 
ENDBRANCH   6  10
TORSDOF 2
ENDMDL
