MODEL 1
REMARK VINA RESULT:    -4.022      0.000      0.000
REMARK INTER + INTRA:          -6.058
REMARK INTER:                  -5.432
REMARK INTRA:                  -0.626
REMARK UNBOUND:                -0.626
REMARK SMILES O=C[C@H](O)[C@@H](O)[C@@H](O)CO
REMARK SMILES IDX 7 1 9 2 10 3 5 5 3 6 2 7 1 8 4 9 6 11 8 13
REMARK H PARENT 10 4 4 10 6 12 8 14
REMARK Flexibility Score: inf
ROOT
ATOM      1  C   UNL     1      25.199  25.170  23.116  1.00  0.00     0.171 C 
ENDROOT
BRANCH   1   2
ATOM      2  C   UNL     1      24.586  24.894  24.499  1.00  0.00     0.190 C 
BRANCH   2   3
ATOM      3  O   UNL     1      24.034  26.065  25.036  1.00  0.00    -0.394 OA
ATOM      4  H   UNL     1      23.165  26.197  24.575  1.00  0.00     0.210 HD
ENDBRANCH   2   3
ENDBRANCH   1   2
BRANCH   1   5
ATOM      5  C   UNL     1      26.369  26.190  23.124  1.00  0.00     0.181 C 
BRANCH   5   6
ATOM      6  C   UNL     1      27.487  25.880  22.091  1.00  0.00     0.209 C 
BRANCH   6   7
ATOM      7  C   UNL     1      28.740  26.663  22.382  1.00  0.00     0.258 C 
ATOM      8  O   UNL     1      28.771  27.458  23.308  1.00  0.00    -0.300 OA
ENDBRANCH   6   7
BRANCH   6   9
ATOM      9  O   UNL     1      27.042  26.225  20.804  1.00  0.00    -0.383 OA
ATOM     10  H   UNL     1      26.160  25.789  20.676  1.00  0.00     0.211 HD
ENDBRANCH   6   9
ENDBRANCH   5   6
BRANCH   5  11
ATOM     11  O   UNL     1      25.824  27.458  22.853  1.00  0.00    -0.387 OA
ATOM     12  H   UNL     1      25.868  27.987  23.692  1.00  0.00     0.211 HD
ENDBRANCH   5  11
ENDBRANCH   1   5
BRANCH   1  13
ATOM     13  O   UNL     1      25.623  23.964  22.535  1.00  0.00    -0.388 OA
ATOM     14  H   UNL     1      25.589  24.090  21.550  1.00  0.00     0.211 HD
ENDBRANCH   1  13
TORSDOF 8
ENDMDL
MODEL 2
REMARK VINA RESULT:    -3.766      1.400      1.708
REMARK INTER + INTRA:          -5.713
REMARK INTER:                  -5.106
REMARK INTRA:                  -0.607
REMARK UNBOUND:                -0.626
REMARK SMILES O=C[C@H](O)[C@@H](O)[C@@H](O)CO
REMARK SMILES IDX 7 1 9 2 10 3 5 5 3 6 2 7 1 8 4 9 6 11 8 13
REMARK H PARENT 10 4 4 10 6 12 8 14
REMARK Flexibility Score: inf
ROOT
ATOM      1  C   UNL     1      26.159  25.994  22.538  1.00  0.00     0.171 C 
ENDROOT
BRANCH   1   2
ATOM      2  C   UNL     1      25.300  26.673  23.618  1.00  0.00     0.190 C 
BRANCH   2   3
ATOM      3  O   UNL     1      24.987  27.986  23.243  1.00  0.00    -0.394 OA
ATOM      4  H   UNL     1      25.296  28.566  23.987  1.00  0.00     0.210 HD
ENDBRANCH   2   3
ENDBRANCH   1   2
BRANCH   1   5
ATOM      5  C   UNL     1      27.687  26.218  22.699  1.00  0.00     0.181 C 
BRANCH   5   6
ATOM      6  C   UNL     1      28.489  26.091  21.375  1.00  0.00     0.209 C 
BRANCH   6   7
ATOM      7  C   UNL     1      29.535  27.168  21.257  1.00  0.00     0.258 C 
ATOM      8  O   UNL     1      30.361  27.326  22.142  1.00  0.00    -0.300 OA
ENDBRANCH   6   7
BRANCH   6   9
ATOM      9  O   UNL     1      27.613  26.210  20.283  1.00  0.00    -0.383 OA
ATOM     10  H   UNL     1      27.786  25.434  19.687  1.00  0.00     0.211 HD
ENDBRANCH   6   9
ENDBRANCH   5   6
BRANCH   5  11
ATOM     11  O   UNL     1      27.870  27.507  23.230  1.00  0.00    -0.387 OA
ATOM     12  H   UNL     1      28.286  28.064  22.522  1.00  0.00     0.211 HD
ENDBRANCH   5  11
ENDBRANCH   1   5
BRANCH   1  13
ATOM     13  O   UNL     1      25.882  24.617  22.504  1.00  0.00    -0.388 OA
ATOM     14  H   UNL     1      25.447  24.431  21.631  1.00  0.00     0.211 HD
ENDBRANCH   1  13
TORSDOF 8
ENDMDL
MODEL 3
REMARK VINA RESULT:    -3.752      5.540      6.796
REMARK INTER + INTRA:          -5.695
REMARK INTER:                  -5.387
REMARK INTRA:                  -0.308
REMARK UNBOUND:                -0.626
REMARK SMILES O=C[C@H](O)[C@@H](O)[C@@H](O)CO
REMARK SMILES IDX 7 1 9 2 10 3 5 5 3 6 2 7 1 8 4 9 6 11 8 13
REMARK H PARENT 10 4 4 10 6 12 8 14
REMARK Flexibility Score: inf
ROOT
ATOM      1  C   UNL     1      21.700  21.631  22.959  1.00  0.00     0.171 C 
ENDROOT
BRANCH   1   2
ATOM      2  C   UNL     1      21.805  21.201  21.486  1.00  0.00     0.190 C 
BRANCH   2   3
ATOM      3  O   UNL     1      23.114  21.372  21.016  1.00  0.00    -0.394 OA
ATOM      4  H   UNL     1      23.702  20.892  21.656  1.00  0.00     0.210 HD
ENDBRANCH   2   3
ENDBRANCH   1   2
BRANCH   1   5
ATOM      5  C   UNL     1      21.326  23.123  23.165  1.00  0.00     0.181 C 
BRANCH   5   6
ATOM      6  C   UNL     1      21.304  23.571  24.653  1.00  0.00     0.209 C 
BRANCH   6   7
ATOM      7  C   UNL     1      19.958  24.123  25.043  1.00  0.00     0.258 C 
ATOM      8  O   UNL     1      19.661  25.275  24.771  1.00  0.00    -0.300 OA
ENDBRANCH   6   7
BRANCH   6   9
ATOM      9  O   UNL     1      22.265  24.575  24.854  1.00  0.00    -0.383 OA
ATOM     10  H   UNL     1      23.023  24.157  25.342  1.00  0.00     0.211 HD
ENDBRANCH   6   9
ENDBRANCH   5   6
BRANCH   5  11
ATOM     11  O   UNL     1      22.270  23.895  22.463  1.00  0.00    -0.387 OA
ATOM     12  H   UNL     1      22.186  24.831  22.784  1.00  0.00     0.211 HD
ENDBRANCH   5  11
ENDBRANCH   1   5
BRANCH   1  13
ATOM     13  O   UNL     1      20.776  20.813  23.629  1.00  0.00    -0.388 OA
ATOM     14  H   UNL     1      21.045  19.872  23.458  1.00  0.00     0.211 HD
ENDBRANCH   1  13
TORSDOF 8
ENDMDL
MODEL 4
REMARK VINA RESULT:    -3.709      1.394      2.562
REMARK INTER + INTRA:          -5.636
REMARK INTER:                  -5.008
REMARK INTRA:                  -0.628
REMARK UNBOUND:                -0.626
REMARK SMILES O=C[C@H](O)[C@@H](O)[C@@H](O)CO
REMARK SMILES IDX 7 1 9 2 10 3 5 5 3 6 2 7 1 8 4 9 6 11 8 13
REMARK H PARENT 10 4 4 10 6 12 8 14
REMARK Flexibility Score: inf
ROOT
ATOM      1  C   UNL     1      26.383  26.553  23.204  1.00  0.00     0.171 C 
ENDROOT
BRANCH   1   2
ATOM      2  C   UNL     1      25.371  25.476  23.628  1.00  0.00     0.190 C 
BRANCH   2   3
ATOM      3  O   UNL     1      24.581  25.087  22.539  1.00  0.00    -0.394 OA
ATOM      4  H   UNL     1      23.937  24.418  22.890  1.00  0.00     0.210 HD
ENDBRANCH   2   3
ENDBRANCH   1   2
BRANCH   1   5
ATOM      5  C   UNL     1      27.215  26.191  21.945  1.00  0.00     0.181 C 
BRANCH   5   6
ATOM      6  C   UNL     1      28.682  26.701  21.986  1.00  0.00     0.209 C 
BRANCH   6   7
ATOM      7  C   UNL     1      29.645  25.587  22.301  1.00  0.00     0.258 C 
ATOM      8  O   UNL     1      29.891  24.729  21.468  1.00  0.00    -0.300 OA
ENDBRANCH   6   7
BRANCH   6   9
ATOM      9  O   UNL     1      28.808  27.684  22.981  1.00  0.00    -0.383 OA
ATOM     10  H   UNL     1      29.773  27.747  23.205  1.00  0.00     0.211 HD
ENDBRANCH   6   9
ENDBRANCH   5   6
BRANCH   5  11
ATOM     11  O   UNL     1      27.215  24.789  21.829  1.00  0.00    -0.387 OA
ATOM     12  H   UNL     1      27.054  24.416  22.735  1.00  0.00     0.211 HD
ENDBRANCH   5  11
ENDBRANCH   1   5
BRANCH   1  13
ATOM     13  O   UNL     1      25.721  27.775  23.000  1.00  0.00    -0.388 OA
ATOM     14  H   UNL     1      25.572  27.865  22.022  1.00  0.00     0.211 HD
ENDBRANCH   1  13
TORSDOF 8
ENDMDL
MODEL 5
REMARK VINA RESULT:    -3.673      1.813      2.924
REMARK INTER + INTRA:          -5.587
REMARK INTER:                  -5.110
REMARK INTRA:                  -0.477
REMARK UNBOUND:                -0.626
REMARK SMILES O=C[C@H](O)[C@@H](O)[C@@H](O)CO
REMARK SMILES IDX 7 1 9 2 10 3 5 5 3 6 2 7 1 8 4 9 6 11 8 13
REMARK H PARENT 10 4 4 10 6 12 8 14
REMARK Flexibility Score: inf
ROOT
ATOM      1  C   UNL     1      24.964  25.015  22.917  1.00  0.00     0.171 C 
ENDROOT
BRANCH   1   2
ATOM      2  C   UNL     1      23.992  23.843  23.131  1.00  0.00     0.190 C 
BRANCH   2   3
ATOM      3  O   UNL     1      24.014  22.979  22.028  1.00  0.00    -0.394 OA
ATOM      4  H   UNL     1      24.930  23.039  21.649  1.00  0.00     0.210 HD
ENDBRANCH   2   3
ENDBRANCH   1   2
BRANCH   1   5
ATOM      5  C   UNL     1      25.246  25.856  24.191  1.00  0.00     0.181 C 
BRANCH   5   6
ATOM      6  C   UNL     1      26.032  27.169  23.924  1.00  0.00     0.209 C 
BRANCH   6   7
ATOM      7  C   UNL     1      25.243  28.380  24.345  1.00  0.00     0.258 C 
ATOM      8  O   UNL     1      24.458  28.906  23.573  1.00  0.00    -0.300 OA
ENDBRANCH   6   7
BRANCH   6   9
ATOM      9  O   UNL     1      26.305  27.279  22.550  1.00  0.00    -0.383 OA
ATOM     10  H   UNL     1      26.837  28.108  22.427  1.00  0.00     0.211 HD
ENDBRANCH   6   9
ENDBRANCH   5   6
BRANCH   5  11
ATOM     11  O   UNL     1      24.003  26.169  24.772  1.00  0.00    -0.387 OA
ATOM     12  H   UNL     1      23.610  26.914  24.247  1.00  0.00     0.211 HD
ENDBRANCH   5  11
ENDBRANCH   1   5
BRANCH   1  13
ATOM     13  O   UNL     1      26.174  24.539  22.385  1.00  0.00    -0.388 OA
ATOM     14  H   UNL     1      26.578  23.945  23.071  1.00  0.00     0.211 HD
ENDBRANCH   1  13
TORSDOF 8
ENDMDL
MODEL 6
REMARK VINA RESULT:    -3.574      1.795      4.026
REMARK INTER + INTRA:          -5.453
REMARK INTER:                  -4.757
REMARK INTRA:                  -0.696
REMARK UNBOUND:                -0.626
REMARK SMILES O=C[C@H](O)[C@@H](O)[C@@H](O)CO
REMARK SMILES IDX 7 1 9 2 10 3 5 5 3 6 2 7 1 8 4 9 6 11 8 13
REMARK H PARENT 10 4 4 10 6 12 8 14
REMARK Flexibility Score: inf
ROOT
ATOM      1  C   UNL     1      28.439  26.370  21.932  1.00  0.00     0.171 C 
ENDROOT
BRANCH   1   2
ATOM      2  C   UNL     1      28.713  25.529  20.673  1.00  0.00     0.190 C 
BRANCH   2   3
ATOM      3  O   UNL     1      27.936  25.984  19.599  1.00  0.00    -0.394 OA
ATOM      4  H   UNL     1      27.424  26.763  19.939  1.00  0.00     0.210 HD
ENDBRANCH   2   3
ENDBRANCH   1   2
BRANCH   1   5
ATOM      5  C   UNL     1      27.106  26.031  22.652  1.00  0.00     0.181 C 
BRANCH   5   6
ATOM      6  C   UNL     1      26.812  26.919  23.892  1.00  0.00     0.209 C 
BRANCH   6   7
ATOM      7  C   UNL     1      25.344  27.235  24.009  1.00  0.00     0.258 C 
ATOM      8  O   UNL     1      24.898  28.274  23.549  1.00  0.00    -0.300 OA
ENDBRANCH   6   7
BRANCH   6   9
ATOM      9  O   UNL     1      27.514  28.130  23.777  1.00  0.00    -0.383 OA
ATOM     10  H   UNL     1      27.189  28.576  22.951  1.00  0.00     0.211 HD
ENDBRANCH   6   9
ENDBRANCH   5   6
BRANCH   5  11
ATOM     11  O   UNL     1      26.069  26.186  21.714  1.00  0.00    -0.387 OA
ATOM     12  H   UNL     1      25.994  25.333  21.211  1.00  0.00     0.211 HD
ENDBRANCH   5  11
ENDBRANCH   1   5
BRANCH   1  13
ATOM     13  O   UNL     1      29.510  26.243  22.831  1.00  0.00    -0.388 OA
ATOM     14  H   UNL     1      30.229  26.851  22.513  1.00  0.00     0.211 HD
ENDBRANCH   1  13
TORSDOF 8
ENDMDL
MODEL 7
REMARK VINA RESULT:    -3.534      3.275      4.810
REMARK INTER + INTRA:          -5.400
REMARK INTER:                  -4.942
REMARK INTRA:                  -0.458
REMARK UNBOUND:                -0.626
REMARK SMILES O=C[C@H](O)[C@@H](O)[C@@H](O)CO
REMARK SMILES IDX 7 1 9 2 10 3 5 5 3 6 2 7 1 8 4 9 6 11 8 13
REMARK H PARENT 10 4 4 10 6 12 8 14
REMARK Flexibility Score: inf
ROOT
ATOM      1  C   UNL     1      21.864  22.280  23.229  1.00  0.00     0.171 C 
ENDROOT
BRANCH   1   2
ATOM      2  C   UNL     1      21.743  21.553  21.880  1.00  0.00     0.190 C 
BRANCH   2   3
ATOM      3  O   UNL     1      22.989  21.488  21.242  1.00  0.00    -0.394 OA
ATOM      4  H   UNL     1      23.148  22.388  20.855  1.00  0.00     0.210 HD
ENDBRANCH   2   3
ENDBRANCH   1   2
BRANCH   1   5
ATOM      5  C   UNL     1      22.562  23.664  23.152  1.00  0.00     0.181 C 
BRANCH   5   6
ATOM      6  C   UNL     1      24.048  23.651  23.602  1.00  0.00     0.209 C 
BRANCH   6   7
ATOM      7  C   UNL     1      24.402  24.892  24.378  1.00  0.00     0.258 C 
ATOM      8  O   UNL     1      25.201  25.696  23.926  1.00  0.00    -0.300 OA
ENDBRANCH   6   7
BRANCH   6   9
ATOM      9  O   UNL     1      24.879  23.589  22.471  1.00  0.00    -0.383 OA
ATOM     10  H   UNL     1      24.289  23.650  21.674  1.00  0.00     0.211 HD
ENDBRANCH   6   9
ENDBRANCH   5   6
BRANCH   5  11
ATOM     11  O   UNL     1      22.485  24.100  21.816  1.00  0.00    -0.387 OA
ATOM     12  H   UNL     1      21.525  24.120  21.565  1.00  0.00     0.211 HD
ENDBRANCH   5  11
ENDBRANCH   1   5
BRANCH   1  13
ATOM     13  O   UNL     1      20.592  22.421  23.809  1.00  0.00    -0.388 OA
ATOM     14  H   UNL     1      20.701  23.002  24.608  1.00  0.00     0.211 HD
ENDBRANCH   1  13
TORSDOF 8
ENDMDL
MODEL 8
REMARK VINA RESULT:    -3.421      1.606      2.548
REMARK INTER + INTRA:          -5.247
REMARK INTER:                  -4.988
REMARK INTRA:                  -0.259
REMARK UNBOUND:                -0.626
REMARK SMILES O=C[C@H](O)[C@@H](O)[C@@H](O)CO
REMARK SMILES IDX 7 1 9 2 10 3 5 5 3 6 2 7 1 8 4 9 6 11 8 13
REMARK H PARENT 10 4 4 10 6 12 8 14
REMARK Flexibility Score: inf
ROOT
ATOM      1  C   UNL     1      26.957  25.930  22.225  1.00  0.00     0.171 C 
ENDROOT
BRANCH   1   2
ATOM      2  C   UNL     1      25.691  25.389  22.911  1.00  0.00     0.190 C 
BRANCH   2   3
ATOM      3  O   UNL     1      25.521  24.028  22.626  1.00  0.00    -0.394 OA
ATOM      4  H   UNL     1      24.582  23.812  22.864  1.00  0.00     0.210 HD
ENDBRANCH   2   3
ENDBRANCH   1   2
BRANCH   1   5
ATOM      5  C   UNL     1      27.928  26.682  23.174  1.00  0.00     0.181 C 
BRANCH   5   6
ATOM      6  C   UNL     1      29.260  27.116  22.502  1.00  0.00     0.209 C 
BRANCH   6   7
ATOM      7  C   UNL     1      30.404  26.231  22.922  1.00  0.00     0.258 C 
ATOM      8  O   UNL     1      30.553  25.132  22.413  1.00  0.00    -0.300 OA
ENDBRANCH   6   7
BRANCH   6   9
ATOM      9  O   UNL     1      29.566  28.435  22.878  1.00  0.00    -0.383 OA
ATOM     10  H   UNL     1      29.339  28.521  23.841  1.00  0.00     0.211 HD
ENDBRANCH   6   9
ENDBRANCH   5   6
BRANCH   5  11
ATOM     11  O   UNL     1      27.255  27.823  23.648  1.00  0.00    -0.387 OA
ATOM     12  H   UNL     1      27.246  27.771  24.640  1.00  0.00     0.211 HD
ENDBRANCH   5  11
ENDBRANCH   1   5
BRANCH   1  13
ATOM     13  O   UNL     1      27.636  24.880  21.584  1.00  0.00    -0.388 OA
ATOM     14  H   UNL     1      28.294  25.296  20.966  1.00  0.00     0.211 HD
ENDBRANCH   1  13
TORSDOF 8
ENDMDL
MODEL 9
REMARK VINA RESULT:    -3.379      2.637      3.964
REMARK INTER + INTRA:          -5.190
REMARK INTER:                  -5.027
REMARK INTRA:                  -0.163
REMARK UNBOUND:                -0.626
REMARK SMILES O=C[C@H](O)[C@@H](O)[C@@H](O)CO
REMARK SMILES IDX 7 1 9 2 10 3 5 5 3 6 2 7 1 8 4 9 6 11 8 13
REMARK H PARENT 10 4 4 10 6 12 8 14
REMARK Flexibility Score: inf
ROOT
ATOM      1  C   UNL     1      27.978  25.831  21.502  1.00  0.00     0.171 C 
ENDROOT
BRANCH   1   2
ATOM      2  C   UNL     1      28.702  26.030  20.161  1.00  0.00     0.190 C 
BRANCH   2   3
ATOM      3  O   UNL     1      27.894  25.606  19.097  1.00  0.00    -0.394 OA
ATOM      4  H   UNL     1      27.119  25.141  19.508  1.00  0.00     0.210 HD
ENDBRANCH   2   3
ENDBRANCH   1   2
BRANCH   1   5
ATOM      5  C   UNL     1      28.651  26.541  22.707  1.00  0.00     0.181 C 
BRANCH   5   6
ATOM      6  C   UNL     1      29.929  27.343  22.337  1.00  0.00     0.209 C 
BRANCH   6   7
ATOM      7  C   UNL     1      31.153  26.764  22.996  1.00  0.00     0.258 C 
ATOM      8  O   UNL     1      31.366  25.563  22.959  1.00  0.00    -0.300 OA
ENDBRANCH   6   7
BRANCH   6   9
ATOM      9  O   UNL     1      29.788  28.673  22.765  1.00  0.00    -0.383 OA
ATOM     10  H   UNL     1      28.853  28.943  22.565  1.00  0.00     0.211 HD
ENDBRANCH   6   9
ENDBRANCH   5   6
BRANCH   5  11
ATOM     11  O   UNL     1      27.700  27.415  23.265  1.00  0.00    -0.387 OA
ATOM     12  H   UNL     1      27.527  28.130  22.598  1.00  0.00     0.211 HD
ENDBRANCH   5  11
ENDBRANCH   1   5
BRANCH   1  13
ATOM     13  O   UNL     1      26.642  26.250  21.389  1.00  0.00    -0.388 OA
ATOM     14  H   UNL     1      26.509  26.976  22.055  1.00  0.00     0.211 HD
ENDBRANCH   1  13
TORSDOF 8
ENDMDL
