MODEL 1
REMARK VINA RESULT:    -3.260      0.000      0.000
REMARK INTER + INTRA:          -5.906
REMARK INTER:                  -5.165
REMARK INTRA:                  -0.741
REMARK UNBOUND:                -0.741
REMARK SMILES CCCCCCCCCCCC(=O)[O-]
REMARK SMILES IDX 7 1 8 2 9 3 10 4 11 5 12 6 13 7 14 8 6 9 5 10 4 11 3 12 2 13
REMARK SMILES IDX 1 14
REMARK H PARENT
REMARK Flexibility Score: inf
ROOT
ATOM      1  C   UNL     1      15.542  17.964   9.868  1.00  0.00     0.000 C 
ENDROOT
BRANCH   1   2
ATOM      2  C   UNL     1      15.487  16.909   8.749  1.00  0.00     0.000 C 
BRANCH   2   3
ATOM      3  C   UNL     1      16.721  15.989   8.735  1.00  0.00     0.000 C 
BRANCH   3   4
ATOM      4  C   UNL     1      16.417  14.495   8.947  1.00  0.00     0.006 C 
BRANCH   4   5
ATOM      5  C   UNL     1      14.916  14.201   9.072  1.00  0.00     0.053 C 
BRANCH   5   6
ATOM      6  C   UNL     1      14.484  13.229   8.020  1.00  0.00     0.041 C 
ATOM      7  O   UNL     1      13.551  12.417   8.253  1.00  0.00    -0.550 OA
ATOM      8  O   UNL     1      15.080  13.252   6.765  1.00  0.00    -0.550 OA
ENDBRANCH   5   6
ENDBRANCH   4   5
ENDBRANCH   3   4
ENDBRANCH   2   3
ENDBRANCH   1   2
BRANCH   1   9
ATOM      9  C   UNL     1      16.431  19.168   9.512  1.00  0.00     0.000 C 
BRANCH   9  10
ATOM     10  C   UNL     1      16.879  20.021  10.714  1.00  0.00    -0.000 C 
BRANCH  10  11
ATOM     11  C   UNL     1      15.816  20.105  11.819  1.00  0.00    -0.000 C 
BRANCH  11  12
ATOM     12  C   UNL     1      14.919  21.334  11.628  1.00  0.00    -0.000 C 
BRANCH  12  13
ATOM     13  C   UNL     1      13.453  20.994  11.913  1.00  0.00    -0.003 C 
ATOM     14  C   UNL     1      13.302  19.543  12.361  1.00  0.00     0.004 C 
ENDBRANCH  12  13
ENDBRANCH  11  12
ENDBRANCH  10  11
ENDBRANCH   9  10
ENDBRANCH   1   9
TORSDOF 10
ENDMDL
MODEL 2
REMARK VINA RESULT:    -3.246      1.450      1.947
REMARK INTER + INTRA:          -5.884
REMARK INTER:                  -5.280
REMARK INTRA:                  -0.604
REMARK UNBOUND:                -0.741
REMARK SMILES CCCCCCCCCCCC(=O)[O-]
REMARK SMILES IDX 7 1 8 2 9 3 10 4 11 5 12 6 13 7 14 8 6 9 5 10 4 11 3 12 2 13
REMARK SMILES IDX 1 14
REMARK H PARENT
REMARK Flexibility Score: inf
ROOT
ATOM      1  C   UNL     1      15.346  16.949   8.586  1.00  0.00     0.000 C 
ENDROOT
BRANCH   1   2
ATOM      2  C   UNL     1      16.462  15.960   8.207  1.00  0.00     0.000 C 
BRANCH   2   3
ATOM      3  C   UNL     1      15.990  14.875   7.222  1.00  0.00     0.000 C 
BRANCH   3   4
ATOM      4  C   UNL     1      15.842  13.468   7.830  1.00  0.00     0.006 C 
BRANCH   4   5
ATOM      5  C   UNL     1      14.404  13.149   8.260  1.00  0.00     0.053 C 
BRANCH   5   6
ATOM      6  C   UNL     1      14.354  12.834   9.721  1.00  0.00     0.041 C 
ATOM      7  O   UNL     1      13.748  11.807  10.127  1.00  0.00    -0.550 OA
ATOM      8  O   UNL     1      15.015  13.648  10.632  1.00  0.00    -0.550 OA
ENDBRANCH   5   6
ENDBRANCH   4   5
ENDBRANCH   3   4
ENDBRANCH   2   3
ENDBRANCH   1   2
BRANCH   1   9
ATOM      9  C   UNL     1      15.603  17.654   9.929  1.00  0.00     0.000 C 
BRANCH   9  10
ATOM     10  C   UNL     1      16.253  19.046   9.817  1.00  0.00    -0.000 C 
BRANCH  10  11
ATOM     11  C   UNL     1      15.699  20.050  10.839  1.00  0.00    -0.000 C 
BRANCH  11  12
ATOM     12  C   UNL     1      14.385  19.547  11.447  1.00  0.00    -0.000 C 
BRANCH  12  13
ATOM     13  C   UNL     1      13.521  20.716  11.932  1.00  0.00    -0.003 C 
ATOM     14  C   UNL     1      14.256  22.045  11.778  1.00  0.00     0.004 C 
ENDBRANCH  12  13
ENDBRANCH  11  12
ENDBRANCH  10  11
ENDBRANCH   9  10
ENDBRANCH   1   9
TORSDOF 10
ENDMDL
MODEL 3
REMARK VINA RESULT:    -3.242      3.589      6.740
REMARK INTER + INTRA:          -5.878
REMARK INTER:                  -5.133
REMARK INTRA:                  -0.746
REMARK UNBOUND:                -0.741
REMARK SMILES CCCCCCCCCCCC(=O)[O-]
REMARK SMILES IDX 7 1 8 2 9 3 10 4 11 5 12 6 13 7 14 8 6 9 5 10 4 11 3 12 2 13
REMARK SMILES IDX 1 14
REMARK H PARENT
REMARK Flexibility Score: inf
ROOT
ATOM      1  C   UNL     1      15.686  16.877   8.300  1.00  0.00     0.000 C 
ENDROOT
BRANCH   1   2
ATOM      2  C   UNL     1      16.248  16.432   9.661  1.00  0.00     0.000 C 
BRANCH   2   3
ATOM      3  C   UNL     1      16.103  17.511  10.750  1.00  0.00     0.000 C 
BRANCH   3   4
ATOM      4  C   UNL     1      15.500  18.842  10.266  1.00  0.00     0.006 C 
BRANCH   4   5
ATOM      5  C   UNL     1      15.488  19.925  11.354  1.00  0.00     0.053 C 
BRANCH   5   6
ATOM      6  C   UNL     1      14.082  20.300  11.701  1.00  0.00     0.041 C 
ATOM      7  O   UNL     1      13.254  19.412  12.034  1.00  0.00    -0.550 OA
ATOM      8  O   UNL     1      13.698  21.635  11.704  1.00  0.00    -0.550 OA
ENDBRANCH   5   6
ENDBRANCH   4   5
ENDBRANCH   3   4
ENDBRANCH   2   3
ENDBRANCH   1   2
BRANCH   1   9
ATOM      9  C   UNL     1      15.865  15.814   7.203  1.00  0.00     0.000 C 
BRANCH   9  10
ATOM     10  C   UNL     1      16.195  14.400   7.717  1.00  0.00    -0.000 C 
BRANCH  10  11
ATOM     11  C   UNL     1      15.268  13.320   7.139  1.00  0.00    -0.000 C 
BRANCH  11  12
ATOM     12  C   UNL     1      14.106  13.023   8.095  1.00  0.00    -0.000 C 
BRANCH  12  13
ATOM     13  C   UNL     1      14.574  13.058   9.554  1.00  0.00    -0.003 C 
ATOM     14  C   UNL     1      13.942  11.928  10.362  1.00  0.00     0.004 C 
ENDBRANCH  12  13
ENDBRANCH  11  12
ENDBRANCH  10  11
ENDBRANCH   9  10
ENDBRANCH   1   9
TORSDOF 10
ENDMDL
MODEL 4
REMARK VINA RESULT:    -3.215      1.786      3.015
REMARK INTER + INTRA:          -5.836
REMARK INTER:                  -5.090
REMARK INTRA:                  -0.746
REMARK UNBOUND:                -0.741
REMARK SMILES CCCCCCCCCCCC(=O)[O-]
REMARK SMILES IDX 7 1 8 2 9 3 10 4 11 5 12 6 13 7 14 8 6 9 5 10 4 11 3 12 2 13
REMARK SMILES IDX 1 14
REMARK H PARENT
REMARK Flexibility Score: inf
ROOT
ATOM      1  C   UNL     1      15.918  15.786   7.166  1.00  0.00     0.000 C 
ENDROOT
BRANCH   1   2
ATOM      2  C   UNL     1      16.282  14.382   7.679  1.00  0.00     0.000 C 
BRANCH   2   3
ATOM      3  C   UNL     1      15.264  13.308   7.254  1.00  0.00     0.000 C 
BRANCH   3   4
ATOM      4  C   UNL     1      14.142  13.038   8.273  1.00  0.00     0.006 C 
BRANCH   4   5
ATOM      5  C   UNL     1      14.510  13.474   9.698  1.00  0.00     0.053 C 
BRANCH   5   6
ATOM      6  C   UNL     1      14.106  12.425  10.685  1.00  0.00     0.041 C 
ATOM      7  O   UNL     1      13.243  12.684  11.565  1.00  0.00    -0.550 OA
ATOM      8  O   UNL     1      14.646  11.148  10.606  1.00  0.00    -0.550 OA
ENDBRANCH   5   6
ENDBRANCH   4   5
ENDBRANCH   3   4
ENDBRANCH   2   3
ENDBRANCH   1   2
BRANCH   1   9
ATOM      9  C   UNL     1      15.758  16.814   8.299  1.00  0.00     0.000 C 
BRANCH   9  10
ATOM     10  C   UNL     1      16.633  16.553   9.540  1.00  0.00    -0.000 C 
BRANCH  10  11
ATOM     11  C   UNL     1      16.376  17.554  10.676  1.00  0.00    -0.000 C 
BRANCH  11  12
ATOM     12  C   UNL     1      15.668  18.810  10.152  1.00  0.00    -0.000 C 
BRANCH  12  13
ATOM     13  C   UNL     1      14.705  19.375  11.202  1.00  0.00    -0.003 C 
ATOM     14  C   UNL     1      14.970  20.857  11.451  1.00  0.00     0.004 C 
ENDBRANCH  12  13
ENDBRANCH  11  12
ENDBRANCH  10  11
ENDBRANCH   9  10
ENDBRANCH   1   9
TORSDOF 10
ENDMDL
MODEL 5
REMARK VINA RESULT:    -3.186      3.774      5.898
REMARK INTER + INTRA:          -5.789
REMARK INTER:                  -4.648
REMARK INTRA:                  -1.141
REMARK UNBOUND:                -0.741
REMARK SMILES CCCCCCCCCCCC(=O)[O-]
REMARK SMILES IDX 7 1 8 2 9 3 10 4 11 5 12 6 13 7 14 8 6 9 5 10 4 11 3 12 2 13
REMARK SMILES IDX 1 14
REMARK H PARENT
REMARK Flexibility Score: inf
ROOT
ATOM      1  C   UNL     1      13.877  12.782   8.069  1.00  0.00     0.000 C 
ENDROOT
BRANCH   1   2
ATOM      2  C   UNL     1      14.961  13.279   7.097  1.00  0.00     0.000 C 
BRANCH   2   3
ATOM      3  C   UNL     1      16.355  13.358   7.746  1.00  0.00     0.000 C 
BRANCH   3   4
ATOM      4  C   UNL     1      17.053  14.723   7.619  1.00  0.00     0.006 C 
BRANCH   4   5
ATOM      5  C   UNL     1      16.101  15.845   7.183  1.00  0.00     0.053 C 
BRANCH   5   6
ATOM      6  C   UNL     1      16.005  16.892   8.247  1.00  0.00     0.041 C 
ATOM      7  O   UNL     1      15.032  16.894   9.046  1.00  0.00    -0.550 OA
ATOM      8  O   UNL     1      17.012  17.837   8.387  1.00  0.00    -0.550 OA
ENDBRANCH   5   6
ENDBRANCH   4   5
ENDBRANCH   3   4
ENDBRANCH   2   3
ENDBRANCH   1   2
BRANCH   1   9
ATOM      9  C   UNL     1      14.243  13.017   9.544  1.00  0.00     0.000 C 
BRANCH   9  10
ATOM     10  C   UNL     1      14.051  11.795  10.463  1.00  0.00    -0.000 C 
BRANCH  10  11
ATOM     11  C   UNL     1      14.962  11.826  11.699  1.00  0.00    -0.000 C 
BRANCH  11  12
ATOM     12  C   UNL     1      15.181  13.264  12.185  1.00  0.00    -0.000 C 
BRANCH  12  13
ATOM     13  C   UNL     1      16.672  13.622  12.185  1.00  0.00    -0.003 C 
ATOM     14  C   UNL     1      16.938  14.871  11.349  1.00  0.00     0.004 C 
ENDBRANCH  12  13
ENDBRANCH  11  12
ENDBRANCH  10  11
ENDBRANCH   9  10
ENDBRANCH   1   9
TORSDOF 10
ENDMDL
MODEL 6
REMARK VINA RESULT:    -3.160      3.305      6.224
REMARK INTER + INTRA:          -5.749
REMARK INTER:                  -5.063
REMARK INTRA:                  -0.685
REMARK UNBOUND:                -0.741
REMARK SMILES CCCCCCCCCCCC(=O)[O-]
REMARK SMILES IDX 7 1 8 2 9 3 10 4 11 5 12 6 13 7 14 8 6 9 5 10 4 11 3 12 2 13
REMARK SMILES IDX 1 14
REMARK H PARENT
REMARK Flexibility Score: inf
ROOT
ATOM      1  C   UNL     1      14.995  13.236   7.137  1.00  0.00     0.000 C 
ENDROOT
BRANCH   1   2
ATOM      2  C   UNL     1      16.265  13.882   7.717  1.00  0.00     0.000 C 
BRANCH   2   3
ATOM      3  C   UNL     1      16.610  15.227   7.051  1.00  0.00     0.000 C 
BRANCH   3   4
ATOM      4  C   UNL     1      16.850  16.391   8.028  1.00  0.00     0.006 C 
BRANCH   4   5
ATOM      5  C   UNL     1      15.557  16.907   8.674  1.00  0.00     0.053 C 
BRANCH   5   6
ATOM      6  C   UNL     1      15.861  18.003   9.646  1.00  0.00     0.041 C 
ATOM      7  O   UNL     1      15.697  17.817  10.881  1.00  0.00    -0.550 OA
ATOM      8  O   UNL     1      16.369  19.214   9.195  1.00  0.00    -0.550 OA
ENDBRANCH   5   6
ENDBRANCH   4   5
ENDBRANCH   3   4
ENDBRANCH   2   3
ENDBRANCH   1   2
BRANCH   1   9
ATOM      9  C   UNL     1      13.941  12.920   8.212  1.00  0.00     0.000 C 
BRANCH   9  10
ATOM     10  C   UNL     1      14.418  13.112   9.665  1.00  0.00    -0.000 C 
BRANCH  10  11
ATOM     11  C   UNL     1      13.980  11.971  10.595  1.00  0.00    -0.000 C 
BRANCH  11  12
ATOM     12  C   UNL     1      14.803  11.969  11.889  1.00  0.00    -0.000 C 
BRANCH  12  13
ATOM     13  C   UNL     1      14.226  12.957  12.908  1.00  0.00    -0.003 C 
ATOM     14  C   UNL     1      12.734  12.717  13.122  1.00  0.00     0.004 C 
ENDBRANCH  12  13
ENDBRANCH  11  12
ENDBRANCH  10  11
ENDBRANCH   9  10
ENDBRANCH   1   9
TORSDOF 10
ENDMDL
MODEL 7
REMARK VINA RESULT:    -2.915      2.980      4.368
REMARK INTER + INTRA:          -5.361
REMARK INTER:                  -4.610
REMARK INTRA:                  -0.751
REMARK UNBOUND:                -0.741
REMARK SMILES CCCCCCCCCCCC(=O)[O-]
REMARK SMILES IDX 7 1 8 2 9 3 10 4 11 5 12 6 13 7 14 8 6 9 5 10 4 11 3 12 2 13
REMARK SMILES IDX 1 14
REMARK H PARENT
REMARK Flexibility Score: inf
ROOT
ATOM      1  C   UNL     1      16.329  13.626   7.361  1.00  0.00     0.000 C 
ENDROOT
BRANCH   1   2
ATOM      2  C   UNL     1      14.821  13.634   7.054  1.00  0.00     0.000 C 
BRANCH   2   3
ATOM      3  C   UNL     1      13.991  12.885   8.112  1.00  0.00     0.000 C 
BRANCH   3   4
ATOM      4  C   UNL     1      14.499  13.032   9.558  1.00  0.00     0.006 C 
BRANCH   4   5
ATOM      5  C   UNL     1      13.792  12.089  10.541  1.00  0.00     0.053 C 
BRANCH   5   6
ATOM      6  C   UNL     1      14.447  12.149  11.884  1.00  0.00     0.041 C 
ATOM      7  O   UNL     1      15.455  11.435  12.130  1.00  0.00    -0.550 OA
ATOM      8  O   UNL     1      13.974  13.027  12.851  1.00  0.00    -0.550 OA
ENDBRANCH   5   6
ENDBRANCH   4   5
ENDBRANCH   3   4
ENDBRANCH   2   3
ENDBRANCH   1   2
BRANCH   1   9
ATOM      9  C   UNL     1      16.975  15.014   7.220  1.00  0.00     0.000 C 
BRANCH   9  10
ATOM     10  C   UNL     1      16.844  15.920   8.459  1.00  0.00    -0.000 C 
BRANCH  10  11
ATOM     11  C   UNL     1      15.724  16.963   8.323  1.00  0.00    -0.000 C 
BRANCH  11  12
ATOM     12  C   UNL     1      15.547  17.753   9.626  1.00  0.00    -0.000 C 
BRANCH  12  13
ATOM     13  C   UNL     1      16.685  17.453  10.608  1.00  0.00    -0.003 C 
ATOM     14  C   UNL     1      16.169  17.378  12.042  1.00  0.00     0.004 C 
ENDBRANCH  12  13
ENDBRANCH  11  12
ENDBRANCH  10  11
ENDBRANCH   9  10
ENDBRANCH   1   9
TORSDOF 10
ENDMDL
MODEL 8
REMARK VINA RESULT:    -2.904      3.057      5.076
REMARK INTER + INTRA:          -5.343
REMARK INTER:                  -4.217
REMARK INTRA:                  -1.127
REMARK UNBOUND:                -0.741
REMARK SMILES CCCCCCCCCCCC(=O)[O-]
REMARK SMILES IDX 7 1 8 2 9 3 10 4 11 5 12 6 13 7 14 8 6 9 5 10 4 11 3 12 2 13
REMARK SMILES IDX 1 14
REMARK H PARENT
REMARK Flexibility Score: inf
ROOT
ATOM      1  C   UNL     1      14.792  13.340   7.304  1.00  0.00     0.000 C 
ENDROOT
BRANCH   1   2
ATOM      2  C   UNL     1      14.355  12.756   8.659  1.00  0.00     0.000 C 
BRANCH   2   3
ATOM      3  C   UNL     1      14.383  13.795   9.795  1.00  0.00     0.000 C 
BRANCH   3   4
ATOM      4  C   UNL     1      15.466  13.558  10.863  1.00  0.00     0.006 C 
BRANCH   4   5
ATOM      5  C   UNL     1      16.277  12.277  10.620  1.00  0.00     0.053 C 
BRANCH   5   6
ATOM      6  C   UNL     1      15.974  11.261  11.675  1.00  0.00     0.041 C 
ATOM      7  O   UNL     1      16.724  10.260  11.822  1.00  0.00    -0.550 OA
ATOM      8  O   UNL     1      14.892  11.441  12.526  1.00  0.00    -0.550 OA
ENDBRANCH   5   6
ENDBRANCH   4   5
ENDBRANCH   3   4
ENDBRANCH   2   3
ENDBRANCH   1   2
BRANCH   1   9
ATOM      9  C   UNL     1      16.306  13.219   7.061  1.00  0.00     0.000 C 
BRANCH   9  10
ATOM     10  C   UNL     1      17.038  14.557   6.845  1.00  0.00    -0.000 C 
BRANCH  10  11
ATOM     11  C   UNL     1      16.939  15.496   8.057  1.00  0.00    -0.000 C 
BRANCH  11  12
ATOM     12  C   UNL     1      15.902  16.598   7.815  1.00  0.00    -0.000 C 
BRANCH  12  13
ATOM     13  C   UNL     1      15.483  17.257   9.135  1.00  0.00    -0.003 C 
ATOM     14  C   UNL     1      16.311  18.508   9.413  1.00  0.00     0.004 C 
ENDBRANCH  12  13
ENDBRANCH  11  12
ENDBRANCH  10  11
ENDBRANCH   9  10
ENDBRANCH   1   9
TORSDOF 10
ENDMDL
MODEL 9
REMARK VINA RESULT:    -2.904      3.446      6.703
REMARK INTER + INTRA:          -5.343
REMARK INTER:                  -3.982
REMARK INTRA:                  -1.360
REMARK UNBOUND:                -0.741
REMARK SMILES CCCCCCCCCCCC(=O)[O-]
REMARK SMILES IDX 7 1 8 2 9 3 10 4 11 5 12 6 13 7 14 8 6 9 5 10 4 11 3 12 2 13
REMARK SMILES IDX 1 14
REMARK H PARENT
REMARK Flexibility Score: inf
ROOT
ATOM      1  C   UNL     1      13.798  12.383   9.172  1.00  0.00     0.000 C 
ENDROOT
BRANCH   1   2
ATOM      2  C   UNL     1      14.652  13.655   9.033  1.00  0.00     0.000 C 
BRANCH   2   3
ATOM      3  C   UNL     1      16.163  13.363   9.019  1.00  0.00     0.000 C 
BRANCH   3   4
ATOM      4  C   UNL     1      17.031  14.398   9.758  1.00  0.00     0.006 C 
BRANCH   4   5
ATOM      5  C   UNL     1      16.201  15.462  10.489  1.00  0.00     0.053 C 
BRANCH   5   6
ATOM      6  C   UNL     1      16.235  16.757   9.742  1.00  0.00     0.041 C 
ATOM      7  O   UNL     1      17.053  17.656  10.071  1.00  0.00    -0.550 OA
ATOM      8  O   UNL     1      15.399  16.954   8.651  1.00  0.00    -0.550 OA
ENDBRANCH   5   6
ENDBRANCH   4   5
ENDBRANCH   3   4
ENDBRANCH   2   3
ENDBRANCH   1   2
BRANCH   1   9
ATOM      9  C   UNL     1      13.872  11.764  10.578  1.00  0.00     0.000 C 
BRANCH   9  10
ATOM     10  C   UNL     1      13.638  12.754  11.735  1.00  0.00    -0.000 C 
BRANCH  10  11
ATOM     11  C   UNL     1      14.790  12.769  12.752  1.00  0.00    -0.000 C 
BRANCH  11  12
ATOM     12  C   UNL     1      15.441  11.385  12.866  1.00  0.00    -0.000 C 
BRANCH  12  13
ATOM     13  C   UNL     1      16.863  11.400  12.294  1.00  0.00    -0.003 C 
ATOM     14  C   UNL     1      17.124  10.166  11.434  1.00  0.00     0.004 C 
ENDBRANCH  12  13
ENDBRANCH  11  12
ENDBRANCH  10  11
ENDBRANCH   9  10
ENDBRANCH   1   9
TORSDOF 10
ENDMDL
