MODEL 1
REMARK VINA RESULT:    -2.525      0.000      0.000
REMARK INTER + INTRA:          -2.525
REMARK INTER:                  -2.525
REMARK INTRA:                   0.000
REMARK UNBOUND:                 0.000
REMARK SMILES CC(=O)[O-]
REMARK SMILES IDX 1 1 2 2 3 3 4 4
REMARK H PARENT
REMARK Flexibility Score: inf
ROOT
ATOM      1  C   UNL     1       3.833 -36.522  14.669  1.00  0.00     0.063 C 
ATOM      2  C   UNL     1       2.994 -36.222  15.865  1.00  0.00     0.038 C 
ATOM      3  O   UNL     1       1.904 -35.607  15.733  1.00  0.00    -0.550 OA
ATOM      4  O   UNL     1       3.387 -36.667  17.120  1.00  0.00    -0.550 OA
ENDROOT
TORSDOF 0
ENDMDL
MODEL 2
REMARK VINA RESULT:    -2.514      1.512      2.013
REMARK INTER + INTRA:          -2.514
REMARK INTER:                  -2.514
REMARK INTRA:                   0.000
REMARK UNBOUND:                 0.000
REMARK SMILES CC(=O)[O-]
REMARK SMILES IDX 1 1 2 2 3 3 4 4
REMARK H PARENT
REMARK Flexibility Score: inf
ROOT
ATOM      1  C   UNL     1       2.026 -35.638  15.785  1.00  0.00     0.063 C 
ATOM      2  C   UNL     1       3.181 -36.512  16.138  1.00  0.00     0.038 C 
ATOM      3  O   UNL     1       3.514 -36.663  17.343  1.00  0.00    -0.550 OA
ATOM      4  O   UNL     1       3.859 -37.204  15.144  1.00  0.00    -0.550 OA
ENDROOT
TORSDOF 0
ENDMDL
MODEL 3
REMARK VINA RESULT:    -2.387      1.360      1.793
REMARK INTER + INTRA:          -2.387
REMARK INTER:                  -2.387
REMARK INTRA:                   0.000
REMARK UNBOUND:                 0.000
REMARK SMILES CC(=O)[O-]
REMARK SMILES IDX 1 1 2 2 3 3 4 4
REMARK H PARENT
REMARK Flexibility Score: inf
ROOT
ATOM      1  C   UNL     1       3.304 -36.601  17.529  1.00  0.00     0.063 C 
ATOM      2  C   UNL     1       2.996 -36.374  16.088  1.00  0.00     0.038 C 
ATOM      3  O   UNL     1       2.047 -35.617  15.757  1.00  0.00    -0.550 OA
ATOM      4  O   UNL     1       3.789 -36.955  15.108  1.00  0.00    -0.550 OA
ENDROOT
TORSDOF 0
ENDMDL
MODEL 4
REMARK VINA RESULT:    -2.278     17.545     17.864
REMARK INTER + INTRA:          -2.278
REMARK INTER:                  -2.278
REMARK INTRA:                   0.000
REMARK UNBOUND:                 0.000
REMARK SMILES CC(=O)[O-]
REMARK SMILES IDX 1 1 2 2 3 3 4 4
REMARK H PARENT
REMARK Flexibility Score: inf
ROOT
ATOM      1  C   UNL     1       5.445 -26.614  29.724  1.00  0.00     0.063 C 
ATOM      2  C   UNL     1       4.857 -25.244  29.732  1.00  0.00     0.038 C 
ATOM      3  O   UNL     1       3.892 -24.976  30.494  1.00  0.00    -0.550 OA
ATOM      4  O   UNL     1       5.405 -24.247  28.937  1.00  0.00    -0.550 OA
ENDROOT
TORSDOF 0
ENDMDL
MODEL 5
REMARK VINA RESULT:    -2.252      4.101      4.936
REMARK INTER + INTRA:          -2.252
REMARK INTER:                  -2.252
REMARK INTRA:                   0.000
REMARK UNBOUND:                 0.000
REMARK SMILES CC(=O)[O-]
REMARK SMILES IDX 1 1 2 2 3 3 4 4
REMARK H PARENT
REMARK Flexibility Score: inf
ROOT
ATOM      1  C   UNL     1       5.543 -35.016  20.135  1.00  0.00     0.063 C 
ATOM      2  C   UNL     1       5.086 -36.400  19.821  1.00  0.00     0.038 C 
ATOM      3  O   UNL     1       5.524 -37.375  20.487  1.00  0.00    -0.550 OA
ATOM      4  O   UNL     1       4.138 -36.612  18.830  1.00  0.00    -0.550 OA
ENDROOT
TORSDOF 0
ENDMDL
MODEL 6
REMARK VINA RESULT:    -2.221      5.199      5.668
REMARK INTER + INTRA:          -2.221
REMARK INTER:                  -2.221
REMARK INTRA:                   0.000
REMARK UNBOUND:                 0.000
REMARK SMILES CC(=O)[O-]
REMARK SMILES IDX 1 1 2 2 3 3 4 4
REMARK H PARENT
REMARK Flexibility Score: inf
ROOT
ATOM      1  C   UNL     1       5.819 -34.982  21.873  1.00  0.00     0.063 C 
ATOM      2  C   UNL     1       5.542 -35.424  20.476  1.00  0.00     0.038 C 
ATOM      3  O   UNL     1       5.486 -34.578  19.546  1.00  0.00    -0.550 OA
ATOM      4  O   UNL     1       5.399 -36.775  20.190  1.00  0.00    -0.550 OA
ENDROOT
TORSDOF 0
ENDMDL
MODEL 7
REMARK VINA RESULT:    -2.190      4.090      4.553
REMARK INTER + INTRA:          -2.190
REMARK INTER:                  -2.190
REMARK INTRA:                   0.000
REMARK UNBOUND:                 0.000
REMARK SMILES CC(=O)[O-]
REMARK SMILES IDX 1 1 2 2 3 3 4 4
REMARK H PARENT
REMARK Flexibility Score: inf
ROOT
ATOM      1  C   UNL     1       3.861 -36.630  18.599  1.00  0.00     0.063 C 
ATOM      2  C   UNL     1       4.901 -36.333  19.626  1.00  0.00     0.038 C 
ATOM      3  O   UNL     1       5.548 -37.272  20.159  1.00  0.00    -0.550 OA
ATOM      4  O   UNL     1       5.194 -35.018  19.958  1.00  0.00    -0.550 OA
ENDROOT
TORSDOF 0
ENDMDL
MODEL 8
REMARK VINA RESULT:    -2.178      4.937      5.426
REMARK INTER + INTRA:          -2.178
REMARK INTER:                  -2.178
REMARK INTRA:                   0.000
REMARK UNBOUND:                 0.000
REMARK SMILES CC(=O)[O-]
REMARK SMILES IDX 1 1 2 2 3 3 4 4
REMARK H PARENT
REMARK Flexibility Score: inf
ROOT
ATOM      1  C   UNL     1       5.033 -36.430  19.872  1.00  0.00     0.063 C 
ATOM      2  C   UNL     1       5.730 -35.166  20.245  1.00  0.00     0.038 C 
ATOM      3  O   UNL     1       5.958 -34.289  19.371  1.00  0.00    -0.550 OA
ATOM      4  O   UNL     1       6.081 -34.929  21.567  1.00  0.00    -0.550 OA
ENDROOT
TORSDOF 0
ENDMDL
MODEL 9
REMARK VINA RESULT:    -2.073     17.147     17.556
REMARK INTER + INTRA:          -2.073
REMARK INTER:                  -2.073
REMARK INTRA:                   0.000
REMARK UNBOUND:                 0.000
REMARK SMILES CC(=O)[O-]
REMARK SMILES IDX 1 1 2 2 3 3 4 4
REMARK H PARENT
REMARK Flexibility Score: inf
ROOT
ATOM      1  C   UNL     1       4.987 -24.930  29.587  1.00  0.00     0.063 C 
ATOM      2  C   UNL     1       5.109 -26.345  30.042  1.00  0.00     0.038 C 
ATOM      3  O   UNL     1       5.977 -27.099  29.530  1.00  0.00    -0.550 OA
ATOM      4  O   UNL     1       4.302 -26.818  31.067  1.00  0.00    -0.550 OA
ENDROOT
TORSDOF 0
ENDMDL
