MODEL 1
REMARK VINA RESULT:    -5.483      0.000      0.000
REMARK INTER + INTRA:         -10.713
REMARK INTER:                  -8.368
REMARK INTRA:                  -2.346
REMARK UNBOUND:                -2.346
REMARK SMILES CC(=O)CCC=C(C)CCC=C(C)CCC=C(C)C
REMARK SMILES IDX 10 1 11 2 12 3 13 4 14 5 15 6 16 7 18 8 17 9 19 10 9 11 7 12
REMARK SMILES IDX 6 13 8 14 5 15 4 16 2 17 3 18 1 19
REMARK H PARENT
REMARK Flexibility Score: inf
ROOT
ATOM      1  C   UNL     1      18.854 -31.387  21.210  1.00  0.00     0.032 C 
ENDROOT
BRANCH   1   2
ATOM      2  C   UNL     1      18.561 -32.611  20.378  1.00  0.00    -0.028 C 
ATOM      3  C   UNL     1      18.536 -33.875  20.858  1.00  0.00    -0.077 C 
ATOM      4  C   UNL     1      18.859 -34.186  22.301  1.00  0.00     0.039 C 
BRANCH   3   5
ATOM      5  C   UNL     1      18.184 -35.010  19.920  1.00  0.00     0.034 C 
BRANCH   5   6
ATOM      6  C   UNL     1      16.777 -35.544  20.212  1.00  0.00     0.032 C 
BRANCH   6   7
ATOM      7  C   UNL     1      15.719 -34.535  19.837  1.00  0.00    -0.028 C 
ATOM      8  C   UNL     1      15.187 -34.070  22.232  1.00  0.00     0.039 C 
ATOM      9  C   UNL     1      14.989 -33.859  20.750  1.00  0.00    -0.080 C 
ATOM     10  C   UNL     1      13.957 -32.874  20.266  1.00  0.00     0.039 C 
ENDBRANCH   6   7
ENDBRANCH   5   6
ENDBRANCH   3   5
ENDBRANCH   1   2
BRANCH   1  11
ATOM     11  C   UNL     1      17.646 -30.445  21.232  1.00  0.00     0.034 C 
BRANCH  11  12
ATOM     12  C   UNL     1      16.842 -30.632  22.500  1.00  0.00    -0.077 C 
ATOM     13  C   UNL     1      15.509 -30.406  22.472  1.00  0.00    -0.028 C 
ATOM     14  C   UNL     1      17.554 -31.048  23.766  1.00  0.00     0.039 C 
BRANCH  13  15
ATOM     15  C   UNL     1      14.584 -30.590  23.649  1.00  0.00     0.035 C 
BRANCH  15  16
ATOM     16  C   UNL     1      13.180 -30.997  23.179  1.00  0.00     0.079 C 
BRANCH  16  17
ATOM     17  C   UNL     1      12.237 -29.824  23.050  1.00  0.00     0.130 C 
ATOM     18  O   UNL     1      11.352 -29.818  22.206  1.00  0.00    -0.300 OA
ATOM     19  C   UNL     1      12.361 -28.658  23.982  1.00  0.00     0.087 C 
ENDBRANCH  16  17
ENDBRANCH  15  16
ENDBRANCH  13  15
ENDBRANCH  11  12
ENDBRANCH   1  11
TORSDOF 9
ENDMDL
MODEL 2
REMARK VINA RESULT:    -5.464      2.439      5.293
REMARK INTER + INTRA:         -10.685
REMARK INTER:                  -8.189
REMARK INTRA:                  -2.496
REMARK UNBOUND:                -2.346
REMARK SMILES CC(=O)CCC=C(C)CCC=C(C)CCC=C(C)C
REMARK SMILES IDX 10 1 11 2 12 3 13 4 14 5 15 6 16 7 18 8 17 9 19 10 9 11 7 12
REMARK SMILES IDX 6 13 8 14 5 15 4 16 2 17 3 18 1 19
REMARK H PARENT
REMARK Flexibility Score: inf
ROOT
ATOM      1  C   UNL     1      18.553 -32.866  23.786  1.00  0.00     0.032 C 
ENDROOT
BRANCH   1   2
ATOM      2  C   UNL     1      18.004 -31.505  23.437  1.00  0.00    -0.028 C 
ATOM      3  C   UNL     1      18.012 -30.973  22.193  1.00  0.00    -0.077 C 
ATOM      4  C   UNL     1      18.635 -31.695  21.021  1.00  0.00     0.039 C 
BRANCH   3   5
ATOM      5  C   UNL     1      17.386 -29.612  21.973  1.00  0.00     0.034 C 
BRANCH   5   6
ATOM      6  C   UNL     1      15.902 -29.624  22.357  1.00  0.00     0.032 C 
BRANCH   6   7
ATOM      7  C   UNL     1      15.102 -30.503  21.426  1.00  0.00    -0.028 C 
ATOM      8  C   UNL     1      13.122 -30.462  22.946  1.00  0.00     0.039 C 
ATOM      9  C   UNL     1      13.836 -30.891  21.686  1.00  0.00    -0.080 C 
ATOM     10  C   UNL     1      13.129 -31.771  20.689  1.00  0.00     0.039 C 
ENDBRANCH   6   7
ENDBRANCH   5   6
ENDBRANCH   3   5
ENDBRANCH   1   2
BRANCH   1  11
ATOM     11  C   UNL     1      17.472 -33.737  24.434  1.00  0.00     0.034 C 
BRANCH  11  12
ATOM     12  C   UNL     1      16.298 -33.920  23.496  1.00  0.00    -0.077 C 
ATOM     13  C   UNL     1      16.516 -34.427  22.262  1.00  0.00    -0.028 C 
ATOM     14  C   UNL     1      14.918 -33.514  23.960  1.00  0.00     0.039 C 
BRANCH  13  15
ATOM     15  C   UNL     1      15.436 -34.697  21.244  1.00  0.00     0.035 C 
BRANCH  15  16
ATOM     16  C   UNL     1      15.928 -34.364  19.828  1.00  0.00     0.079 C 
BRANCH  16  17
ATOM     17  C   UNL     1      17.126 -35.186  19.411  1.00  0.00     0.130 C 
ATOM     18  O   UNL     1      18.170 -34.648  19.071  1.00  0.00    -0.300 OA
ATOM     19  C   UNL     1      17.053 -36.682  19.436  1.00  0.00     0.087 C 
ENDBRANCH  16  17
ENDBRANCH  15  16
ENDBRANCH  13  15
ENDBRANCH  11  12
ENDBRANCH   1  11
TORSDOF 9
ENDMDL
MODEL 3
REMARK VINA RESULT:    -5.421      1.639      5.453
REMARK INTER + INTRA:         -10.620
REMARK INTER:                  -8.765
REMARK INTRA:                  -1.855
REMARK UNBOUND:                -2.346
REMARK SMILES CC(=O)CCC=C(C)CCC=C(C)CCC=C(C)C
REMARK SMILES IDX 10 1 11 2 12 3 13 4 14 5 15 6 16 7 18 8 17 9 19 10 9 11 7 12
REMARK SMILES IDX 6 13 8 14 5 15 4 16 2 17 3 18 1 19
REMARK H PARENT
REMARK Flexibility Score: inf
ROOT
ATOM      1  C   UNL     1      15.355 -34.935  20.468  1.00  0.00     0.032 C 
ENDROOT
BRANCH   1   2
ATOM      2  C   UNL     1      14.722 -33.575  20.620  1.00  0.00    -0.028 C 
ATOM      3  C   UNL     1      14.630 -32.900  21.789  1.00  0.00    -0.077 C 
ATOM      4  C   UNL     1      15.122 -33.489  23.091  1.00  0.00     0.039 C 
BRANCH   3   5
ATOM      5  C   UNL     1      14.008 -31.520  21.793  1.00  0.00     0.034 C 
BRANCH   5   6
ATOM      6  C   UNL     1      13.117 -31.325  23.026  1.00  0.00     0.032 C 
BRANCH   6   7
ATOM      7  C   UNL     1      13.363 -29.983  23.672  1.00  0.00    -0.028 C 
ATOM      8  C   UNL     1      11.141 -29.119  22.929  1.00  0.00     0.039 C 
ATOM      9  C   UNL     1      12.469 -28.972  23.633  1.00  0.00    -0.080 C 
ATOM     10  C   UNL     1      12.816 -27.673  24.311  1.00  0.00     0.039 C 
ENDBRANCH   6   7
ENDBRANCH   5   6
ENDBRANCH   3   5
ENDBRANCH   1   2
BRANCH   1  11
ATOM     11  C   UNL     1      16.658 -34.840  19.666  1.00  0.00     0.034 C 
BRANCH  11  12
ATOM     12  C   UNL     1      17.745 -34.177  20.483  1.00  0.00    -0.077 C 
ATOM     13  C   UNL     1      18.077 -32.894  20.215  1.00  0.00    -0.028 C 
ATOM     14  C   UNL     1      18.440 -34.972  21.563  1.00  0.00     0.039 C 
BRANCH  13  15
ATOM     15  C   UNL     1      19.112 -32.101  20.974  1.00  0.00     0.035 C 
BRANCH  15  16
ATOM     16  C   UNL     1      18.513 -30.789  21.501  1.00  0.00     0.079 C 
BRANCH  16  17
ATOM     17  C   UNL     1      17.898 -30.929  22.873  1.00  0.00     0.130 C 
ATOM     18  O   UNL     1      16.926 -30.263  23.198  1.00  0.00    -0.300 OA
ATOM     19  C   UNL     1      18.463 -31.915  23.850  1.00  0.00     0.087 C 
ENDBRANCH  16  17
ENDBRANCH  15  16
ENDBRANCH  13  15
ENDBRANCH  11  12
ENDBRANCH   1  11
TORSDOF 9
ENDMDL
MODEL 4
REMARK VINA RESULT:    -5.283      2.459      5.347
REMARK INTER + INTRA:         -10.408
REMARK INTER:                  -7.987
REMARK INTRA:                  -2.421
REMARK UNBOUND:                -2.346
REMARK SMILES CC(=O)CCC=C(C)CCC=C(C)CCC=C(C)C
REMARK SMILES IDX 10 1 11 2 12 3 13 4 14 5 15 6 16 7 18 8 17 9 19 10 9 11 7 12
REMARK SMILES IDX 6 13 8 14 5 15 4 16 2 17 3 18 1 19
REMARK H PARENT
REMARK Flexibility Score: inf
ROOT
ATOM      1  C   UNL     1      16.271 -30.139  22.068  1.00  0.00     0.032 C 
ENDROOT
BRANCH   1   2
ATOM      2  C   UNL     1      15.804 -31.157  23.079  1.00  0.00    -0.028 C 
ATOM      3  C   UNL     1      14.921 -32.148  22.815  1.00  0.00    -0.077 C 
ATOM      4  C   UNL     1      14.268 -32.295  21.461  1.00  0.00     0.039 C 
BRANCH   3   5
ATOM      5  C   UNL     1      14.572 -33.131  23.913  1.00  0.00     0.034 C 
BRANCH   5   6
ATOM      6  C   UNL     1      15.839 -33.731  24.533  1.00  0.00     0.032 C 
BRANCH   6   7
ATOM      7  C   UNL     1      16.572 -34.605  23.543  1.00  0.00    -0.028 C 
ATOM      8  C   UNL     1      18.281 -35.251  25.244  1.00  0.00     0.039 C 
ATOM      9  C   UNL     1      17.686 -35.300  23.857  1.00  0.00    -0.080 C 
ATOM     10  C   UNL     1      18.339 -36.141  22.792  1.00  0.00     0.039 C 
ENDBRANCH   6   7
ENDBRANCH   5   6
ENDBRANCH   3   5
ENDBRANCH   1   2
BRANCH   1  11
ATOM     11  C   UNL     1      17.799 -30.143  21.961  1.00  0.00     0.034 C 
BRANCH  11  12
ATOM     12  C   UNL     1      18.316 -31.542  21.705  1.00  0.00    -0.077 C 
ATOM     13  C   UNL     1      17.917 -32.195  20.590  1.00  0.00    -0.028 C 
ATOM     14  C   UNL     1      19.249 -32.176  22.710  1.00  0.00     0.039 C 
BRANCH  13  15
ATOM     15  C   UNL     1      18.383 -33.574  20.193  1.00  0.00     0.035 C 
BRANCH  15  16
ATOM     16  C   UNL     1      17.466 -34.168  19.114  1.00  0.00     0.079 C 
BRANCH  16  17
ATOM     17  C   UNL     1      16.686 -35.368  19.597  1.00  0.00     0.130 C 
ATOM     18  O   UNL     1      15.612 -35.233  20.165  1.00  0.00    -0.300 OA
ATOM     19  C   UNL     1      17.213 -36.750  19.357  1.00  0.00     0.087 C 
ENDBRANCH  16  17
ENDBRANCH  15  16
ENDBRANCH  13  15
ENDBRANCH  11  12
ENDBRANCH   1  11
TORSDOF 9
ENDMDL
MODEL 5
REMARK VINA RESULT:    -5.280      1.869      5.609
REMARK INTER + INTRA:         -10.404
REMARK INTER:                  -8.721
REMARK INTRA:                  -1.683
REMARK UNBOUND:                -2.346
REMARK SMILES CC(=O)CCC=C(C)CCC=C(C)CCC=C(C)C
REMARK SMILES IDX 10 1 11 2 12 3 13 4 14 5 15 6 16 7 18 8 17 9 19 10 9 11 7 12
REMARK SMILES IDX 6 13 8 14 5 15 4 16 2 17 3 18 1 19
REMARK H PARENT
REMARK Flexibility Score: inf
ROOT
ATOM      1  C   UNL     1      17.867 -30.460  22.100  1.00  0.00     0.032 C 
ENDROOT
BRANCH   1   2
ATOM      2  C   UNL     1      16.417 -30.468  21.684  1.00  0.00    -0.028 C 
ATOM      3  C   UNL     1      15.437 -31.136  22.335  1.00  0.00    -0.077 C 
ATOM      4  C   UNL     1      15.726 -31.998  23.542  1.00  0.00     0.039 C 
BRANCH   3   5
ATOM      5  C   UNL     1      14.013 -31.022  21.834  1.00  0.00     0.034 C 
BRANCH   5   6
ATOM      6  C   UNL     1      13.079 -30.531  22.946  1.00  0.00     0.032 C 
BRANCH   6   7
ATOM      7  C   UNL     1      13.548 -29.213  23.513  1.00  0.00    -0.028 C 
ATOM      8  C   UNL     1      11.213 -28.337  23.640  1.00  0.00     0.039 C 
ATOM      9  C   UNL     1      12.705 -28.207  23.831  1.00  0.00    -0.080 C 
ATOM     10  C   UNL     1      13.280 -26.932  24.390  1.00  0.00     0.039 C 
ENDBRANCH   6   7
ENDBRANCH   5   6
ENDBRANCH   3   5
ENDBRANCH   1   2
BRANCH   1  11
ATOM     11  C   UNL     1      18.750 -31.063  21.002  1.00  0.00     0.034 C 
BRANCH  11  12
ATOM     12  C   UNL     1      18.694 -32.575  21.037  1.00  0.00    -0.077 C 
ATOM     13  C   UNL     1      18.254 -33.241  19.946  1.00  0.00    -0.028 C 
ATOM     14  C   UNL     1      19.115 -33.295  22.297  1.00  0.00     0.039 C 
BRANCH  13  15
ATOM     15  C   UNL     1      18.183 -34.744  19.832  1.00  0.00     0.035 C 
BRANCH  15  16
ATOM     16  C   UNL     1      16.765 -35.193  19.451  1.00  0.00     0.079 C 
BRANCH  16  17
ATOM     17  C   UNL     1      15.709 -34.687  20.405  1.00  0.00     0.130 C 
ATOM     18  O   UNL     1      15.767 -34.939  21.599  1.00  0.00    -0.300 OA
ATOM     19  C   UNL     1      14.583 -33.839  19.894  1.00  0.00     0.087 C 
ENDBRANCH  16  17
ENDBRANCH  15  16
ENDBRANCH  13  15
ENDBRANCH  11  12
ENDBRANCH   1  11
TORSDOF 9
ENDMDL
MODEL 6
REMARK VINA RESULT:    -5.218      2.459      5.820
REMARK INTER + INTRA:         -10.309
REMARK INTER:                  -8.499
REMARK INTRA:                  -1.810
REMARK UNBOUND:                -2.346
REMARK SMILES CC(=O)CCC=C(C)CCC=C(C)CCC=C(C)C
REMARK SMILES IDX 10 1 11 2 12 3 13 4 14 5 15 6 16 7 18 8 17 9 19 10 9 11 7 12
REMARK SMILES IDX 6 13 8 14 5 15 4 16 2 17 3 18 1 19
REMARK H PARENT
REMARK Flexibility Score: inf
ROOT
ATOM      1  C   UNL     1      17.812 -31.353  23.798  1.00  0.00     0.032 C 
ENDROOT
BRANCH   1   2
ATOM      2  C   UNL     1      16.319 -31.315  23.586  1.00  0.00    -0.028 C 
ATOM      3  C   UNL     1      15.513 -32.402  23.623  1.00  0.00    -0.077 C 
ATOM      4  C   UNL     1      16.061 -33.794  23.835  1.00  0.00     0.039 C 
BRANCH   3   5
ATOM      5  C   UNL     1      14.022 -32.216  23.438  1.00  0.00     0.034 C 
BRANCH   5   6
ATOM      6  C   UNL     1      13.732 -31.164  22.360  1.00  0.00     0.032 C 
BRANCH   6   7
ATOM      7  C   UNL     1      12.475 -30.390  22.675  1.00  0.00    -0.028 C 
ATOM      8  C   UNL     1      13.783 -28.437  23.518  1.00  0.00     0.039 C 
ATOM      9  C   UNL     1      12.488 -29.148  23.203  1.00  0.00    -0.080 C 
ATOM     10  C   UNL     1      11.174 -28.465  23.479  1.00  0.00     0.039 C 
ENDBRANCH   6   7
ENDBRANCH   5   6
ENDBRANCH   3   5
ENDBRANCH   1   2
BRANCH   1  11
ATOM     11  C   UNL     1      18.553 -31.071  22.486  1.00  0.00     0.034 C 
BRANCH  11  12
ATOM     12  C   UNL     1      18.670 -32.330  21.655  1.00  0.00    -0.077 C 
ATOM     13  C   UNL     1      17.864 -32.486  20.581  1.00  0.00    -0.028 C 
ATOM     14  C   UNL     1      19.672 -33.386  22.061  1.00  0.00     0.039 C 
BRANCH  13  15
ATOM     15  C   UNL     1      17.902 -33.669  19.646  1.00  0.00     0.035 C 
BRANCH  15  16
ATOM     16  C   UNL     1      16.771 -34.655  19.973  1.00  0.00     0.079 C 
BRANCH  16  17
ATOM     17  C   UNL     1      17.276 -35.993  20.461  1.00  0.00     0.130 C 
ATOM     18  O   UNL     1      17.473 -36.196  21.650  1.00  0.00    -0.300 OA
ATOM     19  C   UNL     1      17.516 -37.104  19.484  1.00  0.00     0.087 C 
ENDBRANCH  16  17
ENDBRANCH  15  16
ENDBRANCH  13  15
ENDBRANCH  11  12
ENDBRANCH   1  11
TORSDOF 9
ENDMDL
MODEL 7
REMARK VINA RESULT:    -5.206      1.634      2.598
REMARK INTER + INTRA:         -10.290
REMARK INTER:                  -7.748
REMARK INTRA:                  -2.542
REMARK UNBOUND:                -2.346
REMARK SMILES CC(=O)CCC=C(C)CCC=C(C)CCC=C(C)C
REMARK SMILES IDX 10 1 11 2 12 3 13 4 14 5 15 6 16 7 18 8 17 9 19 10 9 11 7 12
REMARK SMILES IDX 6 13 8 14 5 15 4 16 2 17 3 18 1 19
REMARK H PARENT
REMARK Flexibility Score: inf
ROOT
ATOM      1  C   UNL     1      19.342 -32.433  20.958  1.00  0.00     0.032 C 
ENDROOT
BRANCH   1   2
ATOM      2  C   UNL     1      19.139 -33.646  21.830  1.00  0.00    -0.028 C 
ATOM      3  C   UNL     1      19.234 -33.643  23.180  1.00  0.00    -0.077 C 
ATOM      4  C   UNL     1      19.614 -32.399  23.949  1.00  0.00     0.039 C 
BRANCH   3   5
ATOM      5  C   UNL     1      18.963 -34.925  23.938  1.00  0.00     0.034 C 
BRANCH   5   6
ATOM      6  C   UNL     1      17.571 -35.474  23.602  1.00  0.00     0.032 C 
BRANCH   6   7
ATOM      7  C   UNL     1      16.485 -34.626  24.219  1.00  0.00    -0.028 C 
ATOM      8  C   UNL     1      15.388 -34.265  22.004  1.00  0.00     0.039 C 
ATOM      9  C   UNL     1      15.487 -34.070  23.499  1.00  0.00    -0.080 C 
ATOM     10  C   UNL     1      14.454 -33.240  24.214  1.00  0.00     0.039 C 
ENDBRANCH   6   7
ENDBRANCH   5   6
ENDBRANCH   3   5
ENDBRANCH   1   2
BRANCH   1  11
ATOM     11  C   UNL     1      17.996 -31.875  20.483  1.00  0.00     0.034 C 
BRANCH  11  12
ATOM     12  C   UNL     1      17.543 -30.736  21.370  1.00  0.00    -0.077 C 
ATOM     13  C   UNL     1      16.424 -30.887  22.113  1.00  0.00    -0.028 C 
ATOM     14  C   UNL     1      18.345 -29.455  21.387  1.00  0.00     0.039 C 
BRANCH  13  15
ATOM     15  C   UNL     1      15.882 -29.850  23.066  1.00  0.00     0.035 C 
BRANCH  15  16
ATOM     16  C   UNL     1      14.616 -29.196  22.494  1.00  0.00     0.079 C 
BRANCH  16  17
ATOM     17  C   UNL     1      13.344 -29.868  22.955  1.00  0.00     0.130 C 
ATOM     18  O   UNL     1      12.813 -29.554  24.010  1.00  0.00    -0.300 OA
ATOM     19  C   UNL     1      12.699 -30.917  22.101  1.00  0.00     0.087 C 
ENDBRANCH  16  17
ENDBRANCH  15  16
ENDBRANCH  13  15
ENDBRANCH  11  12
ENDBRANCH   1  11
TORSDOF 9
ENDMDL
MODEL 8
REMARK VINA RESULT:    -5.121      1.820      3.962
REMARK INTER + INTRA:         -10.161
REMARK INTER:                  -7.614
REMARK INTRA:                  -2.547
REMARK UNBOUND:                -2.346
REMARK SMILES CC(=O)CCC=C(C)CCC=C(C)CCC=C(C)C
REMARK SMILES IDX 10 1 11 2 12 3 13 4 14 5 15 6 16 7 18 8 17 9 19 10 9 11 7 12
REMARK SMILES IDX 6 13 8 14 5 15 4 16 2 17 3 18 1 19
REMARK H PARENT
REMARK Flexibility Score: inf
ROOT
ATOM      1  C   UNL     1      16.907 -34.148  19.467  1.00  0.00     0.032 C 
ENDROOT
BRANCH   1   2
ATOM      2  C   UNL     1      18.175 -34.077  20.282  1.00  0.00    -0.028 C 
ATOM      3  C   UNL     1      18.628 -32.959  20.896  1.00  0.00    -0.077 C 
ATOM      4  C   UNL     1      17.911 -31.635  20.772  1.00  0.00     0.039 C 
BRANCH   3   5
ATOM      5  C   UNL     1      19.895 -33.038  21.720  1.00  0.00     0.034 C 
BRANCH   5   6
ATOM      6  C   UNL     1      19.593 -32.826  23.208  1.00  0.00     0.032 C 
BRANCH   6   7
ATOM      7  C   UNL     1      18.757 -33.954  23.764  1.00  0.00    -0.028 C 
ATOM      8  C   UNL     1      18.340 -32.716  25.891  1.00  0.00     0.039 C 
ATOM      9  C   UNL     1      18.184 -33.914  24.985  1.00  0.00    -0.080 C 
ATOM     10  C   UNL     1      17.370 -35.096  25.442  1.00  0.00     0.039 C 
ENDBRANCH   6   7
ENDBRANCH   5   6
ENDBRANCH   3   5
ENDBRANCH   1   2
BRANCH   1  11
ATOM     11  C   UNL     1      15.794 -34.844  20.256  1.00  0.00     0.034 C 
BRANCH  11  12
ATOM     12  C   UNL     1      15.083 -33.862  21.163  1.00  0.00    -0.077 C 
ATOM     13  C   UNL     1      15.331 -33.899  22.492  1.00  0.00    -0.028 C 
ATOM     14  C   UNL     1      14.105 -32.882  20.560  1.00  0.00     0.039 C 
BRANCH  13  15
ATOM     15  C   UNL     1      14.723 -32.957  23.502  1.00  0.00     0.035 C 
BRANCH  15  16
ATOM     16  C   UNL     1      15.548 -31.666  23.605  1.00  0.00     0.079 C 
BRANCH  16  17
ATOM     17  C   UNL     1      14.772 -30.435  23.199  1.00  0.00     0.130 C 
ATOM     18  O   UNL     1      15.290 -29.561  22.521  1.00  0.00    -0.300 OA
ATOM     19  C   UNL     1      13.338 -30.286  23.606  1.00  0.00     0.087 C 
ENDBRANCH  16  17
ENDBRANCH  15  16
ENDBRANCH  13  15
ENDBRANCH  11  12
ENDBRANCH   1  11
TORSDOF 9
ENDMDL
MODEL 9
REMARK VINA RESULT:    -5.103      2.362      5.942
REMARK INTER + INTRA:         -10.134
REMARK INTER:                  -8.403
REMARK INTRA:                  -1.731
REMARK UNBOUND:                -2.346
REMARK SMILES CC(=O)CCC=C(C)CCC=C(C)CCC=C(C)C
REMARK SMILES IDX 10 1 11 2 12 3 13 4 14 5 15 6 16 7 18 8 17 9 19 10 9 11 7 12
REMARK SMILES IDX 6 13 8 14 5 15 4 16 2 17 3 18 1 19
REMARK H PARENT
REMARK Flexibility Score: inf
ROOT
ATOM      1  C   UNL     1      17.303 -31.719  24.119  1.00  0.00     0.032 C 
ENDROOT
BRANCH   1   2
ATOM      2  C   UNL     1      15.860 -31.742  23.680  1.00  0.00    -0.028 C 
ATOM      3  C   UNL     1      15.421 -31.313  22.474  1.00  0.00    -0.077 C 
ATOM      4  C   UNL     1      16.357 -30.709  21.453  1.00  0.00     0.039 C 
BRANCH   3   5
ATOM      5  C   UNL     1      13.947 -31.433  22.145  1.00  0.00     0.034 C 
BRANCH   5   6
ATOM      6  C   UNL     1      13.085 -30.932  23.309  1.00  0.00     0.032 C 
BRANCH   6   7
ATOM      7  C   UNL     1      13.458 -29.522  23.700  1.00  0.00    -0.028 C 
ATOM      8  C   UNL     1      11.118 -28.716  23.368  1.00  0.00     0.039 C 
ATOM      9  C   UNL     1      12.569 -28.506  23.729  1.00  0.00    -0.080 C 
ATOM     10  C   UNL     1      13.049 -27.136  24.133  1.00  0.00     0.039 C 
ENDBRANCH   6   7
ENDBRANCH   5   6
ENDBRANCH   3   5
ENDBRANCH   1   2
BRANCH   1  11
ATOM     11  C   UNL     1      17.735 -33.097  24.631  1.00  0.00     0.034 C 
BRANCH  11  12
ATOM     12  C   UNL     1      17.923 -34.063  23.482  1.00  0.00    -0.077 C 
ATOM     13  C   UNL     1      18.496 -33.622  22.340  1.00  0.00    -0.028 C 
ATOM     14  C   UNL     1      17.447 -35.489  23.636  1.00  0.00     0.039 C 
BRANCH  13  15
ATOM     15  C   UNL     1      18.777 -34.483  21.134  1.00  0.00     0.035 C 
BRANCH  15  16
ATOM     16  C   UNL     1      17.798 -34.160  19.996  1.00  0.00     0.079 C 
BRANCH  16  17
ATOM     17  C   UNL     1      16.588 -35.064  19.983  1.00  0.00     0.130 C 
ATOM     18  O   UNL     1      16.636 -36.173  19.470  1.00  0.00    -0.300 OA
ATOM     19  C   UNL     1      15.312 -34.616  20.630  1.00  0.00     0.087 C 
ENDBRANCH  16  17
ENDBRANCH  15  16
ENDBRANCH  13  15
ENDBRANCH  11  12
ENDBRANCH   1  11
TORSDOF 9
ENDMDL
