MODEL 1
REMARK VINA RESULT:    -2.111      0.000      0.000
REMARK INTER + INTRA:          -5.404
REMARK INTER:                  -3.592
REMARK INTRA:                  -1.813
REMARK UNBOUND:                -1.813
REMARK SMILES CCCCCCCCCCCCCC(=O)[O-]
REMARK SMILES IDX 8 1 9 2 10 3 11 4 12 5 13 6 14 7 15 8 16 9 7 10 6 11 5 12
REMARK SMILES IDX 4 13 3 14 2 15 1 16
REMARK H PARENT
REMARK Flexibility Score: inf
ROOT
ATOM      1  C   UNL     1     174.773 206.940 199.878  1.00  0.00     0.000 C 
ENDROOT
BRANCH   1   2
ATOM      2  C   UNL     1     175.252 207.942 200.945  1.00  0.00     0.000 C 
BRANCH   2   3
ATOM      3  C   UNL     1     176.450 207.477 201.793  1.00  0.00     0.000 C 
BRANCH   3   4
ATOM      4  C   UNL     1     176.728 205.970 201.663  1.00  0.00     0.000 C 
BRANCH   4   5
ATOM      5  C   UNL     1     178.161 205.597 202.078  1.00  0.00     0.006 C 
BRANCH   5   6
ATOM      6  C   UNL     1     178.464 204.106 201.880  1.00  0.00     0.053 C 
BRANCH   6   7
ATOM      7  C   UNL     1     179.175 203.886 200.582  1.00  0.00     0.041 C 
ATOM      8  O   UNL     1     178.537 203.906 199.497  1.00  0.00    -0.550 OA
ATOM      9  O   UNL     1     180.536 203.609 200.573  1.00  0.00    -0.550 OA
ENDBRANCH   6   7
ENDBRANCH   5   6
ENDBRANCH   4   5
ENDBRANCH   3   4
ENDBRANCH   2   3
ENDBRANCH   1   2
BRANCH   1  10
ATOM     10  C   UNL     1     174.671 207.561 198.475  1.00  0.00     0.000 C 
BRANCH  10  11
ATOM     11  C   UNL     1     176.047 207.896 197.876  1.00  0.00    -0.000 C 
BRANCH  11  12
ATOM     12  C   UNL     1     176.959 206.665 197.762  1.00  0.00    -0.000 C 
BRANCH  12  13
ATOM     13  C   UNL     1     178.430 207.082 197.643  1.00  0.00    -0.000 C 
BRANCH  13  14
ATOM     14  C   UNL     1     179.032 207.380 199.021  1.00  0.00    -0.000 C 
BRANCH  14  15
ATOM     15  C   UNL     1     180.521 207.014 199.061  1.00  0.00    -0.003 C 
ATOM     16  C   UNL     1     181.125 207.311 200.431  1.00  0.00     0.004 C 
ENDBRANCH  14  15
ENDBRANCH  13  14
ENDBRANCH  12  13
ENDBRANCH  11  12
ENDBRANCH  10  11
ENDBRANCH   1  10
TORSDOF 12
ENDMDL
MODEL 2
REMARK VINA RESULT:    -2.089      1.846      5.145
REMARK INTER + INTRA:          -5.367
REMARK INTER:                  -3.614
REMARK INTRA:                  -1.753
REMARK UNBOUND:                -1.813
REMARK SMILES CCCCCCCCCCCCCC(=O)[O-]
REMARK SMILES IDX 8 1 9 2 10 3 11 4 12 5 13 6 14 7 15 8 16 9 7 10 6 11 5 12
REMARK SMILES IDX 4 13 3 14 2 15 1 16
REMARK H PARENT
REMARK Flexibility Score: inf
ROOT
ATOM      1  C   UNL     1     179.717 205.510 200.354  1.00  0.00     0.000 C 
ENDROOT
BRANCH   1   2
ATOM      2  C   UNL     1     179.805 207.028 200.116  1.00  0.00     0.000 C 
BRANCH   2   3
ATOM      3  C   UNL     1     178.550 207.670 199.496  1.00  0.00     0.000 C 
BRANCH   3   4
ATOM      4  C   UNL     1     177.787 206.716 198.561  1.00  0.00     0.000 C 
BRANCH   4   5
ATOM      5  C   UNL     1     177.704 207.247 197.119  1.00  0.00     0.006 C 
BRANCH   5   6
ATOM      6  C   UNL     1     179.077 207.328 196.440  1.00  0.00     0.053 C 
BRANCH   6   7
ATOM      7  C   UNL     1     179.687 205.966 196.333  1.00  0.00     0.041 C 
ATOM      8  O   UNL     1     179.101 205.057 195.690  1.00  0.00    -0.550 OA
ATOM      9  O   UNL     1     180.880 205.685 196.987  1.00  0.00    -0.550 OA
ENDBRANCH   6   7
ENDBRANCH   5   6
ENDBRANCH   4   5
ENDBRANCH   3   4
ENDBRANCH   2   3
ENDBRANCH   1   2
BRANCH   1  10
ATOM     10  C   UNL     1     180.112 205.102 201.783  1.00  0.00     0.000 C 
BRANCH  10  11
ATOM     11  C   UNL     1     178.919 205.125 202.754  1.00  0.00    -0.000 C 
BRANCH  11  12
ATOM     12  C   UNL     1     177.565 205.103 202.029  1.00  0.00    -0.000 C 
BRANCH  12  13
ATOM     13  C   UNL     1     176.688 206.282 202.471  1.00  0.00    -0.000 C 
BRANCH  13  14
ATOM     14  C   UNL     1     175.476 206.444 201.546  1.00  0.00    -0.000 C 
BRANCH  14  15
ATOM     15  C   UNL     1     175.204 207.924 201.251  1.00  0.00    -0.003 C 
ATOM     16  C   UNL     1     174.768 208.125 199.802  1.00  0.00     0.004 C 
ENDBRANCH  14  15
ENDBRANCH  13  14
ENDBRANCH  12  13
ENDBRANCH  11  12
ENDBRANCH  10  11
ENDBRANCH   1  10
TORSDOF 12
ENDMDL
MODEL 3
REMARK VINA RESULT:    -2.080      1.915      4.510
REMARK INTER + INTRA:          -5.351
REMARK INTER:                  -3.618
REMARK INTRA:                  -1.734
REMARK UNBOUND:                -1.813
REMARK SMILES CCCCCCCCCCCCCC(=O)[O-]
REMARK SMILES IDX 8 1 9 2 10 3 11 4 12 5 13 6 14 7 15 8 16 9 7 10 6 11 5 12
REMARK SMILES IDX 4 13 3 14 2 15 1 16
REMARK H PARENT
REMARK Flexibility Score: inf
ROOT
ATOM      1  C   UNL     1     177.558 205.033 202.026  1.00  0.00     0.000 C 
ENDROOT
BRANCH   1   2
ATOM      2  C   UNL     1     178.760 205.052 202.987  1.00  0.00     0.000 C 
BRANCH   2   3
ATOM      3  C   UNL     1     180.114 205.397 202.340  1.00  0.00     0.000 C 
BRANCH   3   4
ATOM      4  C   UNL     1     180.054 205.430 200.803  1.00  0.00     0.000 C 
BRANCH   4   5
ATOM      5  C   UNL     1     180.289 206.839 200.234  1.00  0.00     0.006 C 
BRANCH   5   6
ATOM      6  C   UNL     1     179.123 207.327 199.365  1.00  0.00     0.053 C 
BRANCH   6   7
ATOM      7  C   UNL     1     179.441 207.141 197.914  1.00  0.00     0.041 C 
ATOM      8  O   UNL     1     180.625 206.924 197.547  1.00  0.00    -0.550 OA
ATOM      9  O   UNL     1     178.436 207.258 196.962  1.00  0.00    -0.550 OA
ENDBRANCH   6   7
ENDBRANCH   5   6
ENDBRANCH   4   5
ENDBRANCH   3   4
ENDBRANCH   2   3
ENDBRANCH   1   2
BRANCH   1  10
ATOM     10  C   UNL     1     176.404 205.938 202.489  1.00  0.00     0.000 C 
BRANCH  10  11
ATOM     11  C   UNL     1     176.526 207.373 201.951  1.00  0.00    -0.000 C 
BRANCH  11  12
ATOM     12  C   UNL     1     175.313 207.794 201.106  1.00  0.00    -0.000 C 
BRANCH  12  13
ATOM     13  C   UNL     1     175.392 207.192 199.697  1.00  0.00    -0.000 C 
BRANCH  13  14
ATOM     14  C   UNL     1     174.257 206.189 199.462  1.00  0.00    -0.000 C 
BRANCH  14  15
ATOM     15  C   UNL     1     174.747 204.985 198.648  1.00  0.00    -0.003 C 
ATOM     16  C   UNL     1     176.272 204.919 198.627  1.00  0.00     0.004 C 
ENDBRANCH  14  15
ENDBRANCH  13  14
ENDBRANCH  12  13
ENDBRANCH  11  12
ENDBRANCH  10  11
ENDBRANCH   1  10
TORSDOF 12
ENDMDL
MODEL 4
REMARK VINA RESULT:    -2.077      2.252      5.145
REMARK INTER + INTRA:          -5.347
REMARK INTER:                  -3.628
REMARK INTRA:                  -1.718
REMARK UNBOUND:                -1.813
REMARK SMILES CCCCCCCCCCCCCC(=O)[O-]
REMARK SMILES IDX 8 1 9 2 10 3 11 4 12 5 13 6 14 7 15 8 16 9 7 10 6 11 5 12
REMARK SMILES IDX 4 13 3 14 2 15 1 16
REMARK H PARENT
REMARK Flexibility Score: inf
ROOT
ATOM      1  C   UNL     1     178.507 205.047 200.444  1.00  0.00     0.000 C 
ENDROOT
BRANCH   1   2
ATOM      2  C   UNL     1     179.726 205.933 200.760  1.00  0.00     0.000 C 
BRANCH   2   3
ATOM      3  C   UNL     1     179.791 207.262 199.986  1.00  0.00     0.000 C 
BRANCH   3   4
ATOM      4  C   UNL     1     179.019 207.222 198.656  1.00  0.00     0.000 C 
BRANCH   4   5
ATOM      5  C   UNL     1     179.867 206.667 197.499  1.00  0.00     0.006 C 
BRANCH   5   6
ATOM      6  C   UNL     1     179.573 207.364 196.164  1.00  0.00     0.053 C 
BRANCH   6   7
ATOM      7  C   UNL     1     178.170 207.080 195.727  1.00  0.00     0.041 C 
ATOM      8  O   UNL     1     177.757 205.894 195.649  1.00  0.00    -0.550 OA
ATOM      9  O   UNL     1     177.333 208.125 195.355  1.00  0.00    -0.550 OA
ENDBRANCH   6   7
ENDBRANCH   5   6
ENDBRANCH   4   5
ENDBRANCH   3   4
ENDBRANCH   2   3
ENDBRANCH   1   2
BRANCH   1  10
ATOM     10  C   UNL     1     177.596 204.822 201.663  1.00  0.00     0.000 C 
BRANCH  10  11
ATOM     11  C   UNL     1     177.148 206.140 202.316  1.00  0.00    -0.000 C 
BRANCH  11  12
ATOM     12  C   UNL     1     175.886 206.726 201.663  1.00  0.00    -0.000 C 
BRANCH  12  13
ATOM     13  C   UNL     1     176.191 208.072 200.994  1.00  0.00    -0.000 C 
BRANCH  13  14
ATOM     14  C   UNL     1     175.615 208.125 199.574  1.00  0.00    -0.000 C 
BRANCH  14  15
ATOM     15  C   UNL     1     175.539 206.722 198.959  1.00  0.00    -0.003 C 
ATOM     16  C   UNL     1     174.786 206.743 197.632  1.00  0.00     0.004 C 
ENDBRANCH  14  15
ENDBRANCH  13  14
ENDBRANCH  12  13
ENDBRANCH  11  12
ENDBRANCH  10  11
ENDBRANCH   1  10
TORSDOF 12
ENDMDL
MODEL 5
REMARK VINA RESULT:    -2.067      2.469      4.290
REMARK INTER + INTRA:          -5.330
REMARK INTER:                  -3.511
REMARK INTRA:                  -1.819
REMARK UNBOUND:                -1.813
REMARK SMILES CCCCCCCCCCCCCC(=O)[O-]
REMARK SMILES IDX 8 1 9 2 10 3 11 4 12 5 13 6 14 7 15 8 16 9 7 10 6 11 5 12
REMARK SMILES IDX 4 13 3 14 2 15 1 16
REMARK H PARENT
REMARK Flexibility Score: inf
ROOT
ATOM      1  C   UNL     1     177.357 204.681 200.914  1.00  0.00     0.000 C 
ENDROOT
BRANCH   1   2
ATOM      2  C   UNL     1     177.149 205.619 202.117  1.00  0.00     0.000 C 
BRANCH   2   3
ATOM      3  C   UNL     1     175.929 206.553 202.018  1.00  0.00     0.000 C 
BRANCH   3   4
ATOM      4  C   UNL     1     176.292 207.962 201.517  1.00  0.00     0.000 C 
BRANCH   4   5
ATOM      5  C   UNL     1     176.070 208.125 200.004  1.00  0.00     0.006 C 
BRANCH   5   6
ATOM      6  C   UNL     1     175.008 207.162 199.456  1.00  0.00     0.053 C 
BRANCH   6   7
ATOM      7  C   UNL     1     175.049 207.138 197.960  1.00  0.00     0.041 C 
ATOM      8  O   UNL     1     175.851 207.880 197.336  1.00  0.00    -0.550 OA
ATOM      9  O   UNL     1     174.163 206.334 197.254  1.00  0.00    -0.550 OA
ENDBRANCH   6   7
ENDBRANCH   5   6
ENDBRANCH   4   5
ENDBRANCH   3   4
ENDBRANCH   2   3
ENDBRANCH   1   2
BRANCH   1  10
ATOM     10  C   UNL     1     178.616 205.022 200.098  1.00  0.00     0.000 C 
BRANCH  10  11
ATOM     11  C   UNL     1     179.489 206.089 200.779  1.00  0.00    -0.000 C 
BRANCH  11  12
ATOM     12  C   UNL     1     179.740 207.310 199.880  1.00  0.00    -0.000 C 
BRANCH  12  13
ATOM     13  C   UNL     1     179.181 207.076 198.471  1.00  0.00    -0.000 C 
BRANCH  13  14
ATOM     14  C   UNL     1     180.312 206.940 197.444  1.00  0.00    -0.000 C 
BRANCH  14  15
ATOM     15  C   UNL     1     179.979 205.868 196.399  1.00  0.00    -0.003 C 
ATOM     16  C   UNL     1     178.471 205.736 196.208  1.00  0.00     0.004 C 
ENDBRANCH  14  15
ENDBRANCH  13  14
ENDBRANCH  12  13
ENDBRANCH  11  12
ENDBRANCH  10  11
ENDBRANCH   1  10
TORSDOF 12
ENDMDL
MODEL 6
REMARK VINA RESULT:    -2.034      2.535      4.816
REMARK INTER + INTRA:          -5.273
REMARK INTER:                  -3.231
REMARK INTRA:                  -2.042
REMARK UNBOUND:                -1.813
REMARK SMILES CCCCCCCCCCCCCC(=O)[O-]
REMARK SMILES IDX 8 1 9 2 10 3 11 4 12 5 13 6 14 7 15 8 16 9 7 10 6 11 5 12
REMARK SMILES IDX 4 13 3 14 2 15 1 16
REMARK H PARENT
REMARK Flexibility Score: inf
ROOT
ATOM      1  C   UNL     1     177.926 204.622 201.297  1.00  0.00     0.000 C 
ENDROOT
BRANCH   1   2
ATOM      2  C   UNL     1     176.597 205.359 201.546  1.00  0.00     0.000 C 
BRANCH   2   3
ATOM      3  C   UNL     1     176.730 206.838 201.951  1.00  0.00     0.000 C 
BRANCH   3   4
ATOM      4  C   UNL     1     175.962 207.788 201.017  1.00  0.00     0.000 C 
BRANCH   4   5
ATOM      5  C   UNL     1     174.441 207.733 201.241  1.00  0.00     0.006 C 
BRANCH   5   6
ATOM      6  C   UNL     1     173.645 208.125 199.989  1.00  0.00     0.053 C 
BRANCH   6   7
ATOM      7  C   UNL     1     173.112 206.904 199.307  1.00  0.00     0.041 C 
ATOM      8  O   UNL     1     172.257 207.012 198.390  1.00  0.00    -0.550 OA
ATOM      9  O   UNL     1     173.523 205.643 199.719  1.00  0.00    -0.550 OA
ENDBRANCH   6   7
ENDBRANCH   5   6
ENDBRANCH   4   5
ENDBRANCH   3   4
ENDBRANCH   2   3
ENDBRANCH   1   2
BRANCH   1  10
ATOM     10  C   UNL     1     179.143 205.563 201.302  1.00  0.00     0.000 C 
BRANCH  10  11
ATOM     11  C   UNL     1     179.691 205.827 199.890  1.00  0.00    -0.000 C 
BRANCH  11  12
ATOM     12  C   UNL     1     179.506 207.286 199.446  1.00  0.00    -0.000 C 
BRANCH  12  13
ATOM     13  C   UNL     1     178.398 207.402 198.392  1.00  0.00    -0.000 C 
BRANCH  13  14
ATOM     14  C   UNL     1     177.996 206.021 197.861  1.00  0.00    -0.000 C 
BRANCH  14  15
ATOM     15  C   UNL     1     176.475 205.920 197.691  1.00  0.00    -0.003 C 
ATOM     16  C   UNL     1     175.903 207.197 197.082  1.00  0.00     0.004 C 
ENDBRANCH  14  15
ENDBRANCH  13  14
ENDBRANCH  12  13
ENDBRANCH  11  12
ENDBRANCH  10  11
ENDBRANCH   1  10
TORSDOF 12
ENDMDL
MODEL 7
REMARK VINA RESULT:    -2.031      1.362      3.545
REMARK INTER + INTRA:          -5.269
REMARK INTER:                  -3.242
REMARK INTRA:                  -2.027
REMARK UNBOUND:                -1.813
REMARK SMILES CCCCCCCCCCCCCC(=O)[O-]
REMARK SMILES IDX 8 1 9 2 10 3 11 4 12 5 13 6 14 7 15 8 16 9 7 10 6 11 5 12
REMARK SMILES IDX 4 13 3 14 2 15 1 16
REMARK H PARENT
REMARK Flexibility Score: inf
ROOT
ATOM      1  C   UNL     1     176.621 204.733 198.758  1.00  0.00     0.000 C 
ENDROOT
BRANCH   1   2
ATOM      2  C   UNL     1     177.186 205.722 197.722  1.00  0.00     0.000 C 
BRANCH   2   3
ATOM      3  C   UNL     1     178.661 206.116 197.926  1.00  0.00     0.000 C 
BRANCH   3   4
ATOM      4  C   UNL     1     178.831 207.372 198.799  1.00  0.00     0.000 C 
BRANCH   4   5
ATOM      5  C   UNL     1     179.842 207.164 199.939  1.00  0.00     0.006 C 
BRANCH   5   6
ATOM      6  C   UNL     1     180.684 205.894 199.758  1.00  0.00     0.053 C 
BRANCH   6   7
ATOM      7  C   UNL     1     180.494 204.973 200.922  1.00  0.00     0.041 C 
ATOM      8  O   UNL     1     179.840 203.906 200.786  1.00  0.00    -0.550 OA
ATOM      9  O   UNL     1     180.995 205.318 202.170  1.00  0.00    -0.550 OA
ENDBRANCH   6   7
ENDBRANCH   5   6
ENDBRANCH   4   5
ENDBRANCH   3   4
ENDBRANCH   2   3
ENDBRANCH   1   2
BRANCH   1  10
ATOM     10  C   UNL     1     175.090 204.811 198.888  1.00  0.00     0.000 C 
BRANCH  10  11
ATOM     11  C   UNL     1     174.555 206.243 198.724  1.00  0.00    -0.000 C 
BRANCH  11  12
ATOM     12  C   UNL     1     174.453 206.993 200.062  1.00  0.00    -0.000 C 
BRANCH  12  13
ATOM     13  C   UNL     1     175.488 208.123 200.136  1.00  0.00    -0.000 C 
BRANCH  13  14
ATOM     14  C   UNL     1     176.421 207.937 201.339  1.00  0.00    -0.000 C 
BRANCH  14  15
ATOM     15  C   UNL     1     176.143 206.607 202.050  1.00  0.00    -0.003 C 
ATOM     16  C   UNL     1     177.442 205.912 202.446  1.00  0.00     0.004 C 
ENDBRANCH  14  15
ENDBRANCH  13  14
ENDBRANCH  12  13
ENDBRANCH  11  12
ENDBRANCH  10  11
ENDBRANCH   1  10
TORSDOF 12
ENDMDL
MODEL 8
REMARK VINA RESULT:    -1.991      1.869      4.296
REMARK INTER + INTRA:          -5.200
REMARK INTER:                  -2.939
REMARK INTRA:                  -2.261
REMARK UNBOUND:                -1.813
REMARK SMILES CCCCCCCCCCCCCC(=O)[O-]
REMARK SMILES IDX 8 1 9 2 10 3 11 4 12 5 13 6 14 7 15 8 16 9 7 10 6 11 5 12
REMARK SMILES IDX 4 13 3 14 2 15 1 16
REMARK H PARENT
REMARK Flexibility Score: inf
ROOT
ATOM      1  C   UNL     1     175.283 207.836 200.003  1.00  0.00     0.000 C 
ENDROOT
BRANCH   1   2
ATOM      2  C   UNL     1     175.488 207.654 198.488  1.00  0.00     0.000 C 
BRANCH   2   3
ATOM      3  C   UNL     1     176.950 207.718 198.010  1.00  0.00     0.000 C 
BRANCH   3   4
ATOM      4  C   UNL     1     177.400 206.439 197.283  1.00  0.00     0.000 C 
BRANCH   4   5
ATOM      5  C   UNL     1     178.754 205.917 197.793  1.00  0.00     0.006 C 
BRANCH   5   6
ATOM      6  C   UNL     1     179.623 207.026 198.401  1.00  0.00     0.053 C 
BRANCH   6   7
ATOM      7  C   UNL     1     180.169 206.593 199.725  1.00  0.00     0.041 C 
ATOM      8  O   UNL     1     180.749 207.421 200.474  1.00  0.00    -0.550 OA
ATOM      9  O   UNL     1     180.083 205.261 200.110  1.00  0.00    -0.550 OA
ENDBRANCH   6   7
ENDBRANCH   5   6
ENDBRANCH   4   5
ENDBRANCH   3   4
ENDBRANCH   2   3
ENDBRANCH   1   2
BRANCH   1  10
ATOM     10  C   UNL     1     176.593 208.125 200.756  1.00  0.00     0.000 C 
BRANCH  10  11
ATOM     11  C   UNL     1     177.060 206.933 201.607  1.00  0.00    -0.000 C 
BRANCH  11  12
ATOM     12  C   UNL     1     175.991 205.836 201.727  1.00  0.00    -0.000 C 
BRANCH  12  13
ATOM     13  C   UNL     1     176.589 204.454 201.434  1.00  0.00    -0.000 C 
BRANCH  13  14
ATOM     14  C   UNL     1     176.429 204.086 199.954  1.00  0.00    -0.000 C 
BRANCH  14  15
ATOM     15  C   UNL     1     174.961 204.176 199.521  1.00  0.00    -0.003 C 
ATOM     16  C   UNL     1     174.803 203.849 198.039  1.00  0.00     0.004 C 
ENDBRANCH  14  15
ENDBRANCH  13  14
ENDBRANCH  12  13
ENDBRANCH  11  12
ENDBRANCH  10  11
ENDBRANCH   1  10
TORSDOF 12
ENDMDL
MODEL 9
REMARK VINA RESULT:    -0.700      2.847      5.649
REMARK INTER + INTRA:          -3.003
REMARK INTER:                  -1.364
REMARK INTRA:                  -1.639
REMARK UNBOUND:                -1.813
REMARK SMILES CCCCCCCCCCCCCC(=O)[O-]
REMARK SMILES IDX 8 1 9 2 10 3 11 4 12 5 13 6 14 7 15 8 16 9 7 10 6 11 5 12
REMARK SMILES IDX 4 13 3 14 2 15 1 16
REMARK H PARENT
REMARK Flexibility Score: inf
ROOT
ATOM      1  C   UNL     1     180.268 206.730 200.386  1.00  0.00     0.000 C 
ENDROOT
BRANCH   1   2
ATOM      2  C   UNL     1     179.172 207.345 199.498  1.00  0.00     0.000 C 
BRANCH   2   3
ATOM      3  C   UNL     1     179.280 207.017 197.997  1.00  0.00     0.000 C 
BRANCH   3   4
ATOM      4  C   UNL     1     178.676 205.649 197.637  1.00  0.00     0.000 C 
BRANCH   4   5
ATOM      5  C   UNL     1     177.428 205.771 196.746  1.00  0.00     0.006 C 
BRANCH   5   6
ATOM      6  C   UNL     1     177.102 207.226 196.384  1.00  0.00     0.053 C 
BRANCH   6   7
ATOM      7  C   UNL     1     177.120 207.410 194.899  1.00  0.00     0.041 C 
ATOM      8  O   UNL     1     178.004 208.125 194.359  1.00  0.00    -0.550 OA
ATOM      9  O   UNL     1     176.128 206.834 194.116  1.00  0.00    -0.550 OA
ENDBRANCH   6   7
ENDBRANCH   5   6
ENDBRANCH   4   5
ENDBRANCH   3   4
ENDBRANCH   2   3
ENDBRANCH   1   2
BRANCH   1  10
ATOM     10  C   UNL     1     179.717 205.718 201.406  1.00  0.00     0.000 C 
BRANCH  10  11
ATOM     11  C   UNL     1     178.218 205.439 201.209  1.00  0.00    -0.000 C 
BRANCH  11  12
ATOM     12  C   UNL     1     177.385 205.776 202.455  1.00  0.00    -0.000 C 
BRANCH  12  13
ATOM     13  C   UNL     1     176.074 206.470 202.066  1.00  0.00    -0.000 C 
BRANCH  13  14
ATOM     14  C   UNL     1     176.331 207.902 201.581  1.00  0.00    -0.000 C 
BRANCH  14  15
ATOM     15  C   UNL     1     175.740 208.124 200.184  1.00  0.00    -0.003 C 
ATOM     16  C   UNL     1     175.152 206.832 199.623  1.00  0.00     0.004 C 
ENDBRANCH  14  15
ENDBRANCH  13  14
ENDBRANCH  12  13
ENDBRANCH  11  12
ENDBRANCH  10  11
ENDBRANCH   1  10
TORSDOF 12
ENDMDL
