MODEL 1
REMARK VINA RESULT:    -6.080      0.000      0.000
REMARK INTER + INTRA:          -7.627
REMARK INTER:                  -7.324
REMARK INTRA:                  -0.304
REMARK UNBOUND:                -0.304
REMARK SMILES O=c1c(O)c(-c2ccc(O)c(O)c2)oc2cc(O)cc(O)c12
REMARK SMILES IDX 5 1 3 2 2 3 1 4 22 5 20 6 19 7 17 8 16 9 15 10 14 11 6 12
REMARK SMILES IDX 7 13 8 14 9 15 13 16 11 17 10 18 12 20 4 22 21 24 18 26
REMARK H PARENT 10 19 12 21 4 23 21 25 18 27
REMARK Flexibility Score: inf
ROOT
ATOM      1  C   UNL     1      18.821  40.960   6.219  1.00  0.00     0.180 A 
ATOM      2  C   UNL     1      19.120  41.230   4.873  1.00  0.00     0.208 A 
ATOM      3  C   UNL     1      20.039  40.408   4.201  1.00  0.00     0.238 A 
ATOM      4  O   UNL     1      20.261  40.622   2.981  1.00  0.00    -0.285 OA
ATOM      5  C   UNL     1      20.660  39.338   4.888  1.00  0.00     0.111 A 
ATOM      6  C   UNL     1      21.636  38.467   4.317  1.00  0.00     0.134 A 
ATOM      7  C   UNL     1      22.086  37.360   5.049  1.00  0.00     0.093 A 
ATOM      8  C   UNL     1      21.644  37.132   6.354  1.00  0.00     0.123 A 
ATOM      9  C   UNL     1      20.737  38.010   6.941  1.00  0.00     0.094 A 
ATOM     10  C   UNL     1      20.241  39.102   6.224  1.00  0.00     0.146 A 
ATOM     11  O   UNL     1      19.370  39.909   6.817  1.00  0.00    -0.452 OA
ENDROOT
BRANCH   1  12
ATOM     12  C   UNL     1      17.882  41.796   7.002  1.00  0.00     0.025 A 
ATOM     13  C   UNL     1      18.345  42.795   7.874  1.00  0.00     0.016 A 
ATOM     14  C   UNL     1      17.441  43.555   8.619  1.00  0.00     0.051 A 
ATOM     15  C   UNL     1      16.064  43.327   8.520  1.00  0.00     0.157 A 
ATOM     16  C   UNL     1      16.503  41.551   6.918  1.00  0.00     0.062 A 
ATOM     17  C   UNL     1      15.589  42.309   7.661  1.00  0.00     0.158 A 
BRANCH  15  18
ATOM     18  O   UNL     1      15.214  44.125   9.289  1.00  0.00    -0.504 OA
ATOM     19  H   UNL     1      14.381  44.570   8.931  1.00  0.00     0.293 HD
ENDBRANCH  15  18
BRANCH  17  20
ATOM     20  O   UNL     1      14.231  42.017   7.517  1.00  0.00    -0.504 OA
ATOM     21  H   UNL     1      13.543  42.159   8.242  1.00  0.00     0.293 HD
ENDBRANCH  17  20
ENDBRANCH   1  12
BRANCH   2  22
ATOM     22  O   UNL     1      18.479  42.279   4.208  1.00  0.00    -0.502 OA
ATOM     23  H   UNL     1      18.926  42.809   3.470  1.00  0.00     0.293 HD
ENDBRANCH   2  22
BRANCH   6  24
ATOM     24  O   UNL     1      22.211  38.658   3.057  1.00  0.00    -0.507 OA
ATOM     25  H   UNL     1      22.452  39.555   2.666  1.00  0.00     0.293 HD
ENDBRANCH   6  24
BRANCH   8  26
ATOM     26  O   UNL     1      22.110  36.038   7.081  1.00  0.00    -0.508 OA
ATOM     27  H   UNL     1      22.467  36.142   8.024  1.00  0.00     0.293 HD
ENDBRANCH   8  26
TORSDOF 6
ENDMDL
MODEL 2
REMARK VINA RESULT:    -5.944      3.743      5.541
REMARK INTER + INTRA:          -7.464
REMARK INTER:                  -7.713
REMARK INTRA:                   0.249
REMARK UNBOUND:                -0.304
REMARK SMILES O=c1c(O)c(-c2ccc(O)c(O)c2)oc2cc(O)cc(O)c12
REMARK SMILES IDX 5 1 3 2 2 3 1 4 22 5 20 6 19 7 17 8 16 9 15 10 14 11 6 12
REMARK SMILES IDX 7 13 8 14 9 15 13 16 11 17 10 18 12 20 4 22 21 24 18 26
REMARK H PARENT 10 19 12 21 4 23 21 25 18 27
REMARK Flexibility Score: inf
ROOT
ATOM      1  C   UNL     1      21.230  40.086   5.089  1.00  0.00     0.180 A 
ATOM      2  C   UNL     1      21.256  40.936   6.208  1.00  0.00     0.208 A 
ATOM      3  C   UNL     1      21.402  40.375   7.486  1.00  0.00     0.238 A 
ATOM      4  O   UNL     1      21.479  41.144   8.479  1.00  0.00    -0.285 OA
ATOM      5  C   UNL     1      21.504  38.970   7.632  1.00  0.00     0.111 A 
ATOM      6  C   UNL     1      21.615  38.291   8.882  1.00  0.00     0.134 A 
ATOM      7  C   UNL     1      21.843  36.909   8.899  1.00  0.00     0.093 A 
ATOM      8  C   UNL     1      21.897  36.174   7.713  1.00  0.00     0.123 A 
ATOM      9  C   UNL     1      21.730  36.819   6.490  1.00  0.00     0.094 A 
ATOM     10  C   UNL     1      21.539  38.202   6.439  1.00  0.00     0.146 A 
ATOM     11  O   UNL     1      21.395  38.779   5.252  1.00  0.00    -0.452 OA
ENDROOT
BRANCH   1  12
ATOM     12  C   UNL     1      21.054  40.601   3.712  1.00  0.00     0.025 A 
ATOM     13  C   UNL     1      21.558  41.855   3.330  1.00  0.00     0.016 A 
ATOM     14  C   UNL     1      21.359  42.330   2.032  1.00  0.00     0.051 A 
ATOM     15  C   UNL     1      20.646  41.573   1.096  1.00  0.00     0.157 A 
ATOM     16  C   UNL     1      20.320  39.850   2.781  1.00  0.00     0.062 A 
ATOM     17  C   UNL     1      20.116  40.317   1.477  1.00  0.00     0.158 A 
BRANCH  15  18
ATOM     18  O   UNL     1      20.486  42.103  -0.187  1.00  0.00    -0.504 OA
ATOM     19  H   UNL     1      20.921  42.958  -0.502  1.00  0.00     0.293 HD
ENDBRANCH  15  18
BRANCH  17  20
ATOM     20  O   UNL     1      19.386  39.510   0.601  1.00  0.00    -0.504 OA
ATOM     21  H   UNL     1      19.803  38.932  -0.114  1.00  0.00     0.293 HD
ENDBRANCH  17  20
ENDBRANCH   1  12
BRANCH   2  22
ATOM     22  O   UNL     1      21.175  42.322   6.040  1.00  0.00    -0.502 OA
ATOM     23  H   UNL     1      21.990  42.922   6.067  1.00  0.00     0.293 HD
ENDBRANCH   2  22
BRANCH   6  24
ATOM     24  O   UNL     1      21.484  38.917  10.125  1.00  0.00    -0.507 OA
ATOM     25  H   UNL     1      20.898  39.718  10.306  1.00  0.00     0.293 HD
ENDBRANCH   6  24
BRANCH   8  26
ATOM     26  O   UNL     1      22.107  34.796   7.740  1.00  0.00    -0.508 OA
ATOM     27  H   UNL     1      22.620  34.353   8.493  1.00  0.00     0.293 HD
ENDBRANCH   8  26
TORSDOF 6
ENDMDL
MODEL 3
REMARK VINA RESULT:    -5.925      3.576      5.204
REMARK INTER + INTRA:          -7.441
REMARK INTER:                  -7.435
REMARK INTRA:                  -0.006
REMARK UNBOUND:                -0.304
REMARK SMILES O=c1c(O)c(-c2ccc(O)c(O)c2)oc2cc(O)cc(O)c12
REMARK SMILES IDX 5 1 3 2 2 3 1 4 22 5 20 6 19 7 17 8 16 9 15 10 14 11 6 12
REMARK SMILES IDX 7 13 8 14 9 15 13 16 11 17 10 18 12 20 4 22 21 24 18 26
REMARK H PARENT 10 19 12 21 4 23 21 25 18 27
REMARK Flexibility Score: inf
ROOT
ATOM      1  C   UNL     1      21.079  40.819   5.106  1.00  0.00     0.180 A 
ATOM      2  C   UNL     1      21.212  41.555   6.295  1.00  0.00     0.208 A 
ATOM      3  C   UNL     1      21.403  40.867   7.504  1.00  0.00     0.238 A 
ATOM      4  O   UNL     1      21.576  41.533   8.558  1.00  0.00    -0.285 OA
ATOM      5  C   UNL     1      21.442  39.452   7.512  1.00  0.00     0.111 A 
ATOM      6  C   UNL     1      21.589  38.652   8.683  1.00  0.00     0.134 A 
ATOM      7  C   UNL     1      21.747  37.265   8.557  1.00  0.00     0.093 A 
ATOM      8  C   UNL     1      21.695  36.646   7.307  1.00  0.00     0.123 A 
ATOM      9  C   UNL     1      21.492  37.412   6.162  1.00  0.00     0.094 A 
ATOM     10  C   UNL     1      21.368  38.801   6.252  1.00  0.00     0.146 A 
ATOM     11  O   UNL     1      21.186  39.496   5.136  1.00  0.00    -0.452 OA
ENDROOT
BRANCH   1  12
ATOM     12  C   UNL     1      20.850  41.471   3.796  1.00  0.00     0.025 A 
ATOM     13  C   UNL     1      21.690  41.222   2.699  1.00  0.00     0.016 A 
ATOM     14  C   UNL     1      21.468  41.867   1.481  1.00  0.00     0.051 A 
ATOM     15  C   UNL     1      20.417  42.780   1.336  1.00  0.00     0.157 A 
ATOM     16  C   UNL     1      19.809  42.403   3.660  1.00  0.00     0.062 A 
ATOM     17  C   UNL     1      19.578  43.054   2.442  1.00  0.00     0.158 A 
BRANCH  15  18
ATOM     18  O   UNL     1      20.247  43.387   0.090  1.00  0.00    -0.504 OA
ATOM     19  H   UNL     1      19.817  42.936  -0.705  1.00  0.00     0.293 HD
ENDBRANCH  15  18
BRANCH  17  20
ATOM     20  O   UNL     1      18.517  43.958   2.377  1.00  0.00    -0.504 OA
ATOM     21  H   UNL     1      18.521  44.795   1.811  1.00  0.00     0.293 HD
ENDBRANCH  17  20
ENDBRANCH   1  12
BRANCH   2  22
ATOM     22  O   UNL     1      21.192  42.952   6.263  1.00  0.00    -0.502 OA
ATOM     23  H   UNL     1      20.567  43.474   5.662  1.00  0.00     0.293 HD
ENDBRANCH   2  22
BRANCH   6  24
ATOM     24  O   UNL     1      21.562  39.160   9.985  1.00  0.00    -0.507 OA
ATOM     25  H   UNL     1      21.295  40.102  10.229  1.00  0.00     0.293 HD
ENDBRANCH   6  24
BRANCH   8  26
ATOM     26  O   UNL     1      21.836  35.264   7.192  1.00  0.00    -0.508 OA
ATOM     27  H   UNL     1      21.199  34.711   6.629  1.00  0.00     0.293 HD
ENDBRANCH   8  26
TORSDOF 6
ENDMDL
MODEL 4
REMARK VINA RESULT:    -5.867      1.629      6.455
REMARK INTER + INTRA:          -7.371
REMARK INTER:                  -7.132
REMARK INTRA:                  -0.239
REMARK UNBOUND:                -0.304
REMARK SMILES O=c1c(O)c(-c2ccc(O)c(O)c2)oc2cc(O)cc(O)c12
REMARK SMILES IDX 5 1 3 2 2 3 1 4 22 5 20 6 19 7 17 8 16 9 15 10 14 11 6 12
REMARK SMILES IDX 7 13 8 14 9 15 13 16 11 17 10 18 12 20 4 22 21 24 18 26
REMARK H PARENT 10 19 12 21 4 23 21 25 18 27
REMARK Flexibility Score: inf
ROOT
ATOM      1  C   UNL     1      20.379  39.610   6.882  1.00  0.00     0.180 A 
ATOM      2  C   UNL     1      20.734  40.117   5.620  1.00  0.00     0.208 A 
ATOM      3  C   UNL     1      19.926  41.102   5.031  1.00  0.00     0.238 A 
ATOM      4  O   UNL     1      20.278  41.591   3.925  1.00  0.00    -0.285 OA
ATOM      5  C   UNL     1      18.765  41.555   5.701  1.00  0.00     0.111 A 
ATOM      6  C   UNL     1      17.852  42.520   5.179  1.00  0.00     0.134 A 
ATOM      7  C   UNL     1      16.809  42.991   5.987  1.00  0.00     0.093 A 
ATOM      8  C   UNL     1      16.607  42.483   7.272  1.00  0.00     0.123 A 
ATOM      9  C   UNL     1      17.457  41.498   7.768  1.00  0.00     0.094 A 
ATOM     10  C   UNL     1      18.529  41.035   7.001  1.00  0.00     0.146 A 
ATOM     11  O   UNL     1      19.322  40.103   7.515  1.00  0.00    -0.452 OA
ENDROOT
BRANCH   1  12
ATOM     12  C   UNL     1      21.167  38.553   7.557  1.00  0.00     0.025 A 
ATOM     13  C   UNL     1      21.997  38.846   8.652  1.00  0.00     0.016 A 
ATOM     14  C   UNL     1      22.748  37.836   9.257  1.00  0.00     0.051 A 
ATOM     15  C   UNL     1      22.698  36.523   8.777  1.00  0.00     0.157 A 
ATOM     16  C   UNL     1      21.133  37.240   7.061  1.00  0.00     0.062 A 
ATOM     17  C   UNL     1      21.882  36.222   7.661  1.00  0.00     0.158 A 
BRANCH  15  18
ATOM     18  O   UNL     1      23.471  35.559   9.430  1.00  0.00    -0.504 OA
ATOM     19  H   UNL     1      23.134  34.988  10.192  1.00  0.00     0.293 HD
ENDBRANCH  15  18
BRANCH  17  20
ATOM     20  O   UNL     1      21.788  34.938   7.121  1.00  0.00    -0.504 OA
ATOM     21  H   UNL     1      22.458  34.202   7.293  1.00  0.00     0.293 HD
ENDBRANCH  17  20
ENDBRANCH   1  12
BRANCH   2  22
ATOM     22  O   UNL     1      21.896  39.671   4.985  1.00  0.00    -0.502 OA
ATOM     23  H   UNL     1      22.715  40.256   4.873  1.00  0.00     0.293 HD
ENDBRANCH   2  22
BRANCH   6  24
ATOM     24  O   UNL     1      17.909  43.023   3.876  1.00  0.00    -0.507 OA
ATOM     25  H   UNL     1      17.104  43.212   3.298  1.00  0.00     0.293 HD
ENDBRANCH   6  24
BRANCH   8  26
ATOM     26  O   UNL     1      15.556  42.945   8.062  1.00  0.00    -0.508 OA
ATOM     27  H   UNL     1      15.497  42.722   9.049  1.00  0.00     0.293 HD
ENDBRANCH   8  26
TORSDOF 6
ENDMDL
MODEL 5
REMARK VINA RESULT:    -5.828      3.538      5.265
REMARK INTER + INTRA:          -7.325
REMARK INTER:                  -7.362
REMARK INTRA:                   0.037
REMARK UNBOUND:                -0.304
REMARK SMILES O=c1c(O)c(-c2ccc(O)c(O)c2)oc2cc(O)cc(O)c12
REMARK SMILES IDX 5 1 3 2 2 3 1 4 22 5 20 6 19 7 17 8 16 9 15 10 14 11 6 12
REMARK SMILES IDX 7 13 8 14 9 15 13 16 11 17 10 18 12 20 4 22 21 24 18 26
REMARK H PARENT 10 19 12 21 4 23 21 25 18 27
REMARK Flexibility Score: inf
ROOT
ATOM      1  C   UNL     1      20.893  40.358   4.148  1.00  0.00     0.180 A 
ATOM      2  C   UNL     1      21.140  38.999   3.887  1.00  0.00     0.208 A 
ATOM      3  C   UNL     1      21.451  38.146   4.958  1.00  0.00     0.238 A 
ATOM      4  O   UNL     1      21.618  36.920   4.726  1.00  0.00    -0.285 OA
ATOM      5  C   UNL     1      21.528  38.664   6.273  1.00  0.00     0.111 A 
ATOM      6  C   UNL     1      21.875  37.900   7.426  1.00  0.00     0.134 A 
ATOM      7  C   UNL     1      21.791  38.487   8.695  1.00  0.00     0.093 A 
ATOM      8  C   UNL     1      21.437  39.829   8.845  1.00  0.00     0.123 A 
ATOM      9  C   UNL     1      21.154  40.600   7.721  1.00  0.00     0.094 A 
ATOM     10  C   UNL     1      21.193  40.033   6.444  1.00  0.00     0.146 A 
ATOM     11  O   UNL     1      20.907  40.800   5.400  1.00  0.00    -0.452 OA
ENDROOT
BRANCH   1  12
ATOM     12  C   UNL     1      20.583  41.324   3.069  1.00  0.00     0.025 A 
ATOM     13  C   UNL     1      21.327  41.354   1.879  1.00  0.00     0.016 A 
ATOM     14  C   UNL     1      21.031  42.290   0.886  1.00  0.00     0.051 A 
ATOM     15  C   UNL     1      20.001  43.219   1.064  1.00  0.00     0.157 A 
ATOM     16  C   UNL     1      19.563  42.269   3.259  1.00  0.00     0.062 A 
ATOM     17  C   UNL     1      19.258  43.211   2.268  1.00  0.00     0.158 A 
BRANCH  15  18
ATOM     18  O   UNL     1      19.753  44.125   0.029  1.00  0.00    -0.504 OA
ATOM     19  H   UNL     1      20.396  44.852  -0.250  1.00  0.00     0.293 HD
ENDBRANCH  15  18
BRANCH  17  20
ATOM     20  O   UNL     1      18.223  44.112   2.521  1.00  0.00    -0.504 OA
ATOM     21  H   UNL     1      18.054  44.540   3.420  1.00  0.00     0.293 HD
ENDBRANCH  17  20
ENDBRANCH   1  12
BRANCH   2  22
ATOM     22  O   UNL     1      21.038  38.504   2.584  1.00  0.00    -0.502 OA
ATOM     23  H   UNL     1      20.520  38.983   1.858  1.00  0.00     0.293 HD
ENDBRANCH   2  22
BRANCH   6  24
ATOM     24  O   UNL     1      22.330  36.579   7.380  1.00  0.00    -0.507 OA
ATOM     25  H   UNL     1      22.466  36.047   6.533  1.00  0.00     0.293 HD
ENDBRANCH   6  24
BRANCH   8  26
ATOM     26  O   UNL     1      21.372  40.411  10.110  1.00  0.00    -0.508 OA
ATOM     27  H   UNL     1      22.062  41.086  10.419  1.00  0.00     0.293 HD
ENDBRANCH   8  26
TORSDOF 6
ENDMDL
MODEL 6
REMARK VINA RESULT:    -5.798      1.698      3.496
REMARK INTER + INTRA:          -7.287
REMARK INTER:                  -6.965
REMARK INTRA:                  -0.323
REMARK UNBOUND:                -0.304
REMARK SMILES O=c1c(O)c(-c2ccc(O)c(O)c2)oc2cc(O)cc(O)c12
REMARK SMILES IDX 5 1 3 2 2 3 1 4 22 5 20 6 19 7 17 8 16 9 15 10 14 11 6 12
REMARK SMILES IDX 7 13 8 14 9 15 13 16 11 17 10 18 12 20 4 22 21 24 18 26
REMARK H PARENT 10 19 12 21 4 23 21 25 18 27
REMARK Flexibility Score: inf
ROOT
ATOM      1  C   UNL     1      18.835  41.646   5.997  1.00  0.00     0.180 A 
ATOM      2  C   UNL     1      19.698  40.612   6.397  1.00  0.00     0.208 A 
ATOM      3  C   UNL     1      20.710  40.192   5.519  1.00  0.00     0.238 A 
ATOM      4  O   UNL     1      21.514  39.303   5.903  1.00  0.00    -0.285 OA
ATOM      5  C   UNL     1      20.835  40.798   4.246  1.00  0.00     0.111 A 
ATOM      6  C   UNL     1      21.797  40.424   3.261  1.00  0.00     0.134 A 
ATOM      7  C   UNL     1      21.915  41.182   2.088  1.00  0.00     0.093 A 
ATOM      8  C   UNL     1      21.061  42.258   1.837  1.00  0.00     0.123 A 
ATOM      9  C   UNL     1      20.079  42.594   2.766  1.00  0.00     0.094 A 
ATOM     10  C   UNL     1      19.961  41.881   3.962  1.00  0.00     0.146 A 
ATOM     11  O   UNL     1      19.019  42.240   4.824  1.00  0.00    -0.452 OA
ENDROOT
BRANCH   1  12
ATOM     12  C   UNL     1      17.729  42.126   6.858  1.00  0.00     0.025 A 
ATOM     13  C   UNL     1      17.931  43.137   7.811  1.00  0.00     0.016 A 
ATOM     14  C   UNL     1      16.879  43.557   8.627  1.00  0.00     0.051 A 
ATOM     15  C   UNL     1      15.613  42.972   8.518  1.00  0.00     0.157 A 
ATOM     16  C   UNL     1      16.465  41.523   6.762  1.00  0.00     0.062 A 
ATOM     17  C   UNL     1      15.404  41.938   7.575  1.00  0.00     0.158 A 
BRANCH  15  18
ATOM     18  O   UNL     1      14.602  43.441   9.361  1.00  0.00    -0.504 OA
ATOM     19  H   UNL     1      13.971  44.193   9.122  1.00  0.00     0.293 HD
ENDBRANCH  15  18
BRANCH  17  20
ATOM     20  O   UNL     1      14.172  41.301   7.415  1.00  0.00    -0.504 OA
ATOM     21  H   UNL     1      14.063  40.305   7.293  1.00  0.00     0.293 HD
ENDBRANCH  17  20
ENDBRANCH   1  12
BRANCH   2  22
ATOM     22  O   UNL     1      19.571  40.041   7.666  1.00  0.00    -0.502 OA
ATOM     23  H   UNL     1      19.813  39.076   7.856  1.00  0.00     0.293 HD
ENDBRANCH   2  22
BRANCH   6  24
ATOM     24  O   UNL     1      22.635  39.311   3.371  1.00  0.00    -0.507 OA
ATOM     25  H   UNL     1      23.424  39.246   3.997  1.00  0.00     0.293 HD
ENDBRANCH   6  24
BRANCH   8  26
ATOM     26  O   UNL     1      21.174  42.995   0.660  1.00  0.00    -0.508 OA
ATOM     27  H   UNL     1      20.468  42.947  -0.066  1.00  0.00     0.293 HD
ENDBRANCH   8  26
TORSDOF 6
ENDMDL
MODEL 7
REMARK VINA RESULT:    -5.793      1.832      2.459
REMARK INTER + INTRA:          -7.282
REMARK INTER:                  -6.961
REMARK INTRA:                  -0.321
REMARK UNBOUND:                -0.304
REMARK SMILES O=c1c(O)c(-c2ccc(O)c(O)c2)oc2cc(O)cc(O)c12
REMARK SMILES IDX 5 1 3 2 2 3 1 4 22 5 20 6 19 7 17 8 16 9 15 10 14 11 6 12
REMARK SMILES IDX 7 13 8 14 9 15 13 16 11 17 10 18 12 20 4 22 21 24 18 26
REMARK H PARENT 10 19 12 21 4 23 21 25 18 27
REMARK Flexibility Score: inf
ROOT
ATOM      1  C   UNL     1      18.459  41.943   5.721  1.00  0.00     0.180 A 
ATOM      2  C   UNL     1      18.559  42.981   4.780  1.00  0.00     0.208 A 
ATOM      3  C   UNL     1      19.498  42.870   3.742  1.00  0.00     0.238 A 
ATOM      4  O   UNL     1      19.547  43.777   2.871  1.00  0.00    -0.285 OA
ATOM      5  C   UNL     1      20.335  41.731   3.667  1.00  0.00     0.111 A 
ATOM      6  C   UNL     1      21.348  41.532   2.682  1.00  0.00     0.134 A 
ATOM      7  C   UNL     1      22.026  40.308   2.625  1.00  0.00     0.093 A 
ATOM      8  C   UNL     1      21.774  39.302   3.560  1.00  0.00     0.123 A 
ATOM      9  C   UNL     1      20.829  39.508   4.562  1.00  0.00     0.094 A 
ATOM     10  C   UNL     1      20.110  40.705   4.622  1.00  0.00     0.146 A 
ATOM     11  O   UNL     1      19.211  40.857   5.587  1.00  0.00    -0.452 OA
ENDROOT
BRANCH   1  12
ATOM     12  C   UNL     1      17.511  41.999   6.858  1.00  0.00     0.025 A 
ATOM     13  C   UNL     1      17.911  42.466   8.121  1.00  0.00     0.016 A 
ATOM     14  C   UNL     1      17.006  42.487   9.184  1.00  0.00     0.051 A 
ATOM     15  C   UNL     1      15.694  42.033   9.014  1.00  0.00     0.157 A 
ATOM     16  C   UNL     1      16.201  41.523   6.692  1.00  0.00     0.062 A 
ATOM     17  C   UNL     1      15.287  41.541   7.752  1.00  0.00     0.158 A 
BRANCH  15  18
ATOM     18  O   UNL     1      14.837  42.086  10.116  1.00  0.00    -0.504 OA
ATOM     19  H   UNL     1      14.853  41.421  10.876  1.00  0.00     0.293 HD
ENDBRANCH  15  18
BRANCH  17  20
ATOM     20  O   UNL     1      13.998  41.063   7.509  1.00  0.00    -0.504 OA
ATOM     21  H   UNL     1      13.287  41.581   7.014  1.00  0.00     0.293 HD
ENDBRANCH  17  20
ENDBRANCH   1  12
BRANCH   2  22
ATOM     22  O   UNL     1      17.709  44.087   4.860  1.00  0.00    -0.502 OA
ATOM     23  H   UNL     1      17.910  44.963   4.393  1.00  0.00     0.293 HD
ENDBRANCH   2  22
BRANCH   6  24
ATOM     24  O   UNL     1      21.742  42.507   1.760  1.00  0.00    -0.507 OA
ATOM     25  H   UNL     1      21.476  42.518   0.787  1.00  0.00     0.293 HD
ENDBRANCH   6  24
BRANCH   8  26
ATOM     26  O   UNL     1      22.465  38.093   3.507  1.00  0.00    -0.508 OA
ATOM     27  H   UNL     1      23.084  37.869   2.736  1.00  0.00     0.293 HD
ENDBRANCH   8  26
TORSDOF 6
ENDMDL
MODEL 8
REMARK VINA RESULT:    -5.724      2.519      6.285
REMARK INTER + INTRA:          -7.198
REMARK INTER:                  -7.040
REMARK INTRA:                  -0.158
REMARK UNBOUND:                -0.304
REMARK SMILES O=c1c(O)c(-c2ccc(O)c(O)c2)oc2cc(O)cc(O)c12
REMARK SMILES IDX 5 1 3 2 2 3 1 4 22 5 20 6 19 7 17 8 16 9 15 10 14 11 6 12
REMARK SMILES IDX 7 13 8 14 9 15 13 16 11 17 10 18 12 20 4 22 21 24 18 26
REMARK H PARENT 10 19 12 21 4 23 21 25 18 27
REMARK Flexibility Score: inf
ROOT
ATOM      1  C   UNL     1      20.680  39.848   6.225  1.00  0.00     0.180 A 
ATOM      2  C   UNL     1      19.680  40.701   6.723  1.00  0.00     0.208 A 
ATOM      3  C   UNL     1      19.220  41.754   5.915  1.00  0.00     0.238 A 
ATOM      4  O   UNL     1      18.287  42.482   6.344  1.00  0.00    -0.285 OA
ATOM      5  C   UNL     1      19.776  41.950   4.628  1.00  0.00     0.111 A 
ATOM      6  C   UNL     1      19.414  43.008   3.742  1.00  0.00     0.134 A 
ATOM      7  C   UNL     1      19.934  43.027   2.441  1.00  0.00     0.093 A 
ATOM      8  C   UNL     1      20.853  42.064   2.019  1.00  0.00     0.123 A 
ATOM      9  C   UNL     1      21.258  41.062   2.896  1.00  0.00     0.094 A 
ATOM     10  C   UNL     1      20.729  40.994   4.188  1.00  0.00     0.146 A 
ATOM     11  O   UNL     1      21.134  40.017   4.989  1.00  0.00    -0.452 OA
ENDROOT
BRANCH   1  12
ATOM     12  C   UNL     1      21.234  38.732   7.026  1.00  0.00     0.025 A 
ATOM     13  C   UNL     1      21.899  38.964   8.241  1.00  0.00     0.016 A 
ATOM     14  C   UNL     1      22.433  37.898   8.967  1.00  0.00     0.051 A 
ATOM     15  C   UNL     1      22.327  36.586   8.493  1.00  0.00     0.157 A 
ATOM     16  C   UNL     1      21.145  37.419   6.538  1.00  0.00     0.062 A 
ATOM     17  C   UNL     1      21.677  36.344   7.259  1.00  0.00     0.158 A 
BRANCH  15  18
ATOM     18  O   UNL     1      22.879  35.565   9.269  1.00  0.00    -0.504 OA
ATOM     19  H   UNL     1      23.691  35.680   9.860  1.00  0.00     0.293 HD
ENDBRANCH  15  18
BRANCH  17  20
ATOM     20  O   UNL     1      21.542  35.064   6.718  1.00  0.00    -0.504 OA
ATOM     21  H   UNL     1      22.306  34.531   6.330  1.00  0.00     0.293 HD
ENDBRANCH  17  20
ENDBRANCH   1  12
BRANCH   2  22
ATOM     22  O   UNL     1      19.130  40.477   7.987  1.00  0.00    -0.502 OA
ATOM     23  H   UNL     1      18.151  40.255   8.124  1.00  0.00     0.293 HD
ENDBRANCH   2  22
BRANCH   6  24
ATOM     24  O   UNL     1      18.576  44.070   4.094  1.00  0.00    -0.507 OA
ATOM     25  H   UNL     1      17.571  44.011   4.159  1.00  0.00     0.293 HD
ENDBRANCH   6  24
BRANCH   8  26
ATOM     26  O   UNL     1      21.378  42.101   0.728  1.00  0.00    -0.508 OA
ATOM     27  H   UNL     1      21.838  42.928   0.366  1.00  0.00     0.293 HD
ENDBRANCH   8  26
TORSDOF 6
ENDMDL
MODEL 9
REMARK VINA RESULT:    -5.529      1.507      2.938
REMARK INTER + INTRA:          -6.964
REMARK INTER:                  -6.725
REMARK INTRA:                  -0.240
REMARK UNBOUND:                -0.304
REMARK SMILES O=c1c(O)c(-c2ccc(O)c(O)c2)oc2cc(O)cc(O)c12
REMARK SMILES IDX 5 1 3 2 2 3 1 4 22 5 20 6 19 7 17 8 16 9 15 10 14 11 6 12
REMARK SMILES IDX 7 13 8 14 9 15 13 16 11 17 10 18 12 20 4 22 21 24 18 26
REMARK H PARENT 10 19 12 21 4 23 21 25 18 27
REMARK Flexibility Score: inf
ROOT
ATOM      1  C   UNL     1      19.201  40.663   7.469  1.00  0.00     0.180 A 
ATOM      2  C   UNL     1      20.211  40.001   8.188  1.00  0.00     0.208 A 
ATOM      3  C   UNL     1      21.082  39.140   7.502  1.00  0.00     0.238 A 
ATOM      4  O   UNL     1      22.018  38.592   8.140  1.00  0.00    -0.285 OA
ATOM      5  C   UNL     1      20.922  38.938   6.110  1.00  0.00     0.111 A 
ATOM      6  C   UNL     1      21.722  38.057   5.322  1.00  0.00     0.134 A 
ATOM      7  C   UNL     1      21.560  38.037   3.930  1.00  0.00     0.093 A 
ATOM      8  C   UNL     1      20.582  38.815   3.308  1.00  0.00     0.123 A 
ATOM      9  C   UNL     1      19.757  39.633   4.074  1.00  0.00     0.094 A 
ATOM     10  C   UNL     1      19.919  39.704   5.461  1.00  0.00     0.146 A 
ATOM     11  O   UNL     1      19.118  40.504   6.153  1.00  0.00    -0.452 OA
ENDROOT
BRANCH   1  12
ATOM     12  C   UNL     1      18.229  41.566   8.126  1.00  0.00     0.025 A 
ATOM     13  C   UNL     1      18.610  42.835   8.593  1.00  0.00     0.016 A 
ATOM     14  C   UNL     1      17.681  43.660   9.230  1.00  0.00     0.051 A 
ATOM     15  C   UNL     1      16.362  43.234   9.425  1.00  0.00     0.157 A 
ATOM     16  C   UNL     1      16.912  41.129   8.340  1.00  0.00     0.062 A 
ATOM     17  C   UNL     1      15.973  41.950   8.977  1.00  0.00     0.158 A 
BRANCH  15  18
ATOM     18  O   UNL     1      15.482  44.110  10.066  1.00  0.00    -0.504 OA
ATOM     19  H   UNL     1      14.937  44.813   9.587  1.00  0.00     0.293 HD
ENDBRANCH  15  18
BRANCH  17  20
ATOM     20  O   UNL     1      14.680  41.453   9.144  1.00  0.00    -0.504 OA
ATOM     21  H   UNL     1      14.347  41.018   9.992  1.00  0.00     0.293 HD
ENDBRANCH  17  20
ENDBRANCH   1  12
BRANCH   2  22
ATOM     22  O   UNL     1      20.364  40.230   9.558  1.00  0.00    -0.502 OA
ATOM     23  H   UNL     1      21.137  40.764   9.937  1.00  0.00     0.293 HD
ENDBRANCH   2  22
BRANCH   6  24
ATOM     24  O   UNL     1      22.662  37.170   5.853  1.00  0.00    -0.507 OA
ATOM     25  H   UNL     1      23.451  37.441   6.422  1.00  0.00     0.293 HD
ENDBRANCH   6  24
BRANCH   8  26
ATOM     26  O   UNL     1      20.417  38.776   1.925  1.00  0.00    -0.508 OA
ATOM     27  H   UNL     1      21.211  38.793   1.295  1.00  0.00     0.293 HD
ENDBRANCH   8  26
TORSDOF 6
ENDMDL
