MODEL 1
REMARK VINA RESULT:    -4.335      0.000      0.000
REMARK INTER + INTRA:          -5.733
REMARK INTER:                  -5.349
REMARK INTRA:                  -0.384
REMARK UNBOUND:                -0.384
REMARK SMILES Oc1cc(O)c2cc(O)c(-c3cc(O)c(O)c(O)c3)[o+]c2c1.[Cl-]
REMARK SMILES IDX 10 1 20 2 21 3 22 4 2 5 3 6 4 7 6 8 7 9 8 10 11 11 12 12
REMARK SMILES IDX 13 13 19 14 15 15 17 16 14 17 16 19 18 21 9 23 1 25 5 27
REMARK H PARENT 14 18 16 20 18 22 9 24 1 26 5 28
REMARK Flexibility Score: inf
ROOT
ATOM      1  C   UNL     1      10.378  -1.315  14.063  1.00  0.00     0.402 A 
ATOM      2  O   UNL     1      10.105  -2.457  13.436  1.00  0.00    -0.202 OA
ATOM      3  C   UNL     1      11.025  -3.371  13.151  1.00  0.00     0.368 A 
ATOM      4  C   UNL     1      10.641  -4.539  12.487  1.00  0.00     0.162 A 
ATOM      5  C   UNL     1      11.587  -5.515  12.171  1.00  0.00     0.128 A 
ATOM      6  C   UNL     1      12.929  -5.324  12.521  1.00  0.00     0.093 A 
ATOM      7  C   UNL     1      13.339  -4.163  13.188  1.00  0.00     0.136 A 
ATOM      8  C   UNL     1      12.380  -3.169  13.513  1.00  0.00     0.125 A 
ATOM      9  C   UNL     1      12.697  -1.981  14.190  1.00  0.00     0.078 A 
ATOM     10  C   UNL     1      11.696  -1.049  14.479  1.00  0.00     0.223 A 
ENDROOT
BRANCH   1  11
ATOM     11  C   UNL     1       9.266  -0.371  14.315  1.00  0.00     0.091 A 
ATOM     12  C   UNL     1       8.967   0.663  13.415  1.00  0.00     0.068 A 
ATOM     13  C   UNL     1       7.897   1.532  13.661  1.00  0.00     0.162 A 
ATOM     14  C   UNL     1       8.458  -0.543  15.449  1.00  0.00     0.068 A 
ATOM     15  C   UNL     1       7.104   1.372  14.806  1.00  0.00     0.200 A 
ATOM     16  C   UNL     1       7.386   0.318  15.708  1.00  0.00     0.162 A 
BRANCH  13  17
ATOM     17  O   UNL     1       7.609   2.561  12.764  1.00  0.00    -0.504 OA
ATOM     18  H   UNL     1       7.371   3.492  13.084  1.00  0.00     0.293 HD
ENDBRANCH  13  17
BRANCH  15  19
ATOM     19  O   UNL     1       6.053   2.272  15.008  1.00  0.00    -0.502 OA
ATOM     20  H   UNL     1       5.645   2.472  15.909  1.00  0.00     0.293 HD
ENDBRANCH  15  19
BRANCH  16  21
ATOM     21  O   UNL     1       6.634   0.091  16.862  1.00  0.00    -0.504 OA
ATOM     22  H   UNL     1       6.743  -0.718  17.458  1.00  0.00     0.293 HD
ENDBRANCH  16  21
ENDBRANCH   1  11
BRANCH  10  23
ATOM     23  O   UNL     1      12.002   0.107  15.197  1.00  0.00    -0.500 OA
ATOM     24  H   UNL     1      11.637   1.013  14.928  1.00  0.00     0.294 HD
ENDBRANCH  10  23
BRANCH   5  25
ATOM     25  O   UNL     1      11.184  -6.673  11.509  1.00  0.00    -0.507 OA
ATOM     26  H   UNL     1      10.499  -7.302  11.910  1.00  0.00     0.293 HD
ENDBRANCH   5  25
BRANCH   7  27
ATOM     27  O   UNL     1      14.696  -4.047  13.500  1.00  0.00    -0.507 OA
ATOM     28  H   UNL     1      15.251  -3.220  13.334  1.00  0.00     0.293 HD
ENDBRANCH   7  27
TORSDOF 7
ENDMDL
MODEL 2
REMARK VINA RESULT:    -4.228      2.336      7.335
REMARK INTER + INTRA:          -5.601
REMARK INTER:                  -5.318
REMARK INTRA:                  -0.283
REMARK UNBOUND:                -0.384
REMARK SMILES Oc1cc(O)c2cc(O)c(-c3cc(O)c(O)c(O)c3)[o+]c2c1.[Cl-]
REMARK SMILES IDX 10 1 20 2 21 3 22 4 2 5 3 6 4 7 6 8 7 9 8 10 11 11 12 12
REMARK SMILES IDX 13 13 19 14 15 15 17 16 14 17 16 19 18 21 9 23 1 25 5 27
REMARK H PARENT 14 18 16 20 18 22 9 24 1 26 5 28
REMARK Flexibility Score: inf
ROOT
ATOM      1  C   UNL     1      11.004   0.078  14.154  1.00  0.00     0.402 A 
ATOM      2  O   UNL     1      11.364   1.292  13.746  1.00  0.00    -0.202 OA
ATOM      3  C   UNL     1      10.514   2.168  13.223  1.00  0.00     0.368 A 
ATOM      4  C   UNL     1      10.988   3.420  12.820  1.00  0.00     0.162 A 
ATOM      5  C   UNL     1      10.118   4.358  12.264  1.00  0.00     0.128 A 
ATOM      6  C   UNL     1       8.763   4.047  12.109  1.00  0.00     0.093 A 
ATOM      7  C   UNL     1       8.262   2.800  12.505  1.00  0.00     0.136 A 
ATOM      8  C   UNL     1       9.143   1.843  13.073  1.00  0.00     0.125 A 
ATOM      9  C   UNL     1       8.729   0.575  13.510  1.00  0.00     0.078 A 
ATOM     10  C   UNL     1       9.656  -0.314  14.064  1.00  0.00     0.223 A 
ENDROOT
BRANCH   1  11
ATOM     11  C   UNL     1      12.048  -0.812  14.711  1.00  0.00     0.091 A 
ATOM     12  C   UNL     1      12.441  -1.983  14.045  1.00  0.00     0.068 A 
ATOM     13  C   UNL     1      13.446  -2.800  14.577  1.00  0.00     0.162 A 
ATOM     14  C   UNL     1      12.700  -0.453  15.900  1.00  0.00     0.068 A 
ATOM     15  C   UNL     1      14.080  -2.451  15.778  1.00  0.00     0.200 A 
ATOM     16  C   UNL     1      13.705  -1.260  16.444  1.00  0.00     0.162 A 
BRANCH  13  17
ATOM     17  O   UNL     1      13.826  -3.966  13.913  1.00  0.00    -0.504 OA
ATOM     18  H   UNL     1      14.094  -3.957  12.936  1.00  0.00     0.293 HD
ENDBRANCH  13  17
BRANCH  15  19
ATOM     19  O   UNL     1      15.071  -3.306  16.270  1.00  0.00    -0.502 OA
ATOM     20  H   UNL     1      15.411  -3.290  17.220  1.00  0.00     0.293 HD
ENDBRANCH  15  19
BRANCH  16  21
ATOM     21  O   UNL     1      14.299  -0.842  17.637  1.00  0.00    -0.504 OA
ATOM     22  H   UNL     1      13.793  -0.423  18.404  1.00  0.00     0.293 HD
ENDBRANCH  16  21
ENDBRANCH   1  11
BRANCH  10  23
ATOM     23  O   UNL     1       9.235  -1.554  14.544  1.00  0.00    -0.500 OA
ATOM     24  H   UNL     1       9.677  -1.994  15.343  1.00  0.00     0.294 HD
ENDBRANCH  10  23
BRANCH   5  25
ATOM     25  O   UNL     1      10.610   5.601  11.869  1.00  0.00    -0.507 OA
ATOM     26  H   UNL     1      11.121   5.717  11.001  1.00  0.00     0.293 HD
ENDBRANCH   5  25
BRANCH   7  27
ATOM     27  O   UNL     1       6.898   2.564  12.315  1.00  0.00    -0.507 OA
ATOM     28  H   UNL     1       6.372   1.845  12.788  1.00  0.00     0.293 HD
ENDBRANCH   7  27
TORSDOF 7
ENDMDL
MODEL 3
REMARK VINA RESULT:    -3.941     13.196     15.289
REMARK INTER + INTRA:          -5.247
REMARK INTER:                  -4.902
REMARK INTRA:                  -0.345
REMARK UNBOUND:                -0.384
REMARK SMILES Oc1cc(O)c2cc(O)c(-c3cc(O)c(O)c(O)c3)[o+]c2c1.[Cl-]
REMARK SMILES IDX 10 1 20 2 21 3 22 4 2 5 3 6 4 7 6 8 7 9 8 10 11 11 12 12
REMARK SMILES IDX 13 13 19 14 15 15 17 16 14 17 16 19 18 21 9 23 1 25 5 27
REMARK H PARENT 14 18 16 20 18 22 9 24 1 26 5 28
REMARK Flexibility Score: inf
ROOT
ATOM      1  C   UNL     1      12.364   8.298  25.171  1.00  0.00     0.402 A 
ATOM      2  O   UNL     1      12.178   7.557  24.081  1.00  0.00    -0.202 OA
ATOM      3  C   UNL     1      12.794   7.788  22.928  1.00  0.00     0.368 A 
ATOM      4  C   UNL     1      12.530   6.955  21.837  1.00  0.00     0.162 A 
ATOM      5  C   UNL     1      13.161   7.176  20.612  1.00  0.00     0.128 A 
ATOM      6  C   UNL     1      14.062   8.237  20.473  1.00  0.00     0.093 A 
ATOM      7  C   UNL     1      14.343   9.086  21.550  1.00  0.00     0.136 A 
ATOM      8  C   UNL     1      13.707   8.863  22.799  1.00  0.00     0.125 A 
ATOM      9  C   UNL     1      13.937   9.654  23.936  1.00  0.00     0.078 A 
ATOM     10  C   UNL     1      13.274   9.371  25.134  1.00  0.00     0.223 A 
ENDROOT
BRANCH   1  11
ATOM     11  C   UNL     1      11.610   7.946  26.395  1.00  0.00     0.091 A 
ATOM     12  C   UNL     1      10.260   8.297  26.548  1.00  0.00     0.068 A 
ATOM     13  C   UNL     1       9.558   7.935  27.705  1.00  0.00     0.162 A 
ATOM     14  C   UNL     1      12.238   7.198  27.401  1.00  0.00     0.068 A 
ATOM     15  C   UNL     1      10.195   7.207  28.720  1.00  0.00     0.200 A 
ATOM     16  C   UNL     1      11.550   6.830  28.563  1.00  0.00     0.162 A 
BRANCH  13  17
ATOM     17  O   UNL     1       8.219   8.293  27.853  1.00  0.00    -0.504 OA
ATOM     18  H   UNL     1       7.918   8.936  28.576  1.00  0.00     0.293 HD
ENDBRANCH  13  17
BRANCH  15  19
ATOM     19  O   UNL     1       9.451   6.878  29.857  1.00  0.00    -0.502 OA
ATOM     20  H   UNL     1       9.694   6.136  30.497  1.00  0.00     0.293 HD
ENDBRANCH  15  19
BRANCH  16  21
ATOM     21  O   UNL     1      12.246   6.096  29.525  1.00  0.00    -0.504 OA
ATOM     22  H   UNL     1      12.201   6.278  30.518  1.00  0.00     0.293 HD
ENDBRANCH  16  21
ENDBRANCH   1  11
BRANCH  10  23
ATOM     23  O   UNL     1      13.541  10.125  26.277  1.00  0.00    -0.500 OA
ATOM     24  H   UNL     1      13.273   9.805  27.200  1.00  0.00     0.294 HD
ENDBRANCH  10  23
BRANCH   5  25
ATOM     25  O   UNL     1      12.885   6.334  19.536  1.00  0.00    -0.507 OA
ATOM     26  H   UNL     1      12.077   5.722  19.536  1.00  0.00     0.293 HD
ENDBRANCH   5  25
BRANCH   7  27
ATOM     27  O   UNL     1      15.252  10.124  21.331  1.00  0.00    -0.507 OA
ATOM     28  H   UNL     1      15.369  10.604  20.450  1.00  0.00     0.293 HD
ENDBRANCH   7  27
TORSDOF 7
ENDMDL
MODEL 4
REMARK VINA RESULT:    -3.932      2.193      7.153
REMARK INTER + INTRA:          -5.236
REMARK INTER:                  -4.905
REMARK INTRA:                  -0.331
REMARK UNBOUND:                -0.384
REMARK SMILES Oc1cc(O)c2cc(O)c(-c3cc(O)c(O)c(O)c3)[o+]c2c1.[Cl-]
REMARK SMILES IDX 10 1 20 2 21 3 22 4 2 5 3 6 4 7 6 8 7 9 8 10 11 11 12 12
REMARK SMILES IDX 13 13 19 14 15 15 17 16 14 17 16 19 18 21 9 23 1 25 5 27
REMARK H PARENT 14 18 16 20 18 22 9 24 1 26 5 28
REMARK Flexibility Score: inf
ROOT
ATOM      1  C   UNL     1      10.542   0.040  14.580  1.00  0.00     0.402 A 
ATOM      2  O   UNL     1       9.443  -0.156  15.306  1.00  0.00    -0.202 OA
ATOM      3  C   UNL     1       8.301   0.484  15.087  1.00  0.00     0.368 A 
ATOM      4  C   UNL     1       7.201   0.212  15.906  1.00  0.00     0.162 A 
ATOM      5  C   UNL     1       5.989   0.872  15.702  1.00  0.00     0.128 A 
ATOM      6  C   UNL     1       5.872   1.813  14.672  1.00  0.00     0.093 A 
ATOM      7  C   UNL     1       6.959   2.103  13.838  1.00  0.00     0.136 A 
ATOM      8  C   UNL     1       8.192   1.432  14.040  1.00  0.00     0.125 A 
ATOM      9  C   UNL     1       9.330   1.649  13.246  1.00  0.00     0.078 A 
ATOM     10  C   UNL     1      10.511   0.947  13.504  1.00  0.00     0.223 A 
ENDROOT
BRANCH   1  11
ATOM     11  C   UNL     1      11.758  -0.728  14.929  1.00  0.00     0.091 A 
ATOM     12  C   UNL     1      12.543  -0.389  16.042  1.00  0.00     0.068 A 
ATOM     13  C   UNL     1      13.678  -1.142  16.367  1.00  0.00     0.162 A 
ATOM     14  C   UNL     1      12.107  -1.853  14.166  1.00  0.00     0.068 A 
ATOM     15  C   UNL     1      14.038  -2.252  15.590  1.00  0.00     0.200 A 
ATOM     16  C   UNL     1      13.239  -2.614  14.479  1.00  0.00     0.162 A 
BRANCH  13  17
ATOM     17  O   UNL     1      14.456  -0.794  17.471  1.00  0.00    -0.504 OA
ATOM     18  H   UNL     1      15.198  -0.108  17.402  1.00  0.00     0.293 HD
ENDBRANCH  13  17
BRANCH  15  19
ATOM     19  O   UNL     1      15.184  -2.964  15.954  1.00  0.00    -0.502 OA
ATOM     20  H   UNL     1      16.122  -2.596  15.892  1.00  0.00     0.293 HD
ENDBRANCH  15  19
BRANCH  16  21
ATOM     21  O   UNL     1      13.528  -3.711  13.667  1.00  0.00    -0.504 OA
ATOM     22  H   UNL     1      13.003  -3.957  12.839  1.00  0.00     0.293 HD
ENDBRANCH  16  21
ENDBRANCH   1  11
BRANCH  10  23
ATOM     23  O   UNL     1      11.625   1.125  12.684  1.00  0.00    -0.500 OA
ATOM     24  H   UNL     1      12.477   1.551  13.028  1.00  0.00     0.294 HD
ENDBRANCH  10  23
BRANCH   5  25
ATOM     25  O   UNL     1       4.904   0.587  16.529  1.00  0.00    -0.507 OA
ATOM     26  H   UNL     1       4.098   0.075  16.188  1.00  0.00     0.293 HD
ENDBRANCH   5  25
BRANCH   7  27
ATOM     27  O   UNL     1       6.763   3.056  12.834  1.00  0.00    -0.507 OA
ATOM     28  H   UNL     1       5.947   3.101  12.241  1.00  0.00     0.293 HD
ENDBRANCH   7  27
TORSDOF 7
ENDMDL
MODEL 5
REMARK VINA RESULT:    -3.855      1.960      7.609
REMARK INTER + INTRA:          -5.140
REMARK INTER:                  -4.789
REMARK INTRA:                  -0.351
REMARK UNBOUND:                -0.384
REMARK SMILES Oc1cc(O)c2cc(O)c(-c3cc(O)c(O)c(O)c3)[o+]c2c1.[Cl-]
REMARK SMILES IDX 10 1 20 2 21 3 22 4 2 5 3 6 4 7 6 8 7 9 8 10 11 11 12 12
REMARK SMILES IDX 13 13 19 14 15 15 17 16 14 17 16 19 18 21 9 23 1 25 5 27
REMARK H PARENT 14 18 16 20 18 22 9 24 1 26 5 28
REMARK Flexibility Score: inf
ROOT
ATOM      1  C   UNL     1       8.524   0.515  14.517  1.00  0.00     0.402 A 
ATOM      2  O   UNL     1       8.347   1.427  13.563  1.00  0.00    -0.202 OA
ATOM      3  C   UNL     1       7.286   2.224  13.504  1.00  0.00     0.368 A 
ATOM      4  C   UNL     1       7.188   3.149  12.461  1.00  0.00     0.162 A 
ATOM      5  C   UNL     1       6.084   3.997  12.371  1.00  0.00     0.128 A 
ATOM      6  C   UNL     1       5.067   3.922  13.331  1.00  0.00     0.093 A 
ATOM      7  C   UNL     1       5.142   3.004  14.386  1.00  0.00     0.136 A 
ATOM      8  C   UNL     1       6.265   2.142  14.482  1.00  0.00     0.125 A 
ATOM      9  C   UNL     1       6.431   1.200  15.511  1.00  0.00     0.078 A 
ATOM     10  C   UNL     1       7.567   0.387  15.541  1.00  0.00     0.223 A 
ENDROOT
BRANCH   1  11
ATOM     11  C   UNL     1       9.744  -0.321  14.469  1.00  0.00     0.091 A 
ATOM     12  C   UNL     1       9.843  -1.420  13.601  1.00  0.00     0.068 A 
ATOM     13  C   UNL     1      11.015  -2.186  13.555  1.00  0.00     0.162 A 
ATOM     14  C   UNL     1      10.848   0.021  15.264  1.00  0.00     0.068 A 
ATOM     15  C   UNL     1      12.109  -1.856  14.368  1.00  0.00     0.200 A 
ATOM     16  C   UNL     1      12.024  -0.736  15.229  1.00  0.00     0.162 A 
BRANCH  13  17
ATOM     17  O   UNL     1      11.103  -3.280  12.695  1.00  0.00    -0.504 OA
ATOM     18  H   UNL     1      11.060  -3.170  11.689  1.00  0.00     0.293 HD
ENDBRANCH  13  17
BRANCH  15  19
ATOM     19  O   UNL     1      13.251  -2.658  14.288  1.00  0.00    -0.502 OA
ATOM     20  H   UNL     1      14.070  -2.534  14.865  1.00  0.00     0.293 HD
ENDBRANCH  15  19
BRANCH  16  21
ATOM     21  O   UNL     1      13.076  -0.341  16.058  1.00  0.00    -0.504 OA
ATOM     22  H   UNL     1      13.296  -0.780  16.941  1.00  0.00     0.293 HD
ENDBRANCH  16  21
ENDBRANCH   1  11
BRANCH  10  23
ATOM     23  O   UNL     1       7.757  -0.512  16.591  1.00  0.00    -0.500 OA
ATOM     24  H   UNL     1       8.171  -1.425  16.443  1.00  0.00     0.294 HD
ENDBRANCH  10  23
BRANCH   5  25
ATOM     25  O   UNL     1       6.004   4.912  11.324  1.00  0.00    -0.507 OA
ATOM     26  H   UNL     1       5.635   4.650  10.417  1.00  0.00     0.293 HD
ENDBRANCH   5  25
BRANCH   7  27
ATOM     27  O   UNL     1       4.086   2.989  15.301  1.00  0.00    -0.507 OA
ATOM     28  H   UNL     1       3.344   3.672  15.327  1.00  0.00     0.293 HD
ENDBRANCH   7  27
TORSDOF 7
ENDMDL
MODEL 6
REMARK VINA RESULT:    -3.851     11.257     14.172
REMARK INTER + INTRA:          -5.135
REMARK INTER:                  -4.884
REMARK INTRA:                  -0.251
REMARK UNBOUND:                -0.384
REMARK SMILES Oc1cc(O)c2cc(O)c(-c3cc(O)c(O)c(O)c3)[o+]c2c1.[Cl-]
REMARK SMILES IDX 10 1 20 2 21 3 22 4 2 5 3 6 4 7 6 8 7 9 8 10 11 11 12 12
REMARK SMILES IDX 13 13 19 14 15 15 17 16 14 17 16 19 18 21 9 23 1 25 5 27
REMARK H PARENT 14 18 16 20 18 22 9 24 1 26 5 28
REMARK Flexibility Score: inf
ROOT
ATOM      1  C   UNL     1      12.252   8.263  21.738  1.00  0.00     0.402 A 
ATOM      2  O   UNL     1      11.051   8.625  22.181  1.00  0.00    -0.202 OA
ATOM      3  C   UNL     1      10.718   8.629  23.467  1.00  0.00     0.368 A 
ATOM      4  C   UNL     1       9.428   9.024  23.834  1.00  0.00     0.162 A 
ATOM      5  C   UNL     1       9.050   9.034  25.177  1.00  0.00     0.128 A 
ATOM      6  C   UNL     1       9.965   8.647  26.163  1.00  0.00     0.093 A 
ATOM      7  C   UNL     1      11.263   8.248  25.821  1.00  0.00     0.136 A 
ATOM      8  C   UNL     1      11.653   8.239  24.456  1.00  0.00     0.125 A 
ATOM      9  C   UNL     1      12.935   7.866  24.021  1.00  0.00     0.078 A 
ATOM     10  C   UNL     1      13.247   7.886  22.659  1.00  0.00     0.223 A 
ENDROOT
BRANCH   1  11
ATOM     11  C   UNL     1      12.499   8.291  20.279  1.00  0.00     0.091 A 
ATOM     12  C   UNL     1      13.392   9.209  19.706  1.00  0.00     0.068 A 
ATOM     13  C   UNL     1      13.628   9.205  18.326  1.00  0.00     0.162 A 
ATOM     14  C   UNL     1      11.872   7.345  19.454  1.00  0.00     0.068 A 
ATOM     15  C   UNL     1      12.983   8.273  17.500  1.00  0.00     0.200 A 
ATOM     16  C   UNL     1      12.097   7.329  18.073  1.00  0.00     0.162 A 
BRANCH  13  17
ATOM     17  O   UNL     1      14.512  10.125  17.763  1.00  0.00    -0.504 OA
ATOM     18  H   UNL     1      15.088  10.729  18.338  1.00  0.00     0.293 HD
ENDBRANCH  13  17
BRANCH  15  19
ATOM     19  O   UNL     1      13.248   8.317  16.128  1.00  0.00    -0.502 OA
ATOM     20  H   UNL     1      13.741   9.071  15.671  1.00  0.00     0.293 HD
ENDBRANCH  15  19
BRANCH  16  21
ATOM     21  O   UNL     1      11.428   6.366  17.317  1.00  0.00    -0.504 OA
ATOM     22  H   UNL     1      11.816   5.464  17.077  1.00  0.00     0.293 HD
ENDBRANCH  16  21
ENDBRANCH   1  11
BRANCH  10  23
ATOM     23  O   UNL     1      14.536   7.565  22.232  1.00  0.00    -0.500 OA
ATOM     24  H   UNL     1      14.772   6.636  21.902  1.00  0.00     0.294 HD
ENDBRANCH  10  23
BRANCH   5  25
ATOM     25  O   UNL     1       7.759   9.431  25.523  1.00  0.00    -0.507 OA
ATOM     26  H   UNL     1       7.576   9.960  26.368  1.00  0.00     0.293 HD
ENDBRANCH   5  25
BRANCH   7  27
ATOM     27  O   UNL     1      12.116   7.874  26.862  1.00  0.00    -0.507 OA
ATOM     28  H   UNL     1      12.054   7.001  27.365  1.00  0.00     0.293 HD
ENDBRANCH   7  27
TORSDOF 7
ENDMDL
MODEL 7
REMARK VINA RESULT:    -3.823     10.984     13.408
REMARK INTER + INTRA:          -5.101
REMARK INTER:                  -4.739
REMARK INTRA:                  -0.362
REMARK UNBOUND:                -0.384
REMARK SMILES Oc1cc(O)c2cc(O)c(-c3cc(O)c(O)c(O)c3)[o+]c2c1.[Cl-]
REMARK SMILES IDX 10 1 20 2 21 3 22 4 2 5 3 6 4 7 6 8 7 9 8 10 11 11 12 12
REMARK SMILES IDX 13 13 19 14 15 15 17 16 14 17 16 19 18 21 9 23 1 25 5 27
REMARK H PARENT 14 18 16 20 18 22 9 24 1 26 5 28
REMARK Flexibility Score: inf
ROOT
ATOM      1  C   UNL     1      12.008   8.040  21.516  1.00  0.00     0.402 A 
ATOM      2  O   UNL     1      11.370   8.814  20.642  1.00  0.00    -0.202 OA
ATOM      3  C   UNL     1      11.320   8.556  19.340  1.00  0.00     0.368 A 
ATOM      4  C   UNL     1      10.626   9.431  18.500  1.00  0.00     0.162 A 
ATOM      5  C   UNL     1      10.559   9.187  17.128  1.00  0.00     0.128 A 
ATOM      6  C   UNL     1      11.190   8.060  16.588  1.00  0.00     0.093 A 
ATOM      7  C   UNL     1      11.890   7.167  17.409  1.00  0.00     0.136 A 
ATOM      8  C   UNL     1      11.958   7.410  18.805  1.00  0.00     0.125 A 
ATOM      9  C   UNL     1      12.627   6.564  19.705  1.00  0.00     0.078 A 
ATOM     10  C   UNL     1      12.648   6.868  21.070  1.00  0.00     0.223 A 
ENDROOT
BRANCH   1  11
ATOM     11  C   UNL     1      12.002   8.439  22.942  1.00  0.00     0.091 A 
ATOM     12  C   UNL     1      10.922   8.130  23.783  1.00  0.00     0.068 A 
ATOM     13  C   UNL     1      10.945   8.498  25.134  1.00  0.00     0.162 A 
ATOM     14  C   UNL     1      13.121   9.092  23.481  1.00  0.00     0.068 A 
ATOM     15  C   UNL     1      12.055   9.170  25.665  1.00  0.00     0.200 A 
ATOM     16  C   UNL     1      13.157   9.466  24.829  1.00  0.00     0.162 A 
BRANCH  13  17
ATOM     17  O   UNL     1       9.865   8.193  25.962  1.00  0.00    -0.504 OA
ATOM     18  H   UNL     1       9.614   7.235  26.175  1.00  0.00     0.293 HD
ENDBRANCH  13  17
BRANCH  15  19
ATOM     19  O   UNL     1      12.024   9.521  27.018  1.00  0.00    -0.502 OA
ATOM     20  H   UNL     1      11.279  10.051  27.448  1.00  0.00     0.293 HD
ENDBRANCH  15  19
BRANCH  16  21
ATOM     21  O   UNL     1      14.300  10.123  25.289  1.00  0.00    -0.504 OA
ATOM     22  H   UNL     1      14.492  10.308  26.264  1.00  0.00     0.293 HD
ENDBRANCH  16  21
ENDBRANCH   1  11
BRANCH  10  23
ATOM     23  O   UNL     1      13.268   6.001  21.970  1.00  0.00    -0.500 OA
ATOM     24  H   UNL     1      14.277   5.939  22.040  1.00  0.00     0.294 HD
ENDBRANCH  10  23
BRANCH   5  25
ATOM     25  O   UNL     1       9.863  10.071  16.306  1.00  0.00    -0.507 OA
ATOM     26  H   UNL     1       9.768  11.052  16.543  1.00  0.00     0.293 HD
ENDBRANCH   5  25
BRANCH   7  27
ATOM     27  O   UNL     1      12.494   6.067  16.794  1.00  0.00    -0.507 OA
ATOM     28  H   UNL     1      13.367   6.104  16.288  1.00  0.00     0.293 HD
ENDBRANCH   7  27
TORSDOF 7
ENDMDL
MODEL 8
REMARK VINA RESULT:    -3.790      9.182     10.975
REMARK INTER + INTRA:          -5.060
REMARK INTER:                  -4.713
REMARK INTRA:                  -0.347
REMARK UNBOUND:                -0.384
REMARK SMILES Oc1cc(O)c2cc(O)c(-c3cc(O)c(O)c(O)c3)[o+]c2c1.[Cl-]
REMARK SMILES IDX 10 1 20 2 21 3 22 4 2 5 3 6 4 7 6 8 7 9 8 10 11 11 12 12
REMARK SMILES IDX 13 13 19 14 15 15 17 16 14 17 16 19 18 21 9 23 1 25 5 27
REMARK H PARENT 14 18 16 20 18 22 9 24 1 26 5 28
REMARK Flexibility Score: inf
ROOT
ATOM      1  C   UNL     1       9.913  -7.425  20.572  1.00  0.00     0.402 A 
ATOM      2  O   UNL     1      10.061  -7.916  21.800  1.00  0.00    -0.202 OA
ATOM      3  C   UNL     1       9.086  -8.528  22.464  1.00  0.00     0.368 A 
ATOM      4  C   UNL     1       9.338  -9.009  23.752  1.00  0.00     0.162 A 
ATOM      5  C   UNL     1       8.333  -9.652  24.473  1.00  0.00     0.128 A 
ATOM      6  C   UNL     1       7.064  -9.818  23.906  1.00  0.00     0.093 A 
ATOM      7  C   UNL     1       6.787  -9.346  22.617  1.00  0.00     0.136 A 
ATOM      8  C   UNL     1       7.807  -8.693  21.879  1.00  0.00     0.125 A 
ATOM      9  C   UNL     1       7.624  -8.199  20.577  1.00  0.00     0.078 A 
ATOM     10  C   UNL     1       8.679  -7.570  19.910  1.00  0.00     0.223 A 
ENDROOT
BRANCH   1  11
ATOM     11  C   UNL     1      11.072  -6.754  19.941  1.00  0.00     0.091 A 
ATOM     12  C   UNL     1      11.429  -5.440  20.278  1.00  0.00     0.068 A 
ATOM     13  C   UNL     1      12.542  -4.832  19.686  1.00  0.00     0.162 A 
ATOM     14  C   UNL     1      11.865  -7.464  19.027  1.00  0.00     0.068 A 
ATOM     15  C   UNL     1      13.321  -5.535  18.755  1.00  0.00     0.200 A 
ATOM     16  C   UNL     1      12.980  -6.868  18.426  1.00  0.00     0.162 A 
BRANCH  13  17
ATOM     17  O   UNL     1      12.888  -3.523  20.021  1.00  0.00    -0.504 OA
ATOM     18  H   UNL     1      12.637  -2.740  19.429  1.00  0.00     0.293 HD
ENDBRANCH  13  17
BRANCH  15  19
ATOM     19  O   UNL     1      14.417  -4.878  18.187  1.00  0.00    -0.502 OA
ATOM     20  H   UNL     1      14.345  -4.060  17.599  1.00  0.00     0.293 HD
ENDBRANCH  15  19
BRANCH  16  21
ATOM     21  O   UNL     1      13.714  -7.633  17.517  1.00  0.00    -0.504 OA
ATOM     22  H   UNL     1      14.613  -7.361  17.145  1.00  0.00     0.293 HD
ENDBRANCH  16  21
ENDBRANCH   1  11
BRANCH  10  23
ATOM     23  O   UNL     1       8.512  -7.125  18.598  1.00  0.00    -0.500 OA
ATOM     24  H   UNL     1       9.208  -6.551  18.138  1.00  0.00     0.294 HD
ENDBRANCH  10  23
BRANCH   5  25
ATOM     25  O   UNL     1       8.604 -10.125  25.756  1.00  0.00    -0.507 OA
ATOM     26  H   UNL     1       8.756 -11.110  25.937  1.00  0.00     0.293 HD
ENDBRANCH   5  25
BRANCH   7  27
ATOM     27  O   UNL     1       5.495  -9.548  22.123  1.00  0.00    -0.507 OA
ATOM     28  H   UNL     1       5.269  -9.658  21.145  1.00  0.00     0.293 HD
ENDBRANCH   7  27
TORSDOF 7
ENDMDL
MODEL 9
REMARK VINA RESULT:    -3.741     10.952     13.253
REMARK INTER + INTRA:          -5.000
REMARK INTER:                  -4.924
REMARK INTRA:                  -0.076
REMARK UNBOUND:                -0.384
REMARK SMILES Oc1cc(O)c2cc(O)c(-c3cc(O)c(O)c(O)c3)[o+]c2c1.[Cl-]
REMARK SMILES IDX 10 1 20 2 21 3 22 4 2 5 3 6 4 7 6 8 7 9 8 10 11 11 12 12
REMARK SMILES IDX 13 13 19 14 15 15 17 16 14 17 16 19 18 21 9 23 1 25 5 27
REMARK H PARENT 14 18 16 20 18 22 9 24 1 26 5 28
REMARK Flexibility Score: inf
ROOT
ATOM      1  C   UNL     1      11.907   7.923  21.880  1.00  0.00     0.402 A 
ATOM      2  O   UNL     1      10.892   8.228  21.076  1.00  0.00    -0.202 OA
ATOM      3  C   UNL     1      10.839   7.867  19.799  1.00  0.00     0.368 A 
ATOM      4  C   UNL     1       9.730   8.238  19.033  1.00  0.00     0.162 A 
ATOM      5  C   UNL     1       9.649   7.876  17.688  1.00  0.00     0.128 A 
ATOM      6  C   UNL     1      10.683   7.137  17.101  1.00  0.00     0.093 A 
ATOM      7  C   UNL     1      11.804   6.753  17.847  1.00  0.00     0.136 A 
ATOM      8  C   UNL     1      11.889   7.117  19.216  1.00  0.00     0.125 A 
ATOM      9  C   UNL     1      12.968   6.766  20.043  1.00  0.00     0.078 A 
ATOM     10  C   UNL     1      12.980   7.158  21.385  1.00  0.00     0.223 A 
ENDROOT
BRANCH   1  11
ATOM     11  C   UNL     1      11.856   8.392  23.283  1.00  0.00     0.091 A 
ATOM     12  C   UNL     1      12.950   9.036  23.880  1.00  0.00     0.068 A 
ATOM     13  C   UNL     1      12.873   9.492  25.201  1.00  0.00     0.162 A 
ATOM     14  C   UNL     1      10.670   8.241  24.018  1.00  0.00     0.068 A 
ATOM     15  C   UNL     1      11.695   9.320  25.942  1.00  0.00     0.200 A 
ATOM     16  C   UNL     1      10.578   8.691  25.340  1.00  0.00     0.162 A 
BRANCH  13  17
ATOM     17  O   UNL     1      13.967  10.125  25.790  1.00  0.00    -0.504 OA
ATOM     18  H   UNL     1      13.936  10.459  26.746  1.00  0.00     0.293 HD
ENDBRANCH  13  17
BRANCH  15  19
ATOM     19  O   UNL     1      11.673   9.786  27.259  1.00  0.00    -0.502 OA
ATOM     20  H   UNL     1      12.442  10.269  27.701  1.00  0.00     0.293 HD
ENDBRANCH  15  19
BRANCH  16  21
ATOM     21  O   UNL     1       9.370   8.495  26.010  1.00  0.00    -0.504 OA
ATOM     22  H   UNL     1       9.296   8.120  26.946  1.00  0.00     0.293 HD
ENDBRANCH  16  21
ENDBRANCH   1  11
BRANCH  10  23
ATOM     23  O   UNL     1      14.027   6.766  22.219  1.00  0.00    -0.500 OA
ATOM     24  H   UNL     1      14.692   7.434  22.590  1.00  0.00     0.294 HD
ENDBRANCH  10  23
BRANCH   5  25
ATOM     25  O   UNL     1       8.535   8.255  16.941  1.00  0.00    -0.507 OA
ATOM     26  H   UNL     1       7.672   7.724  16.970  1.00  0.00     0.293 HD
ENDBRANCH   5  25
BRANCH   7  27
ATOM     27  O   UNL     1      12.794   6.020  17.188  1.00  0.00    -0.507 OA
ATOM     28  H   UNL     1      13.555   6.429  16.665  1.00  0.00     0.293 HD
ENDBRANCH   7  27
TORSDOF 7
ENDMDL
