MODEL 1
REMARK VINA RESULT:    -3.623      0.000      0.000
REMARK INTER + INTRA:          -4.379
REMARK INTER:                  -4.259
REMARK INTRA:                  -0.121
REMARK UNBOUND:                -0.121
REMARK SMILES O=C([O-])CCC(=O)[O-]
REMARK SMILES IDX 4 1 2 2 1 3 3 4 5 5 6 6 7 7 8 8
REMARK H PARENT
REMARK Flexibility Score: inf
ROOT
ATOM      1  C   UNL     1      19.947   6.198   9.488  1.00  0.00     0.059 C 
ENDROOT
BRANCH   1   2
ATOM      2  C   UNL     1      19.151   6.473  10.726  1.00  0.00     0.042 C 
ATOM      3  O   UNL     1      18.420   5.575  11.222  1.00  0.00    -0.550 OA
ATOM      4  O   UNL     1      19.183   7.733  11.310  1.00  0.00    -0.550 OA
ENDBRANCH   1   2
BRANCH   1   5
ATOM      5  C   UNL     1      19.326   6.866   8.257  1.00  0.00     0.059 C 
BRANCH   5   6
ATOM      6  C   UNL     1      20.133   8.044   7.803  1.00  0.00     0.042 C 
ATOM      7  O   UNL     1      19.919   8.563   6.676  1.00  0.00    -0.550 OA
ATOM      8  O   UNL     1      21.094   8.593   8.643  1.00  0.00    -0.550 OA
ENDBRANCH   5   6
ENDBRANCH   1   5
TORSDOF 3
ENDMDL
MODEL 2
REMARK VINA RESULT:    -3.606      0.093      3.785
REMARK INTER + INTRA:          -4.359
REMARK INTER:                  -4.243
REMARK INTRA:                  -0.116
REMARK UNBOUND:                -0.121
REMARK SMILES O=C([O-])CCC(=O)[O-]
REMARK SMILES IDX 4 1 2 2 1 3 3 4 5 5 6 6 7 7 8 8
REMARK H PARENT
REMARK Flexibility Score: inf
ROOT
ATOM      1  C   UNL     1      19.307   6.839   8.262  1.00  0.00     0.059 C 
ENDROOT
BRANCH   1   2
ATOM      2  C   UNL     1      20.078   8.029   7.780  1.00  0.00     0.042 C 
ATOM      3  O   UNL     1      19.867   8.498   6.630  1.00  0.00    -0.550 OA
ATOM      4  O   UNL     1      21.059   8.596   8.584  1.00  0.00    -0.550 OA
ENDBRANCH   1   2
BRANCH   1   5
ATOM      5  C   UNL     1      19.955   6.210   9.500  1.00  0.00     0.059 C 
BRANCH   5   6
ATOM      6  C   UNL     1      19.192   6.535  10.747  1.00  0.00     0.042 C 
ATOM      7  O   UNL     1      18.433   5.676  11.269  1.00  0.00    -0.550 OA
ATOM      8  O   UNL     1      19.350   7.774  11.355  1.00  0.00    -0.550 OA
ENDBRANCH   5   6
ENDBRANCH   1   5
TORSDOF 3
ENDMDL
MODEL 3
REMARK VINA RESULT:    -3.513      1.035      3.832
REMARK INTER + INTRA:          -4.250
REMARK INTER:                  -4.173
REMARK INTRA:                  -0.077
REMARK UNBOUND:                -0.121
REMARK SMILES O=C([O-])CCC(=O)[O-]
REMARK SMILES IDX 4 1 2 2 1 3 3 4 5 5 6 6 7 7 8 8
REMARK H PARENT
REMARK Flexibility Score: inf
ROOT
ATOM      1  C   UNL     1      20.340   8.157   8.950  1.00  0.00     0.059 C 
ENDROOT
BRANCH   1   2
ATOM      2  C   UNL     1      19.815   7.948   7.563  1.00  0.00     0.042 C 
ATOM      3  O   UNL     1      19.039   6.987   7.317  1.00  0.00    -0.550 OA
ATOM      4  O   UNL     1      20.214   8.791   6.534  1.00  0.00    -0.550 OA
ENDBRANCH   1   2
BRANCH   1   5
ATOM      5  C   UNL     1      20.297   6.864   9.771  1.00  0.00     0.059 C 
BRANCH   5   6
ATOM      6  C   UNL     1      19.191   6.889  10.781  1.00  0.00     0.042 C 
ATOM      7  O   UNL     1      18.788   7.984  11.253  1.00  0.00    -0.550 OA
ATOM      8  O   UNL     1      18.578   5.705  11.170  1.00  0.00    -0.550 OA
ENDBRANCH   5   6
ENDBRANCH   1   5
TORSDOF 3
ENDMDL
MODEL 4
REMARK VINA RESULT:    -3.379      1.899      2.155
REMARK INTER + INTRA:          -4.092
REMARK INTER:                  -3.998
REMARK INTRA:                  -0.094
REMARK UNBOUND:                -0.121
REMARK SMILES O=C([O-])CCC(=O)[O-]
REMARK SMILES IDX 4 1 2 2 1 3 3 4 5 5 6 6 7 7 8 8
REMARK H PARENT
REMARK Flexibility Score: inf
ROOT
ATOM      1  C   UNL     1      20.235   6.840   9.168  1.00  0.00     0.059 C 
ENDROOT
BRANCH   1   2
ATOM      2  C   UNL     1      19.450   6.498  10.397  1.00  0.00     0.042 C 
ATOM      3  O   UNL     1      19.253   5.293  10.708  1.00  0.00    -0.550 OA
ATOM      4  O   UNL     1      18.902   7.508  11.177  1.00  0.00    -0.550 OA
ENDBRANCH   1   2
BRANCH   1   5
ATOM      5  C   UNL     1      20.598   8.328   9.126  1.00  0.00     0.059 C 
BRANCH   5   6
ATOM      6  C   UNL     1      21.990   8.570   9.623  1.00  0.00     0.042 C 
ATOM      7  O   UNL     1      22.788   7.607   9.769  1.00  0.00    -0.550 OA
ATOM      8  O   UNL     1      22.419   9.865   9.885  1.00  0.00    -0.550 OA
ENDBRANCH   5   6
ENDBRANCH   1   5
TORSDOF 3
ENDMDL
MODEL 5
REMARK VINA RESULT:    -3.369      1.871      3.740
REMARK INTER + INTRA:          -4.081
REMARK INTER:                  -3.986
REMARK INTRA:                  -0.095
REMARK UNBOUND:                -0.121
REMARK SMILES O=C([O-])CCC(=O)[O-]
REMARK SMILES IDX 4 1 2 2 1 3 3 4 5 5 6 6 7 7 8 8
REMARK H PARENT
REMARK Flexibility Score: inf
ROOT
ATOM      1  C   UNL     1      20.586   8.312   9.114  1.00  0.00     0.059 C 
ENDROOT
BRANCH   1   2
ATOM      2  C   UNL     1      21.977   8.603   9.586  1.00  0.00     0.042 C 
ATOM      3  O   UNL     1      22.782   7.659   9.807  1.00  0.00    -0.550 OA
ATOM      4  O   UNL     1      22.373   9.913   9.822  1.00  0.00    -0.550 OA
ENDBRANCH   1   2
BRANCH   1   5
ATOM      5  C   UNL     1      20.266   6.815   9.187  1.00  0.00     0.059 C 
BRANCH   5   6
ATOM      6  C   UNL     1      19.419   6.490  10.379  1.00  0.00     0.042 C 
ATOM      7  O   UNL     1      19.111   5.296  10.632  1.00  0.00    -0.550 OA
ATOM      8  O   UNL     1      19.005   7.504  11.235  1.00  0.00    -0.550 OA
ENDBRANCH   5   6
ENDBRANCH   1   5
TORSDOF 3
ENDMDL
MODEL 6
REMARK VINA RESULT:    -3.357      2.052      4.042
REMARK INTER + INTRA:          -4.066
REMARK INTER:                  -3.945
REMARK INTRA:                  -0.122
REMARK UNBOUND:                -0.121
REMARK SMILES O=C([O-])CCC(=O)[O-]
REMARK SMILES IDX 4 1 2 2 1 3 3 4 5 5 6 6 7 7 8 8
REMARK H PARENT
REMARK Flexibility Score: inf
ROOT
ATOM      1  C   UNL     1      20.442   8.715   9.870  1.00  0.00     0.059 C 
ENDROOT
BRANCH   1   2
ATOM      2  C   UNL     1      21.935   8.817   9.914  1.00  0.00     0.042 C 
ATOM      3  O   UNL     1      22.494   9.946   9.918  1.00  0.00    -0.550 OA
ATOM      4  O   UNL     1      22.712   7.666   9.910  1.00  0.00    -0.550 OA
ENDBRANCH   1   2
BRANCH   1   5
ATOM      5  C   UNL     1      19.898   7.876  11.031  1.00  0.00     0.059 C 
BRANCH   5   6
ATOM      6  C   UNL     1      19.338   6.572  10.553  1.00  0.00     0.042 C 
ATOM      7  O   UNL     1      18.564   5.906  11.290  1.00  0.00    -0.550 OA
ATOM      8  O   UNL     1      19.640   6.112   9.277  1.00  0.00    -0.550 OA
ENDBRANCH   5   6
ENDBRANCH   1   5
TORSDOF 3
ENDMDL
MODEL 7
REMARK VINA RESULT:    -3.337      2.242      3.626
REMARK INTER + INTRA:          -4.042
REMARK INTER:                  -3.957
REMARK INTRA:                  -0.085
REMARK UNBOUND:                -0.121
REMARK SMILES O=C([O-])CCC(=O)[O-]
REMARK SMILES IDX 4 1 2 2 1 3 3 4 5 5 6 6 7 7 8 8
REMARK H PARENT
REMARK Flexibility Score: inf
ROOT
ATOM      1  C   UNL     1      19.715   8.357   9.716  1.00  0.00     0.059 C 
ENDROOT
BRANCH   1   2
ATOM      2  C   UNL     1      19.748   7.112   8.883  1.00  0.00     0.042 C 
ATOM      3  O   UNL     1      20.040   7.175   7.660  1.00  0.00    -0.550 OA
ATOM      4  O   UNL     1      19.417   5.887   9.449  1.00  0.00    -0.550 OA
ENDBRANCH   1   2
BRANCH   1   5
ATOM      5  C   UNL     1      20.044   8.063  11.183  1.00  0.00     0.059 C 
BRANCH   5   6
ATOM      6  C   UNL     1      21.443   8.475  11.527  1.00  0.00     0.042 C 
ATOM      7  O   UNL     1      21.955   8.129  12.624  1.00  0.00    -0.550 OA
ATOM      8  O   UNL     1      22.196   9.206  10.617  1.00  0.00    -0.550 OA
ENDBRANCH   5   6
ENDBRANCH   1   5
TORSDOF 3
ENDMDL
MODEL 8
REMARK VINA RESULT:    -3.328      2.277      3.025
REMARK INTER + INTRA:          -4.032
REMARK INTER:                  -3.944
REMARK INTRA:                  -0.088
REMARK UNBOUND:                -0.121
REMARK SMILES O=C([O-])CCC(=O)[O-]
REMARK SMILES IDX 4 1 2 2 1 3 3 4 5 5 6 6 7 7 8 8
REMARK H PARENT
REMARK Flexibility Score: inf
ROOT
ATOM      1  C   UNL     1      20.116   7.908  11.345  1.00  0.00     0.059 C 
ENDROOT
BRANCH   1   2
ATOM      2  C   UNL     1      21.488   8.448  11.610  1.00  0.00     0.042 C 
ATOM      3  O   UNL     1      22.028   8.284  12.737  1.00  0.00    -0.550 OA
ATOM      4  O   UNL     1      22.155   9.168  10.627  1.00  0.00    -0.550 OA
ENDBRANCH   1   2
BRANCH   1   5
ATOM      5  C   UNL     1      19.656   8.214   9.916  1.00  0.00     0.059 C 
BRANCH   5   6
ATOM      6  C   UNL     1      19.743   7.002   9.039  1.00  0.00     0.042 C 
ATOM      7  O   UNL     1      20.137   7.109   7.848  1.00  0.00    -0.550 OA
ATOM      8  O   UNL     1      19.427   5.750   9.551  1.00  0.00    -0.550 OA
ENDBRANCH   5   6
ENDBRANCH   1   5
TORSDOF 3
ENDMDL
MODEL 9
REMARK VINA RESULT:    -3.292      2.267      3.179
REMARK INTER + INTRA:          -3.990
REMARK INTER:                  -3.918
REMARK INTRA:                  -0.072
REMARK UNBOUND:                -0.121
REMARK SMILES O=C([O-])CCC(=O)[O-]
REMARK SMILES IDX 4 1 2 2 1 3 3 4 5 5 6 6 7 7 8 8
REMARK H PARENT
REMARK Flexibility Score: inf
ROOT
ATOM      1  C   UNL     1      20.260   7.637  11.354  1.00  0.00     0.059 C 
ENDROOT
BRANCH   1   2
ATOM      2  C   UNL     1      21.502   8.434  11.615  1.00  0.00     0.042 C 
ATOM      3  O   UNL     1      21.993   9.157  10.709  1.00  0.00    -0.550 OA
ATOM      4  O   UNL     1      22.139   8.346  12.846  1.00  0.00    -0.550 OA
ENDBRANCH   1   2
BRANCH   1   5
ATOM      5  C   UNL     1      19.607   8.028  10.025  1.00  0.00     0.059 C 
BRANCH   5   6
ATOM      6  C   UNL     1      19.641   6.899   9.041  1.00  0.00     0.042 C 
ATOM      7  O   UNL     1      19.344   5.731   9.405  1.00  0.00    -0.550 OA
ATOM      8  O   UNL     1      19.963   7.145   7.712  1.00  0.00    -0.550 OA
ENDBRANCH   5   6
ENDBRANCH   1   5
TORSDOF 3
ENDMDL
