MODEL 1
REMARK VINA RESULT:    -5.518      0.000      0.000
REMARK INTER + INTRA:          -8.759
REMARK INTER:                  -7.454
REMARK INTRA:                  -1.306
REMARK UNBOUND:                -1.306
REMARK SMILES CC(=O)CCC=C(C)CCC=C(C)C
REMARK SMILES IDX 7 1 6 2 8 3 9 4 10 5 11 6 13 7 12 8 14 9 5 10 4 11 2 12 3 13
REMARK SMILES IDX 1 14
REMARK H PARENT
REMARK Flexibility Score: inf
ROOT
ATOM      1  C   UNL     1      47.409   2.244  16.862  1.00  0.00    -0.077 C 
ATOM      2  C   UNL     1      47.831   2.945  15.783  1.00  0.00    -0.028 C 
ATOM      3  C   UNL     1      46.101   2.654  17.493  1.00  0.00     0.039 C 
ENDROOT
BRANCH   1   4
ATOM      4  C   UNL     1      48.131   1.017  17.402  1.00  0.00     0.034 C 
BRANCH   4   5
ATOM      5  C   UNL     1      48.738   1.243  18.798  1.00  0.00     0.032 C 
BRANCH   5   6
ATOM      6  C   UNL     1      49.981   2.100  18.747  1.00  0.00    -0.028 C 
ATOM      7  C   UNL     1      51.368   4.101  19.083  1.00  0.00     0.039 C 
ATOM      8  C   UNL     1      50.046   3.382  19.168  1.00  0.00    -0.080 C 
ATOM      9  C   UNL     1      48.843   4.099  19.733  1.00  0.00     0.039 C 
ENDBRANCH   5   6
ENDBRANCH   4   5
ENDBRANCH   1   4
BRANCH   2  10
ATOM     10  C   UNL     1      49.039   2.621  14.935  1.00  0.00     0.035 C 
BRANCH  10  11
ATOM     11  C   UNL     1      50.268   3.468  15.292  1.00  0.00     0.079 C 
BRANCH  11  12
ATOM     12  C   UNL     1      50.579   4.492  14.232  1.00  0.00     0.130 C 
ATOM     13  O   UNL     1      50.179   5.641  14.358  1.00  0.00    -0.300 OA
ATOM     14  C   UNL     1      51.414   4.123  13.044  1.00  0.00     0.087 C 
ENDBRANCH  11  12
ENDBRANCH  10  11
ENDBRANCH   2  10
TORSDOF 6
ENDMDL
MODEL 2
REMARK VINA RESULT:    -5.336      2.006      4.314
REMARK INTER + INTRA:          -8.513
REMARK INTER:                  -7.641
REMARK INTRA:                  -0.872
REMARK UNBOUND:                -1.306
REMARK SMILES CC(=O)CCC=C(C)CCC=C(C)C
REMARK SMILES IDX 7 1 6 2 8 3 9 4 10 5 11 6 13 7 12 8 14 9 5 10 4 11 2 12 3 13
REMARK SMILES IDX 1 14
REMARK H PARENT
REMARK Flexibility Score: inf
ROOT
ATOM      1  C   UNL     1      47.061   3.022  19.138  1.00  0.00    -0.077 C 
ATOM      2  C   UNL     1      47.676   4.183  19.469  1.00  0.00    -0.028 C 
ATOM      3  C   UNL     1      45.767   3.114  18.367  1.00  0.00     0.039 C 
ENDROOT
BRANCH   1   4
ATOM      4  C   UNL     1      47.655   1.647  19.415  1.00  0.00     0.034 C 
BRANCH   4   5
ATOM      5  C   UNL     1      48.826   1.299  18.479  1.00  0.00     0.032 C 
BRANCH   5   6
ATOM      6  C   UNL     1      48.499   1.572  17.030  1.00  0.00    -0.028 C 
ATOM      7  C   UNL     1      48.717   2.622  14.819  1.00  0.00     0.039 C 
ATOM      8  C   UNL     1      49.134   2.483  16.260  1.00  0.00    -0.080 C 
ATOM      9  C   UNL     1      50.251   3.345  16.799  1.00  0.00     0.039 C 
ENDBRANCH   5   6
ENDBRANCH   4   5
ENDBRANCH   1   4
BRANCH   2  10
ATOM     10  C   UNL     1      49.032   4.309  20.125  1.00  0.00     0.035 C 
BRANCH  10  11
ATOM     11  C   UNL     1      49.375   5.752  20.521  1.00  0.00     0.079 C 
BRANCH  11  12
ATOM     12  C   UNL     1      49.163   6.717  19.384  1.00  0.00     0.130 C 
ATOM     13  O   UNL     1      49.804   6.592  18.351  1.00  0.00    -0.300 OA
ATOM     14  C   UNL     1      48.141   7.807  19.495  1.00  0.00     0.087 C 
ENDBRANCH  11  12
ENDBRANCH  10  11
ENDBRANCH   2  10
TORSDOF 6
ENDMDL
MODEL 3
REMARK VINA RESULT:    -5.298      1.930      4.000
REMARK INTER + INTRA:          -8.462
REMARK INTER:                  -6.988
REMARK INTRA:                  -1.473
REMARK UNBOUND:                -1.306
REMARK SMILES CC(=O)CCC=C(C)CCC=C(C)C
REMARK SMILES IDX 7 1 6 2 8 3 9 4 10 5 11 6 13 7 12 8 14 9 5 10 4 11 2 12 3 13
REMARK SMILES IDX 1 14
REMARK H PARENT
REMARK Flexibility Score: inf
ROOT
ATOM      1  C   UNL     1      46.938   3.060  18.934  1.00  0.00    -0.077 C 
ATOM      2  C   UNL     1      47.281   4.308  19.332  1.00  0.00    -0.028 C 
ATOM      3  C   UNL     1      45.803   2.930  17.948  1.00  0.00     0.039 C 
ENDROOT
BRANCH   1   4
ATOM      4  C   UNL     1      47.694   1.806  19.352  1.00  0.00     0.034 C 
BRANCH   4   5
ATOM      5  C   UNL     1      48.567   1.228  18.225  1.00  0.00     0.032 C 
BRANCH   5   6
ATOM      6  C   UNL     1      49.632   2.200  17.773  1.00  0.00    -0.028 C 
ATOM      7  C   UNL     1      50.779   3.760  16.260  1.00  0.00     0.039 C 
ATOM      8  C   UNL     1      49.669   2.785  16.556  1.00  0.00    -0.080 C 
ATOM      9  C   UNL     1      48.626   2.502  15.502  1.00  0.00     0.039 C 
ENDBRANCH   5   6
ENDBRANCH   4   5
ENDBRANCH   1   4
BRANCH   2  10
ATOM     10  C   UNL     1      48.459   4.664  20.210  1.00  0.00     0.035 C 
BRANCH  10  11
ATOM     11  C   UNL     1      49.274   5.847  19.671  1.00  0.00     0.079 C 
BRANCH  11  12
ATOM     12  C   UNL     1      50.735   5.510  19.527  1.00  0.00     0.130 C 
ATOM     13  O   UNL     1      51.460   6.222  18.847  1.00  0.00    -0.300 OA
ATOM     14  C   UNL     1      51.317   4.332  20.247  1.00  0.00     0.087 C 
ENDBRANCH  11  12
ENDBRANCH  10  11
ENDBRANCH   2  10
TORSDOF 6
ENDMDL
MODEL 4
REMARK VINA RESULT:    -5.129      2.304      4.878
REMARK INTER + INTRA:          -8.234
REMARK INTER:                  -6.854
REMARK INTRA:                  -1.380
REMARK UNBOUND:                -1.306
REMARK SMILES CC(=O)CCC=C(C)CCC=C(C)C
REMARK SMILES IDX 7 1 6 2 8 3 9 4 10 5 11 6 13 7 12 8 14 9 5 10 4 11 2 12 3 13
REMARK SMILES IDX 1 14
REMARK H PARENT
REMARK Flexibility Score: inf
ROOT
ATOM      1  C   UNL     1      50.401   3.564  18.059  1.00  0.00    -0.077 C 
ATOM      2  C   UNL     1      50.174   4.788  18.593  1.00  0.00    -0.028 C 
ATOM      3  C   UNL     1      50.757   3.498  16.594  1.00  0.00     0.039 C 
ENDROOT
BRANCH   1   4
ATOM      4  C   UNL     1      50.410   2.279  18.875  1.00  0.00     0.034 C 
BRANCH   4   5
ATOM      5  C   UNL     1      49.199   1.375  18.585  1.00  0.00     0.032 C 
BRANCH   5   6
ATOM      6  C   UNL     1      47.905   1.978  19.080  1.00  0.00    -0.028 C 
ATOM      7  C   UNL     1      45.685   3.019  18.919  1.00  0.00     0.039 C 
ATOM      8  C   UNL     1      46.937   2.478  18.280  1.00  0.00    -0.080 C 
ATOM      9  C   UNL     1      47.072   2.492  16.776  1.00  0.00     0.039 C 
ENDBRANCH   5   6
ENDBRANCH   4   5
ENDBRANCH   1   4
BRANCH   2  10
ATOM     10  C   UNL     1      49.929   5.084  20.055  1.00  0.00     0.035 C 
BRANCH  10  11
ATOM     11  C   UNL     1      48.441   5.242  20.394  1.00  0.00     0.079 C 
BRANCH  11  12
ATOM     12  C   UNL     1      47.818   6.414  19.682  1.00  0.00     0.130 C 
ATOM     13  O   UNL     1      46.781   6.263  19.052  1.00  0.00    -0.300 OA
ATOM     14  C   UNL     1      48.439   7.775  19.775  1.00  0.00     0.087 C 
ENDBRANCH  11  12
ENDBRANCH  10  11
ENDBRANCH   2  10
TORSDOF 6
ENDMDL
MODEL 5
REMARK VINA RESULT:    -5.095      2.183      5.065
REMARK INTER + INTRA:          -8.188
REMARK INTER:                  -7.278
REMARK INTRA:                  -0.910
REMARK UNBOUND:                -1.306
REMARK SMILES CC(=O)CCC=C(C)CCC=C(C)C
REMARK SMILES IDX 7 1 6 2 8 3 9 4 10 5 11 6 13 7 12 8 14 9 5 10 4 11 2 12 3 13
REMARK SMILES IDX 1 14
REMARK H PARENT
REMARK Flexibility Score: inf
ROOT
ATOM      1  C   UNL     1      49.079   2.416  16.372  1.00  0.00    -0.077 C 
ATOM      2  C   UNL     1      48.257   1.625  17.104  1.00  0.00    -0.028 C 
ATOM      3  C   UNL     1      48.773   2.568  14.903  1.00  0.00     0.039 C 
ENDROOT
BRANCH   1   4
ATOM      4  C   UNL     1      50.220   3.225  16.972  1.00  0.00     0.034 C 
BRANCH   4   5
ATOM      5  C   UNL     1      50.852   4.206  15.969  1.00  0.00     0.032 C 
BRANCH   5   6
ATOM      6  C   UNL     1      52.256   3.802  15.583  1.00  0.00    -0.028 C 
ATOM      7  C   UNL     1      54.119   3.237  14.083  1.00  0.00     0.039 C 
ATOM      8  C   UNL     1      52.677   3.609  14.314  1.00  0.00    -0.080 C 
ATOM      9  C   UNL     1      51.750   3.769  13.133  1.00  0.00     0.039 C 
ENDBRANCH   5   6
ENDBRANCH   4   5
ENDBRANCH   1   4
BRANCH   2  10
ATOM     10  C   UNL     1      48.313   1.439  18.603  1.00  0.00     0.035 C 
BRANCH  10  11
ATOM     11  C   UNL     1      47.146   2.115  19.336  1.00  0.00     0.079 C 
BRANCH  11  12
ATOM     12  C   UNL     1      47.252   3.617  19.307  1.00  0.00     0.130 C 
ATOM     13  O   UNL     1      46.379   4.280  18.765  1.00  0.00    -0.300 OA
ATOM     14  C   UNL     1      48.400   4.309  19.977  1.00  0.00     0.087 C 
ENDBRANCH  11  12
ENDBRANCH  10  11
ENDBRANCH   2  10
TORSDOF 6
ENDMDL
MODEL 6
REMARK VINA RESULT:    -5.068      1.967      4.034
REMARK INTER + INTRA:          -8.151
REMARK INTER:                  -6.859
REMARK INTRA:                  -1.292
REMARK UNBOUND:                -1.306
REMARK SMILES CC(=O)CCC=C(C)CCC=C(C)C
REMARK SMILES IDX 7 1 6 2 8 3 9 4 10 5 11 6 13 7 12 8 14 9 5 10 4 11 2 12 3 13
REMARK SMILES IDX 1 14
REMARK H PARENT
REMARK Flexibility Score: inf
ROOT
ATOM      1  C   UNL     1      47.584   4.890  19.541  1.00  0.00    -0.077 C 
ATOM      2  C   UNL     1      46.492   4.434  18.881  1.00  0.00    -0.028 C 
ATOM      3  C   UNL     1      47.712   6.381  19.732  1.00  0.00     0.039 C 
ENDROOT
BRANCH   1   4
ATOM      4  C   UNL     1      48.625   3.977  20.175  1.00  0.00     0.034 C 
BRANCH   4   5
ATOM      5  C   UNL     1      50.062   4.504  20.019  1.00  0.00     0.032 C 
BRANCH   5   6
ATOM      6  C   UNL     1      50.505   4.533  18.576  1.00  0.00    -0.028 C 
ATOM      7  C   UNL     1      51.628   3.749  16.536  1.00  0.00     0.039 C 
ATOM      8  C   UNL     1      51.295   3.602  17.998  1.00  0.00    -0.080 C 
ATOM      9  C   UNL     1      51.833   2.421  18.769  1.00  0.00     0.039 C 
ENDBRANCH   5   6
ENDBRANCH   4   5
ENDBRANCH   1   4
BRANCH   2  10
ATOM     10  C   UNL     1      46.113   2.983  18.693  1.00  0.00     0.035 C 
BRANCH  10  11
ATOM     11  C   UNL     1      46.314   2.492  17.254  1.00  0.00     0.079 C 
BRANCH  11  12
ATOM     12  C   UNL     1      47.752   2.143  16.969  1.00  0.00     0.130 C 
ATOM     13  O   UNL     1      48.360   2.735  16.090  1.00  0.00    -0.300 OA
ATOM     14  C   UNL     1      48.455   1.102  17.785  1.00  0.00     0.087 C 
ENDBRANCH  11  12
ENDBRANCH  10  11
ENDBRANCH   2  10
TORSDOF 6
ENDMDL
MODEL 7
REMARK VINA RESULT:    -4.943      2.836      4.770
REMARK INTER + INTRA:          -7.983
REMARK INTER:                  -7.189
REMARK INTRA:                  -0.794
REMARK UNBOUND:                -1.306
REMARK SMILES CC(=O)CCC=C(C)CCC=C(C)C
REMARK SMILES IDX 7 1 6 2 8 3 9 4 10 5 11 6 13 7 12 8 14 9 5 10 4 11 2 12 3 13
REMARK SMILES IDX 1 14
REMARK H PARENT
REMARK Flexibility Score: inf
ROOT
ATOM      1  C   UNL     1      50.194   3.196  18.994  1.00  0.00    -0.077 C 
ATOM      2  C   UNL     1      49.774   1.928  18.767  1.00  0.00    -0.028 C 
ATOM      3  C   UNL     1      51.653   3.499  18.757  1.00  0.00     0.039 C 
ENDROOT
BRANCH   1   4
ATOM      4  C   UNL     1      49.260   4.336  19.377  1.00  0.00     0.034 C 
BRANCH   4   5
ATOM      5  C   UNL     1      49.060   4.463  20.897  1.00  0.00     0.032 C 
BRANCH   5   6
ATOM      6  C   UNL     1      50.247   5.102  21.577  1.00  0.00    -0.028 C 
ATOM      7  C   UNL     1      51.701   5.765  23.445  1.00  0.00     0.039 C 
ATOM      8  C   UNL     1      50.451   5.114  22.913  1.00  0.00    -0.080 C 
ATOM      9  C   UNL     1      49.473   4.483  23.875  1.00  0.00     0.039 C 
ENDBRANCH   5   6
ENDBRANCH   4   5
ENDBRANCH   1   4
BRANCH   2  10
ATOM     10  C   UNL     1      48.341   1.449  18.823  1.00  0.00     0.035 C 
BRANCH  10  11
ATOM     11  C   UNL     1      47.612   1.578  17.479  1.00  0.00     0.079 C 
BRANCH  11  12
ATOM     12  C   UNL     1      46.559   2.655  17.506  1.00  0.00     0.130 C 
ATOM     13  O   UNL     1      46.236   3.217  16.470  1.00  0.00    -0.300 OA
ATOM     14  C   UNL     1      45.873   3.013  18.790  1.00  0.00     0.087 C 
ENDBRANCH  11  12
ENDBRANCH  10  11
ENDBRANCH   2  10
TORSDOF 6
ENDMDL
MODEL 8
REMARK VINA RESULT:    -4.878      1.643      2.635
REMARK INTER + INTRA:          -7.894
REMARK INTER:                  -7.027
REMARK INTRA:                  -0.867
REMARK UNBOUND:                -1.306
REMARK SMILES CC(=O)CCC=C(C)CCC=C(C)C
REMARK SMILES IDX 7 1 6 2 8 3 9 4 10 5 11 6 13 7 12 8 14 9 5 10 4 11 2 12 3 13
REMARK SMILES IDX 1 14
REMARK H PARENT
REMARK Flexibility Score: inf
ROOT
ATOM      1  C   UNL     1      47.094   2.678  18.431  1.00  0.00    -0.077 C 
ATOM      2  C   UNL     1      47.275   1.977  17.286  1.00  0.00    -0.028 C 
ATOM      3  C   UNL     1      45.687   3.106  18.770  1.00  0.00     0.039 C 
ENDROOT
BRANCH   1   4
ATOM      4  C   UNL     1      48.209   2.964  19.428  1.00  0.00     0.034 C 
BRANCH   4   5
ATOM      5  C   UNL     1      48.367   4.462  19.738  1.00  0.00     0.032 C 
BRANCH   5   6
ATOM      6  C   UNL     1      49.111   4.702  21.030  1.00  0.00    -0.028 C 
ATOM      7  C   UNL     1      51.034   5.204  22.476  1.00  0.00     0.039 C 
ATOM      8  C   UNL     1      50.436   4.953  21.116  1.00  0.00    -0.080 C 
ATOM      9  C   UNL     1      51.321   5.002  19.894  1.00  0.00     0.039 C 
ENDBRANCH   5   6
ENDBRANCH   4   5
ENDBRANCH   1   4
BRANCH   2  10
ATOM     10  C   UNL     1      48.573   1.351  16.828  1.00  0.00     0.035 C 
BRANCH  10  11
ATOM     11  C   UNL     1      49.005   1.819  15.432  1.00  0.00     0.079 C 
BRANCH  11  12
ATOM     12  C   UNL     1      49.630   3.189  15.461  1.00  0.00     0.130 C 
ATOM     13  O   UNL     1      49.346   4.006  14.597  1.00  0.00    -0.300 OA
ATOM     14  C   UNL     1      50.565   3.573  16.566  1.00  0.00     0.087 C 
ENDBRANCH  11  12
ENDBRANCH  10  11
ENDBRANCH   2  10
TORSDOF 6
ENDMDL
MODEL 9
REMARK VINA RESULT:    -4.875      2.009      3.897
REMARK INTER + INTRA:          -7.891
REMARK INTER:                  -7.373
REMARK INTRA:                  -0.518
REMARK UNBOUND:                -1.306
REMARK SMILES CC(=O)CCC=C(C)CCC=C(C)C
REMARK SMILES IDX 7 1 6 2 8 3 9 4 10 5 11 6 13 7 12 8 14 9 5 10 4 11 2 12 3 13
REMARK SMILES IDX 1 14
REMARK H PARENT
REMARK Flexibility Score: inf
ROOT
ATOM      1  C   UNL     1      50.610   3.620  15.321  1.00  0.00    -0.077 C 
ATOM      2  C   UNL     1      51.542   3.985  14.408  1.00  0.00    -0.028 C 
ATOM      3  C   UNL     1      50.935   3.845  16.777  1.00  0.00     0.039 C 
ENDROOT
BRANCH   1   4
ATOM      4  C   UNL     1      49.231   3.091  14.950  1.00  0.00     0.034 C 
BRANCH   4   5
ATOM      5  C   UNL     1      48.747   1.969  15.885  1.00  0.00     0.032 C 
BRANCH   5   6
ATOM      6  C   UNL     1      47.628   2.425  16.791  1.00  0.00    -0.028 C 
ATOM      7  C   UNL     1      46.351   2.645  18.880  1.00  0.00     0.039 C 
ATOM      8  C   UNL     1      47.508   2.085  18.093  1.00  0.00    -0.080 C 
ATOM      9  C   UNL     1      48.505   1.179  18.776  1.00  0.00     0.039 C 
ENDBRANCH   5   6
ENDBRANCH   4   5
ENDBRANCH   1   4
BRANCH   2  10
ATOM     10  C   UNL     1      51.367   3.960  12.907  1.00  0.00     0.035 C 
BRANCH  10  11
ATOM     11  C   UNL     1      52.658   4.292  12.147  1.00  0.00     0.079 C 
BRANCH  11  12
ATOM     12  C   UNL     1      52.385   5.010  10.851  1.00  0.00     0.130 C 
ATOM     13  O   UNL     1      52.079   4.372   9.854  1.00  0.00    -0.300 OA
ATOM     14  C   UNL     1      52.443   6.506  10.786  1.00  0.00     0.087 C 
ENDBRANCH  11  12
ENDBRANCH  10  11
ENDBRANCH   2  10
TORSDOF 6
ENDMDL
