MODEL 1
REMARK VINA RESULT:    -4.333      0.000      0.000
REMARK INTER + INTRA:          -5.262
REMARK INTER:                  -5.093
REMARK INTRA:                  -0.169
REMARK UNBOUND:                -0.169
REMARK SMILES COc1cc2ccc(=O)oc2c(OC)c1OC
REMARK SMILES IDX 3 1 15 2 12 3 11 4 5 5 4 6 6 7 7 8 8 9 9 10 10 11 2 12 1 13
REMARK SMILES IDX 16 14 17 15 13 16 14 17
REMARK H PARENT
REMARK Flexibility Score: inf
ROOT
ATOM      1  C   UNL     1       5.552 -18.567  17.406  1.00  0.00     0.165 A 
ATOM      2  C   UNL     1       5.629 -19.004  16.074  1.00  0.00     0.207 A 
ATOM      3  C   UNL     1       5.028 -18.249  15.042  1.00  0.00     0.208 A 
ATOM      4  C   UNL     1       4.272 -17.115  15.364  1.00  0.00     0.184 A 
ATOM      5  C   UNL     1       4.166 -16.693  16.706  1.00  0.00     0.025 A 
ATOM      6  C   UNL     1       4.819 -17.407  17.718  1.00  0.00     0.062 A 
ATOM      7  C   UNL     1       3.414 -15.548  16.990  1.00  0.00     0.020 A 
ATOM      8  C   UNL     1       2.793 -14.861  15.949  1.00  0.00     0.094 A 
ATOM      9  C   UNL     1       2.943 -15.335  14.642  1.00  0.00     0.336 A 
ATOM     10  O   UNL     1       2.392 -14.728  13.686  1.00  0.00    -0.246 OA
ATOM     11  O   UNL     1       3.666 -16.425  14.399  1.00  0.00    -0.419 OA
ENDROOT
BRANCH   1  12
ATOM     12  O   UNL     1       6.202 -19.325  18.394  1.00  0.00    -0.493 OA
ATOM     13  C   UNL     1       5.541 -20.181  19.320  1.00  0.00     0.278 C 
ENDBRANCH   1  12
BRANCH   2  14
ATOM     14  O   UNL     1       6.297 -20.204  15.807  1.00  0.00    -0.490 OA
ATOM     15  C   UNL     1       7.707 -20.262  15.611  1.00  0.00     0.278 C 
ENDBRANCH   2  14
BRANCH   3  16
ATOM     16  O   UNL     1       5.175 -18.593  13.694  1.00  0.00    -0.490 OA
ATOM     17  C   UNL     1       6.353 -18.291  12.953  1.00  0.00     0.278 C 
ENDBRANCH   3  16
TORSDOF 3
ENDMDL
MODEL 2
REMARK VINA RESULT:    -4.288      1.594      3.406
REMARK INTER + INTRA:          -5.209
REMARK INTER:                  -4.912
REMARK INTRA:                  -0.297
REMARK UNBOUND:                -0.169
REMARK SMILES COc1cc2ccc(=O)oc2c(OC)c1OC
REMARK SMILES IDX 3 1 15 2 12 3 11 4 5 5 4 6 6 7 7 8 8 9 9 10 10 11 2 12 1 13
REMARK SMILES IDX 16 14 17 15 13 16 14 17
REMARK H PARENT
REMARK Flexibility Score: inf
ROOT
ATOM      1  C   UNL     1       5.224 -18.467  14.513  1.00  0.00     0.165 A 
ATOM      2  C   UNL     1       5.350 -18.670  15.897  1.00  0.00     0.207 A 
ATOM      3  C   UNL     1       4.751 -17.767  16.804  1.00  0.00     0.208 A 
ATOM      4  C   UNL     1       4.116 -16.617  16.319  1.00  0.00     0.184 A 
ATOM      5  C   UNL     1       4.017 -16.396  14.930  1.00  0.00     0.025 A 
ATOM      6  C   UNL     1       4.554 -17.327  14.033  1.00  0.00     0.062 A 
ATOM      7  C   UNL     1       3.364 -15.243  14.480  1.00  0.00     0.020 A 
ATOM      8  C   UNL     1       2.833 -14.351  15.409  1.00  0.00     0.094 A 
ATOM      9  C   UNL     1       2.965 -14.635  16.772  1.00  0.00     0.336 A 
ATOM     10  O   UNL     1       2.491 -13.843  17.629  1.00  0.00    -0.246 OA
ATOM     11  O   UNL     1       3.589 -15.739  17.172  1.00  0.00    -0.419 OA
ENDROOT
BRANCH   1  12
ATOM     12  O   UNL     1       5.796 -19.414  13.648  1.00  0.00    -0.493 OA
ATOM     13  C   UNL     1       7.018 -19.227  12.941  1.00  0.00     0.278 C 
ENDBRANCH   1  12
BRANCH   2  14
ATOM     14  O   UNL     1       6.090 -19.770  16.342  1.00  0.00    -0.490 OA
ATOM     15  C   UNL     1       7.458 -19.662  16.724  1.00  0.00     0.278 C 
ENDBRANCH   2  14
BRANCH   3  16
ATOM     16  O   UNL     1       4.762 -17.992  18.185  1.00  0.00    -0.490 OA
ATOM     17  C   UNL     1       3.826 -18.853  18.825  1.00  0.00     0.278 C 
ENDBRANCH   3  16
TORSDOF 3
ENDMDL
MODEL 3
REMARK VINA RESULT:    -4.230      3.998      5.599
REMARK INTER + INTRA:          -5.141
REMARK INTER:                  -4.894
REMARK INTRA:                  -0.247
REMARK UNBOUND:                -0.169
REMARK SMILES COc1cc2ccc(=O)oc2c(OC)c1OC
REMARK SMILES IDX 3 1 15 2 12 3 11 4 5 5 4 6 6 7 7 8 8 9 9 10 10 11 2 12 1 13
REMARK SMILES IDX 16 14 17 15 13 16 14 17
REMARK H PARENT
REMARK Flexibility Score: inf
ROOT
ATOM      1  C   UNL     1       3.535 -13.372  16.147  1.00  0.00     0.165 A 
ATOM      2  C   UNL     1       4.472 -14.277  15.622  1.00  0.00     0.207 A 
ATOM      3  C   UNL     1       5.488 -13.822  14.751  1.00  0.00     0.208 A 
ATOM      4  C   UNL     1       5.498 -12.484  14.337  1.00  0.00     0.184 A 
ATOM      5  C   UNL     1       4.537 -11.582  14.838  1.00  0.00     0.025 A 
ATOM      6  C   UNL     1       3.573 -12.022  15.752  1.00  0.00     0.062 A 
ATOM      7  C   UNL     1       4.585 -10.249  14.413  1.00  0.00     0.020 A 
ATOM      8  C   UNL     1       5.571  -9.853  13.512  1.00  0.00     0.094 A 
ATOM      9  C   UNL     1       6.493 -10.802  13.058  1.00  0.00     0.336 A 
ATOM     10  O   UNL     1       7.394 -10.465  12.245  1.00  0.00    -0.246 OA
ATOM     11  O   UNL     1       6.427 -12.061  13.480  1.00  0.00    -0.419 OA
ENDROOT
BRANCH   1  12
ATOM     12  O   UNL     1       2.571 -13.859  17.044  1.00  0.00    -0.493 OA
ATOM     13  C   UNL     1       2.632 -13.706  18.458  1.00  0.00     0.278 C 
ENDBRANCH   1  12
BRANCH   2  14
ATOM     14  O   UNL     1       4.359 -15.627  15.971  1.00  0.00    -0.490 OA
ATOM     15  C   UNL     1       3.658 -16.566  15.162  1.00  0.00     0.278 C 
ENDBRANCH   2  14
BRANCH   3  16
ATOM     16  O   UNL     1       6.502 -14.671  14.294  1.00  0.00    -0.490 OA
ATOM     17  C   UNL     1       7.598 -15.061  15.114  1.00  0.00     0.278 C 
ENDBRANCH   3  16
TORSDOF 3
ENDMDL
MODEL 4
REMARK VINA RESULT:    -4.180      3.874      6.366
REMARK INTER + INTRA:          -5.082
REMARK INTER:                  -4.829
REMARK INTRA:                  -0.253
REMARK UNBOUND:                -0.169
REMARK SMILES COc1cc2ccc(=O)oc2c(OC)c1OC
REMARK SMILES IDX 3 1 15 2 12 3 11 4 5 5 4 6 6 7 7 8 8 9 9 10 10 11 2 12 1 13
REMARK SMILES IDX 16 14 17 15 13 16 14 17
REMARK H PARENT
REMARK Flexibility Score: inf
ROOT
ATOM      1  C   UNL     1       4.892 -11.602  14.050  1.00  0.00     0.165 A 
ATOM      2  C   UNL     1       6.108 -12.273  14.262  1.00  0.00     0.207 A 
ATOM      3  C   UNL     1       6.114 -13.648  14.584  1.00  0.00     0.208 A 
ATOM      4  C   UNL     1       4.900 -14.317  14.789  1.00  0.00     0.184 A 
ATOM      5  C   UNL     1       3.678 -13.636  14.609  1.00  0.00     0.025 A 
ATOM      6  C   UNL     1       3.677 -12.290  14.224  1.00  0.00     0.062 A 
ATOM      7  C   UNL     1       2.485 -14.338  14.808  1.00  0.00     0.020 A 
ATOM      8  C   UNL     1       2.534 -15.681  15.178  1.00  0.00     0.094 A 
ATOM      9  C   UNL     1       3.781 -16.293  15.337  1.00  0.00     0.336 A 
ATOM     10  O   UNL     1       3.849 -17.506  15.669  1.00  0.00    -0.246 OA
ATOM     11  O   UNL     1       4.901 -15.603  15.139  1.00  0.00    -0.419 OA
ENDROOT
BRANCH   1  12
ATOM     12  O   UNL     1       4.936 -10.246  13.687  1.00  0.00    -0.493 OA
ATOM     13  C   UNL     1       4.452  -9.178  14.494  1.00  0.00     0.278 C 
ENDBRANCH   1  12
BRANCH   2  14
ATOM     14  O   UNL     1       7.296 -11.541  14.159  1.00  0.00    -0.490 OA
ATOM     15  C   UNL     1       7.879 -10.877  15.276  1.00  0.00     0.278 C 
ENDBRANCH   2  14
BRANCH   3  16
ATOM     16  O   UNL     1       7.304 -14.375  14.696  1.00  0.00    -0.490 OA
ATOM     17  C   UNL     1       8.010 -14.499  15.926  1.00  0.00     0.278 C 
ENDBRANCH   3  16
TORSDOF 3
ENDMDL
MODEL 5
REMARK VINA RESULT:    -4.071      2.830      5.885
REMARK INTER + INTRA:          -4.954
REMARK INTER:                  -4.817
REMARK INTRA:                  -0.137
REMARK UNBOUND:                -0.169
REMARK SMILES COc1cc2ccc(=O)oc2c(OC)c1OC
REMARK SMILES IDX 3 1 15 2 12 3 11 4 5 5 4 6 6 7 7 8 8 9 9 10 10 11 2 12 1 13
REMARK SMILES IDX 16 14 17 15 13 16 14 17
REMARK H PARENT
REMARK Flexibility Score: inf
ROOT
ATOM      1  C   UNL     1       5.878 -13.226  15.217  1.00  0.00     0.165 A 
ATOM      2  C   UNL     1       4.537 -13.596  15.410  1.00  0.00     0.207 A 
ATOM      3  C   UNL     1       4.138 -14.939  15.227  1.00  0.00     0.208 A 
ATOM      4  C   UNL     1       5.064 -15.879  14.757  1.00  0.00     0.184 A 
ATOM      5  C   UNL     1       6.404 -15.500  14.531  1.00  0.00     0.025 A 
ATOM      6  C   UNL     1       6.810 -14.183  14.778  1.00  0.00     0.062 A 
ATOM      7  C   UNL     1       7.305 -16.468  14.075  1.00  0.00     0.020 A 
ATOM      8  C   UNL     1       6.858 -17.770  13.855  1.00  0.00     0.094 A 
ATOM      9  C   UNL     1       5.516 -18.076  14.102  1.00  0.00     0.336 A 
ATOM     10  O   UNL     1       5.092 -19.246  13.913  1.00  0.00    -0.246 OA
ATOM     11  O   UNL     1       4.681 -17.137  14.538  1.00  0.00    -0.419 OA
ENDROOT
BRANCH   1  12
ATOM     12  O   UNL     1       6.239 -11.889  15.455  1.00  0.00    -0.493 OA
ATOM     13  C   UNL     1       6.571 -10.950  14.438  1.00  0.00     0.278 C 
ENDBRANCH   1  12
BRANCH   2  14
ATOM     14  O   UNL     1       3.619 -12.604  15.770  1.00  0.00    -0.490 OA
ATOM     15  C   UNL     1       3.261 -12.353  17.125  1.00  0.00     0.278 C 
ENDBRANCH   2  14
BRANCH   3  16
ATOM     16  O   UNL     1       2.838 -15.368  15.513  1.00  0.00    -0.490 OA
ATOM     17  C   UNL     1       1.716 -14.980  14.727  1.00  0.00     0.278 C 
ENDBRANCH   3  16
TORSDOF 3
ENDMDL
MODEL 6
REMARK VINA RESULT:    -4.061     11.699     14.095
REMARK INTER + INTRA:          -4.942
REMARK INTER:                  -4.708
REMARK INTRA:                  -0.234
REMARK UNBOUND:                -0.169
REMARK SMILES COc1cc2ccc(=O)oc2c(OC)c1OC
REMARK SMILES IDX 3 1 15 2 12 3 11 4 5 5 4 6 6 7 7 8 8 9 9 10 10 11 2 12 1 13
REMARK SMILES IDX 16 14 17 15 13 16 14 17
REMARK H PARENT
REMARK Flexibility Score: inf
ROOT
ATOM      1  C   UNL     1       3.809 -23.950   4.736  1.00  0.00     0.165 A 
ATOM      2  C   UNL     1       2.902 -24.078   5.801  1.00  0.00     0.207 A 
ATOM      3  C   UNL     1       1.595 -24.560   5.568  1.00  0.00     0.208 A 
ATOM      4  C   UNL     1       1.175 -24.816   4.256  1.00  0.00     0.184 A 
ATOM      5  C   UNL     1       2.075 -24.657   3.182  1.00  0.00     0.025 A 
ATOM      6  C   UNL     1       3.390 -24.243   3.425  1.00  0.00     0.062 A 
ATOM      7  C   UNL     1       1.626 -24.935   1.886  1.00  0.00     0.020 A 
ATOM      8  C   UNL     1       0.312 -25.357   1.693  1.00  0.00     0.094 A 
ATOM      9  C   UNL     1      -0.525 -25.496   2.805  1.00  0.00     0.336 A 
ATOM     10  O   UNL     1      -1.715 -25.879   2.653  1.00  0.00    -0.246 OA
ATOM     11  O   UNL     1      -0.071 -25.227   4.026  1.00  0.00    -0.419 OA
ENDROOT
BRANCH   1  12
ATOM     12  O   UNL     1       5.112 -23.510   5.021  1.00  0.00    -0.493 OA
ATOM     13  C   UNL     1       6.298 -24.209   4.658  1.00  0.00     0.278 C 
ENDBRANCH   1  12
BRANCH   2  14
ATOM     14  O   UNL     1       3.325 -23.703   7.081  1.00  0.00    -0.490 OA
ATOM     15  C   UNL     1       3.975 -24.612   7.965  1.00  0.00     0.278 C 
ENDBRANCH   2  14
BRANCH   3  16
ATOM     16  O   UNL     1       0.700 -24.803   6.615  1.00  0.00    -0.490 OA
ATOM     17  C   UNL     1       0.607 -26.068   7.262  1.00  0.00     0.278 C 
ENDBRANCH   3  16
TORSDOF 3
ENDMDL
MODEL 7
REMARK VINA RESULT:    -4.057      4.410      7.367
REMARK INTER + INTRA:          -4.937
REMARK INTER:                  -4.730
REMARK INTRA:                  -0.207
REMARK UNBOUND:                -0.169
REMARK SMILES COc1cc2ccc(=O)oc2c(OC)c1OC
REMARK SMILES IDX 3 1 15 2 12 3 11 4 5 5 4 6 6 7 7 8 8 9 9 10 10 11 2 12 1 13
REMARK SMILES IDX 16 14 17 15 13 16 14 17
REMARK H PARENT
REMARK Flexibility Score: inf
ROOT
ATOM      1  C   UNL     1       3.413 -11.330  15.247  1.00  0.00     0.165 A 
ATOM      2  C   UNL     1       4.437 -10.794  14.449  1.00  0.00     0.207 A 
ATOM      3  C   UNL     1       5.479 -11.625  13.979  1.00  0.00     0.208 A 
ATOM      4  C   UNL     1       5.540 -12.961  14.393  1.00  0.00     0.184 A 
ATOM      5  C   UNL     1       4.530 -13.492  15.222  1.00  0.00     0.025 A 
ATOM      6  C   UNL     1       3.463 -12.682  15.631  1.00  0.00     0.062 A 
ATOM      7  C   UNL     1       4.615 -14.835  15.605  1.00  0.00     0.020 A 
ATOM      8  C   UNL     1       5.688 -15.606  15.162  1.00  0.00     0.094 A 
ATOM      9  C   UNL     1       6.653 -15.015  14.340  1.00  0.00     0.336 A 
ATOM     10  O   UNL     1       7.629 -15.694  13.928  1.00  0.00    -0.246 OA
ATOM     11  O   UNL     1       6.546 -13.736  13.989  1.00  0.00    -0.419 OA
ENDROOT
BRANCH   1  12
ATOM     12  O   UNL     1       2.374 -10.478  15.655  1.00  0.00    -0.493 OA
ATOM     13  C   UNL     1       2.202  -9.991  16.981  1.00  0.00     0.278 C 
ENDBRANCH   1  12
BRANCH   2  14
ATOM     14  O   UNL     1       4.401  -9.428  14.152  1.00  0.00    -0.490 OA
ATOM     15  C   UNL     1       4.982  -8.447  15.006  1.00  0.00     0.278 C 
ENDBRANCH   2  14
BRANCH   3  16
ATOM     16  O   UNL     1       6.456 -11.154  13.095  1.00  0.00    -0.490 OA
ATOM     17  C   UNL     1       7.593 -10.419  13.535  1.00  0.00     0.278 C 
ENDBRANCH   3  16
TORSDOF 3
ENDMDL
MODEL 8
REMARK VINA RESULT:    -4.044      2.399      3.319
REMARK INTER + INTRA:          -4.922
REMARK INTER:                  -4.851
REMARK INTRA:                  -0.071
REMARK UNBOUND:                -0.169
REMARK SMILES COc1cc2ccc(=O)oc2c(OC)c1OC
REMARK SMILES IDX 3 1 15 2 12 3 11 4 5 5 4 6 6 7 7 8 8 9 9 10 10 11 2 12 1 13
REMARK SMILES IDX 16 14 17 15 13 16 14 17
REMARK H PARENT
REMARK Flexibility Score: inf
ROOT
ATOM      1  C   UNL     1       5.373 -17.675  14.582  1.00  0.00     0.165 A 
ATOM      2  C   UNL     1       6.446 -16.775  14.477  1.00  0.00     0.207 A 
ATOM      3  C   UNL     1       6.232 -15.390  14.656  1.00  0.00     0.208 A 
ATOM      4  C   UNL     1       4.929 -14.909  14.842  1.00  0.00     0.184 A 
ATOM      5  C   UNL     1       3.847 -15.810  14.916  1.00  0.00     0.025 A 
ATOM      6  C   UNL     1       4.073 -17.187  14.804  1.00  0.00     0.062 A 
ATOM      7  C   UNL     1       2.561 -15.296  15.116  1.00  0.00     0.020 A 
ATOM      8  C   UNL     1       2.385 -13.918  15.235  1.00  0.00     0.094 A 
ATOM      9  C   UNL     1       3.505 -13.084  15.155  1.00  0.00     0.336 A 
ATOM     10  O   UNL     1       3.369 -11.837  15.262  1.00  0.00    -0.246 OA
ATOM     11  O   UNL     1       4.717 -13.600  14.966  1.00  0.00    -0.419 OA
ENDROOT
BRANCH   1  12
ATOM     12  O   UNL     1       5.640 -19.047  14.441  1.00  0.00    -0.493 OA
ATOM     13  C   UNL     1       6.175 -19.875  15.468  1.00  0.00     0.278 C 
ENDBRANCH   1  12
BRANCH   2  14
ATOM     14  O   UNL     1       7.714 -17.286  14.177  1.00  0.00    -0.490 OA
ATOM     15  C   UNL     1       8.088 -17.664  12.856  1.00  0.00     0.278 C 
ENDBRANCH   2  14
BRANCH   3  16
ATOM     16  O   UNL     1       7.290 -14.475  14.666  1.00  0.00    -0.490 OA
ATOM     17  C   UNL     1       8.083 -14.237  15.824  1.00  0.00     0.278 C 
ENDBRANCH   3  16
TORSDOF 3
ENDMDL
MODEL 9
REMARK VINA RESULT:    -3.998      3.117      4.549
REMARK INTER + INTRA:          -4.868
REMARK INTER:                  -4.679
REMARK INTRA:                  -0.189
REMARK UNBOUND:                -0.169
REMARK SMILES COc1cc2ccc(=O)oc2c(OC)c1OC
REMARK SMILES IDX 3 1 15 2 12 3 11 4 5 5 4 6 6 7 7 8 8 9 9 10 10 11 2 12 1 13
REMARK SMILES IDX 16 14 17 15 13 16 14 17
REMARK H PARENT
REMARK Flexibility Score: inf
ROOT
ATOM      1  C   UNL     1       6.313 -15.748  15.047  1.00  0.00     0.165 A 
ATOM      2  C   UNL     1       4.946 -15.858  14.748  1.00  0.00     0.207 A 
ATOM      3  C   UNL     1       4.179 -14.700  14.489  1.00  0.00     0.208 A 
ATOM      4  C   UNL     1       4.765 -13.436  14.629  1.00  0.00     0.184 A 
ATOM      5  C   UNL     1       6.131 -13.323  14.962  1.00  0.00     0.025 A 
ATOM      6  C   UNL     1       6.903 -14.475  15.152  1.00  0.00     0.062 A 
ATOM      7  C   UNL     1       6.687 -12.044  15.079  1.00  0.00     0.020 A 
ATOM      8  C   UNL     1       5.883 -10.926  14.868  1.00  0.00     0.094 A 
ATOM      9  C   UNL     1       4.537 -11.113  14.539  1.00  0.00     0.336 A 
ATOM     10  O   UNL     1       3.793 -10.116  14.342  1.00  0.00    -0.246 OA
ATOM     11  O   UNL     1       4.034 -12.339  14.431  1.00  0.00    -0.419 OA
ENDROOT
BRANCH   1  12
ATOM     12  O   UNL     1       7.047 -16.927  15.252  1.00  0.00    -0.493 OA
ATOM     13  C   UNL     1       7.937 -17.502  14.301  1.00  0.00     0.278 C 
ENDBRANCH   1  12
BRANCH   2  14
ATOM     14  O   UNL     1       4.372 -17.134  14.730  1.00  0.00    -0.490 OA
ATOM     15  C   UNL     1       3.960 -17.800  15.920  1.00  0.00     0.278 C 
ENDBRANCH   2  14
BRANCH   3  16
ATOM     16  O   UNL     1       2.842 -14.776  14.083  1.00  0.00    -0.490 OA
ATOM     17  C   UNL     1       1.766 -14.855  15.011  1.00  0.00     0.278 C 
ENDBRANCH   3  16
TORSDOF 3
ENDMDL
