MODEL 1
REMARK VINA RESULT:    -3.855      0.000      0.000
REMARK INTER + INTRA:          -4.227
REMARK INTER:                  -4.193
REMARK INTRA:                  -0.034
REMARK UNBOUND:                -0.034
REMARK SMILES COc1ccccc1O
REMARK SMILES IDX 3 1 4 2 5 3 6 4 7 5 8 6 2 7 1 8 9 9
REMARK H PARENT 9 10
REMARK Flexibility Score: inf
ROOT
ATOM      1  C   UNL     1      12.514  16.424   9.428  1.00  0.00     0.160 A 
ATOM      2  C   UNL     1      13.198  15.296   9.923  1.00  0.00     0.050 A 
ATOM      3  C   UNL     1      12.873  14.765  11.174  1.00  0.00     0.004 A 
ATOM      4  C   UNL     1      11.865  15.350  11.942  1.00  0.00     0.004 A 
ATOM      5  C   UNL     1      11.180  16.467  11.462  1.00  0.00     0.050 A 
ATOM      6  C   UNL     1      11.498  17.008  10.210  1.00  0.00     0.157 A 
ENDROOT
BRANCH   1   7
ATOM      7  O   UNL     1      12.813  16.985   8.177  1.00  0.00    -0.493 OA
ATOM      8  C   UNL     1      14.124  17.331   7.741  1.00  0.00     0.278 C 
ENDBRANCH   1   7
BRANCH   6   9
ATOM      9  O   UNL     1      10.794  18.125   9.760  1.00  0.00    -0.504 OA
ATOM     10  H   UNL     1      11.262  18.955   9.418  1.00  0.00     0.293 HD
ENDBRANCH   6   9
TORSDOF 2
ENDMDL
MODEL 2
REMARK VINA RESULT:    -3.700      2.603      3.408
REMARK INTER + INTRA:          -4.058
REMARK INTER:                  -4.018
REMARK INTRA:                  -0.041
REMARK UNBOUND:                -0.034
REMARK SMILES COc1ccccc1O
REMARK SMILES IDX 3 1 4 2 5 3 6 4 7 5 8 6 2 7 1 8 9 9
REMARK H PARENT 9 10
REMARK Flexibility Score: inf
ROOT
ATOM      1  C   UNL     1      11.875  14.535  10.008  1.00  0.00     0.160 A 
ATOM      2  C   UNL     1      11.730  15.516   9.006  1.00  0.00     0.050 A 
ATOM      3  C   UNL     1      11.379  16.826   9.345  1.00  0.00     0.004 A 
ATOM      4  C   UNL     1      11.168  17.171  10.680  1.00  0.00     0.004 A 
ATOM      5  C   UNL     1      11.307  16.208  11.681  1.00  0.00     0.050 A 
ATOM      6  C   UNL     1      11.660  14.892  11.353  1.00  0.00     0.157 A 
ENDROOT
BRANCH   1   7
ATOM      7  O   UNL     1      12.226  13.211   9.706  1.00  0.00    -0.493 OA
ATOM      8  C   UNL     1      11.426  12.319   8.936  1.00  0.00     0.278 C 
ENDBRANCH   1   7
BRANCH   6   9
ATOM      9  O   UNL     1      11.791  13.955  12.377  1.00  0.00    -0.504 OA
ATOM     10  H   UNL     1      12.299  14.155  13.230  1.00  0.00     0.293 HD
ENDBRANCH   6   9
TORSDOF 2
ENDMDL
MODEL 3
REMARK VINA RESULT:    -3.691      1.590      2.031
REMARK INTER + INTRA:          -4.048
REMARK INTER:                  -4.004
REMARK INTRA:                  -0.044
REMARK UNBOUND:                -0.034
REMARK SMILES COc1ccccc1O
REMARK SMILES IDX 3 1 4 2 5 3 6 4 7 5 8 6 2 7 1 8 9 9
REMARK H PARENT 9 10
REMARK Flexibility Score: inf
ROOT
ATOM      1  C   UNL     1      13.476  16.782  10.297  1.00  0.00     0.160 A 
ATOM      2  C   UNL     1      13.216  16.169  11.540  1.00  0.00     0.050 A 
ATOM      3  C   UNL     1      11.904  15.885  11.928  1.00  0.00     0.004 A 
ATOM      4  C   UNL     1      10.840  16.208  11.085  1.00  0.00     0.004 A 
ATOM      5  C   UNL     1      11.084  16.816   9.852  1.00  0.00     0.050 A 
ATOM      6  C   UNL     1      12.395  17.105   9.453  1.00  0.00     0.157 A 
ENDROOT
BRANCH   1   7
ATOM      7  O   UNL     1      14.780  17.082   9.874  1.00  0.00    -0.493 OA
ATOM      8  C   UNL     1      15.587  18.120  10.421  1.00  0.00     0.278 C 
ENDBRANCH   1   7
BRANCH   6   9
ATOM      9  O   UNL     1      12.604  17.712   8.215  1.00  0.00    -0.504 OA
ATOM     10  H   UNL     1      11.983  18.423   7.851  1.00  0.00     0.293 HD
ENDBRANCH   6   9
TORSDOF 2
ENDMDL
MODEL 4
REMARK VINA RESULT:    -3.631      1.648      3.662
REMARK INTER + INTRA:          -3.983
REMARK INTER:                  -3.937
REMARK INTRA:                  -0.046
REMARK UNBOUND:                -0.034
REMARK SMILES COc1ccccc1O
REMARK SMILES IDX 3 1 4 2 5 3 6 4 7 5 8 6 2 7 1 8 9 9
REMARK H PARENT 9 10
REMARK Flexibility Score: inf
ROOT
ATOM      1  C   UNL     1      13.620  16.495   9.360  1.00  0.00     0.160 A 
ATOM      2  C   UNL     1      14.680  15.731   9.889  1.00  0.00     0.050 A 
ATOM      3  C   UNL     1      15.879  15.602   9.183  1.00  0.00     0.004 A 
ATOM      4  C   UNL     1      16.035  16.229   7.946  1.00  0.00     0.004 A 
ATOM      5  C   UNL     1      14.992  16.988   7.411  1.00  0.00     0.050 A 
ATOM      6  C   UNL     1      13.786  17.124   8.110  1.00  0.00     0.157 A 
ENDROOT
BRANCH   1   7
ATOM      7  O   UNL     1      12.402  16.647  10.039  1.00  0.00    -0.493 OA
ATOM      8  C   UNL     1      11.369  15.667  10.073  1.00  0.00     0.278 C 
ENDBRANCH   1   7
BRANCH   6   9
ATOM      9  O   UNL     1      12.765  17.889   7.548  1.00  0.00    -0.504 OA
ATOM     10  H   UNL     1      12.867  18.881   7.372  1.00  0.00     0.293 HD
ENDBRANCH   6   9
TORSDOF 2
ENDMDL
MODEL 5
REMARK VINA RESULT:    -3.566      2.126      3.082
REMARK INTER + INTRA:          -3.912
REMARK INTER:                  -3.881
REMARK INTRA:                  -0.031
REMARK UNBOUND:                -0.034
REMARK SMILES COc1ccccc1O
REMARK SMILES IDX 3 1 4 2 5 3 6 4 7 5 8 6 2 7 1 8 9 9
REMARK H PARENT 9 10
REMARK Flexibility Score: inf
ROOT
ATOM      1  C   UNL     1      13.007  17.213  10.922  1.00  0.00     0.160 A 
ATOM      2  C   UNL     1      13.881  16.986   9.839  1.00  0.00     0.050 A 
ATOM      3  C   UNL     1      13.374  16.768   8.556  1.00  0.00     0.004 A 
ATOM      4  C   UNL     1      11.996  16.773   8.337  1.00  0.00     0.004 A 
ATOM      5  C   UNL     1      11.120  16.996   9.401  1.00  0.00     0.050 A 
ATOM      6  C   UNL     1      11.618  17.216  10.692  1.00  0.00     0.157 A 
ENDROOT
BRANCH   1   7
ATOM      7  O   UNL     1      13.480  17.436  12.225  1.00  0.00    -0.493 OA
ATOM      8  C   UNL     1      14.515  16.682  12.847  1.00  0.00     0.278 C 
ENDBRANCH   1   7
BRANCH   6   9
ATOM      9  O   UNL     1      10.716  17.436  11.733  1.00  0.00    -0.504 OA
ATOM     10  H   UNL     1      10.128  18.259  11.772  1.00  0.00     0.293 HD
ENDBRANCH   6   9
TORSDOF 2
ENDMDL
MODEL 6
REMARK VINA RESULT:    -3.492      9.423     10.478
REMARK INTER + INTRA:          -3.832
REMARK INTER:                  -3.790
REMARK INTRA:                  -0.041
REMARK UNBOUND:                -0.034
REMARK SMILES COc1ccccc1O
REMARK SMILES IDX 3 1 4 2 5 3 6 4 7 5 8 6 2 7 1 8 9 9
REMARK H PARENT 9 10
REMARK Flexibility Score: inf
ROOT
ATOM      1  C   UNL     1      17.507  12.924  18.351  1.00  0.00     0.160 A 
ATOM      2  C   UNL     1      16.405  12.521  17.569  1.00  0.00     0.050 A 
ATOM      3  C   UNL     1      15.684  13.459  16.827  1.00  0.00     0.004 A 
ATOM      4  C   UNL     1      16.050  14.806  16.855  1.00  0.00     0.004 A 
ATOM      5  C   UNL     1      17.139  15.218  17.626  1.00  0.00     0.050 A 
ATOM      6  C   UNL     1      17.869  14.285  18.374  1.00  0.00     0.157 A 
ENDROOT
BRANCH   1   7
ATOM      7  O   UNL     1      18.255  12.011  19.109  1.00  0.00    -0.493 OA
ATOM      8  C   UNL     1      19.044  10.961  18.559  1.00  0.00     0.278 C 
ENDBRANCH   1   7
BRANCH   6   9
ATOM      9  O   UNL     1      18.951  14.730  19.133  1.00  0.00    -0.504 OA
ATOM     10  H   UNL     1      19.253  14.254  19.974  1.00  0.00     0.293 HD
ENDBRANCH   6   9
TORSDOF 2
ENDMDL
MODEL 7
REMARK VINA RESULT:    -3.427     10.376     11.384
REMARK INTER + INTRA:          -3.761
REMARK INTER:                  -3.720
REMARK INTRA:                  -0.041
REMARK UNBOUND:                -0.034
REMARK SMILES COc1ccccc1O
REMARK SMILES IDX 3 1 4 2 5 3 6 4 7 5 8 6 2 7 1 8 9 9
REMARK H PARENT 9 10
REMARK Flexibility Score: inf
ROOT
ATOM      1  C   UNL     1      17.536  12.684  18.535  1.00  0.00     0.160 A 
ATOM      2  C   UNL     1      17.119  11.396  18.929  1.00  0.00     0.050 A 
ATOM      3  C   UNL     1      17.501  10.879  20.170  1.00  0.00     0.004 A 
ATOM      4  C   UNL     1      18.299  11.636  21.028  1.00  0.00     0.004 A 
ATOM      5  C   UNL     1      18.718  12.913  20.649  1.00  0.00     0.050 A 
ATOM      6  C   UNL     1      18.341  13.441  19.408  1.00  0.00     0.157 A 
ENDROOT
BRANCH   1   7
ATOM      7  O   UNL     1      17.172  13.236  17.297  1.00  0.00    -0.493 OA
ATOM      8  C   UNL     1      15.836  13.547  16.913  1.00  0.00     0.278 C 
ENDBRANCH   1   7
BRANCH   6   9
ATOM      9  O   UNL     1      18.777  14.719  19.060  1.00  0.00    -0.504 OA
ATOM     10  H   UNL     1      18.289  15.289  18.379  1.00  0.00     0.293 HD
ENDBRANCH   6   9
TORSDOF 2
ENDMDL
MODEL 8
REMARK VINA RESULT:    -3.410      2.130      2.487
REMARK INTER + INTRA:          -3.743
REMARK INTER:                  -3.718
REMARK INTRA:                  -0.025
REMARK UNBOUND:                -0.034
REMARK SMILES COc1ccccc1O
REMARK SMILES IDX 3 1 4 2 5 3 6 4 7 5 8 6 2 7 1 8 9 9
REMARK H PARENT 9 10
REMARK Flexibility Score: inf
ROOT
ATOM      1  C   UNL     1      13.433  17.102  10.521  1.00  0.00     0.160 A 
ATOM      2  C   UNL     1      12.552  16.976   9.428  1.00  0.00     0.050 A 
ATOM      3  C   UNL     1      11.235  16.552   9.626  1.00  0.00     0.004 A 
ATOM      4  C   UNL     1      10.783  16.251  10.911  1.00  0.00     0.004 A 
ATOM      5  C   UNL     1      11.646  16.371  12.002  1.00  0.00     0.050 A 
ATOM      6  C   UNL     1      12.967  16.794  11.815  1.00  0.00     0.157 A 
ENDROOT
BRANCH   1   7
ATOM      7  O   UNL     1      14.761  17.524  10.360  1.00  0.00    -0.493 OA
ATOM      8  C   UNL     1      15.398  17.724   9.102  1.00  0.00     0.278 C 
ENDBRANCH   1   7
BRANCH   6   9
ATOM      9  O   UNL     1      13.803  16.904  12.926  1.00  0.00    -0.504 OA
ATOM     10  H   UNL     1      14.505  17.630  13.003  1.00  0.00     0.293 HD
ENDBRANCH   6   9
TORSDOF 2
ENDMDL
MODEL 9
REMARK VINA RESULT:    -3.401      6.424      7.081
REMARK INTER + INTRA:          -3.733
REMARK INTER:                  -3.688
REMARK INTRA:                  -0.045
REMARK UNBOUND:                -0.034
REMARK SMILES COc1ccccc1O
REMARK SMILES IDX 3 1 4 2 5 3 6 4 7 5 8 6 2 7 1 8 9 9
REMARK H PARENT 9 10
REMARK Flexibility Score: inf
ROOT
ATOM      1  C   UNL     1      12.590   9.677   6.662  1.00  0.00     0.160 A 
ATOM      2  C   UNL     1      13.098   8.918   7.736  1.00  0.00     0.050 A 
ATOM      3  C   UNL     1      12.614   9.113   9.031  1.00  0.00     0.004 A 
ATOM      4  C   UNL     1      11.620  10.063   9.272  1.00  0.00     0.004 A 
ATOM      5  C   UNL     1      11.108  10.821   8.217  1.00  0.00     0.050 A 
ATOM      6  C   UNL     1      11.587  10.634   6.914  1.00  0.00     0.157 A 
ENDROOT
BRANCH   1   7
ATOM      7  O   UNL     1      13.052   9.509   5.348  1.00  0.00    -0.493 OA
ATOM      8  C   UNL     1      14.321   9.953   4.876  1.00  0.00     0.278 C 
ENDBRANCH   1   7
BRANCH   6   9
ATOM      9  O   UNL     1      11.055  11.407   5.883  1.00  0.00    -0.504 OA
ATOM     10  H   UNL     1      11.348  12.362   5.718  1.00  0.00     0.293 HD
ENDBRANCH   6   9
TORSDOF 2
ENDMDL
