MODEL 1
REMARK VINA RESULT:    -5.804      0.000      0.000
REMARK INTER + INTRA:          -6.387
REMARK INTER:                  -6.143
REMARK INTRA:                  -0.244
REMARK UNBOUND:                -0.244
REMARK SMILES O=c1cc(-c2ccccc2)oc2ccccc12
REMARK SMILES IDX 4 1 3 2 2 3 1 4 17 5 16 6 15 7 14 8 13 9 12 10 11 11 5 12
REMARK SMILES IDX 8 13 7 14 9 15 6 16 10 17
REMARK H PARENT
REMARK Flexibility Score: inf
ROOT
ATOM      1  C   UNL     1      -1.183   8.495   0.737  1.00  0.00     0.138 A 
ATOM      2  C   UNL     1      -0.193   9.478   0.537  1.00  0.00     0.100 A 
ATOM      3  C   UNL     1       1.153   9.107   0.512  1.00  0.00     0.193 A 
ATOM      4  O   UNL     1       2.038   9.987   0.334  1.00  0.00    -0.289 OA
ATOM      5  C   UNL     1       1.501   7.760   0.688  1.00  0.00     0.065 A 
ATOM      6  C   UNL     1       2.836   7.319   0.675  1.00  0.00     0.016 A 
ATOM      7  C   UNL     1       3.127   5.963   0.855  1.00  0.00     0.001 A 
ATOM      8  C   UNL     1       2.094   5.042   1.049  1.00  0.00     0.004 A 
ATOM      9  C   UNL     1       0.764   5.471   1.063  1.00  0.00     0.048 A 
ATOM     10  C   UNL     1       0.461   6.826   0.884  1.00  0.00     0.138 A 
ATOM     11  O   UNL     1      -0.806   7.225   0.900  1.00  0.00    -0.456 OA
ENDROOT
BRANCH   1  12
ATOM     12  C   UNL     1      -2.645   8.806   0.777  1.00  0.00     0.017 A 
ATOM     13  C   UNL     1      -5.421   9.320   0.792  1.00  0.00     0.000 A 
ATOM     14  C   UNL     1      -4.558  10.125   1.534  1.00  0.00     0.001 A 
ATOM     15  C   UNL     1      -4.911   8.261   0.041  1.00  0.00     0.001 A 
ATOM     16  C   UNL     1      -3.182   9.875   1.531  1.00  0.00     0.012 A 
ATOM     17  C   UNL     1      -3.537   8.004   0.033  1.00  0.00     0.012 A 
ENDBRANCH   1  12
TORSDOF 1
ENDMDL
MODEL 2
REMARK VINA RESULT:    -5.582      1.518      6.018
REMARK INTER + INTRA:          -6.152
REMARK INTER:                  -5.932
REMARK INTRA:                  -0.220
REMARK UNBOUND:                -0.244
REMARK SMILES O=c1cc(-c2ccccc2)oc2ccccc12
REMARK SMILES IDX 4 1 3 2 2 3 1 4 17 5 16 6 15 7 14 8 13 9 12 10 11 11 5 12
REMARK SMILES IDX 8 13 7 14 9 15 6 16 10 17
REMARK H PARENT
REMARK Flexibility Score: inf
ROOT
ATOM      1  C   UNL     1      -0.711   7.756   0.507  1.00  0.00     0.138 A 
ATOM      2  C   UNL     1      -1.171   8.652   1.493  1.00  0.00     0.100 A 
ATOM      3  C   UNL     1      -2.381   9.323   1.306  1.00  0.00     0.193 A 
ATOM      4  O   UNL     1      -2.791  10.125   2.188  1.00  0.00    -0.289 OA
ATOM      5  C   UNL     1      -3.121   9.097   0.137  1.00  0.00     0.065 A 
ATOM      6  C   UNL     1      -4.346   9.740  -0.116  1.00  0.00     0.016 A 
ATOM      7  C   UNL     1      -5.045   9.477  -1.299  1.00  0.00     0.001 A 
ATOM      8  C   UNL     1      -4.528   8.575  -2.234  1.00  0.00     0.004 A 
ATOM      9  C   UNL     1      -3.312   7.932  -1.991  1.00  0.00     0.048 A 
ATOM     10  C   UNL     1      -2.605   8.188  -0.811  1.00  0.00     0.138 A 
ATOM     11  O   UNL     1      -1.448   7.571  -0.590  1.00  0.00    -0.456 OA
ENDROOT
BRANCH   1  12
ATOM     12  C   UNL     1       0.572   6.998   0.630  1.00  0.00     0.017 A 
ATOM     13  C   UNL     1       3.041   5.642   0.821  1.00  0.00     0.000 A 
ATOM     14  C   UNL     1       1.870   5.027   1.263  1.00  0.00     0.001 A 
ATOM     15  C   UNL     1       2.991   6.928   0.284  1.00  0.00     0.001 A 
ATOM     16  C   UNL     1       0.644   5.694   1.171  1.00  0.00     0.012 A 
ATOM     17  C   UNL     1       1.769   7.602   0.188  1.00  0.00     0.012 A 
ENDBRANCH   1  12
TORSDOF 1
ENDMDL
MODEL 3
REMARK VINA RESULT:    -5.298     12.524     13.322
REMARK INTER + INTRA:          -5.852
REMARK INTER:                  -5.603
REMARK INTRA:                  -0.249
REMARK UNBOUND:                -0.244
REMARK SMILES O=c1cc(-c2ccccc2)oc2ccccc12
REMARK SMILES IDX 4 1 3 2 2 3 1 4 17 5 16 6 15 7 14 8 13 9 12 10 11 11 5 12
REMARK SMILES IDX 8 13 7 14 9 15 6 16 10 17
REMARK H PARENT
REMARK Flexibility Score: inf
ROOT
ATOM      1  C   UNL     1      -3.903   0.128  -9.000  1.00  0.00     0.138 A 
ATOM      2  C   UNL     1      -2.812   0.985  -9.253  1.00  0.00     0.100 A 
ATOM      3  C   UNL     1      -1.574   0.441  -9.604  1.00  0.00     0.193 A 
ATOM      4  O   UNL     1      -0.600   1.208  -9.830  1.00  0.00    -0.289 OA
ATOM      5  C   UNL     1      -1.434  -0.951  -9.698  1.00  0.00     0.065 A 
ATOM      6  C   UNL     1      -0.217  -1.563 -10.045  1.00  0.00     0.016 A 
ATOM      7  C   UNL     1      -0.132  -2.957 -10.125  1.00  0.00     0.001 A 
ATOM      8  C   UNL     1      -1.255  -3.746  -9.860  1.00  0.00     0.004 A 
ATOM      9  C   UNL     1      -2.468  -3.146  -9.514  1.00  0.00     0.048 A 
ATOM     10  C   UNL     1      -2.564  -1.752  -9.431  1.00  0.00     0.138 A 
ATOM     11  O   UNL     1      -3.723  -1.191  -9.101  1.00  0.00    -0.456 OA
ENDROOT
BRANCH   1  12
ATOM     12  C   UNL     1      -5.260   0.627  -8.619  1.00  0.00     0.017 A 
ATOM     13  C   UNL     1      -7.829   1.496  -7.837  1.00  0.00     0.000 A 
ATOM     14  C   UNL     1      -7.127   2.189  -8.822  1.00  0.00     0.001 A 
ATOM     15  C   UNL     1      -7.261   0.372  -7.239  1.00  0.00     0.001 A 
ATOM     16  C   UNL     1      -5.854   1.764  -9.214  1.00  0.00     0.012 A 
ATOM     17  C   UNL     1      -5.988  -0.060  -7.624  1.00  0.00     0.012 A 
ENDBRANCH   1  12
TORSDOF 1
ENDMDL
MODEL 4
REMARK VINA RESULT:    -5.269     12.541     13.179
REMARK INTER + INTRA:          -5.821
REMARK INTER:                  -5.571
REMARK INTRA:                  -0.250
REMARK UNBOUND:                -0.244
REMARK SMILES O=c1cc(-c2ccccc2)oc2ccccc12
REMARK SMILES IDX 4 1 3 2 2 3 1 4 17 5 16 6 15 7 14 8 13 9 12 10 11 11 5 12
REMARK SMILES IDX 8 13 7 14 9 15 6 16 10 17
REMARK H PARENT
REMARK Flexibility Score: inf
ROOT
ATOM      1  C   UNL     1      -3.728  -0.033  -8.986  1.00  0.00     0.138 A 
ATOM      2  C   UNL     1      -3.381  -1.392  -8.846  1.00  0.00     0.100 A 
ATOM      3  C   UNL     1      -2.060  -1.793  -9.062  1.00  0.00     0.193 A 
ATOM      4  O   UNL     1      -1.751  -3.009  -8.937  1.00  0.00    -0.289 OA
ATOM      5  C   UNL     1      -1.099  -0.837  -9.418  1.00  0.00     0.065 A 
ATOM      6  C   UNL     1       0.247  -1.173  -9.651  1.00  0.00     0.016 A 
ATOM      7  C   UNL     1       1.166  -0.179 -10.003  1.00  0.00     0.001 A 
ATOM      8  C   UNL     1       0.751   1.150 -10.125  1.00  0.00     0.004 A 
ATOM      9  C   UNL     1      -0.584   1.493  -9.895  1.00  0.00     0.048 A 
ATOM     10  C   UNL     1      -1.512   0.506  -9.542  1.00  0.00     0.138 A 
ATOM     11  O   UNL     1      -2.779   0.842  -9.326  1.00  0.00    -0.456 OA
ENDROOT
BRANCH   1  12
ATOM     12  C   UNL     1      -5.116   0.479  -8.772  1.00  0.00     0.017 A 
ATOM     13  C   UNL     1      -7.747   1.385  -8.295  1.00  0.00     0.000 A 
ATOM     14  C   UNL     1      -6.994   1.941  -9.328  1.00  0.00     0.001 A 
ATOM     15  C   UNL     1      -7.199   0.380  -7.498  1.00  0.00     0.001 A 
ATOM     16  C   UNL     1      -5.690   1.497  -9.569  1.00  0.00     0.012 A 
ATOM     17  C   UNL     1      -5.896  -0.070  -7.732  1.00  0.00     0.012 A 
ENDBRANCH   1  12
TORSDOF 1
ENDMDL
MODEL 5
REMARK VINA RESULT:    -5.139      1.891      6.215
REMARK INTER + INTRA:          -5.683
REMARK INTER:                  -5.457
REMARK INTRA:                  -0.226
REMARK UNBOUND:                -0.244
REMARK SMILES O=c1cc(-c2ccccc2)oc2ccccc12
REMARK SMILES IDX 4 1 3 2 2 3 1 4 17 5 16 6 15 7 14 8 13 9 12 10 11 11 5 12
REMARK SMILES IDX 8 13 7 14 9 15 6 16 10 17
REMARK H PARENT
REMARK Flexibility Score: inf
ROOT
ATOM      1  C   UNL     1      -1.921   8.457   0.390  1.00  0.00     0.138 A 
ATOM      2  C   UNL     1      -2.643   9.126   1.399  1.00  0.00     0.100 A 
ATOM      3  C   UNL     1      -3.958   9.527   1.156  1.00  0.00     0.193 A 
ATOM      4  O   UNL     1      -4.603  10.125   2.059  1.00  0.00    -0.289 OA
ATOM      5  C   UNL     1      -4.542   9.260  -0.091  1.00  0.00     0.065 A 
ATOM      6  C   UNL     1      -5.860   9.637  -0.402  1.00  0.00     0.016 A 
ATOM      7  C   UNL     1      -6.393   9.346  -1.662  1.00  0.00     0.001 A 
ATOM      8  C   UNL     1      -5.618   8.680  -2.616  1.00  0.00     0.004 A 
ATOM      9  C   UNL     1      -4.308   8.301  -2.315  1.00  0.00     0.048 A 
ATOM     10  C   UNL     1      -3.764   8.588  -1.057  1.00  0.00     0.138 A 
ATOM     11  O   UNL     1      -2.516   8.224  -0.782  1.00  0.00    -0.456 OA
ENDROOT
BRANCH   1  12
ATOM     12  C   UNL     1      -0.510   7.994   0.568  1.00  0.00     0.017 A 
ATOM     13  C   UNL     1       2.120   7.027   0.911  1.00  0.00     0.000 A 
ATOM     14  C   UNL     1       1.893   8.394   0.751  1.00  0.00     0.001 A 
ATOM     15  C   UNL     1       1.046   6.139   0.902  1.00  0.00     0.001 A 
ATOM     16  C   UNL     1       0.593   8.879   0.580  1.00  0.00     0.012 A 
ATOM     17  C   UNL     1      -0.258   6.614   0.732  1.00  0.00     0.012 A 
ENDBRANCH   1  12
TORSDOF 1
ENDMDL
MODEL 6
REMARK VINA RESULT:    -5.014     13.024     14.221
REMARK INTER + INTRA:          -5.551
REMARK INTER:                  -5.294
REMARK INTRA:                  -0.257
REMARK UNBOUND:                -0.244
REMARK SMILES O=c1cc(-c2ccccc2)oc2ccccc12
REMARK SMILES IDX 4 1 3 2 2 3 1 4 17 5 16 6 15 7 14 8 13 9 12 10 11 11 5 12
REMARK SMILES IDX 8 13 7 14 9 15 6 16 10 17
REMARK H PARENT
REMARK Flexibility Score: inf
ROOT
ATOM      1  C   UNL     1       0.090  -1.170  -9.384  1.00  0.00     0.138 A 
ATOM      2  C   UNL     1       1.260  -0.403  -9.208  1.00  0.00     0.100 A 
ATOM      3  C   UNL     1       2.509  -1.018  -9.306  1.00  0.00     0.193 A 
ATOM      4  O   UNL     1       3.555  -0.332  -9.147  1.00  0.00    -0.289 OA
ATOM      5  C   UNL     1       2.583  -2.391  -9.578  1.00  0.00     0.065 A 
ATOM      6  C   UNL     1       3.808  -3.073  -9.688  1.00  0.00     0.016 A 
ATOM      7  C   UNL     1       3.823  -4.445  -9.961  1.00  0.00     0.001 A 
ATOM      8  C   UNL     1       2.624  -5.143 -10.124  1.00  0.00     0.004 A 
ATOM      9  C   UNL     1       1.402  -4.474 -10.016  1.00  0.00     0.048 A 
ATOM     10  C   UNL     1       1.374  -3.101  -9.743  1.00  0.00     0.138 A 
ATOM     11  O   UNL     1       0.207  -2.474  -9.641  1.00  0.00    -0.456 OA
ENDROOT
BRANCH   1  12
ATOM     12  C   UNL     1      -1.286  -0.590  -9.296  1.00  0.00     0.017 A 
ATOM     13  C   UNL     1      -3.846   0.591  -9.158  1.00  0.00     0.000 A 
ATOM     14  C   UNL     1      -3.681  -0.757  -8.844  1.00  0.00     0.001 A 
ATOM     15  C   UNL     1      -2.745   1.356  -9.540  1.00  0.00     0.001 A 
ATOM     16  C   UNL     1      -2.415  -1.348  -8.911  1.00  0.00     0.012 A 
ATOM     17  C   UNL     1      -1.476   0.774  -9.610  1.00  0.00     0.012 A 
ENDBRANCH   1  12
TORSDOF 1
ENDMDL
MODEL 7
REMARK VINA RESULT:    -4.946      1.781      3.135
REMARK INTER + INTRA:          -5.479
REMARK INTER:                  -5.257
REMARK INTRA:                  -0.222
REMARK UNBOUND:                -0.244
REMARK SMILES O=c1cc(-c2ccccc2)oc2ccccc12
REMARK SMILES IDX 4 1 3 2 2 3 1 4 17 5 16 6 15 7 14 8 13 9 12 10 11 11 5 12
REMARK SMILES IDX 8 13 7 14 9 15 6 16 10 17
REMARK H PARENT
REMARK Flexibility Score: inf
ROOT
ATOM      1  C   UNL     1      -2.959   8.444  -0.127  1.00  0.00     0.138 A 
ATOM      2  C   UNL     1      -2.599   7.083  -0.048  1.00  0.00     0.100 A 
ATOM      3  C   UNL     1      -1.294   6.735   0.306  1.00  0.00     0.193 A 
ATOM      4  O   UNL     1      -0.973   5.518   0.376  1.00  0.00    -0.289 OA
ATOM      5  C   UNL     1      -0.359   7.744   0.575  1.00  0.00     0.065 A 
ATOM      6  C   UNL     1       0.971   7.463   0.935  1.00  0.00     0.016 A 
ATOM      7  C   UNL     1       1.863   8.508   1.194  1.00  0.00     0.001 A 
ATOM      8  C   UNL     1       1.437   9.836   1.096  1.00  0.00     0.004 A 
ATOM      9  C   UNL     1       0.117  10.125   0.739  1.00  0.00     0.048 A 
ATOM     10  C   UNL     1      -0.784   9.086   0.478  1.00  0.00     0.138 A 
ATOM     11  O   UNL     1      -2.036   9.372   0.138  1.00  0.00    -0.456 OA
ENDROOT
BRANCH   1  12
ATOM     12  C   UNL     1      -4.333   8.903  -0.497  1.00  0.00     0.017 A 
ATOM     13  C   UNL     1      -6.908   9.750  -1.289  1.00  0.00     0.000 A 
ATOM     14  C   UNL     1      -6.538   9.801   0.054  1.00  0.00     0.001 A 
ATOM     15  C   UNL     1      -6.004   9.280  -2.242  1.00  0.00     0.001 A 
ATOM     16  C   UNL     1      -5.264   9.383   0.453  1.00  0.00     0.012 A 
ATOM     17  C   UNL     1      -4.728   8.860  -1.852  1.00  0.00     0.012 A 
ENDBRANCH   1  12
TORSDOF 1
ENDMDL
MODEL 8
REMARK VINA RESULT:    -4.796     12.903     14.089
REMARK INTER + INTRA:          -5.321
REMARK INTER:                  -5.059
REMARK INTRA:                  -0.262
REMARK UNBOUND:                -0.244
REMARK SMILES O=c1cc(-c2ccccc2)oc2ccccc12
REMARK SMILES IDX 4 1 3 2 2 3 1 4 17 5 16 6 15 7 14 8 13 9 12 10 11 11 5 12
REMARK SMILES IDX 8 13 7 14 9 15 6 16 10 17
REMARK H PARENT
REMARK Flexibility Score: inf
ROOT
ATOM      1  C   UNL     1      -1.653  -1.155  -9.501  1.00  0.00     0.138 A 
ATOM      2  C   UNL     1      -1.693  -2.548  -9.713  1.00  0.00     0.100 A 
ATOM      3  C   UNL     1      -0.503  -3.248  -9.922  1.00  0.00     0.193 A 
ATOM      4  O   UNL     1      -0.539  -4.494 -10.112  1.00  0.00    -0.289 OA
ATOM      5  C   UNL     1       0.716  -2.555  -9.920  1.00  0.00     0.065 A 
ATOM      6  C   UNL     1       1.949  -3.198 -10.125  1.00  0.00     0.016 A 
ATOM      7  C   UNL     1       3.136  -2.457 -10.112  1.00  0.00     0.001 A 
ATOM      8  C   UNL     1       3.100  -1.077  -9.896  1.00  0.00     0.004 A 
ATOM      9  C   UNL     1       1.879  -0.430  -9.691  1.00  0.00     0.048 A 
ATOM     10  C   UNL     1       0.686  -1.161  -9.702  1.00  0.00     0.138 A 
ATOM     11  O   UNL     1      -0.470  -0.535  -9.506  1.00  0.00    -0.456 OA
ENDROOT
BRANCH   1  12
ATOM     12  C   UNL     1      -2.879  -0.330  -9.268  1.00  0.00     0.017 A 
ATOM     13  C   UNL     1      -5.142   1.305  -8.856  1.00  0.00     0.000 A 
ATOM     14  C   UNL     1      -5.225  -0.069  -8.638  1.00  0.00     0.001 A 
ATOM     15  C   UNL     1      -3.940   1.872  -9.277  1.00  0.00     0.001 A 
ATOM     16  C   UNL     1      -4.107  -0.885  -8.841  1.00  0.00     0.012 A 
ATOM     17  C   UNL     1      -2.817   1.064  -9.483  1.00  0.00     0.012 A 
ENDBRANCH   1  12
TORSDOF 1
ENDMDL
MODEL 9
REMARK VINA RESULT:    -4.079      1.818      6.349
REMARK INTER + INTRA:          -4.561
REMARK INTER:                  -4.340
REMARK INTRA:                  -0.221
REMARK UNBOUND:                -0.244
REMARK SMILES O=c1cc(-c2ccccc2)oc2ccccc12
REMARK SMILES IDX 4 1 3 2 2 3 1 4 17 5 16 6 15 7 14 8 13 9 12 10 11 11 5 12
REMARK SMILES IDX 8 13 7 14 9 15 6 16 10 17
REMARK H PARENT
REMARK Flexibility Score: inf
ROOT
ATOM      1  C   UNL     1      -1.923   7.727  -0.145  1.00  0.00     0.138 A 
ATOM      2  C   UNL     1      -2.296   7.763  -1.504  1.00  0.00     0.100 A 
ATOM      3  C   UNL     1      -3.531   8.306  -1.866  1.00  0.00     0.193 A 
ATOM      4  O   UNL     1      -3.864   8.337  -3.082  1.00  0.00    -0.289 OA
ATOM      5  C   UNL     1      -4.383   8.807  -0.872  1.00  0.00     0.065 A 
ATOM      6  C   UNL     1      -5.639   9.366  -1.167  1.00  0.00     0.016 A 
ATOM      7  C   UNL     1      -6.449   9.851  -0.136  1.00  0.00     0.001 A 
ATOM      8  C   UNL     1      -6.015   9.783   1.191  1.00  0.00     0.004 A 
ATOM      9  C   UNL     1      -4.768   9.229   1.494  1.00  0.00     0.048 A 
ATOM     10  C   UNL     1      -3.949   8.740   0.469  1.00  0.00     0.138 A 
ATOM     11  O   UNL     1      -2.766   8.215   0.768  1.00  0.00    -0.456 OA
ENDROOT
BRANCH   1  12
ATOM     12  C   UNL     1      -0.621   7.164   0.328  1.00  0.00     0.017 A 
ATOM     13  C   UNL     1       1.880   6.187   1.201  1.00  0.00     0.000 A 
ATOM     14  C   UNL     1       0.758   5.360   1.231  1.00  0.00     0.001 A 
ATOM     15  C   UNL     1       1.765   7.497   0.739  1.00  0.00     0.001 A 
ATOM     16  C   UNL     1      -0.484   5.838   0.800  1.00  0.00     0.012 A 
ATOM     17  C   UNL     1       0.528   7.984   0.306  1.00  0.00     0.012 A 
ENDBRANCH   1  12
TORSDOF 1
ENDMDL
