MODEL 1
REMARK VINA RESULT:    -4.057      0.000      0.000
REMARK INTER + INTRA:          -5.870
REMARK INTER:                  -5.598
REMARK INTRA:                  -0.271
REMARK UNBOUND:                -0.271
REMARK SMILES CCCCCCCCO
REMARK SMILES IDX 5 1 4 2 3 3 2 4 1 5 6 6 7 7 8 8 9 9
REMARK H PARENT 9 10
REMARK Flexibility Score: inf
ROOT
ATOM      1  C   UNL     1      20.480  18.886  21.679  1.00  0.00     0.000 C 
ENDROOT
BRANCH   1   2
ATOM      2  C   UNL     1      19.638  17.961  22.567  1.00  0.00    -0.000 C 
BRANCH   2   3
ATOM      3  C   UNL     1      19.674  18.420  24.030  1.00  0.00    -0.000 C 
BRANCH   3   4
ATOM      4  C   UNL     1      19.652  17.220  24.983  1.00  0.00    -0.003 C 
ATOM      5  C   UNL     1      20.371  16.019  24.374  1.00  0.00     0.004 C 
ENDBRANCH   3   4
ENDBRANCH   2   3
ENDBRANCH   1   2
BRANCH   1   6
ATOM      6  C   UNL     1      21.124  20.007  22.504  1.00  0.00     0.002 C 
BRANCH   6   7
ATOM      7  C   UNL     1      22.153  20.783  21.670  1.00  0.00     0.028 C 
BRANCH   7   8
ATOM      8  C   UNL     1      22.665  22.026  22.403  1.00  0.00     0.156 C 
BRANCH   8   9
ATOM      9  O   UNL     1      24.025  22.236  22.131  1.00  0.00    -0.396 OA
ATOM     10  H   UNL     1      24.077  22.694  21.252  1.00  0.00     0.210 HD
ENDBRANCH   8   9
ENDBRANCH   7   8
ENDBRANCH   6   7
ENDBRANCH   1   6
TORSDOF 7
ENDMDL
MODEL 2
REMARK VINA RESULT:    -3.802     10.420     13.334
REMARK INTER + INTRA:          -5.519
REMARK INTER:                  -5.134
REMARK INTRA:                  -0.385
REMARK UNBOUND:                -0.271
REMARK SMILES CCCCCCCCO
REMARK SMILES IDX 5 1 4 2 3 3 2 4 1 5 6 6 7 7 8 8 9 9
REMARK H PARENT 9 10
REMARK Flexibility Score: inf
ROOT
ATOM      1  C   UNL     1      31.554  25.652  22.824  1.00  0.00     0.000 C 
ENDROOT
BRANCH   1   2
ATOM      2  C   UNL     1      31.712  27.169  22.987  1.00  0.00    -0.000 C 
BRANCH   2   3
ATOM      3  C   UNL     1      33.107  27.629  22.549  1.00  0.00    -0.000 C 
BRANCH   3   4
ATOM      4  C   UNL     1      33.021  28.877  21.663  1.00  0.00    -0.003 C 
ATOM      5  C   UNL     1      31.688  29.597  21.852  1.00  0.00     0.004 C 
ENDBRANCH   3   4
ENDBRANCH   2   3
ENDBRANCH   1   2
BRANCH   1   6
ATOM      6  C   UNL     1      30.415  25.318  21.855  1.00  0.00     0.002 C 
BRANCH   6   7
ATOM      7  C   UNL     1      29.617  26.577  21.488  1.00  0.00     0.028 C 
BRANCH   7   8
ATOM      8  C   UNL     1      28.117  26.293  21.371  1.00  0.00     0.156 C 
BRANCH   8   9
ATOM      9  O   UNL     1      27.717  26.288  20.026  1.00  0.00    -0.396 OA
ATOM     10  H   UNL     1      28.436  25.835  19.513  1.00  0.00     0.210 HD
ENDBRANCH   8   9
ENDBRANCH   7   8
ENDBRANCH   6   7
ENDBRANCH   1   6
TORSDOF 7
ENDMDL
MODEL 3
REMARK VINA RESULT:    -3.629      2.403      5.054
REMARK INTER + INTRA:          -5.279
REMARK INTER:                  -5.091
REMARK INTRA:                  -0.188
REMARK UNBOUND:                -0.271
REMARK SMILES CCCCCCCCO
REMARK SMILES IDX 5 1 4 2 3 3 2 4 1 5 6 6 7 7 8 8 9 9
REMARK H PARENT 9 10
REMARK Flexibility Score: inf
ROOT
ATOM      1  C   UNL     1      20.885  19.211  21.686  1.00  0.00     0.000 C 
ENDROOT
BRANCH   1   2
ATOM      2  C   UNL     1      21.172  20.400  22.612  1.00  0.00    -0.000 C 
BRANCH   2   3
ATOM      3  C   UNL     1      22.380  21.204  22.117  1.00  0.00    -0.000 C 
BRANCH   3   4
ATOM      4  C   UNL     1      22.093  22.709  22.158  1.00  0.00    -0.003 C 
ATOM      5  C   UNL     1      21.537  23.127  23.517  1.00  0.00     0.004 C 
ENDBRANCH   3   4
ENDBRANCH   2   3
ENDBRANCH   1   2
BRANCH   1   6
ATOM      6  C   UNL     1      19.587  18.501  22.089  1.00  0.00     0.002 C 
BRANCH   6   7
ATOM      7  C   UNL     1      19.633  18.066  23.560  1.00  0.00     0.028 C 
BRANCH   7   8
ATOM      8  C   UNL     1      19.915  16.568  23.707  1.00  0.00     0.156 C 
BRANCH   8   9
ATOM      9  O   UNL     1      21.281  16.301  23.527  1.00  0.00    -0.396 OA
ATOM     10  H   UNL     1      21.497  15.510  24.087  1.00  0.00     0.210 HD
ENDBRANCH   8   9
ENDBRANCH   7   8
ENDBRANCH   6   7
ENDBRANCH   1   6
TORSDOF 7
ENDMDL
MODEL 4
REMARK VINA RESULT:    -3.612      2.852      5.235
REMARK INTER + INTRA:          -5.256
REMARK INTER:                  -5.071
REMARK INTRA:                  -0.185
REMARK UNBOUND:                -0.271
REMARK SMILES CCCCCCCCO
REMARK SMILES IDX 5 1 4 2 3 3 2 4 1 5 6 6 7 7 8 8 9 9
REMARK H PARENT 9 10
REMARK Flexibility Score: inf
ROOT
ATOM      1  C   UNL     1      21.353  20.762  22.724  1.00  0.00     0.000 C 
ENDROOT
BRANCH   1   2
ATOM      2  C   UNL     1      21.854  22.017  21.998  1.00  0.00    -0.000 C 
BRANCH   2   3
ATOM      3  C   UNL     1      22.026  23.186  22.974  1.00  0.00    -0.000 C 
BRANCH   3   4
ATOM      4  C   UNL     1      21.120  23.017  24.199  1.00  0.00    -0.003 C 
ATOM      5  C   UNL     1      20.362  24.306  24.507  1.00  0.00     0.004 C 
ENDBRANCH   3   4
ENDBRANCH   2   3
ENDBRANCH   1   2
BRANCH   1   6
ATOM      6  C   UNL     1      21.039  19.639  21.729  1.00  0.00     0.002 C 
BRANCH   6   7
ATOM      7  C   UNL     1      20.415  18.431  22.442  1.00  0.00     0.028 C 
BRANCH   7   8
ATOM      8  C   UNL     1      19.213  17.870  21.676  1.00  0.00     0.156 C 
BRANCH   8   9
ATOM      9  O   UNL     1      19.596  17.447  20.394  1.00  0.00    -0.396 OA
ATOM     10  H   UNL     1      18.929  16.774  20.101  1.00  0.00     0.210 HD
ENDBRANCH   8   9
ENDBRANCH   7   8
ENDBRANCH   6   7
ENDBRANCH   1   6
TORSDOF 7
ENDMDL
MODEL 5
REMARK VINA RESULT:    -3.561      9.626     11.051
REMARK INTER + INTRA:          -5.185
REMARK INTER:                  -4.977
REMARK INTRA:                  -0.208
REMARK UNBOUND:                -0.271
REMARK SMILES CCCCCCCCO
REMARK SMILES IDX 5 1 4 2 3 3 2 4 1 5 6 6 7 7 8 8 9 9
REMARK H PARENT 9 10
REMARK Flexibility Score: inf
ROOT
ATOM      1  C   UNL     1      27.661  25.874  22.227  1.00  0.00     0.000 C 
ENDROOT
BRANCH   1   2
ATOM      2  C   UNL     1      28.607  26.353  21.118  1.00  0.00    -0.000 C 
BRANCH   2   3
ATOM      3  C   UNL     1      30.005  26.646  21.675  1.00  0.00    -0.000 C 
BRANCH   3   4
ATOM      4  C   UNL     1      30.735  25.348  22.038  1.00  0.00    -0.003 C 
ATOM      5  C   UNL     1      31.817  25.598  23.086  1.00  0.00     0.004 C 
ENDBRANCH   3   4
ENDBRANCH   2   3
ENDBRANCH   1   2
BRANCH   1   6
ATOM      6  C   UNL     1      27.244  27.036  23.135  1.00  0.00     0.002 C 
BRANCH   6   7
ATOM      7  C   UNL     1      25.718  27.088  23.295  1.00  0.00     0.028 C 
BRANCH   7   8
ATOM      8  C   UNL     1      25.251  28.413  23.904  1.00  0.00     0.156 C 
BRANCH   8   9
ATOM      9  O   UNL     1      24.871  29.315  22.898  1.00  0.00    -0.396 OA
ATOM     10  H   UNL     1      24.050  29.773  23.216  1.00  0.00     0.210 HD
ENDBRANCH   8   9
ENDBRANCH   7   8
ENDBRANCH   6   7
ENDBRANCH   1   6
TORSDOF 7
ENDMDL
MODEL 6
REMARK VINA RESULT:    -3.545      8.730     10.108
REMARK INTER + INTRA:          -5.163
REMARK INTER:                  -4.941
REMARK INTRA:                  -0.222
REMARK UNBOUND:                -0.271
REMARK SMILES CCCCCCCCO
REMARK SMILES IDX 5 1 4 2 3 3 2 4 1 5 6 6 7 7 8 8 9 9
REMARK H PARENT 9 10
REMARK Flexibility Score: inf
ROOT
ATOM      1  C   UNL     1      26.835  25.335  23.020  1.00  0.00     0.000 C 
ENDROOT
BRANCH   1   2
ATOM      2  C   UNL     1      25.609  26.060  23.591  1.00  0.00    -0.000 C 
BRANCH   2   3
ATOM      3  C   UNL     1      25.682  27.566  23.315  1.00  0.00    -0.000 C 
BRANCH   3   4
ATOM      4  C   UNL     1      24.842  28.352  24.328  1.00  0.00    -0.003 C 
ATOM      5  C   UNL     1      24.462  29.726  23.782  1.00  0.00     0.004 C 
ENDBRANCH   3   4
ENDBRANCH   2   3
ENDBRANCH   1   2
BRANCH   1   6
ATOM      6  C   UNL     1      27.946  26.330  22.663  1.00  0.00     0.002 C 
BRANCH   6   7
ATOM      7  C   UNL     1      29.000  25.676  21.758  1.00  0.00     0.028 C 
BRANCH   7   8
ATOM      8  C   UNL     1      29.051  26.328  20.374  1.00  0.00     0.156 C 
BRANCH   8   9
ATOM      9  O   UNL     1      27.791  26.284  19.758  1.00  0.00    -0.396 OA
ATOM     10  H   UNL     1      27.903  25.788  18.906  1.00  0.00     0.210 HD
ENDBRANCH   8   9
ENDBRANCH   7   8
ENDBRANCH   6   7
ENDBRANCH   1   6
TORSDOF 7
ENDMDL
MODEL 7
REMARK VINA RESULT:    -3.520     10.422     12.911
REMARK INTER + INTRA:          -5.129
REMARK INTER:                  -4.810
REMARK INTRA:                  -0.318
REMARK UNBOUND:                -0.271
REMARK SMILES CCCCCCCCO
REMARK SMILES IDX 5 1 4 2 3 3 2 4 1 5 6 6 7 7 8 8 9 9
REMARK H PARENT 9 10
REMARK Flexibility Score: inf
ROOT
ATOM      1  C   UNL     1      30.661  26.119  22.817  1.00  0.00     0.000 C 
ENDROOT
BRANCH   1   2
ATOM      2  C   UNL     1      32.100  25.650  23.065  1.00  0.00    -0.000 C 
BRANCH   2   3
ATOM      3  C   UNL     1      33.105  26.762  22.740  1.00  0.00    -0.000 C 
BRANCH   3   4
ATOM      4  C   UNL     1      32.430  28.138  22.769  1.00  0.00    -0.003 C 
ATOM      5  C   UNL     1      32.798  28.959  21.535  1.00  0.00     0.004 C 
ENDBRANCH   3   4
ENDBRANCH   2   3
ENDBRANCH   1   2
BRANCH   1   6
ATOM      6  C   UNL     1      30.059  25.424  21.590  1.00  0.00     0.002 C 
BRANCH   6   7
ATOM      7  C   UNL     1      28.901  26.246  21.006  1.00  0.00     0.028 C 
BRANCH   7   8
ATOM      8  C   UNL     1      27.916  26.699  22.088  1.00  0.00     0.156 C 
BRANCH   8   9
ATOM      9  O   UNL     1      26.599  26.381  21.724  1.00  0.00    -0.396 OA
ATOM     10  H   UNL     1      26.095  27.235  21.689  1.00  0.00     0.210 HD
ENDBRANCH   8   9
ENDBRANCH   7   8
ENDBRANCH   6   7
ENDBRANCH   1   6
TORSDOF 7
ENDMDL
MODEL 8
REMARK VINA RESULT:    -3.434      9.611     11.405
REMARK INTER + INTRA:          -5.010
REMARK INTER:                  -4.875
REMARK INTRA:                  -0.135
REMARK UNBOUND:                -0.271
REMARK SMILES CCCCCCCCO
REMARK SMILES IDX 5 1 4 2 3 3 2 4 1 5 6 6 7 7 8 8 9 9
REMARK H PARENT 9 10
REMARK Flexibility Score: inf
ROOT
ATOM      1  C   UNL     1      28.811  26.074  21.322  1.00  0.00     0.000 C 
ENDROOT
BRANCH   1   2
ATOM      2  C   UNL     1      30.092  25.338  21.735  1.00  0.00    -0.000 C 
BRANCH   2   3
ATOM      3  C   UNL     1      30.819  26.086  22.858  1.00  0.00    -0.000 C 
BRANCH   3   4
ATOM      4  C   UNL     1      32.290  25.663  22.937  1.00  0.00    -0.003 C 
ATOM      5  C   UNL     1      32.764  25.582  24.386  1.00  0.00     0.004 C 
ENDBRANCH   3   4
ENDBRANCH   2   3
ENDBRANCH   1   2
BRANCH   1   6
ATOM      6  C   UNL     1      27.666  25.776  22.298  1.00  0.00     0.002 C 
BRANCH   6   7
ATOM      7  C   UNL     1      27.293  27.027  23.105  1.00  0.00     0.028 C 
BRANCH   7   8
ATOM      8  C   UNL     1      25.784  27.124  23.348  1.00  0.00     0.156 C 
BRANCH   8   9
ATOM      9  O   UNL     1      25.303  28.390  22.984  1.00  0.00    -0.396 OA
ATOM     10  H   UNL     1      25.770  28.646  22.146  1.00  0.00     0.210 HD
ENDBRANCH   8   9
ENDBRANCH   7   8
ENDBRANCH   6   7
ENDBRANCH   1   6
TORSDOF 7
ENDMDL
MODEL 9
REMARK VINA RESULT:    -3.385      1.993      3.091
REMARK INTER + INTRA:          -4.943
REMARK INTER:                  -4.726
REMARK INTRA:                  -0.217
REMARK UNBOUND:                -0.271
REMARK SMILES CCCCCCCCO
REMARK SMILES IDX 5 1 4 2 3 3 2 4 1 5 6 6 7 7 8 8 9 9
REMARK H PARENT 9 10
REMARK Flexibility Score: inf
ROOT
ATOM      1  C   UNL     1      22.447  21.226  22.095  1.00  0.00     0.000 C 
ENDROOT
BRANCH   1   2
ATOM      2  C   UNL     1      21.129  20.494  21.811  1.00  0.00    -0.000 C 
BRANCH   2   3
ATOM      3  C   UNL     1      21.111  19.114  22.479  1.00  0.00    -0.000 C 
BRANCH   3   4
ATOM      4  C   UNL     1      19.720  18.477  22.386  1.00  0.00    -0.003 C 
ATOM      5  C   UNL     1      19.433  17.981  20.971  1.00  0.00     0.004 C 
ENDBRANCH   3   4
ENDBRANCH   2   3
ENDBRANCH   1   2
BRANCH   1   6
ATOM      6  C   UNL     1      22.193  22.689  22.477  1.00  0.00     0.002 C 
BRANCH   6   7
ATOM      7  C   UNL     1      21.110  22.795  23.560  1.00  0.00     0.028 C 
BRANCH   7   8
ATOM      8  C   UNL     1      21.482  23.808  24.646  1.00  0.00     0.156 C 
BRANCH   8   9
ATOM      9  O   UNL     1      22.814  24.226  24.499  1.00  0.00    -0.396 OA
ATOM     10  H   UNL     1      22.790  25.112  24.052  1.00  0.00     0.210 HD
ENDBRANCH   8   9
ENDBRANCH   7   8
ENDBRANCH   6   7
ENDBRANCH   1   6
TORSDOF 7
ENDMDL
