MODEL 1
REMARK VINA RESULT:    -3.491      0.000      0.000
REMARK INTER + INTRA:          -8.810
REMARK INTER:                  -6.450
REMARK INTRA:                  -2.360
REMARK UNBOUND:                -2.360
REMARK SMILES CCCCCCCCCCCCCCCCO
REMARK SMILES IDX 9 1 8 2 7 3 6 4 5 5 4 6 3 7 2 8 1 9 10 10 11 11 12 12 13 13
REMARK SMILES IDX 14 14 15 15 16 16 17 17
REMARK H PARENT 17 18
REMARK Flexibility Score: inf
ROOT
ATOM      1  C   UNL     1     -28.975  27.539 -23.463  1.00  0.00     0.000 C 
ENDROOT
BRANCH   1   2
ATOM      2  C   UNL     1     -29.980  26.982 -24.491  1.00  0.00    -0.000 C 
BRANCH   2   3
ATOM      3  C   UNL     1     -30.642  25.648 -24.101  1.00  0.00    -0.000 C 
BRANCH   3   4
ATOM      4  C   UNL     1     -30.865  25.516 -22.585  1.00  0.00    -0.000 C 
BRANCH   4   5
ATOM      5  C   UNL     1     -30.239  24.238 -21.996  1.00  0.00    -0.000 C 
BRANCH   5   6
ATOM      6  C   UNL     1     -29.335  24.458 -20.768  1.00  0.00    -0.000 C 
BRANCH   6   7
ATOM      7  C   UNL     1     -28.538  23.221 -20.314  1.00  0.00    -0.000 C 
BRANCH   7   8
ATOM      8  C   UNL     1     -28.266  22.206 -21.445  1.00  0.00    -0.003 C 
ATOM      9  C   UNL     1     -26.774  21.974 -21.685  1.00  0.00     0.004 C 
ENDBRANCH   7   8
ENDBRANCH   6   7
ENDBRANCH   5   6
ENDBRANCH   4   5
ENDBRANCH   3   4
ENDBRANCH   2   3
ENDBRANCH   1   2
BRANCH   1  10
ATOM     10  C   UNL     1     -27.500  27.245 -23.817  1.00  0.00     0.000 C 
BRANCH  10  11
ATOM     11  C   UNL     1     -26.879  26.197 -22.877  1.00  0.00     0.000 C 
BRANCH  11  12
ATOM     12  C   UNL     1     -26.344  24.964 -23.628  1.00  0.00     0.000 C 
BRANCH  12  13
ATOM     13  C   UNL     1     -27.346  24.333 -24.615  1.00  0.00     0.000 C 
BRANCH  13  14
ATOM     14  C   UNL     1     -26.759  24.149 -26.026  1.00  0.00     0.002 C 
BRANCH  14  15
ATOM     15  C   UNL     1     -27.133  25.300 -26.976  1.00  0.00     0.028 C 
BRANCH  15  16
ATOM     16  C   UNL     1     -25.925  25.931 -27.677  1.00  0.00     0.156 C 
BRANCH  16  17
ATOM     17  O   UNL     1     -24.741  25.573 -27.018  1.00  0.00    -0.396 OA
ATOM     18  H   UNL     1     -24.345  24.832 -27.546  1.00  0.00     0.210 HD
ENDBRANCH  16  17
ENDBRANCH  15  16
ENDBRANCH  14  15
ENDBRANCH  13  14
ENDBRANCH  12  13
ENDBRANCH  11  12
ENDBRANCH  10  11
ENDBRANCH   1  10
TORSDOF 15
ENDMDL
MODEL 2
REMARK VINA RESULT:    -3.442      1.605      3.252
REMARK INTER + INTRA:          -8.721
REMARK INTER:                  -6.253
REMARK INTRA:                  -2.467
REMARK UNBOUND:                -2.360
REMARK SMILES CCCCCCCCCCCCCCCCO
REMARK SMILES IDX 9 1 8 2 7 3 6 4 5 5 4 6 3 7 2 8 1 9 10 10 11 11 12 12 13 13
REMARK SMILES IDX 14 14 15 15 16 16 17 17
REMARK H PARENT 17 18
REMARK Flexibility Score: inf
ROOT
ATOM      1  C   UNL     1     -30.726  24.864 -23.033  1.00  0.00     0.000 C 
ENDROOT
BRANCH   1   2
ATOM      2  C   UNL     1     -30.574  24.086 -21.710  1.00  0.00    -0.000 C 
BRANCH   2   3
ATOM      3  C   UNL     1     -29.361  23.139 -21.646  1.00  0.00    -0.000 C 
BRANCH   3   4
ATOM      4  C   UNL     1     -28.304  23.451 -22.719  1.00  0.00    -0.000 C 
BRANCH   4   5
ATOM      5  C   UNL     1     -27.068  24.173 -22.150  1.00  0.00    -0.000 C 
BRANCH   5   6
ATOM      6  C   UNL     1     -27.094  24.413 -20.629  1.00  0.00    -0.000 C 
BRANCH   6   7
ATOM      7  C   UNL     1     -27.147  25.892 -20.203  1.00  0.00    -0.000 C 
BRANCH   7   8
ATOM      8  C   UNL     1     -28.549  26.364 -19.764  1.00  0.00    -0.003 C 
ATOM      9  C   UNL     1     -28.796  27.843 -20.062  1.00  0.00     0.004 C 
ENDBRANCH   7   8
ENDBRANCH   6   7
ENDBRANCH   5   6
ENDBRANCH   4   5
ENDBRANCH   3   4
ENDBRANCH   2   3
ENDBRANCH   1   2
BRANCH   1  10
ATOM     10  C   UNL     1     -30.643  26.397 -22.863  1.00  0.00     0.000 C 
BRANCH  10  11
ATOM     11  C   UNL     1     -29.903  27.068 -24.033  1.00  0.00     0.000 C 
BRANCH  11  12
ATOM     12  C   UNL     1     -28.399  27.251 -23.760  1.00  0.00     0.000 C 
BRANCH  12  13
ATOM     13  C   UNL     1     -27.475  26.598 -24.808  1.00  0.00     0.000 C 
BRANCH  13  14
ATOM     14  C   UNL     1     -28.223  25.633 -25.744  1.00  0.00     0.002 C 
BRANCH  14  15
ATOM     15  C   UNL     1     -27.369  25.195 -26.946  1.00  0.00     0.028 C 
BRANCH  15  16
ATOM     16  C   UNL     1     -26.058  25.977 -27.083  1.00  0.00     0.156 C 
BRANCH  16  17
ATOM     17  O   UNL     1     -24.972  25.170 -26.717  1.00  0.00    -0.396 OA
ATOM     18  H   UNL     1     -25.270  24.231 -26.849  1.00  0.00     0.210 HD
ENDBRANCH  16  17
ENDBRANCH  15  16
ENDBRANCH  14  15
ENDBRANCH  13  14
ENDBRANCH  12  13
ENDBRANCH  11  12
ENDBRANCH  10  11
ENDBRANCH   1  10
TORSDOF 15
ENDMDL
MODEL 3
REMARK VINA RESULT:    -3.421      1.230      2.858
REMARK INTER + INTRA:          -8.682
REMARK INTER:                  -5.951
REMARK INTRA:                  -2.731
REMARK UNBOUND:                -2.360
REMARK SMILES CCCCCCCCCCCCCCCCO
REMARK SMILES IDX 9 1 8 2 7 3 6 4 5 5 4 6 3 7 2 8 1 9 10 10 11 11 12 12 13 13
REMARK SMILES IDX 14 14 15 15 16 16 17 17
REMARK H PARENT 17 18
REMARK Flexibility Score: inf
ROOT
ATOM      1  C   UNL     1     -30.623  26.075 -22.570  1.00  0.00     0.000 C 
ENDROOT
BRANCH   1   2
ATOM      2  C   UNL     1     -29.610  27.238 -22.554  1.00  0.00    -0.000 C 
BRANCH   2   3
ATOM      3  C   UNL     1     -28.898  27.501 -23.893  1.00  0.00    -0.000 C 
BRANCH   3   4
ATOM      4  C   UNL     1     -27.366  27.528 -23.758  1.00  0.00    -0.000 C 
BRANCH   4   5
ATOM      5  C   UNL     1     -26.860  26.759 -22.524  1.00  0.00    -0.000 C 
BRANCH   5   6
ATOM      6  C   UNL     1     -26.418  25.308 -22.793  1.00  0.00    -0.000 C 
BRANCH   6   7
ATOM      7  C   UNL     1     -26.652  24.328 -21.629  1.00  0.00    -0.000 C 
BRANCH   7   8
ATOM      8  C   UNL     1     -27.627  24.857 -20.556  1.00  0.00    -0.003 C 
ATOM      9  C   UNL     1     -28.752  23.871 -20.240  1.00  0.00     0.004 C 
ENDBRANCH   7   8
ENDBRANCH   6   7
ENDBRANCH   5   6
ENDBRANCH   4   5
ENDBRANCH   3   4
ENDBRANCH   2   3
ENDBRANCH   1   2
BRANCH   1  10
ATOM     10  C   UNL     1     -30.625  25.273 -23.890  1.00  0.00     0.000 C 
BRANCH  10  11
ATOM     11  C   UNL     1     -29.770  23.998 -23.792  1.00  0.00     0.000 C 
BRANCH  11  12
ATOM     12  C   UNL     1     -28.799  23.838 -24.976  1.00  0.00     0.000 C 
BRANCH  12  13
ATOM     13  C   UNL     1     -29.344  24.357 -26.323  1.00  0.00     0.000 C 
BRANCH  13  14
ATOM     14  C   UNL     1     -28.436  25.423 -26.961  1.00  0.00     0.002 C 
BRANCH  14  15
ATOM     15  C   UNL     1     -26.955  25.240 -26.584  1.00  0.00     0.028 C 
BRANCH  15  16
ATOM     16  C   UNL     1     -25.993  26.007 -27.498  1.00  0.00     0.156 C 
BRANCH  16  17
ATOM     17  O   UNL     1     -24.672  25.607 -27.253  1.00  0.00    -0.396 OA
ATOM     18  H   UNL     1     -24.437  25.965 -26.356  1.00  0.00     0.210 HD
ENDBRANCH  16  17
ENDBRANCH  15  16
ENDBRANCH  14  15
ENDBRANCH  13  14
ENDBRANCH  12  13
ENDBRANCH  11  12
ENDBRANCH  10  11
ENDBRANCH   1  10
TORSDOF 15
ENDMDL
MODEL 4
REMARK VINA RESULT:    -3.418      1.239      3.531
REMARK INTER + INTRA:          -8.675
REMARK INTER:                  -6.243
REMARK INTRA:                  -2.433
REMARK UNBOUND:                -2.360
REMARK SMILES CCCCCCCCCCCCCCCCO
REMARK SMILES IDX 9 1 8 2 7 3 6 4 5 5 4 6 3 7 2 8 1 9 10 10 11 11 12 12 13 13
REMARK SMILES IDX 14 14 15 15 16 16 17 17
REMARK H PARENT 17 18
REMARK Flexibility Score: inf
ROOT
ATOM      1  C   UNL     1     -28.698  26.764 -19.850  1.00  0.00     0.000 C 
ENDROOT
BRANCH   1   2
ATOM      2  C   UNL     1     -28.133  25.342 -19.662  1.00  0.00    -0.000 C 
BRANCH   2   3
ATOM      3  C   UNL     1     -29.163  24.206 -19.797  1.00  0.00    -0.000 C 
BRANCH   3   4
ATOM      4  C   UNL     1     -29.357  23.749 -21.253  1.00  0.00    -0.000 C 
BRANCH   4   5
ATOM      5  C   UNL     1     -30.733  24.136 -21.825  1.00  0.00    -0.000 C 
BRANCH   5   6
ATOM      6  C   UNL     1     -30.747  25.414 -22.685  1.00  0.00    -0.000 C 
BRANCH   6   7
ATOM      7  C   UNL     1     -30.906  25.180 -24.199  1.00  0.00    -0.000 C 
BRANCH   7   8
ATOM      8  C   UNL     1     -30.559  26.413 -25.059  1.00  0.00    -0.003 C 
ATOM      9  C   UNL     1     -30.315  27.669 -24.222  1.00  0.00     0.004 C 
ENDBRANCH   7   8
ENDBRANCH   6   7
ENDBRANCH   5   6
ENDBRANCH   4   5
ENDBRANCH   3   4
ENDBRANCH   2   3
ENDBRANCH   1   2
BRANCH   1  10
ATOM     10  C   UNL     1     -28.233  27.448 -21.154  1.00  0.00     0.000 C 
BRANCH  10  11
ATOM     11  C   UNL     1     -26.903  26.869 -21.668  1.00  0.00     0.000 C 
BRANCH  11  12
ATOM     12  C   UNL     1     -26.940  26.532 -23.170  1.00  0.00     0.000 C 
BRANCH  12  13
ATOM     13  C   UNL     1     -27.020  25.024 -23.485  1.00  0.00     0.000 C 
BRANCH  13  14
ATOM     14  C   UNL     1     -27.309  24.740 -24.969  1.00  0.00     0.002 C 
BRANCH  14  15
ATOM     15  C   UNL     1     -26.890  25.903 -25.885  1.00  0.00     0.028 C 
BRANCH  15  16
ATOM     16  C   UNL     1     -26.739  25.500 -27.356  1.00  0.00     0.156 C 
BRANCH  16  17
ATOM     17  O   UNL     1     -25.455  24.988 -27.588  1.00  0.00    -0.396 OA
ATOM     18  H   UNL     1     -25.260  24.379 -26.828  1.00  0.00     0.210 HD
ENDBRANCH  16  17
ENDBRANCH  15  16
ENDBRANCH  14  15
ENDBRANCH  13  14
ENDBRANCH  12  13
ENDBRANCH  11  12
ENDBRANCH  10  11
ENDBRANCH   1  10
TORSDOF 15
ENDMDL
MODEL 5
REMARK VINA RESULT:    -3.409      1.690      4.301
REMARK INTER + INTRA:          -8.659
REMARK INTER:                  -6.294
REMARK INTRA:                  -2.365
REMARK UNBOUND:                -2.360
REMARK SMILES CCCCCCCCCCCCCCCCO
REMARK SMILES IDX 9 1 8 2 7 3 6 4 5 5 4 6 3 7 2 8 1 9 10 10 11 11 12 12 13 13
REMARK SMILES IDX 14 14 15 15 16 16 17 17
REMARK H PARENT 17 18
REMARK Flexibility Score: inf
ROOT
ATOM      1  C   UNL     1     -29.135  23.924 -20.721  1.00  0.00     0.000 C 
ENDROOT
BRANCH   1   2
ATOM      2  C   UNL     1     -28.691  25.120 -19.856  1.00  0.00    -0.000 C 
BRANCH   2   3
ATOM      3  C   UNL     1     -27.446  25.868 -20.366  1.00  0.00    -0.000 C 
BRANCH   3   4
ATOM      4  C   UNL     1     -27.756  27.307 -20.812  1.00  0.00    -0.000 C 
BRANCH   4   5
ATOM      5  C   UNL     1     -29.147  27.788 -20.359  1.00  0.00    -0.000 C 
BRANCH   5   6
ATOM      6  C   UNL     1     -30.126  28.125 -21.500  1.00  0.00    -0.000 C 
BRANCH   6   7
ATOM      7  C   UNL     1     -29.531  28.036 -22.918  1.00  0.00    -0.000 C 
BRANCH   7   8
ATOM      8  C   UNL     1     -30.592  28.009 -24.038  1.00  0.00    -0.003 C 
ATOM      9  C   UNL     1     -30.184  27.128 -25.219  1.00  0.00     0.004 C 
ENDBRANCH   7   8
ENDBRANCH   6   7
ENDBRANCH   5   6
ENDBRANCH   4   5
ENDBRANCH   3   4
ENDBRANCH   2   3
ENDBRANCH   1   2
BRANCH   1  10
ATOM     10  C   UNL     1     -30.331  24.238 -21.647  1.00  0.00     0.000 C 
BRANCH  10  11
ATOM     11  C   UNL     1     -29.906  24.344 -23.122  1.00  0.00     0.000 C 
BRANCH  11  12
ATOM     12  C   UNL     1     -28.448  23.910 -23.356  1.00  0.00     0.000 C 
BRANCH  12  13
ATOM     13  C   UNL     1     -27.548  24.999 -23.974  1.00  0.00     0.000 C 
BRANCH  13  14
ATOM     14  C   UNL     1     -26.054  24.774 -23.682  1.00  0.00     0.002 C 
BRANCH  14  15
ATOM     15  C   UNL     1     -25.483  23.557 -24.431  1.00  0.00     0.028 C 
BRANCH  15  16
ATOM     16  C   UNL     1     -25.484  23.721 -25.955  1.00  0.00     0.156 C 
BRANCH  16  17
ATOM     17  O   UNL     1     -24.789  24.883 -26.317  1.00  0.00    -0.396 OA
ATOM     18  H   UNL     1     -23.854  24.600 -26.497  1.00  0.00     0.210 HD
ENDBRANCH  16  17
ENDBRANCH  15  16
ENDBRANCH  14  15
ENDBRANCH  13  14
ENDBRANCH  12  13
ENDBRANCH  11  12
ENDBRANCH  10  11
ENDBRANCH   1  10
TORSDOF 15
ENDMDL
MODEL 6
REMARK VINA RESULT:    -3.393      1.625      2.986
REMARK INTER + INTRA:          -8.630
REMARK INTER:                  -6.554
REMARK INTRA:                  -2.076
REMARK UNBOUND:                -2.360
REMARK SMILES CCCCCCCCCCCCCCCCO
REMARK SMILES IDX 9 1 8 2 7 3 6 4 5 5 4 6 3 7 2 8 1 9 10 10 11 11 12 12 13 13
REMARK SMILES IDX 14 14 15 15 16 16 17 17
REMARK H PARENT 17 18
REMARK Flexibility Score: inf
ROOT
ATOM      1  C   UNL     1     -30.643  26.256 -22.521  1.00  0.00     0.000 C 
ENDROOT
BRANCH   1   2
ATOM      2  C   UNL     1     -30.611  24.715 -22.484  1.00  0.00    -0.000 C 
BRANCH   2   3
ATOM      3  C   UNL     1     -30.145  24.104 -21.150  1.00  0.00    -0.000 C 
BRANCH   3   4
ATOM      4  C   UNL     1     -28.675  24.423 -20.830  1.00  0.00    -0.000 C 
BRANCH   4   5
ATOM      5  C   UNL     1     -28.376  24.421 -19.319  1.00  0.00    -0.000 C 
BRANCH   5   6
ATOM      6  C   UNL     1     -28.420  25.804 -18.642  1.00  0.00    -0.000 C 
BRANCH   6   7
ATOM      7  C   UNL     1     -28.514  27.000 -19.607  1.00  0.00    -0.000 C 
BRANCH   7   8
ATOM      8  C   UNL     1     -27.212  27.822 -19.708  1.00  0.00    -0.003 C 
ATOM      9  C   UNL     1     -26.058  27.030 -20.324  1.00  0.00     0.004 C 
ENDBRANCH   7   8
ENDBRANCH   6   7
ENDBRANCH   5   6
ENDBRANCH   4   5
ENDBRANCH   3   4
ENDBRANCH   2   3
ENDBRANCH   1   2
BRANCH   1  10
ATOM     10  C   UNL     1     -29.824  26.866 -23.680  1.00  0.00     0.000 C 
BRANCH  10  11
ATOM     11  C   UNL     1     -28.545  27.560 -23.180  1.00  0.00     0.000 C 
BRANCH  11  12
ATOM     12  C   UNL     1     -27.276  27.060 -23.895  1.00  0.00     0.000 C 
BRANCH  12  13
ATOM     13  C   UNL     1     -27.043  25.539 -23.793  1.00  0.00     0.000 C 
BRANCH  13  14
ATOM     14  C   UNL     1     -26.869  24.870 -25.168  1.00  0.00     0.002 C 
BRANCH  14  15
ATOM     15  C   UNL     1     -26.961  25.875 -26.329  1.00  0.00     0.028 C 
BRANCH  15  16
ATOM     16  C   UNL     1     -26.035  25.538 -27.504  1.00  0.00     0.156 C 
BRANCH  16  17
ATOM     17  O   UNL     1     -24.696  25.569 -27.088  1.00  0.00    -0.396 OA
ATOM     18  H   UNL     1     -24.715  25.761 -26.114  1.00  0.00     0.210 HD
ENDBRANCH  16  17
ENDBRANCH  15  16
ENDBRANCH  14  15
ENDBRANCH  13  14
ENDBRANCH  12  13
ENDBRANCH  11  12
ENDBRANCH  10  11
ENDBRANCH   1  10
TORSDOF 15
ENDMDL
MODEL 7
REMARK VINA RESULT:    -3.348      2.362      4.669
REMARK INTER + INTRA:          -8.546
REMARK INTER:                  -6.361
REMARK INTRA:                  -2.185
REMARK UNBOUND:                -2.360
REMARK SMILES CCCCCCCCCCCCCCCCO
REMARK SMILES IDX 9 1 8 2 7 3 6 4 5 5 4 6 3 7 2 8 1 9 10 10 11 11 12 12 13 13
REMARK SMILES IDX 14 14 15 15 16 16 17 17
REMARK H PARENT 17 18
REMARK Flexibility Score: inf
ROOT
ATOM      1  C   UNL     1     -30.209  23.784 -22.347  1.00  0.00     0.000 C 
ENDROOT
BRANCH   1   2
ATOM      2  C   UNL     1     -30.778  24.996 -23.111  1.00  0.00    -0.000 C 
BRANCH   2   3
ATOM      3  C   UNL     1     -30.566  26.358 -22.426  1.00  0.00    -0.000 C 
BRANCH   3   4
ATOM      4  C   UNL     1     -30.131  27.458 -23.409  1.00  0.00    -0.000 C 
BRANCH   4   5
ATOM      5  C   UNL     1     -28.609  27.489 -23.639  1.00  0.00    -0.000 C 
BRANCH   5   6
ATOM      6  C   UNL     1     -27.754  27.146 -22.403  1.00  0.00    -0.000 C 
BRANCH   6   7
ATOM      7  C   UNL     1     -26.671  26.076 -22.635  1.00  0.00    -0.000 C 
BRANCH   7   8
ATOM      8  C   UNL     1     -27.023  25.064 -23.746  1.00  0.00    -0.003 C 
ATOM      9  C   UNL     1     -25.786  24.431 -24.384  1.00  0.00     0.004 C 
ENDBRANCH   7   8
ENDBRANCH   6   7
ENDBRANCH   5   6
ENDBRANCH   4   5
ENDBRANCH   3   4
ENDBRANCH   2   3
ENDBRANCH   1   2
BRANCH   1  10
ATOM     10  C   UNL     1     -29.957  24.059 -20.848  1.00  0.00     0.000 C 
BRANCH  10  11
ATOM     11  C   UNL     1     -28.516  23.711 -20.432  1.00  0.00     0.000 C 
BRANCH  11  12
ATOM     12  C   UNL     1     -28.395  22.303 -19.823  1.00  0.00     0.000 C 
BRANCH  12  13
ATOM     13  C   UNL     1     -27.870  21.228 -20.796  1.00  0.00     0.000 C 
BRANCH  13  14
ATOM     14  C   UNL     1     -27.085  21.826 -21.977  1.00  0.00     0.002 C 
BRANCH  14  15
ATOM     15  C   UNL     1     -25.563  21.670 -21.815  1.00  0.00     0.028 C 
BRANCH  15  16
ATOM     16  C   UNL     1     -24.927  20.753 -22.864  1.00  0.00     0.156 C 
BRANCH  16  17
ATOM     17  O   UNL     1     -24.967  19.420 -22.430  1.00  0.00    -0.396 OA
ATOM     18  H   UNL     1     -24.452  18.897 -23.098  1.00  0.00     0.210 HD
ENDBRANCH  16  17
ENDBRANCH  15  16
ENDBRANCH  14  15
ENDBRANCH  13  14
ENDBRANCH  12  13
ENDBRANCH  11  12
ENDBRANCH  10  11
ENDBRANCH   1  10
TORSDOF 15
ENDMDL
MODEL 8
REMARK VINA RESULT:    -3.348      1.344      2.494
REMARK INTER + INTRA:          -8.546
REMARK INTER:                  -6.320
REMARK INTRA:                  -2.226
REMARK UNBOUND:                -2.360
REMARK SMILES CCCCCCCCCCCCCCCCO
REMARK SMILES IDX 9 1 8 2 7 3 6 4 5 5 4 6 3 7 2 8 1 9 10 10 11 11 12 12 13 13
REMARK SMILES IDX 14 14 15 15 16 16 17 17
REMARK H PARENT 17 18
REMARK Flexibility Score: inf
ROOT
ATOM      1  C   UNL     1     -30.123  25.811 -22.097  1.00  0.00     0.000 C 
ENDROOT
BRANCH   1   2
ATOM      2  C   UNL     1     -30.611  24.353 -21.980  1.00  0.00    -0.000 C 
BRANCH   2   3
ATOM      3  C   UNL     1     -30.630  23.563 -23.302  1.00  0.00    -0.000 C 
BRANCH   3   4
ATOM      4  C   UNL     1     -30.076  22.136 -23.151  1.00  0.00    -0.000 C 
BRANCH   4   5
ATOM      5  C   UNL     1     -28.551  22.106 -22.933  1.00  0.00    -0.000 C 
BRANCH   5   6
ATOM      6  C   UNL     1     -28.096  21.531 -21.578  1.00  0.00    -0.000 C 
BRANCH   6   7
ATOM      7  C   UNL     1     -27.562  22.569 -20.574  1.00  0.00    -0.000 C 
BRANCH   7   8
ATOM      8  C   UNL     1     -28.448  22.737 -19.322  1.00  0.00    -0.003 C 
ATOM      9  C   UNL     1     -28.047  23.943 -18.471  1.00  0.00     0.004 C 
ENDBRANCH   7   8
ENDBRANCH   6   7
ENDBRANCH   5   6
ENDBRANCH   4   5
ENDBRANCH   3   4
ENDBRANCH   2   3
ENDBRANCH   1   2
BRANCH   1  10
ATOM     10  C   UNL     1     -28.705  26.037 -21.527  1.00  0.00     0.000 C 
BRANCH  10  11
ATOM     11  C   UNL     1     -27.609  25.703 -22.555  1.00  0.00     0.000 C 
BRANCH  11  12
ATOM     12  C   UNL     1     -27.396  26.827 -23.586  1.00  0.00     0.000 C 
BRANCH  12  13
ATOM     13  C   UNL     1     -27.992  26.537 -24.978  1.00  0.00     0.000 C 
BRANCH  13  14
ATOM     14  C   UNL     1     -27.937  25.046 -25.352  1.00  0.00     0.002 C 
BRANCH  14  15
ATOM     15  C   UNL     1     -27.054  24.778 -26.583  1.00  0.00     0.028 C 
BRANCH  15  16
ATOM     16  C   UNL     1     -25.667  24.227 -26.233  1.00  0.00     0.156 C 
BRANCH  16  17
ATOM     17  O   UNL     1     -24.672  25.120 -26.655  1.00  0.00    -0.396 OA
ATOM     18  H   UNL     1     -24.936  25.417 -27.565  1.00  0.00     0.210 HD
ENDBRANCH  16  17
ENDBRANCH  15  16
ENDBRANCH  14  15
ENDBRANCH  13  14
ENDBRANCH  12  13
ENDBRANCH  11  12
ENDBRANCH  10  11
ENDBRANCH   1  10
TORSDOF 15
ENDMDL
MODEL 9
REMARK VINA RESULT:    -3.335      2.628      4.424
REMARK INTER + INTRA:          -8.523
REMARK INTER:                  -6.023
REMARK INTRA:                  -2.500
REMARK UNBOUND:                -2.360
REMARK SMILES CCCCCCCCCCCCCCCCO
REMARK SMILES IDX 9 1 8 2 7 3 6 4 5 5 4 6 3 7 2 8 1 9 10 10 11 11 12 12 13 13
REMARK SMILES IDX 14 14 15 15 16 16 17 17
REMARK H PARENT 17 18
REMARK Flexibility Score: inf
ROOT
ATOM      1  C   UNL     1     -30.831  25.540 -23.015  1.00  0.00     0.000 C 
ENDROOT
BRANCH   1   2
ATOM      2  C   UNL     1     -30.304  25.275 -24.440  1.00  0.00    -0.000 C 
BRANCH   2   3
ATOM      3  C   UNL     1     -29.159  26.197 -24.895  1.00  0.00    -0.000 C 
BRANCH   3   4
ATOM      4  C   UNL     1     -28.717  27.183 -23.800  1.00  0.00    -0.000 C 
BRANCH   4   5
ATOM      5  C   UNL     1     -27.271  26.946 -23.327  1.00  0.00    -0.000 C 
BRANCH   5   6
ATOM      6  C   UNL     1     -27.082  26.906 -21.798  1.00  0.00    -0.000 C 
BRANCH   6   7
ATOM      7  C   UNL     1     -28.294  27.386 -20.978  1.00  0.00    -0.000 C 
BRANCH   7   8
ATOM      8  C   UNL     1     -28.590  26.517 -19.737  1.00  0.00    -0.003 C 
ATOM      9  C   UNL     1     -27.730  25.254 -19.681  1.00  0.00     0.004 C 
ENDBRANCH   7   8
ENDBRANCH   6   7
ENDBRANCH   5   6
ENDBRANCH   4   5
ENDBRANCH   3   4
ENDBRANCH   2   3
ENDBRANCH   1   2
BRANCH   1  10
ATOM     10  C   UNL     1     -30.565  24.381 -22.030  1.00  0.00     0.000 C 
BRANCH  10  11
ATOM     11  C   UNL     1     -30.013  23.133 -22.742  1.00  0.00     0.000 C 
BRANCH  11  12
ATOM     12  C   UNL     1     -28.620  22.722 -22.230  1.00  0.00     0.000 C 
BRANCH  12  13
ATOM     13  C   UNL     1     -27.444  23.311 -23.034  1.00  0.00     0.000 C 
BRANCH  13  14
ATOM     14  C   UNL     1     -26.094  23.164 -22.310  1.00  0.00     0.002 C 
BRANCH  14  15
ATOM     15  C   UNL     1     -25.889  21.756 -21.722  1.00  0.00     0.028 C 
BRANCH  15  16
ATOM     16  C   UNL     1     -24.901  20.898 -22.519  1.00  0.00     0.156 C 
BRANCH  16  17
ATOM     17  O   UNL     1     -25.114  19.539 -22.251  1.00  0.00    -0.396 OA
ATOM     18  H   UNL     1     -24.239  19.177 -21.952  1.00  0.00     0.210 HD
ENDBRANCH  16  17
ENDBRANCH  15  16
ENDBRANCH  14  15
ENDBRANCH  13  14
ENDBRANCH  12  13
ENDBRANCH  11  12
ENDBRANCH  10  11
ENDBRANCH   1  10
TORSDOF 15
ENDMDL
