MODEL 1
REMARK VINA RESULT:    -4.368      0.000      0.000
REMARK INTER + INTRA:         -10.922
REMARK INTER:                  -8.453
REMARK INTRA:                  -2.469
REMARK UNBOUND:                -2.469
REMARK SMILES CCCCCC=CCC=CCCCCCCCCOC(C)=O
REMARK SMILES IDX 12 1 11 2 10 3 9 4 8 5 7 6 6 7 5 8 4 9 3 10 2 11 1 12 13 13
REMARK SMILES IDX 14 14 15 15 16 16 17 17 18 18 19 19 20 20 22 21 21 22
REMARK H PARENT
REMARK Flexibility Score: inf
ROOT
ATOM      1  C   UNL     1      -3.045  -2.935 -34.440  1.00  0.00     0.004 C 
ENDROOT
BRANCH   1   2
ATOM      2  C   UNL     1      -2.021  -1.930 -34.981  1.00  0.00     0.027 C 
BRANCH   2   3
ATOM      3  C   UNL     1      -1.493  -2.363 -36.326  1.00  0.00    -0.031 C 
ATOM      4  C   UNL     1      -1.171  -1.521 -37.326  1.00  0.00    -0.027 C 
BRANCH   4   5
ATOM      5  C   UNL     1      -1.306  -0.020 -37.237  1.00  0.00     0.054 C 
BRANCH   5   6
ATOM      6  C   UNL     1       0.007   0.664 -37.518  1.00  0.00    -0.027 C 
ATOM      7  C   UNL     1       0.930   0.965 -36.585  1.00  0.00    -0.031 C 
BRANCH   7   8
ATOM      8  C   UNL     1       0.786   0.693 -35.107  1.00  0.00     0.027 C 
BRANCH   8   9
ATOM      9  C   UNL     1       1.967  -0.149 -34.604  1.00  0.00     0.004 C 
BRANCH   9  10
ATOM     10  C   UNL     1       1.585  -1.616 -34.332  1.00  0.00     0.000 C 
BRANCH  10  11
ATOM     11  C   UNL     1       2.387  -2.652 -35.142  1.00  0.00    -0.003 C 
ATOM     12  C   UNL     1       2.397  -2.360 -36.643  1.00  0.00     0.004 C 
ENDBRANCH  10  11
ENDBRANCH   9  10
ENDBRANCH   8   9
ENDBRANCH   7   8
ENDBRANCH   5   6
ENDBRANCH   4   5
ENDBRANCH   2   3
ENDBRANCH   1   2
BRANCH   1  13
ATOM     13  C   UNL     1      -3.759  -2.375 -33.200  1.00  0.00     0.000 C 
BRANCH  13  14
ATOM     14  C   UNL     1      -4.813  -3.341 -32.629  1.00  0.00     0.000 C 
BRANCH  14  15
ATOM     15  C   UNL     1      -4.615  -3.718 -31.148  1.00  0.00     0.000 C 
BRANCH  15  16
ATOM     16  C   UNL     1      -3.166  -3.615 -30.634  1.00  0.00     0.003 C 
BRANCH  16  17
ATOM     17  C   UNL     1      -2.796  -4.625 -29.531  1.00  0.00     0.042 C 
BRANCH  17  18
ATOM     18  C   UNL     1      -3.202  -6.070 -29.856  1.00  0.00     0.233 C 
BRANCH  18  19
ATOM     19  O   UNL     1      -2.554  -6.541 -31.036  1.00  0.00    -0.466 OA
BRANCH  19  20
ATOM     20  C   UNL     1      -3.226  -7.181 -32.083  1.00  0.00     0.302 C 
ATOM     21  O   UNL     1      -3.856  -8.254 -31.887  1.00  0.00    -0.253 OA
ATOM     22  C   UNL     1      -3.223  -6.568 -33.442  1.00  0.00     0.139 C 
ENDBRANCH  19  20
ENDBRANCH  18  19
ENDBRANCH  17  18
ENDBRANCH  16  17
ENDBRANCH  15  16
ENDBRANCH  14  15
ENDBRANCH  13  14
ENDBRANCH   1  13
TORSDOF 16
ENDMDL
MODEL 2
REMARK VINA RESULT:    -4.247      2.877      7.699
REMARK INTER + INTRA:         -10.689
REMARK INTER:                  -8.961
REMARK INTRA:                  -1.728
REMARK UNBOUND:                -2.469
REMARK SMILES CCCCCC=CCC=CCCCCCCCCOC(C)=O
REMARK SMILES IDX 12 1 11 2 10 3 9 4 8 5 7 6 6 7 5 8 4 9 3 10 2 11 1 12 13 13
REMARK SMILES IDX 14 14 15 15 16 16 17 17 18 18 19 19 20 20 22 21 21 22
REMARK H PARENT
REMARK Flexibility Score: inf
ROOT
ATOM      1  C   UNL     1      -1.368  -3.024 -36.568  1.00  0.00     0.004 C 
ENDROOT
BRANCH   1   2
ATOM      2  C   UNL     1      -2.138  -2.648 -35.297  1.00  0.00     0.027 C 
BRANCH   2   3
ATOM      3  C   UNL     1      -3.039  -3.774 -34.853  1.00  0.00    -0.031 C 
ATOM      4  C   UNL     1      -3.933  -3.686 -33.851  1.00  0.00    -0.027 C 
BRANCH   4   5
ATOM      5  C   UNL     1      -4.149  -2.441 -33.025  1.00  0.00     0.054 C 
BRANCH   5   6
ATOM      6  C   UNL     1      -3.184  -2.379 -31.868  1.00  0.00    -0.027 C 
ATOM      7  C   UNL     1      -3.372  -2.984 -30.680  1.00  0.00    -0.031 C 
BRANCH   7   8
ATOM      8  C   UNL     1      -4.589  -3.796 -30.305  1.00  0.00     0.027 C 
BRANCH   8   9
ATOM      9  C   UNL     1      -4.167  -5.175 -29.782  1.00  0.00     0.004 C 
BRANCH   9  10
ATOM     10  C   UNL     1      -2.639  -5.371 -29.774  1.00  0.00     0.000 C 
BRANCH  10  11
ATOM     11  C   UNL     1      -1.968  -5.147 -28.405  1.00  0.00    -0.003 C 
ATOM     12  C   UNL     1      -2.942  -5.275 -27.233  1.00  0.00     0.004 C 
ENDBRANCH  10  11
ENDBRANCH   9  10
ENDBRANCH   8   9
ENDBRANCH   7   8
ENDBRANCH   5   6
ENDBRANCH   4   5
ENDBRANCH   2   3
ENDBRANCH   1   2
BRANCH   1  13
ATOM     13  C   UNL     1      -1.394  -1.873 -37.585  1.00  0.00     0.000 C 
BRANCH  13  14
ATOM     14  C   UNL     1      -1.662  -0.505 -36.933  1.00  0.00     0.000 C 
BRANCH  14  15
ATOM     15  C   UNL     1      -0.703   0.622 -37.366  1.00  0.00     0.000 C 
BRANCH  15  16
ATOM     16  C   UNL     1       0.602   0.148 -38.035  1.00  0.00     0.003 C 
BRANCH  16  17
ATOM     17  C   UNL     1       1.800  -0.008 -37.080  1.00  0.00     0.042 C 
BRANCH  17  18
ATOM     18  C   UNL     1       2.074  -1.461 -36.665  1.00  0.00     0.233 C 
BRANCH  18  19
ATOM     19  O   UNL     1       1.711  -1.693 -35.305  1.00  0.00    -0.466 OA
BRANCH  19  20
ATOM     20  C   UNL     1       1.524  -0.668 -34.371  1.00  0.00     0.302 C 
ATOM     21  O   UNL     1       2.450   0.144 -34.108  1.00  0.00    -0.253 OA
ATOM     22  C   UNL     1       0.200  -0.518 -33.701  1.00  0.00     0.139 C 
ENDBRANCH  19  20
ENDBRANCH  18  19
ENDBRANCH  17  18
ENDBRANCH  16  17
ENDBRANCH  15  16
ENDBRANCH  14  15
ENDBRANCH  13  14
ENDBRANCH   1  13
TORSDOF 16
ENDMDL
MODEL 3
REMARK VINA RESULT:    -4.184      3.340      8.590
REMARK INTER + INTRA:         -10.567
REMARK INTER:                  -9.063
REMARK INTRA:                  -1.504
REMARK UNBOUND:                -2.469
REMARK SMILES CCCCCC=CCC=CCCCCCCCCOC(C)=O
REMARK SMILES IDX 12 1 11 2 10 3 9 4 8 5 7 6 6 7 5 8 4 9 3 10 2 11 1 12 13 13
REMARK SMILES IDX 14 14 15 15 16 16 17 17 18 18 19 19 20 20 22 21 21 22
REMARK H PARENT
REMARK Flexibility Score: inf
ROOT
ATOM      1  C   UNL     1      -3.549  -3.557 -34.471  1.00  0.00     0.004 C 
ENDROOT
BRANCH   1   2
ATOM      2  C   UNL     1      -4.302  -2.947 -33.283  1.00  0.00     0.027 C 
BRANCH   2   3
ATOM      3  C   UNL     1      -3.346  -2.338 -32.287  1.00  0.00    -0.031 C 
ATOM      4  C   UNL     1      -3.251  -2.708 -30.997  1.00  0.00    -0.027 C 
BRANCH   4   5
ATOM      5  C   UNL     1      -4.102  -3.785 -30.367  1.00  0.00     0.054 C 
BRANCH   5   6
ATOM      6  C   UNL     1      -3.465  -5.142 -30.519  1.00  0.00    -0.027 C 
ATOM      7  C   UNL     1      -2.575  -5.672 -29.658  1.00  0.00    -0.031 C 
BRANCH   7   8
ATOM      8  C   UNL     1      -2.052  -4.983 -28.421  1.00  0.00     0.027 C 
BRANCH   8   9
ATOM      9  C   UNL     1      -1.983  -5.972 -27.250  1.00  0.00     0.004 C 
BRANCH   9  10
ATOM     10  C   UNL     1      -2.722  -5.468 -25.996  1.00  0.00     0.000 C 
BRANCH  10  11
ATOM     11  C   UNL     1      -4.209  -5.133 -26.215  1.00  0.00    -0.003 C 
ATOM     12  C   UNL     1      -4.746  -4.111 -25.212  1.00  0.00     0.004 C 
ENDBRANCH  10  11
ENDBRANCH   9  10
ENDBRANCH   8   9
ENDBRANCH   7   8
ENDBRANCH   5   6
ENDBRANCH   4   5
ENDBRANCH   2   3
ENDBRANCH   1   2
BRANCH   1  13
ATOM     13  C   UNL     1      -2.488  -2.583 -35.005  1.00  0.00     0.000 C 
BRANCH  13  14
ATOM     14  C   UNL     1      -1.744  -3.125 -36.239  1.00  0.00     0.000 C 
BRANCH  14  15
ATOM     15  C   UNL     1      -1.051  -2.053 -37.103  1.00  0.00     0.000 C 
BRANCH  15  16
ATOM     16  C   UNL     1      -1.540  -0.610 -36.873  1.00  0.00     0.003 C 
BRANCH  16  17
ATOM     17  C   UNL     1      -0.447   0.470 -36.986  1.00  0.00     0.042 C 
BRANCH  17  18
ATOM     18  C   UNL     1       0.917  -0.075 -37.432  1.00  0.00     0.233 C 
BRANCH  18  19
ATOM     19  O   UNL     1       1.940   0.247 -36.491  1.00  0.00    -0.466 OA
BRANCH  19  20
ATOM     20  C   UNL     1       2.098  -0.413 -35.267  1.00  0.00     0.302 C 
ATOM     21  O   UNL     1       2.279   0.235 -34.202  1.00  0.00    -0.253 OA
ATOM     22  C   UNL     1       2.021  -1.901 -35.219  1.00  0.00     0.139 C 
ENDBRANCH  19  20
ENDBRANCH  18  19
ENDBRANCH  17  18
ENDBRANCH  16  17
ENDBRANCH  15  16
ENDBRANCH  14  15
ENDBRANCH  13  14
ENDBRANCH   1  13
TORSDOF 16
ENDMDL
MODEL 4
REMARK VINA RESULT:    -4.130      3.335      4.899
REMARK INTER + INTRA:         -10.463
REMARK INTER:                  -9.140
REMARK INTRA:                  -1.323
REMARK UNBOUND:                -2.469
REMARK SMILES CCCCCC=CCC=CCCCCCCCCOC(C)=O
REMARK SMILES IDX 12 1 11 2 10 3 9 4 8 5 7 6 6 7 5 8 4 9 3 10 2 11 1 12 13 13
REMARK SMILES IDX 14 14 15 15 16 16 17 17 18 18 19 19 20 20 22 21 21 22
REMARK H PARENT
REMARK Flexibility Score: inf
ROOT
ATOM      1  C   UNL     1      -3.209  -2.792 -31.126  1.00  0.00     0.004 C 
ENDROOT
BRANCH   1   2
ATOM      2  C   UNL     1      -4.119  -2.467 -32.317  1.00  0.00     0.027 C 
BRANCH   2   3
ATOM      3  C   UNL     1      -4.008  -3.521 -33.390  1.00  0.00    -0.031 C 
ATOM      4  C   UNL     1      -3.238  -3.413 -34.489  1.00  0.00    -0.027 C 
BRANCH   4   5
ATOM      5  C   UNL     1      -2.385  -2.207 -34.802  1.00  0.00     0.054 C 
BRANCH   5   6
ATOM      6  C   UNL     1      -1.728  -2.338 -36.152  1.00  0.00    -0.027 C 
ATOM      7  C   UNL     1      -1.060  -1.351 -36.779  1.00  0.00    -0.031 C 
BRANCH   7   8
ATOM      8  C   UNL     1      -0.887   0.051 -36.245  1.00  0.00     0.027 C 
BRANCH   8   9
ATOM      9  C   UNL     1       0.600   0.430 -36.222  1.00  0.00     0.004 C 
BRANCH   9  10
ATOM     10  C   UNL     1       1.185   0.472 -34.798  1.00  0.00     0.000 C 
BRANCH  10  11
ATOM     11  C   UNL     1       1.287  -0.899 -34.103  1.00  0.00    -0.003 C 
ATOM     12  C   UNL     1       2.031  -1.941 -34.939  1.00  0.00     0.004 C 
ENDBRANCH  10  11
ENDBRANCH   9  10
ENDBRANCH   8   9
ENDBRANCH   7   8
ENDBRANCH   5   6
ENDBRANCH   4   5
ENDBRANCH   2   3
ENDBRANCH   1   2
BRANCH   1  13
ATOM     13  C   UNL     1      -3.678  -4.068 -30.412  1.00  0.00     0.000 C 
BRANCH  13  14
ATOM     14  C   UNL     1      -2.520  -4.856 -29.772  1.00  0.00     0.000 C 
BRANCH  14  15
ATOM     15  C   UNL     1      -2.928  -5.781 -28.609  1.00  0.00     0.000 C 
BRANCH  15  16
ATOM     16  C   UNL     1      -2.364  -5.387 -27.230  1.00  0.00     0.003 C 
BRANCH  16  17
ATOM     17  C   UNL     1      -2.227  -6.550 -26.229  1.00  0.00     0.042 C 
BRANCH  17  18
ATOM     18  C   UNL     1      -1.757  -6.113 -24.834  1.00  0.00     0.233 C 
BRANCH  18  19
ATOM     19  O   UNL     1      -2.859  -5.908 -23.952  1.00  0.00    -0.466 OA
BRANCH  19  20
ATOM     20  C   UNL     1      -3.410  -4.650 -23.683  1.00  0.00     0.302 C 
ATOM     21  O   UNL     1      -2.955  -3.930 -22.755  1.00  0.00    -0.253 OA
ATOM     22  C   UNL     1      -4.530  -4.143 -24.527  1.00  0.00     0.139 C 
ENDBRANCH  19  20
ENDBRANCH  18  19
ENDBRANCH  17  18
ENDBRANCH  16  17
ENDBRANCH  15  16
ENDBRANCH  14  15
ENDBRANCH  13  14
ENDBRANCH   1  13
TORSDOF 16
ENDMDL
MODEL 5
REMARK VINA RESULT:    -4.093      3.036      7.752
REMARK INTER + INTRA:         -10.390
REMARK INTER:                  -7.984
REMARK INTRA:                  -2.406
REMARK UNBOUND:                -2.469
REMARK SMILES CCCCCC=CCC=CCCCCCCCCOC(C)=O
REMARK SMILES IDX 12 1 11 2 10 3 9 4 8 5 7 6 6 7 5 8 4 9 3 10 2 11 1 12 13 13
REMARK SMILES IDX 14 14 15 15 16 16 17 17 18 18 19 19 20 20 22 21 21 22
REMARK H PARENT
REMARK Flexibility Score: inf
ROOT
ATOM      1  C   UNL     1      -4.110  -2.252 -33.308  1.00  0.00     0.004 C 
ENDROOT
BRANCH   1   2
ATOM      2  C   UNL     1      -4.372  -3.163 -32.103  1.00  0.00     0.027 C 
BRANCH   2   3
ATOM      3  C   UNL     1      -3.315  -2.980 -31.043  1.00  0.00    -0.031 C 
ATOM      4  C   UNL     1      -3.016  -3.892 -30.098  1.00  0.00    -0.027 C 
BRANCH   4   5
ATOM      5  C   UNL     1      -3.712  -5.225 -29.968  1.00  0.00     0.054 C 
BRANCH   5   6
ATOM      6  C   UNL     1      -2.857  -6.342 -30.510  1.00  0.00    -0.027 C 
ATOM      7  C   UNL     1      -3.155  -7.077 -31.598  1.00  0.00    -0.031 C 
BRANCH   7   8
ATOM      8  C   UNL     1      -4.405  -6.921 -32.431  1.00  0.00     0.027 C 
BRANCH   8   9
ATOM      9  C   UNL     1      -4.042  -6.490 -33.859  1.00  0.00     0.004 C 
BRANCH   9  10
ATOM     10  C   UNL     1      -2.620  -6.914 -34.269  1.00  0.00     0.000 C 
BRANCH  10  11
ATOM     11  C   UNL     1      -2.076  -6.211 -35.528  1.00  0.00    -0.003 C 
ATOM     12  C   UNL     1      -2.868  -6.550 -36.792  1.00  0.00     0.004 C 
ENDBRANCH  10  11
ENDBRANCH   9  10
ENDBRANCH   8   9
ENDBRANCH   7   8
ENDBRANCH   5   6
ENDBRANCH   4   5
ENDBRANCH   2   3
ENDBRANCH   1   2
BRANCH   1  13
ATOM     13  C   UNL     1      -3.251  -2.970 -34.360  1.00  0.00     0.000 C 
BRANCH  13  14
ATOM     14  C   UNL     1      -2.173  -2.059 -34.975  1.00  0.00     0.000 C 
BRANCH  14  15
ATOM     15  C   UNL     1      -1.569  -2.568 -36.299  1.00  0.00     0.000 C 
BRANCH  15  16
ATOM     16  C   UNL     1      -1.439  -1.508 -37.409  1.00  0.00     0.003 C 
BRANCH  16  17
ATOM     17  C   UNL     1      -1.389  -0.051 -36.912  1.00  0.00     0.042 C 
BRANCH  17  18
ATOM     18  C   UNL     1       0.029   0.532 -36.846  1.00  0.00     0.233 C 
BRANCH  18  19
ATOM     19  O   UNL     1       0.531   0.533 -35.510  1.00  0.00    -0.466 OA
BRANCH  19  20
ATOM     20  C   UNL     1       1.638  -0.218 -35.100  1.00  0.00     0.302 C 
ATOM     21  O   UNL     1       2.351   0.156 -34.132  1.00  0.00    -0.253 OA
ATOM     22  C   UNL     1       1.958  -1.495 -35.800  1.00  0.00     0.139 C 
ENDBRANCH  19  20
ENDBRANCH  18  19
ENDBRANCH  17  18
ENDBRANCH  16  17
ENDBRANCH  15  16
ENDBRANCH  14  15
ENDBRANCH  13  14
ENDBRANCH   1  13
TORSDOF 16
ENDMDL
MODEL 6
REMARK VINA RESULT:    -4.035      1.617      2.676
REMARK INTER + INTRA:         -10.279
REMARK INTER:                  -8.265
REMARK INTRA:                  -2.014
REMARK UNBOUND:                -2.469
REMARK SMILES CCCCCC=CCC=CCCCCCCCCOC(C)=O
REMARK SMILES IDX 12 1 11 2 10 3 9 4 8 5 7 6 6 7 5 8 4 9 3 10 2 11 1 12 13 13
REMARK SMILES IDX 14 14 15 15 16 16 17 17 18 18 19 19 20 20 22 21 21 22
REMARK H PARENT
REMARK Flexibility Score: inf
ROOT
ATOM      1  C   UNL     1      -2.506  -3.415 -35.270  1.00  0.00     0.004 C 
ENDROOT
BRANCH   1   2
ATOM      2  C   UNL     1      -1.175  -3.028 -35.926  1.00  0.00     0.027 C 
BRANCH   2   3
ATOM      3  C   UNL     1      -1.369  -2.662 -37.377  1.00  0.00    -0.031 C 
ATOM      4  C   UNL     1      -1.452  -1.402 -37.841  1.00  0.00    -0.027 C 
BRANCH   4   5
ATOM      5  C   UNL     1      -1.369  -0.176 -36.963  1.00  0.00     0.054 C 
BRANCH   5   6
ATOM      6  C   UNL     1      -0.750   0.983 -37.701  1.00  0.00    -0.027 C 
ATOM      7  C   UNL     1       0.552   1.075 -38.030  1.00  0.00    -0.031 C 
BRANCH   7   8
ATOM      8  C   UNL     1       1.605   0.048 -37.688  1.00  0.00     0.027 C 
BRANCH   8   9
ATOM      9  C   UNL     1       1.998   0.163 -36.209  1.00  0.00     0.004 C 
BRANCH   9  10
ATOM     10  C   UNL     1       2.028  -1.198 -35.489  1.00  0.00     0.000 C 
BRANCH  10  11
ATOM     11  C   UNL     1       1.541  -1.165 -34.028  1.00  0.00    -0.003 C 
ATOM     12  C   UNL     1       0.385  -0.190 -33.804  1.00  0.00     0.004 C 
ENDBRANCH  10  11
ENDBRANCH   9  10
ENDBRANCH   8   9
ENDBRANCH   7   8
ENDBRANCH   5   6
ENDBRANCH   4   5
ENDBRANCH   2   3
ENDBRANCH   1   2
BRANCH   1  13
ATOM     13  C   UNL     1      -2.938  -2.356 -34.244  1.00  0.00     0.000 C 
BRANCH  13  14
ATOM     14  C   UNL     1      -3.832  -2.932 -33.131  1.00  0.00     0.000 C 
BRANCH  14  15
ATOM     15  C   UNL     1      -3.552  -2.378 -31.720  1.00  0.00     0.000 C 
BRANCH  15  16
ATOM     16  C   UNL     1      -3.189  -3.437 -30.661  1.00  0.00     0.003 C 
BRANCH  16  17
ATOM     17  C   UNL     1      -3.338  -4.898 -31.127  1.00  0.00     0.042 C 
BRANCH  17  18
ATOM     18  C   UNL     1      -3.445  -5.906 -29.975  1.00  0.00     0.233 C 
BRANCH  18  19
ATOM     19  O   UNL     1      -2.389  -5.733 -29.031  1.00  0.00    -0.466 OA
BRANCH  19  20
ATOM     20  C   UNL     1      -2.603  -5.490 -27.669  1.00  0.00     0.302 C 
ATOM     21  O   UNL     1      -1.677  -5.651 -26.831  1.00  0.00    -0.253 OA
ATOM     22  C   UNL     1      -3.936  -5.006 -27.210  1.00  0.00     0.139 C 
ENDBRANCH  19  20
ENDBRANCH  18  19
ENDBRANCH  17  18
ENDBRANCH  16  17
ENDBRANCH  15  16
ENDBRANCH  14  15
ENDBRANCH  13  14
ENDBRANCH   1  13
TORSDOF 16
ENDMDL
MODEL 7
REMARK VINA RESULT:    -3.978      4.571      9.444
REMARK INTER + INTRA:         -10.169
REMARK INTER:                  -9.152
REMARK INTRA:                  -1.017
REMARK UNBOUND:                -2.469
REMARK SMILES CCCCCC=CCC=CCCCCCCCCOC(C)=O
REMARK SMILES IDX 12 1 11 2 10 3 9 4 8 5 7 6 6 7 5 8 4 9 3 10 2 11 1 12 13 13
REMARK SMILES IDX 14 14 15 15 16 16 17 17 18 18 19 19 20 20 22 21 21 22
REMARK H PARENT
REMARK Flexibility Score: inf
ROOT
ATOM      1  C   UNL     1      -3.321  -5.203 -31.165  1.00  0.00     0.004 C 
ENDROOT
BRANCH   1   2
ATOM      2  C   UNL     1      -2.870  -5.811 -29.831  1.00  0.00     0.027 C 
BRANCH   2   3
ATOM      3  C   UNL     1      -2.053  -4.825 -29.033  1.00  0.00    -0.031 C 
ATOM      4  C   UNL     1      -1.647  -5.021 -27.765  1.00  0.00    -0.027 C 
BRANCH   4   5
ATOM      5  C   UNL     1      -1.966  -6.259 -26.962  1.00  0.00     0.054 C 
BRANCH   5   6
ATOM      6  C   UNL     1      -2.623  -5.907 -25.652  1.00  0.00    -0.027 C 
ATOM      7  C   UNL     1      -2.004  -5.922 -24.456  1.00  0.00    -0.031 C 
BRANCH   7   8
ATOM      8  C   UNL     1      -0.566  -6.322 -24.231  1.00  0.00     0.027 C 
BRANCH   8   9
ATOM      9  C   UNL     1       0.200  -5.184 -23.541  1.00  0.00     0.004 C 
BRANCH   9  10
ATOM     10  C   UNL     1       1.295  -5.693 -22.585  1.00  0.00     0.000 C 
BRANCH  10  11
ATOM     11  C   UNL     1       2.293  -6.683 -23.217  1.00  0.00    -0.003 C 
ATOM     12  C   UNL     1       3.541  -5.999 -23.776  1.00  0.00     0.004 C 
ENDBRANCH  10  11
ENDBRANCH   9  10
ENDBRANCH   8   9
ENDBRANCH   7   8
ENDBRANCH   5   6
ENDBRANCH   4   5
ENDBRANCH   2   3
ENDBRANCH   1   2
BRANCH   1  13
ATOM     13  C   UNL     1      -3.531  -3.687 -31.032  1.00  0.00     0.000 C 
BRANCH  13  14
ATOM     14  C   UNL     1      -4.454  -3.114 -32.123  1.00  0.00     0.000 C 
BRANCH  14  15
ATOM     15  C   UNL     1      -3.976  -3.347 -33.569  1.00  0.00     0.000 C 
BRANCH  15  16
ATOM     16  C   UNL     1      -3.105  -2.221 -34.160  1.00  0.00     0.003 C 
BRANCH  16  17
ATOM     17  C   UNL     1      -2.175  -2.655 -35.308  1.00  0.00     0.042 C 
BRANCH  17  18
ATOM     18  C   UNL     1      -1.371  -1.501 -35.922  1.00  0.00     0.233 C 
BRANCH  18  19
ATOM     19  O   UNL     1      -0.046  -1.450 -35.395  1.00  0.00    -0.466 OA
BRANCH  19  20
ATOM     20  C   UNL     1       0.364  -0.530 -34.424  1.00  0.00     0.302 C 
ATOM     21  O   UNL     1      -0.112  -0.566 -33.258  1.00  0.00    -0.253 OA
ATOM     22  C   UNL     1       1.399   0.487 -34.765  1.00  0.00     0.139 C 
ENDBRANCH  19  20
ENDBRANCH  18  19
ENDBRANCH  17  18
ENDBRANCH  16  17
ENDBRANCH  15  16
ENDBRANCH  14  15
ENDBRANCH  13  14
ENDBRANCH   1  13
TORSDOF 16
ENDMDL
MODEL 8
REMARK VINA RESULT:    -3.977      4.170      9.195
REMARK INTER + INTRA:         -10.166
REMARK INTER:                  -9.067
REMARK INTRA:                  -1.099
REMARK UNBOUND:                -2.469
REMARK SMILES CCCCCC=CCC=CCCCCCCCCOC(C)=O
REMARK SMILES IDX 12 1 11 2 10 3 9 4 8 5 7 6 6 7 5 8 4 9 3 10 2 11 1 12 13 13
REMARK SMILES IDX 14 14 15 15 16 16 17 17 18 18 19 19 20 20 22 21 21 22
REMARK H PARENT
REMARK Flexibility Score: inf
ROOT
ATOM      1  C   UNL     1      -3.142  -2.438 -31.911  1.00  0.00     0.004 C 
ENDROOT
BRANCH   1   2
ATOM      2  C   UNL     1      -3.494  -3.206 -30.632  1.00  0.00     0.027 C 
BRANCH   2   3
ATOM      3  C   UNL     1      -3.319  -4.692 -30.824  1.00  0.00    -0.031 C 
ATOM      4  C   UNL     1      -2.698  -5.506 -29.949  1.00  0.00    -0.027 C 
BRANCH   4   5
ATOM      5  C   UNL     1      -2.082  -5.035 -28.654  1.00  0.00     0.054 C 
BRANCH   5   6
ATOM      6  C   UNL     1      -3.086  -5.062 -27.530  1.00  0.00    -0.027 C 
ATOM      7  C   UNL     1      -2.889  -5.662 -26.341  1.00  0.00    -0.031 C 
BRANCH   7   8
ATOM      8  C   UNL     1      -1.646  -6.427 -25.953  1.00  0.00     0.027 C 
BRANCH   8   9
ATOM      9  C   UNL     1      -1.426  -6.349 -24.436  1.00  0.00     0.004 C 
BRANCH   9  10
ATOM     10  C   UNL     1      -0.244  -7.212 -23.957  1.00  0.00     0.000 C 
BRANCH  10  11
ATOM     11  C   UNL     1       1.006  -6.415 -23.536  1.00  0.00    -0.003 C 
ATOM     12  C   UNL     1       0.746  -4.913 -23.415  1.00  0.00     0.004 C 
ENDBRANCH  10  11
ENDBRANCH   9  10
ENDBRANCH   8   9
ENDBRANCH   7   8
ENDBRANCH   5   6
ENDBRANCH   4   5
ENDBRANCH   2   3
ENDBRANCH   1   2
BRANCH   1  13
ATOM     13  C   UNL     1      -4.140  -2.757 -33.034  1.00  0.00     0.000 C 
BRANCH  13  14
ATOM     14  C   UNL     1      -3.451  -3.131 -34.359  1.00  0.00     0.000 C 
BRANCH  14  15
ATOM     15  C   UNL     1      -2.404  -2.116 -34.856  1.00  0.00     0.000 C 
BRANCH  15  16
ATOM     16  C   UNL     1      -1.498  -2.616 -35.999  1.00  0.00     0.003 C 
BRANCH  16  17
ATOM     17  C   UNL     1      -1.343  -1.639 -37.179  1.00  0.00     0.042 C 
BRANCH  17  18
ATOM     18  C   UNL     1      -0.174  -0.657 -37.018  1.00  0.00     0.233 C 
BRANCH  18  19
ATOM     19  O   UNL     1       0.945  -1.277 -36.385  1.00  0.00    -0.466 OA
BRANCH  19  20
ATOM     20  C   UNL     1       1.690  -0.672 -35.367  1.00  0.00     0.302 C 
ATOM     21  O   UNL     1       2.609   0.146 -35.637  1.00  0.00    -0.253 OA
ATOM     22  C   UNL     1       1.370  -0.976 -33.943  1.00  0.00     0.139 C 
ENDBRANCH  19  20
ENDBRANCH  18  19
ENDBRANCH  17  18
ENDBRANCH  16  17
ENDBRANCH  15  16
ENDBRANCH  14  15
ENDBRANCH  13  14
ENDBRANCH   1  13
TORSDOF 16
ENDMDL
MODEL 9
REMARK VINA RESULT:    -3.846      1.704      3.198
REMARK INTER + INTRA:          -9.913
REMARK INTER:                  -8.034
REMARK INTRA:                  -1.879
REMARK UNBOUND:                -2.469
REMARK SMILES CCCCCC=CCC=CCCCCCCCCOC(C)=O
REMARK SMILES IDX 12 1 11 2 10 3 9 4 8 5 7 6 6 7 5 8 4 9 3 10 2 11 1 12 13 13
REMARK SMILES IDX 14 14 15 15 16 16 17 17 18 18 19 19 20 20 22 21 21 22
REMARK H PARENT
REMARK Flexibility Score: inf
ROOT
ATOM      1  C   UNL     1      -4.507  -2.286 -33.272  1.00  0.00     0.004 C 
ENDROOT
BRANCH   1   2
ATOM      2  C   UNL     1      -3.116  -2.387 -33.907  1.00  0.00     0.027 C 
BRANCH   2   3
ATOM      3  C   UNL     1      -3.024  -3.578 -34.829  1.00  0.00    -0.031 C 
ATOM      4  C   UNL     1      -2.125  -3.706 -35.822  1.00  0.00    -0.027 C 
BRANCH   4   5
ATOM      5  C   UNL     1      -1.085  -2.663 -36.154  1.00  0.00     0.054 C 
BRANCH   5   6
ATOM      6  C   UNL     1      -1.676  -1.548 -36.978  1.00  0.00    -0.027 C 
ATOM      7  C   UNL     1      -0.967  -0.545 -37.531  1.00  0.00    -0.031 C 
BRANCH   7   8
ATOM      8  C   UNL     1       0.524  -0.359 -37.388  1.00  0.00     0.027 C 
BRANCH   8   9
ATOM      9  C   UNL     1       0.833   0.590 -36.222  1.00  0.00     0.004 C 
BRANCH   9  10
ATOM     10  C   UNL     1       1.990   0.094 -35.336  1.00  0.00     0.000 C 
BRANCH  10  11
ATOM     11  C   UNL     1       1.567  -0.844 -34.189  1.00  0.00    -0.003 C 
ATOM     12  C   UNL     1       0.191  -0.503 -33.614  1.00  0.00     0.004 C 
ENDBRANCH  10  11
ENDBRANCH   9  10
ENDBRANCH   8   9
ENDBRANCH   7   8
ENDBRANCH   5   6
ENDBRANCH   4   5
ENDBRANCH   2   3
ENDBRANCH   1   2
BRANCH   1  13
ATOM     13  C   UNL     1      -4.674  -3.324 -32.152  1.00  0.00     0.000 C 
BRANCH  13  14
ATOM     14  C   UNL     1      -3.772  -3.043 -30.936  1.00  0.00     0.000 C 
BRANCH  14  15
ATOM     15  C   UNL     1      -2.992  -4.263 -30.409  1.00  0.00     0.000 C 
BRANCH  15  16
ATOM     16  C   UNL     1      -3.155  -5.552 -31.239  1.00  0.00     0.003 C 
BRANCH  16  17
ATOM     17  C   UNL     1      -3.053  -6.860 -30.431  1.00  0.00     0.042 C 
BRANCH  17  18
ATOM     18  C   UNL     1      -3.919  -6.871 -29.163  1.00  0.00     0.233 C 
BRANCH  18  19
ATOM     19  O   UNL     1      -3.117  -6.921 -27.984  1.00  0.00    -0.466 OA
BRANCH  19  20
ATOM     20  C   UNL     1      -2.871  -5.809 -27.171  1.00  0.00     0.302 C 
ATOM     21  O   UNL     1      -1.694  -5.479 -26.866  1.00  0.00    -0.253 OA
ATOM     22  C   UNL     1      -4.015  -4.987 -26.684  1.00  0.00     0.139 C 
ENDBRANCH  19  20
ENDBRANCH  18  19
ENDBRANCH  17  18
ENDBRANCH  16  17
ENDBRANCH  15  16
ENDBRANCH  14  15
ENDBRANCH  13  14
ENDBRANCH   1  13
TORSDOF 16
ENDMDL
