MODEL 1
REMARK VINA RESULT:    -3.714      0.000      0.000
REMARK INTER + INTRA:          -5.690
REMARK INTER:                  -5.668
REMARK INTRA:                  -0.022
REMARK UNBOUND:                -0.022
REMARK SMILES CC1=CCC[C@@H](C)C(=O)C[C@@H](C(C)C)C(=O)C1
REMARK SMILES IDX 8 1 9 2 6 3 7 4 5 5 4 6 3 7 2 8 1 9 10 11 11 12 15 13 16 14
REMARK SMILES IDX 17 15 12 17 13 18 14 19
REMARK H PARENT
REMARK Flexibility Score: 70.00
ROOT
ATOM      1  C   UNL     1      17.836  28.732  29.519  1.00  0.00     0.136 C 
ATOM      2  O   UNL     1      17.700  27.940  30.441  1.00  0.00    -0.299 OA
ENDROOT
BRANCH   1   3
ATOM      3  C   UNL     1      18.645  28.300  28.309  1.00  0.00     0.053 C 
ATOM      4  C   UNL     1      17.905  27.220  27.508  1.00  0.00     0.016 C 
BRANCH   3   5
ATOM      5  C   UNL     1      20.041  27.807  28.758  1.00  0.00     0.015 C 
BRANCH   5   6
ATOM      6  C   UNL     1      21.067  28.955  28.884  1.00  0.00     0.028 C 
BRANCH   6   7
ATOM      7  C   UNL     1      21.441  29.224  30.323  1.00  0.00    -0.028 C 
ATOM      8  C   UNL     1      21.209  30.381  30.985  1.00  0.00    -0.070 CG0
ATOM      9  C   UNL     1      21.621  30.466  32.433  1.00  0.00     0.039 C 
ATOM     10  G   UNL     1      20.550  31.591  30.345  1.00  0.00     0.000 G0
ENDBRANCH   6   7
ENDBRANCH   5   6
ENDBRANCH   3   5
ENDBRANCH   1   3
BRANCH   1  11
ATOM     11  C   UNL     1      17.217  30.111  29.683  1.00  0.00     0.087 C 
BRANCH  11  12
ATOM     12  C   UNL     1      18.115  31.341  29.376  1.00  0.00     0.066 C 
BRANCH  12  13
ATOM     13  C   UNL     1      19.059  31.654  30.530  1.00  0.00     0.140 C 
ATOM     14  O   UNL     1      18.602  32.005  31.609  1.00  0.00    -0.299 OA
BRANCH  13  15
ATOM     15  C   UNL     1      20.560  31.602  30.335  1.00  0.00     0.106 CG0
ATOM     16  G   UNL     1      21.191  30.380  30.982  1.00  0.00     0.000 G0
ENDBRANCH  13  15
ENDBRANCH  12  13
BRANCH  12  17
ATOM     17  C   UNL     1      17.264  32.582  28.953  1.00  0.00    -0.006 C 
ATOM     18  C   UNL     1      17.997  33.898  29.255  1.00  0.00     0.008 C 
ATOM     19  C   UNL     1      15.849  32.622  29.559  1.00  0.00     0.008 C 
ENDBRANCH  12  17
ENDBRANCH  11  12
ENDBRANCH   1  11
TORSDOF 1
ENDMDL
MODEL 2
REMARK VINA RESULT:    -3.704      8.748     11.106
REMARK INTER + INTRA:          -5.675
REMARK INTER:                  -5.270
REMARK INTRA:                  -0.405
REMARK UNBOUND:                -0.022
REMARK SMILES CC1=CCC[C@@H](C)C(=O)C[C@@H](C(C)C)C(=O)C1
REMARK SMILES IDX 8 1 9 2 6 3 7 4 5 5 4 6 3 7 2 8 1 9 10 11 11 12 15 13 16 14
REMARK SMILES IDX 17 15 12 17 13 18 14 19
REMARK H PARENT
REMARK Flexibility Score: 70.00
ROOT
ATOM      1  C   UNL     1      29.358  31.315  31.691  1.00  0.00     0.136 C 
ATOM      2  O   UNL     1      29.401  30.661  32.723  1.00  0.00    -0.299 OA
ENDROOT
BRANCH   1   3
ATOM      3  C   UNL     1      28.270  32.363  31.543  1.00  0.00     0.053 C 
ATOM      4  C   UNL     1      28.111  33.178  32.835  1.00  0.00     0.016 C 
BRANCH   3   5
ATOM      5  C   UNL     1      26.938  31.687  31.139  1.00  0.00     0.015 C 
BRANCH   5   6
ATOM      6  C   UNL     1      26.599  31.883  29.645  1.00  0.00     0.028 C 
BRANCH   6   7
ATOM      7  C   UNL     1      26.740  30.599  28.861  1.00  0.00    -0.028 C 
ATOM      8  C   UNL     1      27.670  30.370  27.904  1.00  0.00    -0.070 CG0
ATOM      9  C   UNL     1      27.688  29.015  27.242  1.00  0.00     0.039 C 
ATOM     10  G   UNL     1      28.696  31.403  27.472  1.00  0.00     0.000 G0
ENDBRANCH   6   7
ENDBRANCH   5   6
ENDBRANCH   3   5
ENDBRANCH   1   3
BRANCH   1  11
ATOM     11  C   UNL     1      30.379  30.987  30.612  1.00  0.00     0.087 C 
BRANCH  11  12
ATOM     12  C   UNL     1      30.439  31.923  29.373  1.00  0.00     0.066 C 
BRANCH  12  13
ATOM     13  C   UNL     1      30.068  31.190  28.091  1.00  0.00     0.140 C 
ATOM     14  O   UNL     1      30.893  30.472  27.543  1.00  0.00    -0.299 OA
BRANCH  13  15
ATOM     15  C   UNL     1      28.711  31.393  27.451  1.00  0.00     0.106 CG0
ATOM     16  G   UNL     1      27.689  30.367  27.910  1.00  0.00     0.000 G0
ENDBRANCH  13  15
ENDBRANCH  12  13
BRANCH  12  17
ATOM     17  C   UNL     1      31.822  32.644  29.266  1.00  0.00    -0.006 C 
ATOM     18  C   UNL     1      32.360  33.042  30.649  1.00  0.00     0.008 C 
ATOM     19  C   UNL     1      31.833  33.867  28.331  1.00  0.00     0.008 C 
ENDBRANCH  12  17
ENDBRANCH  11  12
ENDBRANCH   1  11
TORSDOF 1
ENDMDL
MODEL 3
REMARK VINA RESULT:    -3.660      3.331      5.050
REMARK INTER + INTRA:          -5.608
REMARK INTER:                  -5.764
REMARK INTRA:                   0.156
REMARK UNBOUND:                -0.022
REMARK SMILES CC1=CCC[C@@H](C)C(=O)C[C@@H](C(C)C)C(=O)C1
REMARK SMILES IDX 8 1 9 2 6 3 7 4 5 5 4 6 3 7 2 8 1 9 10 11 11 12 15 13 16 14
REMARK SMILES IDX 17 15 12 17 13 18 14 19
REMARK H PARENT
REMARK Flexibility Score: 70.00
ROOT
ATOM      1  C   UNL     1      19.010  24.441  27.249  1.00  0.00     0.136 C 
ATOM      2  O   UNL     1      18.541  23.425  26.757  1.00  0.00    -0.299 OA
ENDROOT
BRANCH   1   3
ATOM      3  C   UNL     1      20.377  24.907  26.780  1.00  0.00     0.053 C 
ATOM      4  C   UNL     1      21.003  23.892  25.813  1.00  0.00     0.016 C 
BRANCH   3   5
ATOM      5  C   UNL     1      21.294  25.161  27.999  1.00  0.00     0.015 C 
BRANCH   5   6
ATOM      6  C   UNL     1      21.690  26.646  28.149  1.00  0.00     0.028 C 
BRANCH   6   7
ATOM      7  C   UNL     1      21.096  27.267  29.392  1.00  0.00    -0.028 C 
ATOM      8  C   UNL     1      19.910  27.917  29.446  1.00  0.00    -0.070 CG0
ATOM      9  C   UNL     1      19.453  28.448  30.781  1.00  0.00     0.039 C 
ATOM     10  G   UNL     1      19.017  28.129  28.235  1.00  0.00     0.000 G0
ENDBRANCH   6   7
ENDBRANCH   5   6
ENDBRANCH   3   5
ENDBRANCH   1   3
BRANCH   1  11
ATOM     11  C   UNL     1      18.198  25.133  28.333  1.00  0.00     0.087 C 
BRANCH  11  12
ATOM     12  C   UNL     1      17.208  26.245  27.888  1.00  0.00     0.066 C 
BRANCH  12  13
ATOM     13  C   UNL     1      17.604  27.609  28.440  1.00  0.00     0.140 C 
ATOM     14  O   UNL     1      16.767  28.302  29.000  1.00  0.00    -0.299 OA
BRANCH  13  15
ATOM     15  C   UNL     1      19.007  28.144  28.242  1.00  0.00     0.106 CG0
ATOM     16  G   UNL     1      19.898  27.907  29.449  1.00  0.00     0.000 G0
ENDBRANCH  13  15
ENDBRANCH  12  13
BRANCH  12  17
ATOM     17  C   UNL     1      15.731  25.871  28.235  1.00  0.00    -0.006 C 
ATOM     18  C   UNL     1      15.580  25.482  29.713  1.00  0.00     0.008 C 
ATOM     19  C   UNL     1      15.124  24.773  27.343  1.00  0.00     0.008 C 
ENDBRANCH  12  17
ENDBRANCH  11  12
ENDBRANCH   1  11
TORSDOF 1
ENDMDL
MODEL 4
REMARK VINA RESULT:    -3.535      4.815      8.048
REMARK INTER + INTRA:          -5.416
REMARK INTER:                  -5.574
REMARK INTRA:                   0.158
REMARK UNBOUND:                -0.022
REMARK SMILES CC1=CCC[C@@H](C)C(=O)C[C@@H](C(C)C)C(=O)C1
REMARK SMILES IDX 8 1 9 2 6 3 7 4 5 5 4 6 3 7 2 8 1 9 10 11 11 12 15 13 16 14
REMARK SMILES IDX 17 15 12 17 13 18 14 19
REMARK H PARENT
REMARK Flexibility Score: 70.00
ROOT
ATOM      1  C   UNL     1      17.611  26.879  28.277  1.00  0.00     0.136 C 
ATOM      2  O   UNL     1      17.971  27.576  27.339  1.00  0.00    -0.299 OA
ENDROOT
BRANCH   1   3
ATOM      3  C   UNL     1      16.605  27.453  29.259  1.00  0.00     0.053 C 
ATOM      4  C   UNL     1      17.307  28.282  30.344  1.00  0.00     0.016 C 
BRANCH   3   5
ATOM      5  C   UNL     1      15.765  26.312  29.880  1.00  0.00     0.015 C 
BRANCH   5   6
ATOM      6  C   UNL     1      14.620  25.844  28.955  1.00  0.00     0.028 C 
BRANCH   6   7
ATOM      7  C   UNL     1      14.554  24.338  28.855  1.00  0.00    -0.028 C 
ATOM      8  C   UNL     1      15.153  23.594  27.897  1.00  0.00    -0.070 CG0
ATOM      9  C   UNL     1      15.010  22.095  27.968  1.00  0.00     0.039 C 
ATOM     10  G   UNL     1      15.967  24.193  26.762  1.00  0.00     0.000 G0
ENDBRANCH   6   7
ENDBRANCH   5   6
ENDBRANCH   3   5
ENDBRANCH   1   3
BRANCH   1  11
ATOM     11  C   UNL     1      18.242  25.502  28.408  1.00  0.00     0.087 C 
BRANCH  11  12
ATOM     12  C   UNL     1      18.544  24.724  27.098  1.00  0.00     0.066 C 
BRANCH  12  13
ATOM     13  C   UNL     1      17.428  23.747  26.749  1.00  0.00     0.140 C 
ATOM     14  O   UNL     1      17.707  22.606  26.409  1.00  0.00    -0.299 OA
BRANCH  13  15
ATOM     15  C   UNL     1      15.982  24.194  26.755  1.00  0.00     0.106 CG0
ATOM     16  G   UNL     1      15.185  23.583  27.896  1.00  0.00     0.000 G0
ENDBRANCH  13  15
ENDBRANCH  12  13
BRANCH  12  17
ATOM     17  C   UNL     1      19.944  24.031  27.151  1.00  0.00    -0.006 C 
ATOM     18  C   UNL     1      20.857  24.685  28.200  1.00  0.00     0.008 C 
ATOM     19  C   UNL     1      20.673  23.958  25.798  1.00  0.00     0.008 C 
ENDBRANCH  12  17
ENDBRANCH  11  12
ENDBRANCH   1  11
TORSDOF 1
ENDMDL
MODEL 5
REMARK VINA RESULT:    -3.400      5.841      8.188
REMARK INTER + INTRA:          -5.211
REMARK INTER:                  -5.099
REMARK INTRA:                  -0.113
REMARK UNBOUND:                -0.022
REMARK SMILES CC1=CCC[C@@H](C)C(=O)C[C@@H](C(C)C)C(=O)C1
REMARK SMILES IDX 8 1 9 2 6 3 7 4 5 5 4 6 3 7 2 8 1 9 10 11 11 12 15 13 16 14
REMARK SMILES IDX 17 15 12 17 13 18 14 19
REMARK H PARENT
REMARK Flexibility Score: 70.00
ROOT
ATOM      1  C   UNL     1      27.536  30.369  28.119  1.00  0.00     0.136 C 
ATOM      2  O   UNL     1      28.216  30.679  27.151  1.00  0.00    -0.299 OA
ENDROOT
BRANCH   1   3
ATOM      3  C   UNL     1      26.875  29.003  28.131  1.00  0.00     0.053 C 
ATOM      4  C   UNL     1      27.272  28.188  26.892  1.00  0.00     0.016 C 
BRANCH   3   5
ATOM      5  C   UNL     1      25.339  29.162  28.228  1.00  0.00     0.015 C 
BRANCH   5   6
ATOM      6  C   UNL     1      24.738  28.413  29.438  1.00  0.00     0.028 C 
BRANCH   6   7
ATOM      7  C   UNL     1      23.690  29.238  30.149  1.00  0.00    -0.028 C 
ATOM      8  C   UNL     1      23.908  29.989  31.254  1.00  0.00    -0.070 CG0
ATOM      9  C   UNL     1      22.752  30.777  31.816  1.00  0.00     0.039 C 
ATOM     10  G   UNL     1      25.257  30.082  31.948  1.00  0.00     0.000 G0
ENDBRANCH   6   7
ENDBRANCH   5   6
ENDBRANCH   3   5
ENDBRANCH   1   3
BRANCH   1  11
ATOM     11  C   UNL     1      27.372  31.407  29.219  1.00  0.00     0.087 C 
BRANCH  11  12
ATOM     12  C   UNL     1      27.410  30.905  30.689  1.00  0.00     0.066 C 
BRANCH  12  13
ATOM     13  C   UNL     1      26.110  31.208  31.424  1.00  0.00     0.140 C 
ATOM     14  O   UNL     1      25.786  32.369  31.628  1.00  0.00    -0.299 OA
BRANCH  13  15
ATOM     15  C   UNL     1      25.249  30.085  31.964  1.00  0.00     0.106 CG0
ATOM     16  G   UNL     1      23.916  29.972  31.245  1.00  0.00     0.000 G0
ENDBRANCH  13  15
ENDBRANCH  12  13
BRANCH  12  17
ATOM     17  C   UNL     1      28.661  31.451  31.449  1.00  0.00    -0.006 C 
ATOM     18  C   UNL     1      29.916  31.424  30.562  1.00  0.00     0.008 C 
ATOM     19  C   UNL     1      28.954  30.747  32.786  1.00  0.00     0.008 C 
ENDBRANCH  12  17
ENDBRANCH  11  12
ENDBRANCH   1  11
TORSDOF 1
ENDMDL
MODEL 6
REMARK VINA RESULT:    -3.395      2.269      3.388
REMARK INTER + INTRA:          -5.203
REMARK INTER:                  -5.236
REMARK INTRA:                   0.034
REMARK UNBOUND:                -0.022
REMARK SMILES CC1=CCC[C@@H](C)C(=O)C[C@@H](C(C)C)C(=O)C1
REMARK SMILES IDX 8 1 9 2 6 3 7 4 5 5 4 6 3 7 2 8 1 9 10 11 11 12 15 13 16 14
REMARK SMILES IDX 17 15 12 17 13 18 14 19
REMARK H PARENT
REMARK Flexibility Score: 70.00
ROOT
ATOM      1  C   UNL     1      18.076  27.616  27.941  1.00  0.00     0.136 C 
ATOM      2  O   UNL     1      18.239  28.225  26.893  1.00  0.00    -0.299 OA
ENDROOT
BRANCH   1   3
ATOM      3  C   UNL     1      17.677  26.152  27.872  1.00  0.00     0.053 C 
ATOM      4  C   UNL     1      17.049  25.690  29.194  1.00  0.00     0.016 C 
BRANCH   3   5
ATOM      5  C   UNL     1      18.905  25.288  27.501  1.00  0.00     0.015 C 
BRANCH   5   6
ATOM      6  C   UNL     1      19.912  25.152  28.665  1.00  0.00     0.028 C 
BRANCH   6   7
ATOM      7  C   UNL     1      21.221  25.844  28.363  1.00  0.00    -0.028 C 
ATOM      8  C   UNL     1      21.675  26.958  28.985  1.00  0.00    -0.070 CG0
ATOM      9  C   UNL     1      23.022  27.498  28.580  1.00  0.00     0.039 C 
ATOM     10  G   UNL     1      20.899  27.681  30.073  1.00  0.00     0.000 G0
ENDBRANCH   6   7
ENDBRANCH   5   6
ENDBRANCH   3   5
ENDBRANCH   1   3
BRANCH   1  11
ATOM     11  C   UNL     1      18.241  28.395  29.236  1.00  0.00     0.087 C 
BRANCH  11  12
ATOM     12  C   UNL     1      19.261  29.567  29.242  1.00  0.00     0.066 C 
BRANCH  12  13
ATOM     13  C   UNL     1      20.620  29.133  29.777  1.00  0.00     0.140 C 
ATOM     14  O   UNL     1      21.512  29.958  29.906  1.00  0.00    -0.299 OA
BRANCH  13  15
ATOM     15  C   UNL     1      20.898  27.677  30.086  1.00  0.00     0.106 CG0
ATOM     16  G   UNL     1      21.674  26.982  28.980  1.00  0.00     0.000 G0
ENDBRANCH  13  15
ENDBRANCH  12  13
BRANCH  12  17
ATOM     17  C   UNL     1      18.698  30.814  29.998  1.00  0.00    -0.006 C 
ATOM     18  C   UNL     1      17.924  30.406  31.260  1.00  0.00     0.008 C 
ATOM     19  C   UNL     1      17.830  31.746  29.133  1.00  0.00     0.008 C 
ENDBRANCH  12  17
ENDBRANCH  11  12
ENDBRANCH   1  11
TORSDOF 1
ENDMDL
MODEL 7
REMARK VINA RESULT:    -3.394      1.494      2.228
REMARK INTER + INTRA:          -5.202
REMARK INTER:                  -5.281
REMARK INTRA:                   0.079
REMARK UNBOUND:                -0.022
REMARK SMILES CC1=CCC[C@@H](C)C(=O)C[C@@H](C(C)C)C(=O)C1
REMARK SMILES IDX 8 1 9 2 6 3 7 4 5 5 4 6 3 7 2 8 1 9 10 11 11 12 15 13 16 14
REMARK SMILES IDX 17 15 12 17 13 18 14 19
REMARK H PARENT
REMARK Flexibility Score: 70.00
ROOT
ATOM      1  C   UNL     1      17.935  29.013  30.025  1.00  0.00     0.136 C 
ATOM      2  O   UNL     1      17.818  27.953  30.623  1.00  0.00    -0.299 OA
ENDROOT
BRANCH   1   3
ATOM      3  C   UNL     1      18.705  29.024  28.717  1.00  0.00     0.053 C 
ATOM      4  C   UNL     1      18.383  27.780  27.877  1.00  0.00     0.016 C 
BRANCH   3   5
ATOM      5  C   UNL     1      20.222  29.134  28.999  1.00  0.00     0.015 C 
BRANCH   5   6
ATOM      6  C   UNL     1      20.539  30.033  30.214  1.00  0.00     0.028 C 
BRANCH   6   7
ATOM      7  C   UNL     1      21.018  31.403  29.794  1.00  0.00    -0.028 C 
ATOM      8  C   UNL     1      20.331  32.556  29.971  1.00  0.00    -0.070 CG0
ATOM      9  C   UNL     1      20.974  33.842  29.519  1.00  0.00     0.039 C 
ATOM     10  G   UNL     1      18.953  32.618  30.609  1.00  0.00     0.000 G0
ENDBRANCH   6   7
ENDBRANCH   5   6
ENDBRANCH   3   5
ENDBRANCH   1   3
BRANCH   1  11
ATOM     11  C   UNL     1      17.334  30.251  30.673  1.00  0.00     0.087 C 
BRANCH  11  12
ATOM     12  C   UNL     1      16.822  31.376  29.731  1.00  0.00     0.066 C 
BRANCH  12  13
ATOM     13  C   UNL     1      17.813  32.530  29.637  1.00  0.00     0.140 C 
ATOM     14  O   UNL     1      17.716  33.339  28.725  1.00  0.00    -0.299 OA
BRANCH  13  15
ATOM     15  C   UNL     1      18.958  32.646  30.622  1.00  0.00     0.106 CG0
ATOM     16  G   UNL     1      20.318  32.539  29.952  1.00  0.00     0.000 G0
ENDBRANCH  13  15
ENDBRANCH  12  13
BRANCH  12  17
ATOM     17  C   UNL     1      15.391  31.856  30.134  1.00  0.00    -0.006 C 
ATOM     18  C   UNL     1      15.412  32.649  31.450  1.00  0.00     0.008 C 
ATOM     19  C   UNL     1      14.342  30.733  30.219  1.00  0.00     0.008 C 
ENDBRANCH  12  17
ENDBRANCH  11  12
ENDBRANCH   1  11
TORSDOF 1
ENDMDL
MODEL 8
REMARK VINA RESULT:    -3.347      3.364      6.284
REMARK INTER + INTRA:          -5.130
REMARK INTER:                  -5.327
REMARK INTRA:                   0.198
REMARK UNBOUND:                -0.022
REMARK SMILES CC1=CCC[C@@H](C)C(=O)C[C@@H](C(C)C)C(=O)C1
REMARK SMILES IDX 8 1 9 2 6 3 7 4 5 5 4 6 3 7 2 8 1 9 10 11 11 12 15 13 16 14
REMARK SMILES IDX 17 15 12 17 13 18 14 19
REMARK H PARENT
REMARK Flexibility Score: 70.00
ROOT
ATOM      1  C   UNL     1      21.067  26.922  29.399  1.00  0.00     0.136 C 
ATOM      2  O   UNL     1      21.195  27.126  30.597  1.00  0.00    -0.299 OA
ENDROOT
BRANCH   1   3
ATOM      3  C   UNL     1      21.260  28.085  28.442  1.00  0.00     0.053 C 
ATOM      4  C   UNL     1      22.731  28.525  28.401  1.00  0.00     0.016 C 
BRANCH   3   5
ATOM      5  C   UNL     1      20.335  29.258  28.845  1.00  0.00     0.015 C 
BRANCH   5   6
ATOM      6  C   UNL     1      19.045  29.318  27.997  1.00  0.00     0.028 C 
BRANCH   6   7
ATOM      7  C   UNL     1      17.824  28.927  28.796  1.00  0.00    -0.028 C 
ATOM      8  C   UNL     1      17.115  27.787  28.627  1.00  0.00    -0.070 CG0
ATOM      9  C   UNL     1      15.939  27.540  29.538  1.00  0.00     0.039 C 
ATOM     10  G   UNL     1      17.450  26.743  27.575  1.00  0.00     0.000 G0
ENDBRANCH   6   7
ENDBRANCH   5   6
ENDBRANCH   3   5
ENDBRANCH   1   3
BRANCH   1  11
ATOM     11  C   UNL     1      20.674  25.518  28.966  1.00  0.00     0.087 C 
BRANCH  11  12
ATOM     12  C   UNL     1      19.720  25.384  27.747  1.00  0.00     0.066 C 
BRANCH  12  13
ATOM     13  C   UNL     1      18.263  25.584  28.143  1.00  0.00     0.140 C 
ATOM     14  O   UNL     1      17.720  24.779  28.886  1.00  0.00    -0.299 OA
BRANCH  13  15
ATOM     15  C   UNL     1      17.459  26.734  27.572  1.00  0.00     0.106 CG0
ATOM     16  G   UNL     1      17.118  27.784  28.616  1.00  0.00     0.000 G0
ENDBRANCH  13  15
ENDBRANCH  12  13
BRANCH  12  17
ATOM     17  C   UNL     1      19.947  24.038  26.986  1.00  0.00    -0.006 C 
ATOM     18  C   UNL     1      20.930  24.211  25.817  1.00  0.00     0.008 C 
ATOM     19  C   UNL     1      18.658  23.360  26.487  1.00  0.00     0.008 C 
ENDBRANCH  12  17
ENDBRANCH  11  12
ENDBRANCH   1  11
TORSDOF 1
ENDMDL
MODEL 9
REMARK VINA RESULT:    -3.316      2.306      4.396
REMARK INTER + INTRA:          -5.082
REMARK INTER:                  -5.379
REMARK INTRA:                   0.297
REMARK UNBOUND:                -0.022
REMARK SMILES CC1=CCC[C@@H](C)C(=O)C[C@@H](C(C)C)C(=O)C1
REMARK SMILES IDX 8 1 9 2 6 3 7 4 5 5 4 6 3 7 2 8 1 9 10 11 11 12 15 13 16 14
REMARK SMILES IDX 17 15 12 17 13 18 14 19
REMARK H PARENT
REMARK Flexibility Score: 70.00
ROOT
ATOM      1  C   UNL     1      22.497  27.345  28.862  1.00  0.00     0.136 C 
ATOM      2  O   UNL     1      23.005  26.265  28.599  1.00  0.00    -0.299 OA
ENDROOT
BRANCH   1   3
ATOM      3  C   UNL     1      23.287  28.607  28.566  1.00  0.00     0.053 C 
ATOM      4  C   UNL     1      24.171  28.425  27.323  1.00  0.00     0.016 C 
BRANCH   3   5
ATOM      5  C   UNL     1      24.131  29.003  29.801  1.00  0.00     0.015 C 
BRANCH   5   6
ATOM      6  C   UNL     1      23.274  29.586  30.946  1.00  0.00     0.028 C 
BRANCH   6   7
ATOM      7  C   UNL     1      22.571  30.859  30.536  1.00  0.00    -0.028 C 
ATOM      8  C   UNL     1      21.233  30.996  30.387  1.00  0.00    -0.070 CG0
ATOM      9  C   UNL     1      20.697  32.352  30.002  1.00  0.00     0.039 C 
ATOM     10  G   UNL     1      20.248  29.859  30.598  1.00  0.00     0.000 G0
ENDBRANCH   6   7
ENDBRANCH   5   6
ENDBRANCH   3   5
ENDBRANCH   1   3
BRANCH   1  11
ATOM     11  C   UNL     1      21.123  27.332  29.514  1.00  0.00     0.087 C 
BRANCH  11  12
ATOM     12  C   UNL     1      19.957  28.009  28.743  1.00  0.00     0.066 C 
BRANCH  12  13
ATOM     13  C   UNL     1      19.615  29.377  29.320  1.00  0.00     0.140 C 
ATOM     14  O   UNL     1      18.859  30.120  28.710  1.00  0.00    -0.299 OA
BRANCH  13  15
ATOM     15  C   UNL     1      20.255  29.853  30.607  1.00  0.00     0.106 CG0
ATOM     16  G   UNL     1      21.245  30.983  30.384  1.00  0.00     0.000 G0
ENDBRANCH  13  15
ENDBRANCH  12  13
BRANCH  12  17
ATOM     17  C   UNL     1      18.708  27.074  28.654  1.00  0.00    -0.006 C 
ATOM     18  C   UNL     1      19.115  25.592  28.614  1.00  0.00     0.008 C 
ATOM     19  C   UNL     1      17.758  27.385  27.484  1.00  0.00     0.008 C 
ENDBRANCH  12  17
ENDBRANCH  11  12
ENDBRANCH   1  11
TORSDOF 1
ENDMDL
