MODEL 1
REMARK VINA RESULT:    -2.889      0.000      0.000
REMARK INTER + INTRA:          -3.357
REMARK INTER:                  -3.143
REMARK INTRA:                  -0.214
REMARK UNBOUND:                -0.214
REMARK SMILES CC(C)(C)[C@H]1C=C[C@@H](O)CC1
REMARK SMILES IDX 5 1 11 2 10 3 8 4 7 5 6 6 2 7 1 8 3 9 4 10 9 11
REMARK H PARENT 9 12
REMARK Flexibility Score: inf
ROOT
ATOM      1  C   UNL     1     -38.727  24.536   5.718  1.00  0.00     0.017 C 
ATOM      2  C   UNL     1     -37.334  23.874   5.893  1.00  0.00     0.011 C 
ATOM      3  C   UNL     1     -36.953  23.770   7.371  1.00  0.00     0.037 C 
ATOM      4  C   UNL     1     -37.960  22.897   8.125  1.00  0.00     0.137 C 
ATOM      5  C   UNL     1     -39.379  23.319   7.836  1.00  0.00     0.000 C 
ATOM      6  C   UNL     1     -39.735  23.984   6.724  1.00  0.00    -0.025 C 
ENDROOT
BRANCH   1   7
ATOM      7  C   UNL     1     -39.265  24.488   4.235  1.00  0.00    -0.032 C 
ATOM      8  C   UNL     1     -40.124  23.220   4.006  1.00  0.00     0.011 C 
ATOM      9  C   UNL     1     -40.123  25.730   3.895  1.00  0.00     0.011 C 
ATOM     10  C   UNL     1     -38.080  24.422   3.240  1.00  0.00     0.011 C 
ENDBRANCH   1   7
BRANCH   4  11
ATOM     11  O   UNL     1     -37.784  21.553   7.759  1.00  0.00    -0.389 OA
ATOM     12  H   UNL     1     -36.807  21.412   7.645  1.00  0.00     0.211 HD
ENDBRANCH   4  11
TORSDOF 2
ENDMDL
MODEL 2
REMARK VINA RESULT:    -1.592      2.268      4.243
REMARK INTER + INTRA:          -1.945
REMARK INTER:                  -1.729
REMARK INTRA:                  -0.217
REMARK UNBOUND:                -0.214
REMARK SMILES CC(C)(C)[C@H]1C=C[C@@H](O)CC1
REMARK SMILES IDX 5 1 11 2 10 3 8 4 7 5 6 6 2 7 1 8 3 9 4 10 9 11
REMARK H PARENT 9 12
REMARK Flexibility Score: inf
ROOT
ATOM      1  C   UNL     1     -38.752  24.131   6.131  1.00  0.00     0.017 C 
ATOM      2  C   UNL     1     -38.639  23.446   4.744  1.00  0.00     0.011 C 
ATOM      3  C   UNL     1     -39.906  23.667   3.914  1.00  0.00     0.037 C 
ATOM      4  C   UNL     1     -40.125  25.161   3.657  1.00  0.00     0.137 C 
ATOM      5  C   UNL     1     -40.023  25.959   4.933  1.00  0.00     0.000 C 
ATOM      6  C   UNL     1     -39.345  25.533   6.012  1.00  0.00    -0.025 C 
ENDROOT
BRANCH   1   7
ATOM      7  C   UNL     1     -37.405  24.112   6.954  1.00  0.00    -0.032 C 
ATOM      8  C   UNL     1     -37.098  25.516   7.533  1.00  0.00     0.011 C 
ATOM      9  C   UNL     1     -37.460  23.101   8.124  1.00  0.00     0.011 C 
ATOM     10  C   UNL     1     -36.222  23.732   6.030  1.00  0.00     0.011 C 
ENDBRANCH   1   7
BRANCH   4  11
ATOM     11  O   UNL     1     -39.174  25.624   2.734  1.00  0.00    -0.389 OA
ATOM     12  H   UNL     1     -39.664  26.184   2.075  1.00  0.00     0.211 HD
ENDBRANCH   4  11
TORSDOF 2
ENDMDL
