MODEL 1
REMARK VINA RESULT:    -6.802      0.000      0.000
REMARK INTER + INTRA:          -6.802
REMARK INTER:                  -6.802
REMARK INTRA:                   0.000
REMARK UNBOUND:                 0.000
REMARK SMILES O=c1ccc2ccccc2o1
REMARK SMILES IDX 7 1 8 2 9 3 10 4 5 5 6 6 4 7 3 8 2 9 1 10 11 11
REMARK H PARENT
REMARK Flexibility Score: inf
ROOT
ATOM      1  C   UNL     1       2.007  -5.753   4.315  1.00  0.00     0.001 A 
ATOM      2  C   UNL     1       2.168  -5.236   3.025  1.00  0.00     0.004 A 
ATOM      3  C   UNL     1       1.444  -4.108   2.624  1.00  0.00     0.048 A 
ATOM      4  C   UNL     1       0.555  -3.493   3.513  1.00  0.00     0.138 A 
ATOM      5  C   UNL     1       0.393  -4.016   4.817  1.00  0.00     0.018 A 
ATOM      6  C   UNL     1       1.121  -5.147   5.212  1.00  0.00     0.012 A 
ATOM      7  C   UNL     1      -0.502  -3.379   5.682  1.00  0.00     0.019 A 
ATOM      8  C   UNL     1      -1.202  -2.258   5.239  1.00  0.00     0.094 A 
ATOM      9  C   UNL     1      -0.990  -1.797   3.936  1.00  0.00     0.336 A 
ATOM     10  O   UNL     1      -1.613  -0.786   3.519  1.00  0.00    -0.246 OA
ATOM     11  O   UNL     1      -0.132  -2.420   3.131  1.00  0.00    -0.423 OA
ENDROOT
TORSDOF 0
ENDMDL
MODEL 2
REMARK VINA RESULT:    -6.207      1.414      2.228
REMARK INTER + INTRA:          -6.207
REMARK INTER:                  -6.207
REMARK INTRA:                   0.000
REMARK UNBOUND:                 0.000
REMARK SMILES O=c1ccc2ccccc2o1
REMARK SMILES IDX 7 1 8 2 9 3 10 4 5 5 6 6 4 7 3 8 2 9 1 10 11 11
REMARK H PARENT
REMARK Flexibility Score: inf
ROOT
ATOM      1  C   UNL     1       1.977  -5.016   2.538  1.00  0.00     0.001 A 
ATOM      2  C   UNL     1       2.124  -5.581   3.810  1.00  0.00     0.004 A 
ATOM      3  C   UNL     1       1.403  -5.070   4.895  1.00  0.00     0.048 A 
ATOM      4  C   UNL     1       0.532  -3.990   4.711  1.00  0.00     0.138 A 
ATOM      5  C   UNL     1       0.384  -3.419   3.426  1.00  0.00     0.018 A 
ATOM      6  C   UNL     1       1.110  -3.936   2.344  1.00  0.00     0.012 A 
ATOM      7  C   UNL     1      -0.494  -2.342   3.274  1.00  0.00     0.019 A 
ATOM      8  C   UNL     1      -1.192  -1.865   4.384  1.00  0.00     0.094 A 
ATOM      9  C   UNL     1      -0.995  -2.480   5.624  1.00  0.00     0.336 A 
ATOM     10  O   UNL     1      -1.616  -2.064   6.637  1.00  0.00    -0.246 OA
ATOM     11  O   UNL     1      -0.154  -3.505   5.743  1.00  0.00    -0.423 OA
ENDROOT
TORSDOF 0
ENDMDL
MODEL 3
REMARK VINA RESULT:    -6.075      1.380      3.657
REMARK INTER + INTRA:          -6.075
REMARK INTER:                  -6.075
REMARK INTRA:                   0.000
REMARK UNBOUND:                 0.000
REMARK SMILES O=c1ccc2ccccc2o1
REMARK SMILES IDX 7 1 8 2 9 3 10 4 5 5 6 6 4 7 3 8 2 9 1 10 11 11
REMARK H PARENT
REMARK Flexibility Score: inf
ROOT
ATOM      1  C   UNL     1      -0.835  -2.798   5.996  1.00  0.00     0.001 A 
ATOM      2  C   UNL     1      -1.314  -2.061   4.907  1.00  0.00     0.004 A 
ATOM      3  C   UNL     1      -0.835  -2.319   3.618  1.00  0.00     0.048 A 
ATOM      4  C   UNL     1       0.124  -3.316   3.414  1.00  0.00     0.138 A 
ATOM      5  C   UNL     1       0.607  -4.061   4.514  1.00  0.00     0.018 A 
ATOM      6  C   UNL     1       0.124  -3.797   5.803  1.00  0.00     0.012 A 
ATOM      7  C   UNL     1       1.566  -5.052   4.278  1.00  0.00     0.019 A 
ATOM      8  C   UNL     1       2.014  -5.274   2.976  1.00  0.00     0.094 A 
ATOM      9  C   UNL     1       1.490  -4.498   1.937  1.00  0.00     0.336 A 
ATOM     10  O   UNL     1       1.883  -4.685   0.755  1.00  0.00    -0.246 OA
ATOM     11  O   UNL     1       0.578  -3.562   2.187  1.00  0.00    -0.423 OA
ENDROOT
TORSDOF 0
ENDMDL
MODEL 4
REMARK VINA RESULT:    -5.615      1.938      4.350
REMARK INTER + INTRA:          -5.615
REMARK INTER:                  -5.615
REMARK INTRA:                   0.000
REMARK UNBOUND:                 0.000
REMARK SMILES O=c1ccc2ccccc2o1
REMARK SMILES IDX 7 1 8 2 9 3 10 4 5 5 6 6 4 7 3 8 2 9 1 10 11 11
REMARK H PARENT
REMARK Flexibility Score: inf
ROOT
ATOM      1  C   UNL     1      -1.298  -1.655   4.251  1.00  0.00     0.001 A 
ATOM      2  C   UNL     1      -1.265  -2.277   5.504  1.00  0.00     0.004 A 
ATOM      3  C   UNL     1      -0.433  -3.382   5.719  1.00  0.00     0.048 A 
ATOM      4  C   UNL     1       0.368  -3.869   4.679  1.00  0.00     0.138 A 
ATOM      5  C   UNL     1       0.334  -3.240   3.414  1.00  0.00     0.018 A 
ATOM      6  C   UNL     1      -0.502  -2.133   3.206  1.00  0.00     0.012 A 
ATOM      7  C   UNL     1       1.146  -3.748   2.396  1.00  0.00     0.019 A 
ATOM      8  C   UNL     1       1.959  -4.851   2.655  1.00  0.00     0.094 A 
ATOM      9  C   UNL     1       1.940  -5.422   3.932  1.00  0.00     0.336 A 
ATOM     10  O   UNL     1       2.667  -6.418   4.185  1.00  0.00    -0.246 OA
ATOM     11  O   UNL     1       1.159  -4.919   4.884  1.00  0.00    -0.423 OA
ENDROOT
TORSDOF 0
ENDMDL
MODEL 5
REMARK VINA RESULT:    -4.944     12.437     13.328
REMARK INTER + INTRA:          -4.944
REMARK INTER:                  -4.944
REMARK INTRA:                   0.000
REMARK UNBOUND:                 0.000
REMARK SMILES O=c1ccc2ccccc2o1
REMARK SMILES IDX 7 1 8 2 9 3 10 4 5 5 6 6 4 7 3 8 2 9 1 10 11 11
REMARK H PARENT
REMARK Flexibility Score: inf
ROOT
ATOM      1  C   UNL     1      -2.459  10.089   4.769  1.00  0.00     0.001 A 
ATOM      2  C   UNL     1      -3.136  10.054   3.545  1.00  0.00     0.004 A 
ATOM      3  C   UNL     1      -2.465   9.661   2.381  1.00  0.00     0.048 A 
ATOM      4  C   UNL     1      -1.114   9.301   2.438  1.00  0.00     0.138 A 
ATOM      5  C   UNL     1      -0.431   9.336   3.675  1.00  0.00     0.018 A 
ATOM      6  C   UNL     1      -1.109   9.731   4.838  1.00  0.00     0.012 A 
ATOM      7  C   UNL     1       0.918   8.970   3.701  1.00  0.00     0.019 A 
ATOM      8  C   UNL     1       1.545   8.585   2.516  1.00  0.00     0.094 A 
ATOM      9  C   UNL     1       0.806   8.574   1.329  1.00  0.00     0.336 A 
ATOM     10  O   UNL     1       1.355   8.229   0.250  1.00  0.00    -0.246 OA
ATOM     11  O   UNL     1      -0.478   8.926   1.332  1.00  0.00    -0.423 OA
ENDROOT
TORSDOF 0
ENDMDL
MODEL 6
REMARK VINA RESULT:    -4.792      6.634      7.449
REMARK INTER + INTRA:          -4.792
REMARK INTER:                  -4.792
REMARK INTRA:                   0.000
REMARK UNBOUND:                 0.000
REMARK SMILES O=c1ccc2ccccc2o1
REMARK SMILES IDX 7 1 8 2 9 3 10 4 5 5 6 6 4 7 3 8 2 9 1 10 11 11
REMARK H PARENT
REMARK Flexibility Score: inf
ROOT
ATOM      1  C   UNL     1      -6.763  -6.143   4.120  1.00  0.00     0.001 A 
ATOM      2  C   UNL     1      -6.358  -7.482   4.114  1.00  0.00     0.004 A 
ATOM      3  C   UNL     1      -5.497  -7.952   3.116  1.00  0.00     0.048 A 
ATOM      4  C   UNL     1      -5.039  -7.083   2.119  1.00  0.00     0.138 A 
ATOM      5  C   UNL     1      -5.449  -5.730   2.126  1.00  0.00     0.018 A 
ATOM      6  C   UNL     1      -6.312  -5.266   3.129  1.00  0.00     0.012 A 
ATOM      7  C   UNL     1      -4.974  -4.886   1.117  1.00  0.00     0.019 A 
ATOM      8  C   UNL     1      -4.118  -5.398   0.143  1.00  0.00     0.094 A 
ATOM      9  C   UNL     1      -3.755  -6.747   0.200  1.00  0.00     0.336 A 
ATOM     10  O   UNL     1      -2.983  -7.227  -0.671  1.00  0.00    -0.246 OA
ATOM     11  O   UNL     1      -4.220  -7.530   1.171  1.00  0.00    -0.423 OA
ENDROOT
TORSDOF 0
ENDMDL
MODEL 7
REMARK VINA RESULT:    -4.745     11.352     12.528
REMARK INTER + INTRA:          -4.745
REMARK INTER:                  -4.745
REMARK INTRA:                   0.000
REMARK UNBOUND:                 0.000
REMARK SMILES O=c1ccc2ccccc2o1
REMARK SMILES IDX 7 1 8 2 9 3 10 4 5 5 6 6 4 7 3 8 2 9 1 10 11 11
REMARK H PARENT
REMARK Flexibility Score: inf
ROOT
ATOM      1  C   UNL     1       1.506   7.516   1.283  1.00  0.00     0.001 A 
ATOM      2  C   UNL     1       1.863   7.213   2.602  1.00  0.00     0.004 A 
ATOM      3  C   UNL     1       1.098   7.700   3.668  1.00  0.00     0.048 A 
ATOM      4  C   UNL     1      -0.027   8.494   3.418  1.00  0.00     0.138 A 
ATOM      5  C   UNL     1      -0.387   8.800   2.085  1.00  0.00     0.018 A 
ATOM      6  C   UNL     1       0.384   8.309   1.022  1.00  0.00     0.012 A 
ATOM      7  C   UNL     1      -1.517   9.595   1.867  1.00  0.00     0.019 A 
ATOM      8  C   UNL     1      -2.248  10.059   2.959  1.00  0.00     0.094 A 
ATOM      9  C   UNL     1      -1.832   9.715   4.250  1.00  0.00     0.336 A 
ATOM     10  O   UNL     1      -2.481  10.125   5.248  1.00  0.00    -0.246 OA
ATOM     11  O   UNL     1      -0.754   8.957   4.431  1.00  0.00    -0.423 OA
ENDROOT
TORSDOF 0
ENDMDL
MODEL 8
REMARK VINA RESULT:    -4.684     15.178     16.407
REMARK INTER + INTRA:          -4.684
REMARK INTER:                  -4.684
REMARK INTRA:                   0.000
REMARK UNBOUND:                 0.000
REMARK SMILES O=c1ccc2ccccc2o1
REMARK SMILES IDX 7 1 8 2 9 3 10 4 5 5 6 6 4 7 3 8 2 9 1 10 11 11
REMARK H PARENT
REMARK Flexibility Score: inf
ROOT
ATOM      1  C   UNL     1      -5.660   3.010 -10.093  1.00  0.00     0.001 A 
ATOM      2  C   UNL     1      -4.637   2.279  -9.477  1.00  0.00     0.004 A 
ATOM      3  C   UNL     1      -3.555   2.943  -8.888  1.00  0.00     0.048 A 
ATOM      4  C   UNL     1      -3.492   4.341  -8.915  1.00  0.00     0.138 A 
ATOM      5  C   UNL     1      -4.525   5.078  -9.537  1.00  0.00     0.018 A 
ATOM      6  C   UNL     1      -5.607   4.406 -10.125  1.00  0.00     0.012 A 
ATOM      7  C   UNL     1      -4.435   6.473  -9.547  1.00  0.00     0.019 A 
ATOM      8  C   UNL     1      -3.338   7.092  -8.948  1.00  0.00     0.094 A 
ATOM      9  C   UNL     1      -2.353   6.298  -8.351  1.00  0.00     0.336 A 
ATOM     10  O   UNL     1      -1.356   6.839  -7.806  1.00  0.00    -0.246 OA
ATOM     11  O   UNL     1      -2.463   4.972  -8.355  1.00  0.00    -0.423 OA
ENDROOT
TORSDOF 0
ENDMDL
MODEL 9
REMARK VINA RESULT:    -4.640     15.673     15.807
REMARK INTER + INTRA:          -4.640
REMARK INTER:                  -4.640
REMARK INTRA:                   0.000
REMARK UNBOUND:                 0.000
REMARK SMILES O=c1ccc2ccccc2o1
REMARK SMILES IDX 7 1 8 2 9 3 10 4 5 5 6 6 4 7 3 8 2 9 1 10 11 11
REMARK H PARENT
REMARK Flexibility Score: inf
ROOT
ATOM      1  C   UNL     1      -1.524   5.841  -8.256  1.00  0.00     0.001 A 
ATOM      2  C   UNL     1      -0.914   4.937  -9.134  1.00  0.00     0.004 A 
ATOM      3  C   UNL     1      -1.652   3.883  -9.683  1.00  0.00     0.048 A 
ATOM      4  C   UNL     1      -3.004   3.728  -9.355  1.00  0.00     0.138 A 
ATOM      5  C   UNL     1      -3.619   4.641  -8.468  1.00  0.00     0.018 A 
ATOM      6  C   UNL     1      -2.874   5.695  -7.921  1.00  0.00     0.012 A 
ATOM      7  C   UNL     1      -4.971   4.460  -8.160  1.00  0.00     0.019 A 
ATOM      8  C   UNL     1      -5.667   3.395  -8.730  1.00  0.00     0.094 A 
ATOM      9  C   UNL     1      -4.992   2.532  -9.600  1.00  0.00     0.336 A 
ATOM     10  O   UNL     1      -5.604   1.565 -10.124  1.00  0.00    -0.246 OA
ATOM     11  O   UNL     1      -3.705   2.726  -9.878  1.00  0.00    -0.423 OA
ENDROOT
TORSDOF 0
ENDMDL
