MODEL 1
REMARK VINA RESULT:    -2.465      0.000      0.000
REMARK INTER + INTRA:          -8.459
REMARK INTER:                  -5.348
REMARK INTRA:                  -3.111
REMARK UNBOUND:                -3.111
REMARK SMILES CCCCCCCCCCCCCCCCCCCCCC(=O)[O-]
REMARK SMILES IDX 12 1 11 2 10 3 9 4 8 5 7 6 6 7 5 8 4 9 3 10 2 11 1 12 13 13
REMARK SMILES IDX 14 14 15 15 16 16 17 17 18 18 19 19 20 20 21 21 22 22 23 23
REMARK SMILES IDX 24 24
REMARK H PARENT
REMARK Flexibility Score: inf
ROOT
ATOM      1  C   UNL     1      77.289  78.198  76.189  1.00  0.00     0.000 C 
ENDROOT
BRANCH   1   2
ATOM      2  C   UNL     1      77.605  76.724  75.848  1.00  0.00     0.000 C 
BRANCH   2   3
ATOM      3  C   UNL     1      78.459  76.544  74.574  1.00  0.00     0.000 C 
BRANCH   3   4
ATOM      4  C   UNL     1      77.742  75.778  73.449  1.00  0.00    -0.000 C 
BRANCH   4   5
ATOM      5  C   UNL     1      76.797  74.687  73.977  1.00  0.00    -0.000 C 
BRANCH   5   6
ATOM      6  C   UNL     1      76.615  73.531  72.981  1.00  0.00    -0.000 C 
BRANCH   6   7
ATOM      7  C   UNL     1      76.788  72.151  73.638  1.00  0.00    -0.000 C 
BRANCH   7   8
ATOM      8  C   UNL     1      78.242  71.875  74.054  1.00  0.00    -0.000 C 
BRANCH   8   9
ATOM      9  C   UNL     1      79.233  72.075  72.896  1.00  0.00    -0.000 C 
BRANCH   9  10
ATOM     10  C   UNL     1      80.372  73.047  73.249  1.00  0.00    -0.000 C 
BRANCH  10  11
ATOM     11  C   UNL     1      80.439  73.396  74.752  1.00  0.00    -0.003 C 
ATOM     12  C   UNL     1      81.873  73.401  75.287  1.00  0.00     0.004 C 
ENDBRANCH  10  11
ENDBRANCH   9  10
ENDBRANCH   8   9
ENDBRANCH   7   8
ENDBRANCH   6   7
ENDBRANCH   5   6
ENDBRANCH   4   5
ENDBRANCH   3   4
ENDBRANCH   2   3
ENDBRANCH   1   2
BRANCH   1  13
ATOM     13  C   UNL     1      75.906  78.668  75.693  1.00  0.00     0.000 C 
BRANCH  13  14
ATOM     14  C   UNL     1      75.926  79.437  74.359  1.00  0.00     0.000 C 
BRANCH  14  15
ATOM     15  C   UNL     1      75.378  78.658  73.144  1.00  0.00     0.000 C 
BRANCH  15  16
ATOM     16  C   UNL     1      74.417  77.505  73.486  1.00  0.00     0.000 C 
BRANCH  16  17
ATOM     17  C   UNL     1      72.940  77.888  73.310  1.00  0.00     0.000 C 
BRANCH  17  18
ATOM     18  C   UNL     1      72.209  77.896  74.658  1.00  0.00     0.000 C 
BRANCH  18  19
ATOM     19  C   UNL     1      72.163  79.315  75.246  1.00  0.00     0.000 C 
BRANCH  19  20
ATOM     20  C   UNL     1      72.322  79.323  76.775  1.00  0.00     0.006 C 
BRANCH  20  21
ATOM     21  C   UNL     1      73.050  80.576  77.279  1.00  0.00     0.053 C 
BRANCH  21  22
ATOM     22  C   UNL     1      72.446  81.058  78.561  1.00  0.00     0.041 C 
ATOM     23  O   UNL     1      72.138  80.237  79.464  1.00  0.00    -0.550 OA
ATOM     24  O   UNL     1      72.228  82.416  78.762  1.00  0.00    -0.550 OA
ENDBRANCH  21  22
ENDBRANCH  20  21
ENDBRANCH  19  20
ENDBRANCH  18  19
ENDBRANCH  17  18
ENDBRANCH  16  17
ENDBRANCH  15  16
ENDBRANCH  14  15
ENDBRANCH  13  14
ENDBRANCH   1  13
TORSDOF 20
ENDMDL
MODEL 2
REMARK VINA RESULT:    -2.365     10.528     13.196
REMARK INTER + INTRA:          -8.241
REMARK INTER:                  -5.600
REMARK INTRA:                  -2.641
REMARK UNBOUND:                -3.111
REMARK SMILES CCCCCCCCCCCCCCCCCCCCCC(=O)[O-]
REMARK SMILES IDX 12 1 11 2 10 3 9 4 8 5 7 6 6 7 5 8 4 9 3 10 2 11 1 12 13 13
REMARK SMILES IDX 14 14 15 15 16 16 17 17 18 18 19 19 20 20 21 21 22 22 23 23
REMARK SMILES IDX 24 24
REMARK H PARENT
REMARK Flexibility Score: inf
ROOT
ATOM      1  C   UNL     1      79.057  88.968  75.318  1.00  0.00     0.000 C 
ENDROOT
BRANCH   1   2
ATOM      2  C   UNL     1      80.591  88.819  75.199  1.00  0.00     0.000 C 
BRANCH   2   3
ATOM      3  C   UNL     1      81.146  89.144  73.795  1.00  0.00     0.000 C 
BRANCH   3   4
ATOM      4  C   UNL     1      82.424  88.367  73.438  1.00  0.00    -0.000 C 
BRANCH   4   5
ATOM      5  C   UNL     1      83.574  89.283  72.987  1.00  0.00    -0.000 C 
BRANCH   5   6
ATOM      6  C   UNL     1      83.274  90.770  73.231  1.00  0.00    -0.000 C 
BRANCH   6   7
ATOM      7  C   UNL     1      84.159  91.378  74.334  1.00  0.00    -0.000 C 
BRANCH   7   8
ATOM      8  C   UNL     1      83.590  91.142  75.742  1.00  0.00    -0.000 C 
BRANCH   8   9
ATOM      9  C   UNL     1      84.590  90.434  76.669  1.00  0.00    -0.000 C 
BRANCH   9  10
ATOM     10  C   UNL     1      83.976  89.224  77.394  1.00  0.00    -0.000 C 
BRANCH  10  11
ATOM     11  C   UNL     1      84.088  87.907  76.596  1.00  0.00    -0.003 C 
ATOM     12  C   UNL     1      85.465  87.731  75.952  1.00  0.00     0.004 C 
ENDBRANCH  10  11
ENDBRANCH   9  10
ENDBRANCH   8   9
ENDBRANCH   7   8
ENDBRANCH   6   7
ENDBRANCH   5   6
ENDBRANCH   4   5
ENDBRANCH   3   4
ENDBRANCH   2   3
ENDBRANCH   1   2
BRANCH   1  13
ATOM     13  C   UNL     1      78.295  88.600  74.029  1.00  0.00     0.000 C 
BRANCH  13  14
ATOM     14  C   UNL     1      77.670  89.795  73.285  1.00  0.00     0.000 C 
BRANCH  14  15
ATOM     15  C   UNL     1      76.601  90.577  74.080  1.00  0.00     0.000 C 
BRANCH  15  16
ATOM     16  C   UNL     1      75.321  89.787  74.406  1.00  0.00     0.000 C 
BRANCH  16  17
ATOM     17  C   UNL     1      74.434  89.554  73.173  1.00  0.00     0.000 C 
BRANCH  17  18
ATOM     18  C   UNL     1      74.273  88.056  72.887  1.00  0.00     0.000 C 
BRANCH  18  19
ATOM     19  C   UNL     1      74.820  87.215  74.051  1.00  0.00     0.000 C 
BRANCH  19  20
ATOM     20  C   UNL     1      75.399  85.870  73.582  1.00  0.00     0.006 C 
BRANCH  20  21
ATOM     21  C   UNL     1      74.577  84.675  74.085  1.00  0.00     0.053 C 
BRANCH  21  22
ATOM     22  C   UNL     1      74.939  84.343  75.499  1.00  0.00     0.041 C 
ATOM     23  O   UNL     1      76.147  84.286  75.847  1.00  0.00    -0.550 OA
ATOM     24  O   UNL     1      73.940  84.102  76.435  1.00  0.00    -0.550 OA
ENDBRANCH  21  22
ENDBRANCH  20  21
ENDBRANCH  19  20
ENDBRANCH  18  19
ENDBRANCH  17  18
ENDBRANCH  16  17
ENDBRANCH  15  16
ENDBRANCH  14  15
ENDBRANCH  13  14
ENDBRANCH   1  13
TORSDOF 20
ENDMDL
MODEL 3
REMARK VINA RESULT:    -2.354      5.717      7.187
REMARK INTER + INTRA:          -8.217
REMARK INTER:                  -4.470
REMARK INTRA:                  -3.747
REMARK UNBOUND:                -3.111
REMARK SMILES CCCCCCCCCCCCCCCCCCCCCC(=O)[O-]
REMARK SMILES IDX 12 1 11 2 10 3 9 4 8 5 7 6 6 7 5 8 4 9 3 10 2 11 1 12 13 13
REMARK SMILES IDX 14 14 15 15 16 16 17 17 18 18 19 19 20 20 21 21 22 22 23 23
REMARK SMILES IDX 24 24
REMARK H PARENT
REMARK Flexibility Score: inf
ROOT
ATOM      1  C   UNL     1      76.416  75.352  82.399  1.00  0.00     0.000 C 
ENDROOT
BRANCH   1   2
ATOM      2  C   UNL     1      75.545  74.230  83.010  1.00  0.00     0.000 C 
BRANCH   2   3
ATOM      3  C   UNL     1      74.564  74.720  84.097  1.00  0.00     0.000 C 
BRANCH   3   4
ATOM      4  C   UNL     1      73.098  74.340  83.827  1.00  0.00    -0.000 C 
BRANCH   4   5
ATOM      5  C   UNL     1      72.955  73.207  82.797  1.00  0.00    -0.000 C 
BRANCH   5   6
ATOM      6  C   UNL     1      72.272  73.671  81.500  1.00  0.00    -0.000 C 
BRANCH   6   7
ATOM      7  C   UNL     1      73.080  73.305  80.243  1.00  0.00    -0.000 C 
BRANCH   7   8
ATOM      8  C   UNL     1      74.111  72.196  80.508  1.00  0.00    -0.000 C 
BRANCH   8   9
ATOM      9  C   UNL     1      75.459  72.471  79.822  1.00  0.00    -0.000 C 
BRANCH   9  10
ATOM     10  C   UNL     1      75.370  73.579  78.758  1.00  0.00    -0.000 C 
BRANCH  10  11
ATOM     11  C   UNL     1      76.655  74.428  78.646  1.00  0.00    -0.003 C 
ATOM     12  C   UNL     1      76.424  75.739  77.892  1.00  0.00     0.004 C 
ENDBRANCH  10  11
ENDBRANCH   9  10
ENDBRANCH   8   9
ENDBRANCH   7   8
ENDBRANCH   6   7
ENDBRANCH   5   6
ENDBRANCH   4   5
ENDBRANCH   3   4
ENDBRANCH   2   3
ENDBRANCH   1   2
BRANCH   1  13
ATOM     13  C   UNL     1      75.628  76.630  82.050  1.00  0.00     0.000 C 
BRANCH  13  14
ATOM     14  C   UNL     1      74.599  76.465  80.915  1.00  0.00     0.000 C 
BRANCH  14  15
ATOM     15  C   UNL     1      73.299  77.280  81.084  1.00  0.00     0.000 C 
BRANCH  15  16
ATOM     16  C   UNL     1      72.567  77.624  79.774  1.00  0.00     0.000 C 
BRANCH  16  17
ATOM     17  C   UNL     1      72.435  76.418  78.831  1.00  0.00     0.000 C 
BRANCH  17  18
ATOM     18  C   UNL     1      72.788  76.806  77.389  1.00  0.00     0.000 C 
BRANCH  18  19
ATOM     19  C   UNL     1      73.365  78.229  77.332  1.00  0.00     0.000 C 
BRANCH  19  20
ATOM     20  C   UNL     1      72.697  79.090  76.247  1.00  0.00     0.006 C 
BRANCH  20  21
ATOM     21  C   UNL     1      72.214  78.254  75.054  1.00  0.00     0.053 C 
BRANCH  21  22
ATOM     22  C   UNL     1      73.155  78.391  73.898  1.00  0.00     0.041 C 
ATOM     23  O   UNL     1      72.967  79.285  73.032  1.00  0.00    -0.550 OA
ATOM     24  O   UNL     1      74.243  77.534  73.779  1.00  0.00    -0.550 OA
ENDBRANCH  21  22
ENDBRANCH  20  21
ENDBRANCH  19  20
ENDBRANCH  18  19
ENDBRANCH  17  18
ENDBRANCH  16  17
ENDBRANCH  15  16
ENDBRANCH  14  15
ENDBRANCH  13  14
ENDBRANCH   1  13
TORSDOF 20
ENDMDL
MODEL 4
REMARK VINA RESULT:    -2.335     16.576     18.898
REMARK INTER + INTRA:          -8.176
REMARK INTER:                  -3.889
REMARK INTRA:                  -4.287
REMARK UNBOUND:                -3.111
REMARK SMILES CCCCCCCCCCCCCCCCCCCCCC(=O)[O-]
REMARK SMILES IDX 12 1 11 2 10 3 9 4 8 5 7 6 6 7 5 8 4 9 3 10 2 11 1 12 13 13
REMARK SMILES IDX 14 14 15 15 16 16 17 17 18 18 19 19 20 20 21 21 22 22 23 23
REMARK SMILES IDX 24 24
REMARK H PARENT
REMARK Flexibility Score: inf
ROOT
ATOM      1  C   UNL     1      75.958  86.946  88.616  1.00  0.00     0.000 C 
ENDROOT
BRANCH   1   2
ATOM      2  C   UNL     1      75.906  85.475  88.143  1.00  0.00     0.000 C 
BRANCH   2   3
ATOM      3  C   UNL     1      75.790  84.451  89.292  1.00  0.00     0.000 C 
BRANCH   3   4
ATOM      4  C   UNL     1      76.217  85.003  90.663  1.00  0.00    -0.000 C 
BRANCH   4   5
ATOM      5  C   UNL     1      76.045  83.982  91.799  1.00  0.00    -0.000 C 
BRANCH   5   6
ATOM      6  C   UNL     1      76.699  84.443  93.111  1.00  0.00    -0.000 C 
BRANCH   6   7
ATOM      7  C   UNL     1      78.221  84.216  93.125  1.00  0.00    -0.000 C 
BRANCH   7   8
ATOM      8  C   UNL     1      79.011  85.515  92.899  1.00  0.00    -0.000 C 
BRANCH   8   9
ATOM      9  C   UNL     1      80.011  85.401  91.737  1.00  0.00    -0.000 C 
BRANCH   9  10
ATOM     10  C   UNL     1      79.800  84.130  90.894  1.00  0.00    -0.000 C 
BRANCH  10  11
ATOM     11  C   UNL     1      79.699  84.408  89.379  1.00  0.00    -0.003 C 
ATOM     12  C   UNL     1      79.591  85.901  89.065  1.00  0.00     0.004 C 
ENDBRANCH  10  11
ENDBRANCH   9  10
ENDBRANCH   8   9
ENDBRANCH   7   8
ENDBRANCH   6   7
ENDBRANCH   5   6
ENDBRANCH   4   5
ENDBRANCH   3   4
ENDBRANCH   2   3
ENDBRANCH   1   2
BRANCH   1  13
ATOM     13  C   UNL     1      74.592  87.660  88.580  1.00  0.00     0.000 C 
BRANCH  13  14
ATOM     14  C   UNL     1      73.450  86.837  87.956  1.00  0.00     0.000 C 
BRANCH  14  15
ATOM     15  C   UNL     1      72.379  86.339  88.951  1.00  0.00     0.000 C 
BRANCH  15  16
ATOM     16  C   UNL     1      72.354  87.071  90.304  1.00  0.00     0.000 C 
BRANCH  16  17
ATOM     17  C   UNL     1      72.834  86.191  91.468  1.00  0.00     0.000 C 
BRANCH  17  18
ATOM     18  C   UNL     1      73.652  87.009  92.475  1.00  0.00     0.000 C 
BRANCH  18  19
ATOM     19  C   UNL     1      73.583  88.508  92.146  1.00  0.00     0.000 C 
BRANCH  19  20
ATOM     20  C   UNL     1      74.967  89.178  92.166  1.00  0.00     0.006 C 
BRANCH  20  21
ATOM     21  C   UNL     1      76.099  88.170  92.408  1.00  0.00     0.053 C 
BRANCH  21  22
ATOM     22  C   UNL     1      77.425  88.773  92.063  1.00  0.00     0.041 C 
ATOM     23  O   UNL     1      77.946  89.631  92.822  1.00  0.00    -0.550 OA
ATOM     24  O   UNL     1      78.088  88.382  90.905  1.00  0.00    -0.550 OA
ENDBRANCH  21  22
ENDBRANCH  20  21
ENDBRANCH  19  20
ENDBRANCH  18  19
ENDBRANCH  17  18
ENDBRANCH  16  17
ENDBRANCH  15  16
ENDBRANCH  14  15
ENDBRANCH  13  14
ENDBRANCH   1  13
TORSDOF 20
ENDMDL
MODEL 5
REMARK VINA RESULT:    -2.321      5.912      8.498
REMARK INTER + INTRA:          -8.146
REMARK INTER:                  -4.794
REMARK INTRA:                  -3.352
REMARK UNBOUND:                -3.111
REMARK SMILES CCCCCCCCCCCCCCCCCCCCCC(=O)[O-]
REMARK SMILES IDX 12 1 11 2 10 3 9 4 8 5 7 6 6 7 5 8 4 9 3 10 2 11 1 12 13 13
REMARK SMILES IDX 14 14 15 15 16 16 17 17 18 18 19 19 20 20 21 21 22 22 23 23
REMARK SMILES IDX 24 24
REMARK H PARENT
REMARK Flexibility Score: inf
ROOT
ATOM      1  C   UNL     1      76.300  76.600  82.379  1.00  0.00     0.000 C 
ENDROOT
BRANCH   1   2
ATOM      2  C   UNL     1      75.560  77.601  81.463  1.00  0.00     0.000 C 
BRANCH   2   3
ATOM      3  C   UNL     1      74.022  77.547  81.587  1.00  0.00     0.000 C 
BRANCH   3   4
ATOM      4  C   UNL     1      73.290  77.545  80.234  1.00  0.00    -0.000 C 
BRANCH   4   5
ATOM      5  C   UNL     1      72.032  76.661  80.236  1.00  0.00    -0.000 C 
BRANCH   5   6
ATOM      6  C   UNL     1      71.905  75.812  78.962  1.00  0.00    -0.000 C 
BRANCH   6   7
ATOM      7  C   UNL     1      72.785  76.333  77.813  1.00  0.00    -0.000 C 
BRANCH   7   8
ATOM      8  C   UNL     1      71.974  77.087  76.746  1.00  0.00    -0.000 C 
BRANCH   8   9
ATOM      9  C   UNL     1      72.430  78.546  76.584  1.00  0.00    -0.000 C 
BRANCH   9  10
ATOM     10  C   UNL     1      72.168  79.097  75.170  1.00  0.00    -0.000 C 
BRANCH  10  11
ATOM     11  C   UNL     1      72.429  78.067  74.051  1.00  0.00    -0.003 C 
ATOM     12  C   UNL     1      73.910  77.967  73.683  1.00  0.00     0.004 C 
ENDBRANCH  10  11
ENDBRANCH   9  10
ENDBRANCH   8   9
ENDBRANCH   7   8
ENDBRANCH   6   7
ENDBRANCH   5   6
ENDBRANCH   4   5
ENDBRANCH   3   4
ENDBRANCH   2   3
ENDBRANCH   1   2
BRANCH   1  13
ATOM     13  C   UNL     1      76.664  75.272  81.684  1.00  0.00     0.000 C 
BRANCH  13  14
ATOM     14  C   UNL     1      76.429  75.255  80.162  1.00  0.00     0.000 C 
BRANCH  14  15
ATOM     15  C   UNL     1      75.268  74.354  79.688  1.00  0.00     0.000 C 
BRANCH  15  16
ATOM     16  C   UNL     1      75.088  73.047  80.481  1.00  0.00     0.000 C 
BRANCH  16  17
ATOM     17  C   UNL     1      73.616  72.630  80.618  1.00  0.00     0.000 C 
BRANCH  17  18
ATOM     18  C   UNL     1      72.903  73.468  81.686  1.00  0.00     0.000 C 
BRANCH  18  19
ATOM     19  C   UNL     1      73.712  73.491  82.992  1.00  0.00     0.000 C 
BRANCH  19  20
ATOM     20  C   UNL     1      73.361  74.697  83.879  1.00  0.00     0.006 C 
BRANCH  20  21
ATOM     21  C   UNL     1      74.162  74.711  85.188  1.00  0.00     0.053 C 
BRANCH  21  22
ATOM     22  C   UNL     1      74.226  76.096  85.752  1.00  0.00     0.041 C 
ATOM     23  O   UNL     1      73.167  76.723  86.013  1.00  0.00    -0.550 OA
ATOM     24  O   UNL     1      75.458  76.693  85.996  1.00  0.00    -0.550 OA
ENDBRANCH  21  22
ENDBRANCH  20  21
ENDBRANCH  19  20
ENDBRANCH  18  19
ENDBRANCH  17  18
ENDBRANCH  16  17
ENDBRANCH  15  16
ENDBRANCH  14  15
ENDBRANCH  13  14
ENDBRANCH   1  13
TORSDOF 20
ENDMDL
MODEL 6
REMARK VINA RESULT:    -2.287      5.344      7.597
REMARK INTER + INTRA:          -8.071
REMARK INTER:                  -5.004
REMARK INTRA:                  -3.067
REMARK UNBOUND:                -3.111
REMARK SMILES CCCCCCCCCCCCCCCCCCCCCC(=O)[O-]
REMARK SMILES IDX 12 1 11 2 10 3 9 4 8 5 7 6 6 7 5 8 4 9 3 10 2 11 1 12 13 13
REMARK SMILES IDX 14 14 15 15 16 16 17 17 18 18 19 19 20 20 21 21 22 22 23 23
REMARK SMILES IDX 24 24
REMARK H PARENT
REMARK Flexibility Score: inf
ROOT
ATOM      1  C   UNL     1      76.085  80.743  76.095  1.00  0.00     0.000 C 
ENDROOT
BRANCH   1   2
ATOM      2  C   UNL     1      74.834  80.816  77.001  1.00  0.00     0.000 C 
BRANCH   2   3
ATOM      3  C   UNL     1      74.435  79.465  77.631  1.00  0.00     0.000 C 
BRANCH   3   4
ATOM      4  C   UNL     1      73.296  78.746  76.888  1.00  0.00    -0.000 C 
BRANCH   4   5
ATOM      5  C   UNL     1      72.246  79.715  76.321  1.00  0.00    -0.000 C 
BRANCH   5   6
ATOM      6  C   UNL     1      71.997  79.505  74.820  1.00  0.00    -0.000 C 
BRANCH   6   7
ATOM      7  C   UNL     1      72.092  78.026  74.406  1.00  0.00    -0.000 C 
BRANCH   7   8
ATOM      8  C   UNL     1      73.078  77.801  73.248  1.00  0.00    -0.000 C 
BRANCH   8   9
ATOM      9  C   UNL     1      74.198  78.853  73.216  1.00  0.00    -0.000 C 
BRANCH   9  10
ATOM     10  C   UNL     1      75.597  78.237  73.397  1.00  0.00    -0.000 C 
BRANCH  10  11
ATOM     11  C   UNL     1      75.666  77.188  74.528  1.00  0.00    -0.003 C 
ATOM     12  C   UNL     1      76.966  77.279  75.329  1.00  0.00     0.004 C 
ENDBRANCH  10  11
ENDBRANCH   9  10
ENDBRANCH   8   9
ENDBRANCH   7   8
ENDBRANCH   6   7
ENDBRANCH   5   6
ENDBRANCH   4   5
ENDBRANCH   3   4
ENDBRANCH   2   3
ENDBRANCH   1   2
BRANCH   1  13
ATOM     13  C   UNL     1      76.036  81.704  74.889  1.00  0.00     0.000 C 
BRANCH  13  14
ATOM     14  C   UNL     1      74.632  82.233  74.542  1.00  0.00     0.000 C 
BRANCH  14  15
ATOM     15  C   UNL     1      74.572  83.185  73.327  1.00  0.00     0.000 C 
BRANCH  15  16
ATOM     16  C   UNL     1      75.417  84.465  73.457  1.00  0.00     0.000 C 
BRANCH  16  17
ATOM     17  C   UNL     1      75.187  85.200  74.786  1.00  0.00     0.000 C 
BRANCH  17  18
ATOM     18  C   UNL     1      74.503  86.553  74.557  1.00  0.00     0.000 C 
BRANCH  18  19
ATOM     19  C   UNL     1      74.629  86.986  73.088  1.00  0.00     0.000 C 
BRANCH  19  20
ATOM     20  C   UNL     1      75.256  88.383  72.940  1.00  0.00     0.006 C 
BRANCH  20  21
ATOM     21  C   UNL     1      74.627  89.408  73.893  1.00  0.00     0.053 C 
BRANCH  21  22
ATOM     22  C   UNL     1      75.687  90.157  74.637  1.00  0.00     0.041 C 
ATOM     23  O   UNL     1      76.116  91.255  74.195  1.00  0.00    -0.550 OA
ATOM     24  O   UNL     1      76.200  89.645  75.824  1.00  0.00    -0.550 OA
ENDBRANCH  21  22
ENDBRANCH  20  21
ENDBRANCH  19  20
ENDBRANCH  18  19
ENDBRANCH  17  18
ENDBRANCH  16  17
ENDBRANCH  15  16
ENDBRANCH  14  15
ENDBRANCH  13  14
ENDBRANCH   1  13
TORSDOF 20
ENDMDL
MODEL 7
REMARK VINA RESULT:    -2.266      9.866     12.807
REMARK INTER + INTRA:          -8.027
REMARK INTER:                  -4.366
REMARK INTRA:                  -3.662
REMARK UNBOUND:                -3.111
REMARK SMILES CCCCCCCCCCCCCCCCCCCCCC(=O)[O-]
REMARK SMILES IDX 12 1 11 2 10 3 9 4 8 5 7 6 6 7 5 8 4 9 3 10 2 11 1 12 13 13
REMARK SMILES IDX 14 14 15 15 16 16 17 17 18 18 19 19 20 20 21 21 22 22 23 23
REMARK SMILES IDX 24 24
REMARK H PARENT
REMARK Flexibility Score: inf
ROOT
ATOM      1  C   UNL     1      74.535  87.524  73.754  1.00  0.00     0.000 C 
ENDROOT
BRANCH   1   2
ATOM      2  C   UNL     1      75.125  88.700  72.944  1.00  0.00     0.000 C 
BRANCH   2   3
ATOM      3  C   UNL     1      74.251  89.973  72.957  1.00  0.00     0.000 C 
BRANCH   3   4
ATOM      4  C   UNL     1      74.491  90.879  74.176  1.00  0.00    -0.000 C 
BRANCH   4   5
ATOM      5  C   UNL     1      75.922  90.772  74.727  1.00  0.00    -0.000 C 
BRANCH   5   6
ATOM      6  C   UNL     1      75.955  90.563  76.249  1.00  0.00    -0.000 C 
BRANCH   6   7
ATOM      7  C   UNL     1      76.145  89.087  76.640  1.00  0.00    -0.000 C 
BRANCH   7   8
ATOM      8  C   UNL     1      77.335  88.436  75.915  1.00  0.00    -0.000 C 
BRANCH   8   9
ATOM      9  C   UNL     1      78.294  87.724  76.883  1.00  0.00    -0.000 C 
BRANCH   9  10
ATOM     10  C   UNL     1      79.033  88.701  77.815  1.00  0.00    -0.000 C 
BRANCH  10  11
ATOM     11  C   UNL     1      79.836  89.782  77.060  1.00  0.00    -0.003 C 
ATOM     12  C   UNL     1      81.137  90.149  77.776  1.00  0.00     0.004 C 
ENDBRANCH  10  11
ENDBRANCH   9  10
ENDBRANCH   8   9
ENDBRANCH   7   8
ENDBRANCH   6   7
ENDBRANCH   5   6
ENDBRANCH   4   5
ENDBRANCH   3   4
ENDBRANCH   2   3
ENDBRANCH   1   2
BRANCH   1  13
ATOM     13  C   UNL     1      75.447  86.281  73.801  1.00  0.00     0.000 C 
BRANCH  13  14
ATOM     14  C   UNL     1      75.170  85.321  74.973  1.00  0.00     0.000 C 
BRANCH  14  15
ATOM     15  C   UNL     1      73.935  85.671  75.831  1.00  0.00     0.000 C 
BRANCH  15  16
ATOM     16  C   UNL     1      74.181  85.699  77.351  1.00  0.00     0.000 C 
BRANCH  16  17
ATOM     17  C   UNL     1      75.642  85.405  77.724  1.00  0.00     0.000 C 
BRANCH  17  18
ATOM     18  C   UNL     1      75.909  85.730  79.199  1.00  0.00     0.000 C 
BRANCH  18  19
ATOM     19  C   UNL     1      75.338  87.109  79.566  1.00  0.00     0.000 C 
BRANCH  19  20
ATOM     20  C   UNL     1      76.365  87.994  80.292  1.00  0.00     0.006 C 
BRANCH  20  21
ATOM     21  C   UNL     1      75.706  89.172  81.023  1.00  0.00     0.053 C 
BRANCH  21  22
ATOM     22  C   UNL     1      75.516  90.330  80.094  1.00  0.00     0.041 C 
ATOM     23  O   UNL     1      74.368  90.617  79.666  1.00  0.00    -0.550 OA
ATOM     24  O   UNL     1      76.608  91.098  79.706  1.00  0.00    -0.550 OA
ENDBRANCH  21  22
ENDBRANCH  20  21
ENDBRANCH  19  20
ENDBRANCH  18  19
ENDBRANCH  17  18
ENDBRANCH  16  17
ENDBRANCH  15  16
ENDBRANCH  14  15
ENDBRANCH  13  14
ENDBRANCH   1  13
TORSDOF 20
ENDMDL
MODEL 8
REMARK VINA RESULT:    -2.264     16.757     19.829
REMARK INTER + INTRA:          -8.023
REMARK INTER:                  -4.024
REMARK INTRA:                  -3.998
REMARK UNBOUND:                -3.111
REMARK SMILES CCCCCCCCCCCCCCCCCCCCCC(=O)[O-]
REMARK SMILES IDX 12 1 11 2 10 3 9 4 8 5 7 6 6 7 5 8 4 9 3 10 2 11 1 12 13 13
REMARK SMILES IDX 14 14 15 15 16 16 17 17 18 18 19 19 20 20 21 21 22 22 23 23
REMARK SMILES IDX 24 24
REMARK H PARENT
REMARK Flexibility Score: inf
ROOT
ATOM      1  C   UNL     1      76.763  86.543  88.689  1.00  0.00     0.000 C 
ENDROOT
BRANCH   1   2
ATOM      2  C   UNL     1      75.427  86.268  87.962  1.00  0.00     0.000 C 
BRANCH   2   3
ATOM      3  C   UNL     1      74.259  87.161  88.435  1.00  0.00     0.000 C 
BRANCH   3   4
ATOM      4  C   UNL     1      73.131  86.386  89.136  1.00  0.00    -0.000 C 
BRANCH   4   5
ATOM      5  C   UNL     1      72.325  87.258  90.113  1.00  0.00    -0.000 C 
BRANCH   5   6
ATOM      6  C   UNL     1      73.220  88.005  91.114  1.00  0.00    -0.000 C 
BRANCH   6   7
ATOM      7  C   UNL     1      73.273  87.317  92.489  1.00  0.00    -0.000 C 
BRANCH   7   8
ATOM      8  C   UNL     1      74.681  87.342  93.105  1.00  0.00    -0.000 C 
BRANCH   8   9
ATOM      9  C   UNL     1      75.350  85.958  93.098  1.00  0.00    -0.000 C 
BRANCH   9  10
ATOM     10  C   UNL     1      74.500  84.890  92.388  1.00  0.00    -0.000 C 
BRANCH  10  11
ATOM     11  C   UNL     1      75.215  84.235  91.186  1.00  0.00    -0.003 C 
ATOM     12  C   UNL     1      74.589  82.895  90.794  1.00  0.00     0.004 C 
ENDBRANCH  10  11
ENDBRANCH   9  10
ENDBRANCH   8   9
ENDBRANCH   7   8
ENDBRANCH   6   7
ENDBRANCH   5   6
ENDBRANCH   4   5
ENDBRANCH   3   4
ENDBRANCH   2   3
ENDBRANCH   1   2
BRANCH   1  13
ATOM     13  C   UNL     1      76.625  87.476  89.910  1.00  0.00     0.000 C 
BRANCH  13  14
ATOM     14  C   UNL     1      77.450  88.774  89.827  1.00  0.00     0.000 C 
BRANCH  14  15
ATOM     15  C   UNL     1      77.191  89.790  90.961  1.00  0.00     0.000 C 
BRANCH  15  16
ATOM     16  C   UNL     1      77.633  89.331  92.363  1.00  0.00     0.000 C 
BRANCH  16  17
ATOM     17  C   UNL     1      78.980  88.594  92.353  1.00  0.00     0.000 C 
BRANCH  17  18
ATOM     18  C   UNL     1      78.890  87.272  93.125  1.00  0.00     0.000 C 
BRANCH  18  19
ATOM     19  C   UNL     1      79.575  86.137  92.347  1.00  0.00     0.000 C 
BRANCH  19  20
ATOM     20  C   UNL     1      78.580  85.062  91.879  1.00  0.00     0.006 C 
BRANCH  20  21
ATOM     21  C   UNL     1      78.900  83.679  92.461  1.00  0.00     0.053 C 
BRANCH  21  22
ATOM     22  C   UNL     1      78.976  82.653  91.374  1.00  0.00     0.041 C 
ATOM     23  O   UNL     1      78.586  82.933  90.211  1.00  0.00    -0.550 OA
ATOM     24  O   UNL     1      79.484  81.387  91.644  1.00  0.00    -0.550 OA
ENDBRANCH  21  22
ENDBRANCH  20  21
ENDBRANCH  19  20
ENDBRANCH  18  19
ENDBRANCH  17  18
ENDBRANCH  16  17
ENDBRANCH  15  16
ENDBRANCH  14  15
ENDBRANCH  13  14
ENDBRANCH   1  13
TORSDOF 20
ENDMDL
MODEL 9
REMARK VINA RESULT:    -2.254     15.963     19.501
REMARK INTER + INTRA:          -8.001
REMARK INTER:                  -3.891
REMARK INTRA:                  -4.110
REMARK UNBOUND:                -3.111
REMARK SMILES CCCCCCCCCCCCCCCCCCCCCC(=O)[O-]
REMARK SMILES IDX 12 1 11 2 10 3 9 4 8 5 7 6 6 7 5 8 4 9 3 10 2 11 1 12 13 13
REMARK SMILES IDX 14 14 15 15 16 16 17 17 18 18 19 19 20 20 21 21 22 22 23 23
REMARK SMILES IDX 24 24
REMARK H PARENT
REMARK Flexibility Score: inf
ROOT
ATOM      1  C   UNL     1      78.137  87.160  92.361  1.00  0.00     0.000 C 
ENDROOT
BRANCH   1   2
ATOM      2  C   UNL     1      77.936  88.634  91.938  1.00  0.00     0.000 C 
BRANCH   2   3
ATOM      3  C   UNL     1      76.469  89.003  91.630  1.00  0.00     0.000 C 
BRANCH   3   4
ATOM      4  C   UNL     1      75.830  89.933  92.676  1.00  0.00    -0.000 C 
BRANCH   4   5
ATOM      5  C   UNL     1      74.309  89.740  92.798  1.00  0.00    -0.000 C 
BRANCH   5   6
ATOM      6  C   UNL     1      73.756  88.744  91.767  1.00  0.00    -0.000 C 
BRANCH   6   7
ATOM      7  C   UNL     1      73.044  87.547  92.422  1.00  0.00    -0.000 C 
BRANCH   7   8
ATOM      8  C   UNL     1      73.022  86.306  91.515  1.00  0.00    -0.000 C 
BRANCH   8   9
ATOM      9  C   UNL     1      74.111  86.351  90.431  1.00  0.00    -0.000 C 
BRANCH   9  10
ATOM     10  C   UNL     1      73.825  85.393  89.261  1.00  0.00    -0.000 C 
BRANCH  10  11
ATOM     11  C   UNL     1      73.872  86.080  87.879  1.00  0.00    -0.003 C 
ATOM     12  C   UNL     1      73.946  87.604  87.986  1.00  0.00     0.004 C 
ENDBRANCH  10  11
ENDBRANCH   9  10
ENDBRANCH   8   9
ENDBRANCH   7   8
ENDBRANCH   6   7
ENDBRANCH   5   6
ENDBRANCH   4   5
ENDBRANCH   3   4
ENDBRANCH   2   3
ENDBRANCH   1   2
BRANCH   1  13
ATOM     13  C   UNL     1      76.866  86.497  92.930  1.00  0.00     0.000 C 
BRANCH  13  14
ATOM     14  C   UNL     1      76.963  84.972  93.118  1.00  0.00     0.000 C 
BRANCH  14  15
ATOM     15  C   UNL     1      76.020  84.139  92.224  1.00  0.00     0.000 C 
BRANCH  15  16
ATOM     16  C   UNL     1      76.627  82.840  91.664  1.00  0.00     0.000 C 
BRANCH  16  17
ATOM     17  C   UNL     1      77.581  83.087  90.485  1.00  0.00     0.000 C 
BRANCH  17  18
ATOM     18  C   UNL     1      76.812  83.167  89.162  1.00  0.00     0.000 C 
BRANCH  18  19
ATOM     19  C   UNL     1      77.259  84.388  88.342  1.00  0.00     0.000 C 
BRANCH  19  20
ATOM     20  C   UNL     1      77.746  85.544  89.230  1.00  0.00     0.006 C 
BRANCH  20  21
ATOM     21  C   UNL     1      77.468  86.918  88.604  1.00  0.00     0.053 C 
BRANCH  21  22
ATOM     22  C   UNL     1      78.716  87.488  88.006  1.00  0.00     0.041 C 
ATOM     23  O   UNL     1      79.392  88.337  88.643  1.00  0.00    -0.550 OA
ATOM     24  O   UNL     1      79.137  87.077  86.746  1.00  0.00    -0.550 OA
ENDBRANCH  21  22
ENDBRANCH  20  21
ENDBRANCH  19  20
ENDBRANCH  18  19
ENDBRANCH  17  18
ENDBRANCH  16  17
ENDBRANCH  15  16
ENDBRANCH  14  15
ENDBRANCH  13  14
ENDBRANCH   1  13
TORSDOF 20
ENDMDL
