MODEL 1
REMARK VINA RESULT:    -4.011      0.000      0.000
REMARK INTER + INTRA:          -6.175
REMARK INTER:                  -6.122
REMARK INTRA:                  -0.053
REMARK UNBOUND:                -0.053
REMARK SMILES CC1=CCC[C@H](C)C(=O)C[C@@H](C(C)C)C(=O)C1
REMARK SMILES IDX 8 1 9 2 6 3 7 4 5 5 4 6 3 7 2 8 1 9 10 11 11 12 15 13 16 14
REMARK SMILES IDX 17 15 12 17 13 18 14 19
REMARK H PARENT
REMARK Flexibility Score: 70.00
ROOT
ATOM      1  C   UNL     1       7.231 -16.775  23.381  1.00  0.00     0.136 C 
ATOM      2  O   UNL     1       6.296 -16.946  24.152  1.00  0.00    -0.299 OA
ENDROOT
BRANCH   1   3
ATOM      3  C   UNL     1       7.585 -15.370  22.935  1.00  0.00     0.053 C 
ATOM      4  C   UNL     1       6.580 -14.865  21.890  1.00  0.00     0.016 C 
BRANCH   3   5
ATOM      5  C   UNL     1       7.639 -14.421  24.155  1.00  0.00     0.015 C 
BRANCH   5   6
ATOM      6  C   UNL     1       8.777 -14.786  25.127  1.00  0.00     0.028 C 
BRANCH   6   7
ATOM      7  C   UNL     1      10.105 -14.860  24.416  1.00  0.00    -0.028 C 
ATOM      8  C   UNL     1      10.937 -15.926  24.428  1.00  0.00    -0.070 CG0
ATOM      9  C   UNL     1      12.256 -15.801  23.709  1.00  0.00     0.039 C 
ATOM     10  G   UNL     1      10.613 -17.231  25.139  1.00  0.00     0.000 G0
ENDBRANCH   6   7
ENDBRANCH   5   6
ENDBRANCH   3   5
ENDBRANCH   1   3
BRANCH   1  11
ATOM     11  C   UNL     1       8.008 -17.972  22.889  1.00  0.00     0.087 C 
BRANCH  11  12
ATOM     12  C   UNL     1       8.715 -18.734  24.040  1.00  0.00     0.066 C 
BRANCH  12  13
ATOM     13  C   UNL     1      10.174 -18.310  24.157  1.00  0.00     0.140 C 
ATOM     14  O   UNL     1      10.993 -18.807  23.396  1.00  0.00    -0.299 OA
BRANCH  13  15
ATOM     15  C   UNL     1      10.625 -17.245  25.131  1.00  0.00     0.106 CG0
ATOM     16  G   UNL     1      10.930 -15.925  24.440  1.00  0.00     0.000 G0
ENDBRANCH  13  15
ENDBRANCH  12  13
BRANCH  12  17
ATOM     17  C   UNL     1       8.577 -20.287  23.921  1.00  0.00    -0.006 C 
ATOM     18  C   UNL     1       8.091 -20.728  22.529  1.00  0.00     0.008 C 
ATOM     19  C   UNL     1       7.605 -20.838  24.980  1.00  0.00     0.008 C 
ENDBRANCH  12  17
ENDBRANCH  11  12
ENDBRANCH   1  11
TORSDOF 1
ENDMDL
MODEL 2
REMARK VINA RESULT:    -3.854      1.443      3.752
REMARK INTER + INTRA:          -5.936
REMARK INTER:                  -5.977
REMARK INTRA:                   0.041
REMARK UNBOUND:                -0.053
REMARK SMILES CC1=CCC[C@H](C)C(=O)C[C@@H](C(C)C)C(=O)C1
REMARK SMILES IDX 8 1 9 2 6 3 7 4 5 5 4 6 3 7 2 8 1 9 10 11 11 12 15 13 16 14
REMARK SMILES IDX 17 15 12 17 13 18 14 19
REMARK H PARENT
REMARK Flexibility Score: 70.00
ROOT
ATOM      1  C   UNL     1      10.789 -18.433  24.884  1.00  0.00     0.136 C 
ATOM      2  O   UNL     1      11.445 -19.233  24.231  1.00  0.00    -0.299 OA
ENDROOT
BRANCH   1   3
ATOM      3  C   UNL     1      11.454 -17.180  25.418  1.00  0.00     0.053 C 
ATOM      4  C   UNL     1      12.497 -16.655  24.421  1.00  0.00     0.016 C 
BRANCH   3   5
ATOM      5  C   UNL     1      10.390 -16.101  25.725  1.00  0.00     0.015 C 
BRANCH   5   6
ATOM      6  C   UNL     1      10.125 -15.182  24.516  1.00  0.00     0.028 C 
BRANCH   6   7
ATOM      7  C   UNL     1       8.664 -14.832  24.401  1.00  0.00    -0.028 C 
ATOM      8  C   UNL     1       7.764 -15.489  23.633  1.00  0.00    -0.070 CG0
ATOM      9  C   UNL     1       6.352 -14.961  23.592  1.00  0.00     0.039 C 
ATOM     10  G   UNL     1       8.109 -16.718  22.805  1.00  0.00     0.000 G0
ENDBRANCH   6   7
ENDBRANCH   5   6
ENDBRANCH   3   5
ENDBRANCH   1   3
BRANCH   1  11
ATOM     11  C   UNL     1       9.329 -18.719  25.144  1.00  0.00     0.087 C 
BRANCH  11  12
ATOM     12  C   UNL     1       8.561 -19.105  23.853  1.00  0.00     0.066 C 
BRANCH  12  13
ATOM     13  C   UNL     1       7.596 -17.998  23.443  1.00  0.00     0.140 C 
ATOM     14  O   UNL     1       6.407 -18.132  23.697  1.00  0.00    -0.299 OA
BRANCH  13  15
ATOM     15  C   UNL     1       8.074 -16.715  22.801  1.00  0.00     0.106 CG0
ATOM     16  G   UNL     1       7.751 -15.493  23.649  1.00  0.00     0.000 G0
ENDBRANCH  13  15
ENDBRANCH  12  13
BRANCH  12  17
ATOM     17  C   UNL     1       7.836 -20.485  23.963  1.00  0.00    -0.006 C 
ATOM     18  C   UNL     1       7.513 -20.865  25.420  1.00  0.00     0.008 C 
ATOM     19  C   UNL     1       8.686 -21.607  23.338  1.00  0.00     0.008 C 
ENDBRANCH  12  17
ENDBRANCH  11  12
ENDBRANCH   1  11
TORSDOF 1
ENDMDL
MODEL 3
REMARK VINA RESULT:    -3.777      1.207      1.644
REMARK INTER + INTRA:          -5.817
REMARK INTER:                  -6.019
REMARK INTRA:                   0.202
REMARK UNBOUND:                -0.053
REMARK SMILES CC1=CCC[C@H](C)C(=O)C[C@@H](C(C)C)C(=O)C1
REMARK SMILES IDX 8 1 9 2 6 3 7 4 5 5 4 6 3 7 2 8 1 9 10 11 11 12 15 13 16 14
REMARK SMILES IDX 17 15 12 17 13 18 14 19
REMARK H PARENT
REMARK Flexibility Score: 70.00
ROOT
ATOM      1  C   UNL     1       6.875 -16.811  24.104  1.00  0.00     0.136 C 
ATOM      2  O   UNL     1       5.806 -16.593  24.657  1.00  0.00    -0.299 OA
ENDROOT
BRANCH   1   3
ATOM      3  C   UNL     1       7.971 -15.765  24.154  1.00  0.00     0.053 C 
ATOM      4  C   UNL     1       7.470 -14.431  23.582  1.00  0.00     0.016 C 
BRANCH   3   5
ATOM      5  C   UNL     1       8.478 -15.592  25.604  1.00  0.00     0.015 C 
BRANCH   5   6
ATOM      6  C   UNL     1       9.805 -16.336  25.851  1.00  0.00     0.028 C 
BRANCH   6   7
ATOM      7  C   UNL     1      10.749 -16.176  24.687  1.00  0.00    -0.028 C 
ATOM      8  C   UNL     1      11.191 -17.182  23.898  1.00  0.00    -0.070 CG0
ATOM      9  C   UNL     1      12.184 -16.845  22.814  1.00  0.00     0.039 C 
ATOM     10  G   UNL     1      10.748 -18.628  24.060  1.00  0.00     0.000 G0
ENDBRANCH   6   7
ENDBRANCH   5   6
ENDBRANCH   3   5
ENDBRANCH   1   3
BRANCH   1  11
ATOM     11  C   UNL     1       7.075 -18.122  23.381  1.00  0.00     0.087 C 
BRANCH  11  12
ATOM     12  C   UNL     1       8.135 -19.023  24.068  1.00  0.00     0.066 C 
BRANCH  12  13
ATOM     13  C   UNL     1       9.467 -18.954  23.331  1.00  0.00     0.140 C 
ATOM     14  O   UNL     1       9.474 -19.097  22.117  1.00  0.00    -0.299 OA
BRANCH  13  15
ATOM     15  C   UNL     1      10.763 -18.640  24.044  1.00  0.00     0.106 CG0
ATOM     16  G   UNL     1      11.167 -17.182  23.889  1.00  0.00     0.000 G0
ENDBRANCH  13  15
ENDBRANCH  12  13
BRANCH  12  17
ATOM     17  C   UNL     1       7.657 -20.500  24.251  1.00  0.00    -0.006 C 
ATOM     18  C   UNL     1       7.230 -20.805  25.698  1.00  0.00     0.008 C 
ATOM     19  C   UNL     1       8.760 -21.493  23.842  1.00  0.00     0.008 C 
ENDBRANCH  12  17
ENDBRANCH  11  12
ENDBRANCH   1  11
TORSDOF 1
ENDMDL
MODEL 4
REMARK VINA RESULT:    -3.750      1.881      2.611
REMARK INTER + INTRA:          -5.776
REMARK INTER:                  -5.678
REMARK INTRA:                  -0.098
REMARK UNBOUND:                -0.053
REMARK SMILES CC1=CCC[C@H](C)C(=O)C[C@@H](C(C)C)C(=O)C1
REMARK SMILES IDX 8 1 9 2 6 3 7 4 5 5 4 6 3 7 2 8 1 9 10 11 11 12 15 13 16 14
REMARK SMILES IDX 17 15 12 17 13 18 14 19
REMARK H PARENT
REMARK Flexibility Score: 70.00
ROOT
ATOM      1  C   UNL     1       7.450 -15.438  22.617  1.00  0.00     0.136 C 
ATOM      2  O   UNL     1       6.842 -15.115  21.606  1.00  0.00    -0.299 OA
ENDROOT
BRANCH   1   3
ATOM      3  C   UNL     1       6.963 -14.955  23.969  1.00  0.00     0.053 C 
ATOM      4  C   UNL     1       6.031 -15.994  24.610  1.00  0.00     0.016 C 
BRANCH   3   5
ATOM      5  C   UNL     1       8.165 -14.645  24.891  1.00  0.00     0.015 C 
BRANCH   5   6
ATOM      6  C   UNL     1       8.176 -15.532  26.152  1.00  0.00     0.028 C 
BRANCH   6   7
ATOM      7  C   UNL     1       9.462 -16.311  26.264  1.00  0.00    -0.028 C 
ATOM      8  C   UNL     1       9.661 -17.559  25.784  1.00  0.00    -0.070 CG0
ATOM      9  C   UNL     1      10.996 -18.210  26.042  1.00  0.00     0.039 C 
ATOM     10  G   UNL     1       8.606 -18.337  25.012  1.00  0.00     0.000 G0
ENDBRANCH   6   7
ENDBRANCH   5   6
ENDBRANCH   3   5
ENDBRANCH   1   3
BRANCH   1  11
ATOM     11  C   UNL     1       8.677 -16.309  22.492  1.00  0.00     0.087 C 
BRANCH  11  12
ATOM     12  C   UNL     1       8.328 -17.819  22.419  1.00  0.00     0.066 C 
BRANCH  12  13
ATOM     13  C   UNL     1       8.985 -18.585  23.560  1.00  0.00     0.140 C 
ATOM     14  O   UNL     1       9.895 -19.361  23.298  1.00  0.00    -0.299 OA
BRANCH  13  15
ATOM     15  C   UNL     1       8.599 -18.362  25.004  1.00  0.00     0.106 CG0
ATOM     16  G   UNL     1       9.647 -17.562  25.763  1.00  0.00     0.000 G0
ENDBRANCH  13  15
ENDBRANCH  12  13
BRANCH  12  17
ATOM     17  C   UNL     1       8.662 -18.457  21.031  1.00  0.00    -0.006 C 
ATOM     18  C   UNL     1       8.873 -17.398  19.933  1.00  0.00     0.008 C 
ATOM     19  C   UNL     1       7.546 -19.418  20.581  1.00  0.00     0.008 C 
ENDBRANCH  12  17
ENDBRANCH  11  12
ENDBRANCH   1  11
TORSDOF 1
ENDMDL
MODEL 5
REMARK VINA RESULT:    -3.685      2.413      5.151
REMARK INTER + INTRA:          -5.677
REMARK INTER:                  -5.656
REMARK INTRA:                  -0.021
REMARK UNBOUND:                -0.053
REMARK SMILES CC1=CCC[C@H](C)C(=O)C[C@@H](C(C)C)C(=O)C1
REMARK SMILES IDX 8 1 9 2 6 3 7 4 5 5 4 6 3 7 2 8 1 9 10 11 11 12 15 13 16 14
REMARK SMILES IDX 17 15 12 17 13 18 14 19
REMARK H PARENT
REMARK Flexibility Score: 70.00
ROOT
ATOM      1  C   UNL     1       9.692 -17.688  25.836  1.00  0.00     0.136 C 
ATOM      2  O   UNL     1      10.172 -16.902  26.642  1.00  0.00    -0.299 OA
ENDROOT
BRANCH   1   3
ATOM      3  C   UNL     1       9.410 -19.115  26.262  1.00  0.00     0.053 C 
ATOM      4  C   UNL     1      10.396 -19.559  27.352  1.00  0.00     0.016 C 
BRANCH   3   5
ATOM      5  C   UNL     1       7.949 -19.248  26.748  1.00  0.00     0.015 C 
BRANCH   5   6
ATOM      6  C   UNL     1       7.217 -20.429  26.081  1.00  0.00     0.028 C 
BRANCH   6   7
ATOM      7  C   UNL     1       8.068 -21.070  25.014  1.00  0.00    -0.028 C 
ATOM      8  C   UNL     1       7.996 -20.796  23.692  1.00  0.00    -0.070 CG0
ATOM      9  C   UNL     1       8.885 -21.580  22.759  1.00  0.00     0.039 C 
ATOM     10  G   UNL     1       7.059 -19.752  23.103  1.00  0.00     0.000 G0
ENDBRANCH   6   7
ENDBRANCH   5   6
ENDBRANCH   3   5
ENDBRANCH   1   3
BRANCH   1  11
ATOM     11  C   UNL     1       9.395 -17.214  24.433  1.00  0.00     0.087 C 
BRANCH  11  12
ATOM     12  C   UNL     1       7.907 -17.410  24.044  1.00  0.00     0.066 C 
BRANCH  12  13
ATOM     13  C   UNL     1       7.770 -18.410  22.902  1.00  0.00     0.140 C 
ATOM     14  O   UNL     1       8.301 -18.153  21.830  1.00  0.00    -0.299 OA
BRANCH  13  15
ATOM     15  C   UNL     1       7.066 -19.737  23.078  1.00  0.00     0.106 CG0
ATOM     16  G   UNL     1       7.974 -20.794  23.689  1.00  0.00     0.000 G0
ENDBRANCH  13  15
ENDBRANCH  12  13
BRANCH  12  17
ATOM     17  C   UNL     1       7.178 -16.066  23.719  1.00  0.00    -0.006 C 
ATOM     18  C   UNL     1       7.972 -14.836  24.198  1.00  0.00     0.008 C 
ATOM     19  C   UNL     1       5.777 -16.028  24.357  1.00  0.00     0.008 C 
ENDBRANCH  12  17
ENDBRANCH  11  12
ENDBRANCH   1  11
TORSDOF 1
ENDMDL
MODEL 6
REMARK VINA RESULT:    -3.648      2.251      4.313
REMARK INTER + INTRA:          -5.620
REMARK INTER:                  -5.533
REMARK INTRA:                  -0.087
REMARK UNBOUND:                -0.053
REMARK SMILES CC1=CCC[C@H](C)C(=O)C[C@@H](C(C)C)C(=O)C1
REMARK SMILES IDX 8 1 9 2 6 3 7 4 5 5 4 6 3 7 2 8 1 9 10 11 11 12 15 13 16 14
REMARK SMILES IDX 17 15 12 17 13 18 14 19
REMARK H PARENT
REMARK Flexibility Score: 70.00
ROOT
ATOM      1  C   UNL     1       9.678 -17.057  21.107  1.00  0.00     0.136 C 
ATOM      2  O   UNL     1       9.956 -17.152  19.919  1.00  0.00    -0.299 OA
ENDROOT
BRANCH   1   3
ATOM      3  C   UNL     1      10.791 -16.934  22.129  1.00  0.00     0.053 C 
ATOM      4  C   UNL     1      11.922 -17.924  21.817  1.00  0.00     0.016 C 
BRANCH   3   5
ATOM      5  C   UNL     1      11.321 -15.482  22.168  1.00  0.00     0.015 C 
BRANCH   5   6
ATOM      6  C   UNL     1      11.245 -14.873  23.582  1.00  0.00     0.028 C 
BRANCH   6   7
ATOM      7  C   UNL     1      10.858 -15.908  24.606  1.00  0.00    -0.028 C 
ATOM      8  C   UNL     1       9.621 -16.056  25.135  1.00  0.00    -0.070 CG0
ATOM      9  C   UNL     1       9.429 -17.109  26.197  1.00  0.00     0.039 C 
ATOM     10  G   UNL     1       8.428 -15.208  24.723  1.00  0.00     0.000 G0
ENDBRANCH   6   7
ENDBRANCH   5   6
ENDBRANCH   3   5
ENDBRANCH   1   3
BRANCH   1  11
ATOM     11  C   UNL     1       8.227 -17.068  21.526  1.00  0.00     0.087 C 
BRANCH  11  12
ATOM     12  C   UNL     1       7.789 -15.734  22.184  1.00  0.00     0.066 C 
BRANCH  12  13
ATOM     13  C   UNL     1       7.563 -15.913  23.681  1.00  0.00     0.140 C 
ATOM     14  O   UNL     1       6.702 -16.698  24.054  1.00  0.00    -0.299 OA
BRANCH  13  15
ATOM     15  C   UNL     1       8.417 -15.210  24.711  1.00  0.00     0.106 CG0
ATOM     16  G   UNL     1       9.600 -16.058  25.154  1.00  0.00     0.000 G0
ENDBRANCH  13  15
ENDBRANCH  12  13
BRANCH  12  17
ATOM     17  C   UNL     1       6.546 -15.088  21.490  1.00  0.00    -0.006 C 
ATOM     18  C   UNL     1       6.678 -15.062  19.956  1.00  0.00     0.008 C 
ATOM     19  C   UNL     1       6.318 -13.650  21.990  1.00  0.00     0.008 C 
ENDBRANCH  12  17
ENDBRANCH  11  12
ENDBRANCH   1  11
TORSDOF 1
ENDMDL
MODEL 7
REMARK VINA RESULT:    -3.602      2.736      3.698
REMARK INTER + INTRA:          -5.551
REMARK INTER:                  -5.408
REMARK INTRA:                  -0.143
REMARK UNBOUND:                -0.053
REMARK SMILES CC1=CCC[C@H](C)C(=O)C[C@@H](C(C)C)C(=O)C1
REMARK SMILES IDX 8 1 9 2 6 3 7 4 5 5 4 6 3 7 2 8 1 9 10 11 11 12 15 13 16 14
REMARK SMILES IDX 17 15 12 17 13 18 14 19
REMARK H PARENT
REMARK Flexibility Score: 70.00
ROOT
ATOM      1  C   UNL     1       7.193 -17.313  23.620  1.00  0.00     0.136 C 
ATOM      2  O   UNL     1       7.004 -16.886  24.751  1.00  0.00    -0.299 OA
ENDROOT
BRANCH   1   3
ATOM      3  C   UNL     1       7.867 -16.430  22.590  1.00  0.00     0.053 C 
ATOM      4  C   UNL     1       7.173 -15.062  22.515  1.00  0.00     0.016 C 
BRANCH   3   5
ATOM      5  C   UNL     1       9.368 -16.272  22.922  1.00  0.00     0.015 C 
BRANCH   5   6
ATOM      6  C   UNL     1      10.252 -17.226  22.094  1.00  0.00     0.028 C 
BRANCH   6   7
ATOM      7  C   UNL     1       9.734 -17.371  20.686  1.00  0.00    -0.028 C 
ATOM      8  C   UNL     1       9.352 -18.535  20.113  1.00  0.00    -0.070 CG0
ATOM      9  C   UNL     1       8.916 -18.501  18.669  1.00  0.00     0.039 C 
ATOM     10  G   UNL     1       9.354 -19.868  20.844  1.00  0.00     0.000 G0
ENDBRANCH   6   7
ENDBRANCH   5   6
ENDBRANCH   3   5
ENDBRANCH   1   3
BRANCH   1  11
ATOM     11  C   UNL     1       6.744 -18.714  23.279  1.00  0.00     0.087 C 
BRANCH  11  12
ATOM     12  C   UNL     1       7.936 -19.690  23.091  1.00  0.00     0.066 C 
BRANCH  12  13
ATOM     13  C   UNL     1       8.077 -20.101  21.631  1.00  0.00     0.140 C 
ATOM     14  O   UNL     1       7.109 -20.583  21.060  1.00  0.00    -0.299 OA
BRANCH  13  15
ATOM     15  C   UNL     1       9.350 -19.862  20.849  1.00  0.00     0.106 CG0
ATOM     16  G   UNL     1       9.327 -18.537  20.103  1.00  0.00     0.000 G0
ENDBRANCH  13  15
ENDBRANCH  12  13
BRANCH  12  17
ATOM     17  C   UNL     1       7.860 -20.935  24.033  1.00  0.00    -0.006 C 
ATOM     18  C   UNL     1       7.923 -20.550  25.522  1.00  0.00     0.008 C 
ATOM     19  C   UNL     1       8.999 -21.926  23.731  1.00  0.00     0.008 C 
ENDBRANCH  12  17
ENDBRANCH  11  12
ENDBRANCH   1  11
TORSDOF 1
ENDMDL
MODEL 8
REMARK VINA RESULT:    -3.580      2.411      4.957
REMARK INTER + INTRA:          -5.517
REMARK INTER:                  -5.292
REMARK INTRA:                  -0.224
REMARK UNBOUND:                -0.053
REMARK SMILES CC1=CCC[C@H](C)C(=O)C[C@@H](C(C)C)C(=O)C1
REMARK SMILES IDX 8 1 9 2 6 3 7 4 5 5 4 6 3 7 2 8 1 9 10 11 11 12 15 13 16 14
REMARK SMILES IDX 17 15 12 17 13 18 14 19
REMARK H PARENT
REMARK Flexibility Score: 70.00
ROOT
ATOM      1  C   UNL     1       8.263 -18.639  24.515  1.00  0.00     0.136 C 
ATOM      2  O   UNL     1       7.616 -18.410  25.528  1.00  0.00    -0.299 OA
ENDROOT
BRANCH   1   3
ATOM      3  C   UNL     1       8.088 -19.963  23.798  1.00  0.00     0.053 C 
ATOM      4  C   UNL     1       8.108 -21.126  24.800  1.00  0.00     0.016 C 
BRANCH   3   5
ATOM      5  C   UNL     1       6.776 -19.958  22.980  1.00  0.00     0.015 C 
BRANCH   5   6
ATOM      6  C   UNL     1       7.035 -19.910  21.462  1.00  0.00     0.028 C 
BRANCH   6   7
ATOM      7  C   UNL     1       8.470 -20.243  21.139  1.00  0.00    -0.028 C 
ATOM      8  C   UNL     1       9.384 -19.367  20.662  1.00  0.00    -0.070 CG0
ATOM      9  C   UNL     1      10.760 -19.890  20.337  1.00  0.00     0.039 C 
ATOM     10  G   UNL     1       9.088 -17.894  20.427  1.00  0.00     0.000 G0
ENDBRANCH   6   7
ENDBRANCH   5   6
ENDBRANCH   3   5
ENDBRANCH   1   3
BRANCH   1  11
ATOM     11  C   UNL     1       9.224 -17.592  24.004  1.00  0.00     0.087 C 
BRANCH  11  12
ATOM     12  C   UNL     1       8.658 -16.807  22.792  1.00  0.00     0.066 C 
BRANCH  12  13
ATOM     13  C   UNL     1       9.529 -17.011  21.558  1.00  0.00     0.140 C 
ATOM     14  O   UNL     1      10.635 -16.489  21.527  1.00  0.00    -0.299 OA
BRANCH  13  15
ATOM     15  C   UNL     1       9.100 -17.896  20.409  1.00  0.00     0.106 CG0
ATOM     16  G   UNL     1       9.378 -19.367  20.680  1.00  0.00     0.000 G0
ENDBRANCH  13  15
ENDBRANCH  12  13
BRANCH  12  17
ATOM     17  C   UNL     1       8.439 -15.290  23.094  1.00  0.00    -0.006 C 
ATOM     18  C   UNL     1       9.392 -14.763  24.182  1.00  0.00     0.008 C 
ATOM     19  C   UNL     1       6.989 -15.018  23.536  1.00  0.00     0.008 C 
ENDBRANCH  12  17
ENDBRANCH  11  12
ENDBRANCH   1  11
TORSDOF 1
ENDMDL
MODEL 9
REMARK VINA RESULT:    -3.573      1.674      2.267
REMARK INTER + INTRA:          -5.506
REMARK INTER:                  -5.193
REMARK INTRA:                  -0.314
REMARK UNBOUND:                -0.053
REMARK SMILES CC1=CCC[C@H](C)C(=O)C[C@@H](C(C)C)C(=O)C1
REMARK SMILES IDX 8 1 9 2 6 3 7 4 5 5 4 6 3 7 2 8 1 9 10 11 11 12 15 13 16 14
REMARK SMILES IDX 17 15 12 17 13 18 14 19
REMARK H PARENT
REMARK Flexibility Score: 70.00
ROOT
ATOM      1  C   UNL     1       8.044 -16.937  23.543  1.00  0.00     0.136 C 
ATOM      2  O   UNL     1       6.921 -17.087  24.005  1.00  0.00    -0.299 OA
ENDROOT
BRANCH   1   3
ATOM      3  C   UNL     1       8.832 -15.687  23.882  1.00  0.00     0.053 C 
ATOM      4  C   UNL     1       7.919 -14.628  24.516  1.00  0.00     0.016 C 
BRANCH   3   5
ATOM      5  C   UNL     1      10.010 -16.036  24.820  1.00  0.00     0.015 C 
BRANCH   5   6
ATOM      6  C   UNL     1      11.374 -15.916  24.112  1.00  0.00     0.028 C 
BRANCH   6   7
ATOM      7  C   UNL     1      12.305 -17.029  24.521  1.00  0.00    -0.028 C 
ATOM      8  C   UNL     1      12.399 -18.231  23.909  1.00  0.00    -0.070 CG0
ATOM      9  C   UNL     1      13.345 -19.249  24.494  1.00  0.00     0.039 C 
ATOM     10  G   UNL     1      11.592 -18.606  22.675  1.00  0.00     0.000 G0
ENDBRANCH   6   7
ENDBRANCH   5   6
ENDBRANCH   3   5
ENDBRANCH   1   3
BRANCH   1  11
ATOM     11  C   UNL     1       8.618 -18.005  22.642  1.00  0.00     0.087 C 
BRANCH  11  12
ATOM     12  C   UNL     1       9.146 -19.229  23.435  1.00  0.00     0.066 C 
BRANCH  12  13
ATOM     13  C   UNL     1      10.533 -19.634  22.951  1.00  0.00     0.140 C 
ATOM     14  O   UNL     1      10.758 -20.817  22.737  1.00  0.00    -0.299 OA
BRANCH  13  15
ATOM     15  C   UNL     1      11.610 -18.613  22.656  1.00  0.00     0.106 CG0
ATOM     16  G   UNL     1      12.402 -18.238  23.899  1.00  0.00     0.000 G0
ENDBRANCH  13  15
ENDBRANCH  12  13
BRANCH  12  17
ATOM     17  C   UNL     1       8.158 -20.440  23.420  1.00  0.00    -0.006 C 
ATOM     18  C   UNL     1       7.163 -20.372  22.248  1.00  0.00     0.008 C 
ATOM     19  C   UNL     1       7.363 -20.522  24.737  1.00  0.00     0.008 C 
ENDBRANCH  12  17
ENDBRANCH  11  12
ENDBRANCH   1  11
TORSDOF 1
ENDMDL
