MODEL 1
REMARK VINA RESULT:    -3.554      0.000      0.000
REMARK INTER + INTRA:          -5.681
REMARK INTER:                  -5.424
REMARK INTRA:                  -0.258
REMARK UNBOUND:                -0.258
REMARK SMILES CC1=CCC[C@H](C)C(=O)C[C@H](C(C)C)C(=O)C1
REMARK SMILES IDX 8 1 9 2 6 3 7 4 5 5 4 6 3 7 2 8 1 9 10 11 11 12 15 13 16 14
REMARK SMILES IDX 17 15 12 17 13 18 14 19
REMARK H PARENT
REMARK Flexibility Score: 70.00
ROOT
ATOM      1  C   UNL     1      19.116  26.586  27.955  1.00  0.00     0.136 C 
ATOM      2  O   UNL     1      19.416  25.669  27.205  1.00  0.00    -0.299 OA
ENDROOT
BRANCH   1   3
ATOM      3  C   UNL     1      20.130  26.992  29.027  1.00  0.00     0.053 C 
ATOM      4  C   UNL     1      21.055  25.815  29.386  1.00  0.00     0.016 C 
BRANCH   3   5
ATOM      5  C   UNL     1      20.934  28.302  28.786  1.00  0.00     0.015 C 
BRANCH   5   6
ATOM      6  C   UNL     1      20.198  29.628  29.107  1.00  0.00     0.028 C 
BRANCH   6   7
ATOM      7  C   UNL     1      19.532  29.582  30.462  1.00  0.00    -0.028 C 
ATOM      8  C   UNL     1      18.196  29.530  30.683  1.00  0.00    -0.070 CG0
ATOM      9  C   UNL     1      17.719  29.426  32.109  1.00  0.00     0.039 C 
ATOM     10  G   UNL     1      17.168  29.585  29.566  1.00  0.00     0.000 G0
ENDBRANCH   6   7
ENDBRANCH   5   6
ENDBRANCH   3   5
ENDBRANCH   1   3
BRANCH   1  11
ATOM     11  C   UNL     1      17.724  27.171  27.823  1.00  0.00     0.087 C 
BRANCH  11  12
ATOM     12  C   UNL     1      16.848  27.016  29.097  1.00  0.00     0.066 C 
BRANCH  12  13
ATOM     13  C   UNL     1      16.296  28.369  29.508  1.00  0.00     0.140 C 
ATOM     14  O   UNL     1      15.120  28.472  29.829  1.00  0.00    -0.299 OA
BRANCH  13  15
ATOM     15  C   UNL     1      17.172  29.594  29.564  1.00  0.00     0.106 CG0
ATOM     16  G   UNL     1      18.196  29.523  30.684  1.00  0.00     0.000 G0
ENDBRANCH  13  15
ENDBRANCH  12  13
BRANCH  12  17
ATOM     17  C   UNL     1      15.711  25.947  28.984  1.00  0.00    -0.006 C 
ATOM     18  C   UNL     1      15.576  25.378  27.561  1.00  0.00     0.008 C 
ATOM     19  C   UNL     1      15.956  24.783  29.963  1.00  0.00     0.008 C 
ENDBRANCH  12  17
ENDBRANCH  11  12
ENDBRANCH   1  11
TORSDOF 1
ENDMDL
MODEL 2
REMARK VINA RESULT:    -3.543      2.255      4.499
REMARK INTER + INTRA:          -5.665
REMARK INTER:                  -5.175
REMARK INTRA:                  -0.490
REMARK UNBOUND:                -0.258
REMARK SMILES CC1=CCC[C@H](C)C(=O)C[C@H](C(C)C)C(=O)C1
REMARK SMILES IDX 8 1 9 2 6 3 7 4 5 5 4 6 3 7 2 8 1 9 10 11 11 12 15 13 16 14
REMARK SMILES IDX 17 15 12 17 13 18 14 19
REMARK H PARENT
REMARK Flexibility Score: 70.00
ROOT
ATOM      1  C   UNL     1      17.008  29.935  31.228  1.00  0.00     0.136 C 
ATOM      2  O   UNL     1      16.364  29.933  32.267  1.00  0.00    -0.299 OA
ENDROOT
BRANCH   1   3
ATOM      3  C   UNL     1      16.751  31.065  30.230  1.00  0.00     0.053 C 
ATOM      4  C   UNL     1      15.242  31.306  30.046  1.00  0.00     0.016 C 
BRANCH   3   5
ATOM      5  C   UNL     1      17.522  32.399  30.450  1.00  0.00     0.015 C 
BRANCH   5   6
ATOM      6  C   UNL     1      18.840  32.568  29.652  1.00  0.00     0.028 C 
BRANCH   6   7
ATOM      7  C   UNL     1      20.044  32.161  30.470  1.00  0.00    -0.028 C 
ATOM      8  C   UNL     1      20.853  31.105  30.210  1.00  0.00    -0.070 CG0
ATOM      9  C   UNL     1      22.046  30.893  31.106  1.00  0.00     0.039 C 
ATOM     10  G   UNL     1      20.604  30.129  29.074  1.00  0.00     0.000 G0
ENDBRANCH   6   7
ENDBRANCH   5   6
ENDBRANCH   3   5
ENDBRANCH   1   3
BRANCH   1  11
ATOM     11  C   UNL     1      17.931  28.759  30.976  1.00  0.00     0.087 C 
BRANCH  11  12
ATOM     12  C   UNL     1      18.456  28.668  29.516  1.00  0.00     0.066 C 
BRANCH  12  13
ATOM     13  C   UNL     1      19.967  28.826  29.503  1.00  0.00     0.140 C 
ATOM     14  O   UNL     1      20.676  27.886  29.833  1.00  0.00    -0.299 OA
BRANCH  13  15
ATOM     15  C   UNL     1      20.621  30.110  29.060  1.00  0.00     0.106 CG0
ATOM     16  G   UNL     1      20.847  31.072  30.214  1.00  0.00     0.000 G0
ENDBRANCH  13  15
ENDBRANCH  12  13
BRANCH  12  17
ATOM     17  C   UNL     1      18.010  27.386  28.738  1.00  0.00    -0.006 C 
ATOM     18  C   UNL     1      16.536  27.025  28.992  1.00  0.00     0.008 C 
ATOM     19  C   UNL     1      18.223  27.565  27.223  1.00  0.00     0.008 C 
ENDBRANCH  12  17
ENDBRANCH  11  12
ENDBRANCH   1  11
TORSDOF 1
ENDMDL
MODEL 3
REMARK VINA RESULT:    -3.446      2.028      4.361
REMARK INTER + INTRA:          -5.516
REMARK INTER:                  -5.926
REMARK INTRA:                   0.410
REMARK UNBOUND:                -0.258
REMARK SMILES CC1=CCC[C@H](C)C(=O)C[C@H](C(C)C)C(=O)C1
REMARK SMILES IDX 8 1 9 2 6 3 7 4 5 5 4 6 3 7 2 8 1 9 10 11 11 12 15 13 16 14
REMARK SMILES IDX 17 15 12 17 13 18 14 19
REMARK H PARENT
REMARK Flexibility Score: 70.00
ROOT
ATOM      1  C   UNL     1      21.061  25.900  28.632  1.00  0.00     0.136 C 
ATOM      2  O   UNL     1      22.056  25.190  28.615  1.00  0.00    -0.299 OA
ENDROOT
BRANCH   1   3
ATOM      3  C   UNL     1      19.992  25.656  27.565  1.00  0.00     0.053 C 
ATOM      4  C   UNL     1      20.236  24.324  26.832  1.00  0.00     0.016 C 
BRANCH   3   5
ATOM      5  C   UNL     1      18.505  25.808  27.999  1.00  0.00     0.015 C 
BRANCH   5   6
ATOM      6  C   UNL     1      17.802  27.127  27.590  1.00  0.00     0.028 C 
BRANCH   6   7
ATOM      7  C   UNL     1      17.095  27.770  28.760  1.00  0.00    -0.028 C 
ATOM      8  C   UNL     1      17.459  28.928  29.362  1.00  0.00    -0.070 CG0
ATOM      9  C   UNL     1      16.590  29.447  30.479  1.00  0.00     0.039 C 
ATOM     10  G   UNL     1      18.700  29.711  28.971  1.00  0.00     0.000 G0
ENDBRANCH   6   7
ENDBRANCH   5   6
ENDBRANCH   3   5
ENDBRANCH   1   3
BRANCH   1  11
ATOM     11  C   UNL     1      21.023  27.027  29.644  1.00  0.00     0.087 C 
BRANCH  11  12
ATOM     12  C   UNL     1      21.002  28.446  29.012  1.00  0.00     0.066 C 
BRANCH  12  13
ATOM     13  C   UNL     1      19.942  29.295  29.693  1.00  0.00     0.140 C 
ATOM     14  O   UNL     1      20.111  29.664  30.847  1.00  0.00    -0.299 OA
BRANCH  13  15
ATOM     15  C   UNL     1      18.693  29.727  28.968  1.00  0.00     0.106 CG0
ATOM     16  G   UNL     1      17.478  28.911  29.373  1.00  0.00     0.000 G0
ENDBRANCH  13  15
ENDBRANCH  12  13
BRANCH  12  17
ATOM     17  C   UNL     1      22.387  29.174  28.989  1.00  0.00    -0.006 C 
ATOM     18  C   UNL     1      22.912  29.489  30.401  1.00  0.00     0.008 C 
ATOM     19  C   UNL     1      23.437  28.327  28.246  1.00  0.00     0.008 C 
ENDBRANCH  12  17
ENDBRANCH  11  12
ENDBRANCH   1  11
TORSDOF 1
ENDMDL
MODEL 4
REMARK VINA RESULT:    -3.353      2.506      4.637
REMARK INTER + INTRA:          -5.374
REMARK INTER:                  -5.145
REMARK INTRA:                  -0.229
REMARK UNBOUND:                -0.258
REMARK SMILES CC1=CCC[C@H](C)C(=O)C[C@H](C(C)C)C(=O)C1
REMARK SMILES IDX 8 1 9 2 6 3 7 4 5 5 4 6 3 7 2 8 1 9 10 11 11 12 15 13 16 14
REMARK SMILES IDX 17 15 12 17 13 18 14 19
REMARK H PARENT
REMARK Flexibility Score: 70.00
ROOT
ATOM      1  C   UNL     1      20.761  31.153  30.239  1.00  0.00     0.136 C 
ATOM      2  O   UNL     1      20.882  31.926  29.301  1.00  0.00    -0.299 OA
ENDROOT
BRANCH   1   3
ATOM      3  C   UNL     1      21.958  30.267  30.593  1.00  0.00     0.053 C 
ATOM      4  C   UNL     1      21.835  29.720  32.027  1.00  0.00     0.016 C 
BRANCH   3   5
ATOM      5  C   UNL     1      22.338  29.147  29.582  1.00  0.00     0.015 C 
BRANCH   5   6
ATOM      6  C   UNL     1      21.589  27.798  29.740  1.00  0.00     0.028 C 
BRANCH   6   7
ATOM      7  C   UNL     1      20.539  27.615  28.669  1.00  0.00    -0.028 C 
ATOM      8  C   UNL     1      19.215  27.866  28.813  1.00  0.00    -0.070 CG0
ATOM      9  C   UNL     1      18.326  27.683  27.609  1.00  0.00     0.039 C 
ATOM     10  G   UNL     1      18.592  28.307  30.127  1.00  0.00     0.000 G0
ENDBRANCH   6   7
ENDBRANCH   5   6
ENDBRANCH   3   5
ENDBRANCH   1   3
BRANCH   1  11
ATOM     11  C   UNL     1      19.402  31.067  30.905  1.00  0.00     0.087 C 
BRANCH  11  12
ATOM     12  C   UNL     1      18.219  30.909  29.910  1.00  0.00     0.066 C 
BRANCH  12  13
ATOM     13  C   UNL     1      17.667  29.496  29.989  1.00  0.00     0.140 C 
ATOM     14  O   UNL     1      16.461  29.312  29.905  1.00  0.00    -0.299 OA
BRANCH  13  15
ATOM     15  C   UNL     1      18.575  28.302  30.136  1.00  0.00     0.106 CG0
ATOM     16  G   UNL     1      19.207  27.890  28.818  1.00  0.00     0.000 G0
ENDBRANCH  13  15
ENDBRANCH  12  13
BRANCH  12  17
ATOM     17  C   UNL     1      17.084  31.974  30.067  1.00  0.00    -0.006 C 
ATOM     18  C   UNL     1      17.227  32.803  31.356  1.00  0.00     0.008 C 
ATOM     19  C   UNL     1      17.062  32.931  28.862  1.00  0.00     0.008 C 
ENDBRANCH  12  17
ENDBRANCH  11  12
ENDBRANCH   1  11
TORSDOF 1
ENDMDL
MODEL 5
REMARK VINA RESULT:    -3.340      2.885      4.995
REMARK INTER + INTRA:          -5.355
REMARK INTER:                  -5.013
REMARK INTRA:                  -0.342
REMARK UNBOUND:                -0.258
REMARK SMILES CC1=CCC[C@H](C)C(=O)C[C@H](C(C)C)C(=O)C1
REMARK SMILES IDX 8 1 9 2 6 3 7 4 5 5 4 6 3 7 2 8 1 9 10 11 11 12 15 13 16 14
REMARK SMILES IDX 17 15 12 17 13 18 14 19
REMARK H PARENT
REMARK Flexibility Score: 70.00
ROOT
ATOM      1  C   UNL     1      17.290  29.173  31.400  1.00  0.00     0.136 C 
ATOM      2  O   UNL     1      16.932  28.653  32.446  1.00  0.00    -0.299 OA
ENDROOT
BRANCH   1   3
ATOM      3  C   UNL     1      16.233  29.403  30.318  1.00  0.00     0.053 C 
ATOM      4  C   UNL     1      15.352  28.154  30.133  1.00  0.00     0.016 C 
BRANCH   3   5
ATOM      5  C   UNL     1      15.377  30.698  30.421  1.00  0.00     0.015 C 
BRANCH   5   6
ATOM      6  C   UNL     1      15.958  31.960  29.733  1.00  0.00     0.028 C 
BRANCH   6   7
ATOM      7  C   UNL     1      16.734  32.819  30.705  1.00  0.00    -0.028 C 
ATOM      8  C   UNL     1      18.049  33.130  30.605  1.00  0.00    -0.070 CG0
ATOM      9  C   UNL     1      18.635  34.056  31.640  1.00  0.00     0.039 C 
ATOM     10  G   UNL     1      18.951  32.581  29.514  1.00  0.00     0.000 G0
ENDBRANCH   6   7
ENDBRANCH   5   6
ENDBRANCH   3   5
ENDBRANCH   1   3
BRANCH   1  11
ATOM     11  C   UNL     1      18.770  29.451  31.227  1.00  0.00     0.087 C 
BRANCH  11  12
ATOM     12  C   UNL     1      19.157  29.973  29.816  1.00  0.00     0.066 C 
BRANCH  12  13
ATOM     13  C   UNL     1      19.748  31.368  29.929  1.00  0.00     0.140 C 
ATOM     14  O   UNL     1      20.887  31.510  30.351  1.00  0.00    -0.299 OA
BRANCH  13  15
ATOM     15  C   UNL     1      18.974  32.589  29.503  1.00  0.00     0.106 CG0
ATOM     16  G   UNL     1      18.070  33.116  30.604  1.00  0.00     0.000 G0
ENDBRANCH  13  15
ENDBRANCH  12  13
BRANCH  12  17
ATOM     17  C   UNL     1      20.091  29.023  28.997  1.00  0.00    -0.006 C 
ATOM     18  C   UNL     1      21.172  28.363  29.872  1.00  0.00     0.008 C 
ATOM     19  C   UNL     1      19.274  27.920  28.300  1.00  0.00     0.008 C 
ENDBRANCH  12  17
ENDBRANCH  11  12
ENDBRANCH   1  11
TORSDOF 1
ENDMDL
MODEL 6
REMARK VINA RESULT:    -3.319     11.422     13.867
REMARK INTER + INTRA:          -5.322
REMARK INTER:                  -4.988
REMARK INTRA:                  -0.334
REMARK UNBOUND:                -0.258
REMARK SMILES CC1=CCC[C@H](C)C(=O)C[C@H](C(C)C)C(=O)C1
REMARK SMILES IDX 8 1 9 2 6 3 7 4 5 5 4 6 3 7 2 8 1 9 10 11 11 12 15 13 16 14
REMARK SMILES IDX 17 15 12 17 13 18 14 19
REMARK H PARENT
REMARK Flexibility Score: 70.00
ROOT
ATOM      1  C   UNL     1      30.875  32.179  31.918  1.00  0.00     0.136 C 
ATOM      2  O   UNL     1      31.305  31.679  32.947  1.00  0.00    -0.299 OA
ENDROOT
BRANCH   1   3
ATOM      3  C   UNL     1      31.333  33.596  31.568  1.00  0.00     0.053 C 
ATOM      4  C   UNL     1      31.088  34.562  32.741  1.00  0.00     0.016 C 
BRANCH   3   5
ATOM      5  C   UNL     1      32.765  33.757  30.981  1.00  0.00     0.015 C 
BRANCH   5   6
ATOM      6  C   UNL     1      32.860  33.947  29.446  1.00  0.00     0.028 C 
BRANCH   6   7
ATOM      7  C   UNL     1      33.013  32.625  28.729  1.00  0.00    -0.028 C 
ATOM      8  C   UNL     1      32.050  32.007  28.002  1.00  0.00    -0.070 CG0
ATOM      9  C   UNL     1      32.410  30.720  27.305  1.00  0.00     0.039 C 
ATOM     10  G   UNL     1      30.636  32.544  27.872  1.00  0.00     0.000 G0
ENDBRANCH   6   7
ENDBRANCH   5   6
ENDBRANCH   3   5
ENDBRANCH   1   3
BRANCH   1  11
ATOM     11  C   UNL     1      29.846  31.390  31.134  1.00  0.00     0.087 C 
BRANCH  11  12
ATOM     12  C   UNL     1      29.132  32.209  30.023  1.00  0.00     0.066 C 
BRANCH  12  13
ATOM     13  C   UNL     1      29.617  31.753  28.657  1.00  0.00     0.140 C 
ATOM     14  O   UNL     1      29.163  30.730  28.164  1.00  0.00    -0.299 OA
BRANCH  13  15
ATOM     15  C   UNL     1      30.627  32.550  27.873  1.00  0.00     0.106 CG0
ATOM     16  G   UNL     1      32.035  31.996  28.012  1.00  0.00     0.000 G0
ENDBRANCH  13  15
ENDBRANCH  12  13
BRANCH  12  17
ATOM     17  C   UNL     1      27.569  32.202  30.104  1.00  0.00    -0.006 C 
ATOM     18  C   UNL     1      27.039  31.238  31.180  1.00  0.00     0.008 C 
ATOM     19  C   UNL     1      27.031  33.615  30.394  1.00  0.00     0.008 C 
ENDBRANCH  12  17
ENDBRANCH  11  12
ENDBRANCH   1  11
TORSDOF 1
ENDMDL
MODEL 7
REMARK VINA RESULT:    -3.260      2.639      4.183
REMARK INTER + INTRA:          -5.232
REMARK INTER:                  -5.377
REMARK INTRA:                   0.145
REMARK UNBOUND:                -0.258
REMARK SMILES CC1=CCC[C@H](C)C(=O)C[C@H](C(C)C)C(=O)C1
REMARK SMILES IDX 8 1 9 2 6 3 7 4 5 5 4 6 3 7 2 8 1 9 10 11 11 12 15 13 16 14
REMARK SMILES IDX 17 15 12 17 13 18 14 19
REMARK H PARENT
REMARK Flexibility Score: 70.00
ROOT
ATOM      1  C   UNL     1      19.303  28.391  28.306  1.00  0.00     0.136 C 
ATOM      2  O   UNL     1      18.520  28.101  27.414  1.00  0.00    -0.299 OA
ENDROOT
BRANCH   1   3
ATOM      3  C   UNL     1      20.018  27.247  29.027  1.00  0.00     0.053 C 
ATOM      4  C   UNL     1      19.411  25.886  28.643  1.00  0.00     0.016 C 
BRANCH   3   5
ATOM      5  C   UNL     1      21.572  27.222  28.957  1.00  0.00     0.015 C 
BRANCH   5   6
ATOM      6  C   UNL     1      22.275  28.598  28.823  1.00  0.00     0.028 C 
BRANCH   6   7
ATOM      7  C   UNL     1      22.830  29.073  30.146  1.00  0.00    -0.028 C 
ATOM      8  C   UNL     1      22.416  30.169  30.826  1.00  0.00    -0.070 CG0
ATOM      9  C   UNL     1      23.047  30.448  32.166  1.00  0.00     0.039 C 
ATOM     10  G   UNL     1      21.363  31.126  30.296  1.00  0.00     0.000 G0
ENDBRANCH   6   7
ENDBRANCH   5   6
ENDBRANCH   3   5
ENDBRANCH   1   3
BRANCH   1  11
ATOM     11  C   UNL     1      19.418  29.853  28.688  1.00  0.00     0.087 C 
BRANCH  11  12
ATOM     12  C   UNL     1      18.914  30.175  30.122  1.00  0.00     0.066 C 
BRANCH  12  13
ATOM     13  C   UNL     1      19.997  30.908  30.895  1.00  0.00     0.140 C 
ATOM     14  O   UNL     1      19.774  31.291  32.034  1.00  0.00    -0.299 OA
BRANCH  13  15
ATOM     15  C   UNL     1      21.362  31.148  30.302  1.00  0.00     0.106 CG0
ATOM     16  G   UNL     1      22.402  30.177  30.831  1.00  0.00     0.000 G0
ENDBRANCH  13  15
ENDBRANCH  12  13
BRANCH  12  17
ATOM     17  C   UNL     1      17.552  30.944  30.182  1.00  0.00    -0.006 C 
ATOM     18  C   UNL     1      17.550  32.207  29.302  1.00  0.00     0.008 C 
ATOM     19  C   UNL     1      16.391  30.032  29.746  1.00  0.00     0.008 C 
ENDBRANCH  12  17
ENDBRANCH  11  12
ENDBRANCH   1  11
TORSDOF 1
ENDMDL
MODEL 8
REMARK VINA RESULT:    -3.190     12.615     15.132
REMARK INTER + INTRA:          -5.125
REMARK INTER:                  -4.868
REMARK INTRA:                  -0.257
REMARK UNBOUND:                -0.258
REMARK SMILES CC1=CCC[C@H](C)C(=O)C[C@H](C(C)C)C(=O)C1
REMARK SMILES IDX 8 1 9 2 6 3 7 4 5 5 4 6 3 7 2 8 1 9 10 11 11 12 15 13 16 14
REMARK SMILES IDX 17 15 12 17 13 18 14 19
REMARK H PARENT
REMARK Flexibility Score: 70.00
ROOT
ATOM      1  C   UNL     1      29.845  32.922  28.824  1.00  0.00     0.136 C 
ATOM      2  O   UNL     1      28.916  33.481  28.261  1.00  0.00    -0.299 OA
ENDROOT
BRANCH   1   3
ATOM      3  C   UNL     1      30.046  31.428  28.559  1.00  0.00     0.053 C 
ATOM      4  C   UNL     1      28.716  30.750  28.185  1.00  0.00     0.016 C 
BRANCH   3   5
ATOM      5  C   UNL     1      31.190  31.026  27.584  1.00  0.00     0.015 C 
BRANCH   5   6
ATOM      6  C   UNL     1      32.599  30.864  28.210  1.00  0.00     0.028 C 
BRANCH   6   7
ATOM      7  C   UNL     1      33.441  32.104  28.016  1.00  0.00    -0.028 C 
ATOM      8  C   UNL     1      34.033  32.817  29.005  1.00  0.00    -0.070 CG0
ATOM      9  C   UNL     1      34.891  33.992  28.611  1.00  0.00     0.039 C 
ATOM     10  G   UNL     1      33.861  32.493  30.479  1.00  0.00     0.000 G0
ENDBRANCH   6   7
ENDBRANCH   5   6
ENDBRANCH   3   5
ENDBRANCH   1   3
BRANCH   1  11
ATOM     11  C   UNL     1      30.653  33.735  29.817  1.00  0.00     0.087 C 
BRANCH  11  12
ATOM     12  C   UNL     1      31.291  32.892  30.955  1.00  0.00     0.066 C 
BRANCH  12  13
ATOM     13  C   UNL     1      32.747  33.287  31.131  1.00  0.00     0.140 C 
ATOM     14  O   UNL     1      33.034  34.249  31.828  1.00  0.00    -0.299 OA
BRANCH  13  15
ATOM     15  C   UNL     1      33.861  32.498  30.490  1.00  0.00     0.106 CG0
ATOM     16  G   UNL     1      34.028  32.826  29.016  1.00  0.00     0.000 G0
ENDBRANCH  13  15
ENDBRANCH  12  13
BRANCH  12  17
ATOM     17  C   UNL     1      30.520  32.937  32.316  1.00  0.00    -0.006 C 
ATOM     18  C   UNL     1      29.054  33.373  32.148  1.00  0.00     0.008 C 
ATOM     19  C   UNL     1      30.553  31.562  33.008  1.00  0.00     0.008 C 
ENDBRANCH  12  17
ENDBRANCH  11  12
ENDBRANCH   1  11
TORSDOF 1
ENDMDL
MODEL 9
REMARK VINA RESULT:    -3.165      2.056      2.966
REMARK INTER + INTRA:          -5.088
REMARK INTER:                  -4.982
REMARK INTRA:                  -0.106
REMARK UNBOUND:                -0.258
REMARK SMILES CC1=CCC[C@H](C)C(=O)C[C@H](C(C)C)C(=O)C1
REMARK SMILES IDX 8 1 9 2 6 3 7 4 5 5 4 6 3 7 2 8 1 9 10 11 11 12 15 13 16 14
REMARK SMILES IDX 17 15 12 17 13 18 14 19
REMARK H PARENT
REMARK Flexibility Score: 70.00
ROOT
ATOM      1  C   UNL     1      19.155  27.281  28.392  1.00  0.00     0.136 C 
ATOM      2  O   UNL     1      18.597  26.356  27.822  1.00  0.00    -0.299 OA
ENDROOT
BRANCH   1   3
ATOM      3  C   UNL     1      20.462  26.981  29.129  1.00  0.00     0.053 C 
ATOM      4  C   UNL     1      21.037  25.618  28.702  1.00  0.00     0.016 C 
BRANCH   3   5
ATOM      5  C   UNL     1      21.553  28.090  29.124  1.00  0.00     0.015 C 
BRANCH   5   6
ATOM      6  C   UNL     1      21.822  28.793  30.480  1.00  0.00     0.028 C 
BRANCH   6   7
ATOM      7  C   UNL     1      21.991  30.285  30.311  1.00  0.00    -0.028 C 
ATOM      8  C   UNL     1      21.059  31.223  30.612  1.00  0.00    -0.070 CG0
ATOM      9  C   UNL     1      21.433  32.672  30.435  1.00  0.00     0.039 C 
ATOM     10  G   UNL     1      19.664  30.878  31.104  1.00  0.00     0.000 G0
ENDBRANCH   6   7
ENDBRANCH   5   6
ENDBRANCH   3   5
ENDBRANCH   1   3
BRANCH   1  11
ATOM     11  C   UNL     1      18.449  28.622  28.407  1.00  0.00     0.087 C 
BRANCH  11  12
ATOM     12  C   UNL     1      18.136  29.158  29.831  1.00  0.00     0.066 C 
BRANCH  12  13
ATOM     13  C   UNL     1      18.707  30.557  29.990  1.00  0.00     0.140 C 
ATOM     14  O   UNL     1      18.372  31.439  29.213  1.00  0.00    -0.299 OA
BRANCH  13  15
ATOM     15  C   UNL     1      19.660  30.897  31.107  1.00  0.00     0.106 CG0
ATOM     16  G   UNL     1      21.053  31.225  30.600  1.00  0.00     0.000 G0
ENDBRANCH  13  15
ENDBRANCH  12  13
BRANCH  12  17
ATOM     17  C   UNL     1      16.625  29.111  30.232  1.00  0.00    -0.006 C 
ATOM     18  C   UNL     1      15.809  28.156  29.343  1.00  0.00     0.008 C 
ATOM     19  C   UNL     1      16.463  28.681  31.702  1.00  0.00     0.008 C 
ENDBRANCH  12  17
ENDBRANCH  11  12
ENDBRANCH   1  11
TORSDOF 1
ENDMDL
