MODEL 1
REMARK VINA RESULT:    -4.412      0.000      0.000
REMARK INTER + INTRA:          -7.975
REMARK INTER:                  -6.991
REMARK INTRA:                  -0.984
REMARK UNBOUND:                -0.984
REMARK SMILES CCCCCCCCCCCC(=O)[O-]
REMARK SMILES IDX 7 1 8 2 9 3 10 4 11 5 12 6 13 7 14 8 6 9 5 10 4 11 3 12 2 13
REMARK SMILES IDX 1 14
REMARK H PARENT
REMARK Flexibility Score: inf
ROOT
ATOM      1  C   UNL     1      -2.259 -37.726  20.893  1.00  0.00     0.000 C 
ENDROOT
BRANCH   1   2
ATOM      2  C   UNL     1      -2.657 -36.241  20.894  1.00  0.00     0.000 C 
BRANCH   2   3
ATOM      3  C   UNL     1      -2.867 -35.686  22.313  1.00  0.00     0.000 C 
BRANCH   3   4
ATOM      4  C   UNL     1      -1.999 -34.451  22.600  1.00  0.00     0.006 C 
BRANCH   4   5
ATOM      5  C   UNL     1      -2.751 -33.370  23.386  1.00  0.00     0.053 C 
BRANCH   5   6
ATOM      6  C   UNL     1      -1.786 -32.417  24.016  1.00  0.00     0.041 C 
ATOM      7  O   UNL     1      -0.567 -32.718  24.109  1.00  0.00    -0.550 OA
ATOM      8  O   UNL     1      -2.224 -31.174  24.456  1.00  0.00    -0.550 OA
ENDBRANCH   5   6
ENDBRANCH   4   5
ENDBRANCH   3   4
ENDBRANCH   2   3
ENDBRANCH   1   2
BRANCH   1   9
ATOM      9  C   UNL     1      -0.815 -37.950  20.420  1.00  0.00     0.000 C 
BRANCH   9  10
ATOM     10  C   UNL     1       0.158 -37.942  21.605  1.00  0.00    -0.000 C 
BRANCH  10  11
ATOM     11  C   UNL     1       1.109 -36.739  21.527  1.00  0.00    -0.000 C 
BRANCH  11  12
ATOM     12  C   UNL     1       0.963 -35.943  20.216  1.00  0.00    -0.000 C 
BRANCH  12  13
ATOM     13  C   UNL     1       2.214 -35.944  19.318  1.00  0.00    -0.003 C 
ATOM     14  C   UNL     1       2.175 -37.025  18.239  1.00  0.00     0.004 C 
ENDBRANCH  12  13
ENDBRANCH  11  12
ENDBRANCH  10  11
ENDBRANCH   9  10
ENDBRANCH   1   9
TORSDOF 10
ENDMDL
MODEL 2
REMARK VINA RESULT:    -4.365     19.748     21.103
REMARK INTER + INTRA:          -7.902
REMARK INTER:                  -7.136
REMARK INTRA:                  -0.766
REMARK UNBOUND:                -0.984
REMARK SMILES CCCCCCCCCCCC(=O)[O-]
REMARK SMILES IDX 7 1 8 2 9 3 10 4 11 5 12 6 13 7 14 8 6 9 5 10 4 11 3 12 2 13
REMARK SMILES IDX 1 14
REMARK H PARENT
REMARK Flexibility Score: inf
ROOT
ATOM      1  C   UNL     1      -9.319 -20.541  32.725  1.00  0.00     0.000 C 
ENDROOT
BRANCH   1   2
ATOM      2  C   UNL     1      -8.326 -19.627  33.461  1.00  0.00     0.000 C 
BRANCH   2   3
ATOM      3  C   UNL     1      -7.318 -18.959  32.508  1.00  0.00     0.000 C 
BRANCH   3   4
ATOM      4  C   UNL     1      -6.290 -18.091  33.250  1.00  0.00     0.006 C 
BRANCH   4   5
ATOM      5  C   UNL     1      -4.857 -18.617  33.102  1.00  0.00     0.053 C 
BRANCH   5   6
ATOM      6  C   UNL     1      -4.407 -19.270  34.369  1.00  0.00     0.041 C 
ATOM      7  O   UNL     1      -5.253 -19.659  35.217  1.00  0.00    -0.550 OA
ATOM      8  O   UNL     1      -3.054 -19.494  34.594  1.00  0.00    -0.550 OA
ENDBRANCH   5   6
ENDBRANCH   4   5
ENDBRANCH   3   4
ENDBRANCH   2   3
ENDBRANCH   1   2
BRANCH   1   9
ATOM      9  C   UNL     1     -10.781 -20.138  32.963  1.00  0.00     0.000 C 
BRANCH   9  10
ATOM     10  C   UNL     1     -11.438 -19.661  31.662  1.00  0.00    -0.000 C 
BRANCH  10  11
ATOM     11  C   UNL     1     -10.843 -18.321  31.205  1.00  0.00    -0.000 C 
BRANCH  11  12
ATOM     12  C   UNL     1     -10.704 -18.218  29.674  1.00  0.00    -0.000 C 
BRANCH  12  13
ATOM     13  C   UNL     1      -9.912 -19.363  29.019  1.00  0.00    -0.003 C 
ATOM     14  C   UNL     1      -9.605 -19.111  27.543  1.00  0.00     0.004 C 
ENDBRANCH  12  13
ENDBRANCH  11  12
ENDBRANCH  10  11
ENDBRANCH   9  10
ENDBRANCH   1   9
TORSDOF 10
ENDMDL
MODEL 3
REMARK VINA RESULT:    -4.357      2.652      4.529
REMARK INTER + INTRA:          -7.889
REMARK INTER:                  -6.648
REMARK INTRA:                  -1.240
REMARK UNBOUND:                -0.984
REMARK SMILES CCCCCCCCCCCC(=O)[O-]
REMARK SMILES IDX 7 1 8 2 9 3 10 4 11 5 12 6 13 7 14 8 6 9 5 10 4 11 3 12 2 13
REMARK SMILES IDX 1 14
REMARK H PARENT
REMARK Flexibility Score: inf
ROOT
ATOM      1  C   UNL     1       2.445 -36.627  18.346  1.00  0.00     0.000 C 
ENDROOT
BRANCH   1   2
ATOM      2  C   UNL     1       1.621 -36.244  19.585  1.00  0.00     0.000 C 
BRANCH   2   3
ATOM      3  C   UNL     1       1.106 -37.472  20.356  1.00  0.00     0.000 C 
BRANCH   3   4
ATOM      4  C   UNL     1       0.019 -37.113  21.381  1.00  0.00     0.006 C 
BRANCH   4   5
ATOM      5  C   UNL     1      -0.216 -35.601  21.486  1.00  0.00     0.053 C 
BRANCH   5   6
ATOM      6  C   UNL     1      -1.674 -35.310  21.650  1.00  0.00     0.041 C 
ATOM      7  O   UNL     1      -2.525 -35.927  20.956  1.00  0.00    -0.550 OA
ATOM      8  O   UNL     1      -2.097 -34.393  22.603  1.00  0.00    -0.550 OA
ENDBRANCH   5   6
ENDBRANCH   4   5
ENDBRANCH   3   4
ENDBRANCH   2   3
ENDBRANCH   1   2
BRANCH   1   9
ATOM      9  C   UNL     1       3.930 -36.262  18.487  1.00  0.00     0.000 C 
BRANCH   9  10
ATOM     10  C   UNL     1       4.756 -37.478  18.923  1.00  0.00    -0.000 C 
BRANCH  10  11
ATOM     11  C   UNL     1       5.555 -37.173  20.198  1.00  0.00    -0.000 C 
BRANCH  11  12
ATOM     12  C   UNL     1       4.676 -37.143  21.463  1.00  0.00    -0.000 C 
BRANCH  12  13
ATOM     13  C   UNL     1       4.673 -35.799  22.214  1.00  0.00    -0.003 C 
ATOM     14  C   UNL     1       3.301 -35.431  22.777  1.00  0.00     0.004 C 
ENDBRANCH  12  13
ENDBRANCH  11  12
ENDBRANCH  10  11
ENDBRANCH   9  10
ENDBRANCH   1   9
TORSDOF 10
ENDMDL
MODEL 4
REMARK VINA RESULT:    -4.342     19.573     20.754
REMARK INTER + INTRA:          -7.864
REMARK INTER:                  -7.204
REMARK INTRA:                  -0.660
REMARK UNBOUND:                -0.984
REMARK SMILES CCCCCCCCCCCC(=O)[O-]
REMARK SMILES IDX 7 1 8 2 9 3 10 4 11 5 12 6 13 7 14 8 6 9 5 10 4 11 3 12 2 13
REMARK SMILES IDX 1 14
REMARK H PARENT
REMARK Flexibility Score: inf
ROOT
ATOM      1  C   UNL     1      -6.716 -18.796  32.427  1.00  0.00     0.000 C 
ENDROOT
BRANCH   1   2
ATOM      2  C   UNL     1      -7.061 -19.040  33.904  1.00  0.00     0.000 C 
BRANCH   2   3
ATOM      3  C   UNL     1      -6.994 -20.528  34.289  1.00  0.00     0.000 C 
BRANCH   3   4
ATOM      4  C   UNL     1      -5.607 -21.141  34.040  1.00  0.00     0.006 C 
BRANCH   4   5
ATOM      5  C   UNL     1      -4.632 -20.881  35.195  1.00  0.00     0.053 C 
BRANCH   5   6
ATOM      6  C   UNL     1      -3.445 -20.110  34.712  1.00  0.00     0.041 C 
ATOM      7  O   UNL     1      -2.302 -20.640  34.713  1.00  0.00    -0.550 OA
ATOM      8  O   UNL     1      -3.607 -18.823  34.215  1.00  0.00    -0.550 OA
ENDBRANCH   5   6
ENDBRANCH   4   5
ENDBRANCH   3   4
ENDBRANCH   2   3
ENDBRANCH   1   2
BRANCH   1   9
ATOM      9  C   UNL     1      -7.850 -18.097  31.662  1.00  0.00     0.000 C 
BRANCH   9  10
ATOM     10  C   UNL     1      -8.963 -19.089  31.305  1.00  0.00    -0.000 C 
BRANCH  10  11
ATOM     11  C   UNL     1     -10.277 -18.354  30.999  1.00  0.00    -0.000 C 
BRANCH  11  12
ATOM     12  C   UNL     1     -10.599 -18.302  29.494  1.00  0.00    -0.000 C 
BRANCH  12  13
ATOM     13  C   UNL     1      -9.988 -19.444  28.663  1.00  0.00    -0.003 C 
ATOM     14  C   UNL     1      -9.677 -19.037  27.223  1.00  0.00     0.004 C 
ENDBRANCH  12  13
ENDBRANCH  11  12
ENDBRANCH  10  11
ENDBRANCH   9  10
ENDBRANCH   1   9
TORSDOF 10
ENDMDL
MODEL 5
REMARK VINA RESULT:    -4.319     20.349     21.362
REMARK INTER + INTRA:          -7.828
REMARK INTER:                  -6.771
REMARK INTRA:                  -1.057
REMARK UNBOUND:                -0.984
REMARK SMILES CCCCCCCCCCCC(=O)[O-]
REMARK SMILES IDX 7 1 8 2 9 3 10 4 11 5 12 6 13 7 14 8 6 9 5 10 4 11 3 12 2 13
REMARK SMILES IDX 1 14
REMARK H PARENT
REMARK Flexibility Score: inf
ROOT
ATOM      1  C   UNL     1      -9.344 -18.666  29.523  1.00  0.00     0.000 C 
ENDROOT
BRANCH   1   2
ATOM      2  C   UNL     1      -8.135 -18.624  30.471  1.00  0.00     0.000 C 
BRANCH   2   3
ATOM      3  C   UNL     1      -8.471 -17.988  31.831  1.00  0.00     0.000 C 
BRANCH   3   4
ATOM      4  C   UNL     1      -7.535 -18.465  32.953  1.00  0.00     0.006 C 
BRANCH   4   5
ATOM      5  C   UNL     1      -6.124 -17.875  32.835  1.00  0.00     0.053 C 
BRANCH   5   6
ATOM      6  C   UNL     1      -5.095 -18.940  33.042  1.00  0.00     0.041 C 
ATOM      7  O   UNL     1      -5.093 -19.969  32.317  1.00  0.00    -0.550 OA
ATOM      8  O   UNL     1      -4.107 -18.774  34.005  1.00  0.00    -0.550 OA
ENDBRANCH   5   6
ENDBRANCH   4   5
ENDBRANCH   3   4
ENDBRANCH   2   3
ENDBRANCH   1   2
BRANCH   1   9
ATOM      9  C   UNL     1     -10.683 -18.690  30.275  1.00  0.00     0.000 C 
BRANCH   9  10
ATOM     10  C   UNL     1     -11.126 -20.129  30.562  1.00  0.00    -0.000 C 
BRANCH  10  11
ATOM     11  C   UNL     1     -12.170 -20.169  31.688  1.00  0.00    -0.000 C 
BRANCH  11  12
ATOM     12  C   UNL     1     -11.707 -19.438  32.962  1.00  0.00    -0.000 C 
BRANCH  12  13
ATOM     13  C   UNL     1     -11.232 -20.360  34.099  1.00  0.00    -0.003 C 
ATOM     14  C   UNL     1      -9.875 -21.005  33.819  1.00  0.00     0.004 C 
ENDBRANCH  12  13
ENDBRANCH  11  12
ENDBRANCH  10  11
ENDBRANCH   9  10
ENDBRANCH   1   9
TORSDOF 10
ENDMDL
MODEL 6
REMARK VINA RESULT:    -4.311      2.337      3.867
REMARK INTER + INTRA:          -7.816
REMARK INTER:                  -6.896
REMARK INTRA:                  -0.920
REMARK UNBOUND:                -0.984
REMARK SMILES CCCCCCCCCCCC(=O)[O-]
REMARK SMILES IDX 7 1 8 2 9 3 10 4 11 5 12 6 13 7 14 8 6 9 5 10 4 11 3 12 2 13
REMARK SMILES IDX 1 14
REMARK H PARENT
REMARK Flexibility Score: inf
ROOT
ATOM      1  C   UNL     1       2.150 -35.983  21.846  1.00  0.00     0.000 C 
ENDROOT
BRANCH   1   2
ATOM      2  C   UNL     1       1.601 -37.379  21.508  1.00  0.00     0.000 C 
BRANCH   2   3
ATOM      3  C   UNL     1       0.336 -37.322  20.635  1.00  0.00     0.000 C 
BRANCH   3   4
ATOM      4  C   UNL     1      -0.926 -36.982  21.445  1.00  0.00     0.006 C 
BRANCH   4   5
ATOM      5  C   UNL     1      -1.253 -35.484  21.426  1.00  0.00     0.053 C 
BRANCH   5   6
ATOM      6  C   UNL     1      -2.443 -35.199  22.286  1.00  0.00     0.041 C 
ATOM      7  O   UNL     1      -3.425 -35.987  22.290  1.00  0.00    -0.550 OA
ATOM      8  O   UNL     1      -2.448 -34.088  23.120  1.00  0.00    -0.550 OA
ENDBRANCH   5   6
ENDBRANCH   4   5
ENDBRANCH   3   4
ENDBRANCH   2   3
ENDBRANCH   1   2
BRANCH   1   9
ATOM      9  C   UNL     1       3.574 -35.763  21.313  1.00  0.00     0.000 C 
BRANCH   9  10
ATOM     10  C   UNL     1       4.397 -37.054  21.398  1.00  0.00    -0.000 C 
BRANCH  10  11
ATOM     11  C   UNL     1       5.372 -37.163  20.217  1.00  0.00    -0.000 C 
BRANCH  11  12
ATOM     12  C   UNL     1       4.752 -36.705  18.883  1.00  0.00    -0.000 C 
BRANCH  12  13
ATOM     13  C   UNL     1       3.734 -37.686  18.274  1.00  0.00    -0.003 C 
ATOM     14  C   UNL     1       2.509 -36.989  17.683  1.00  0.00     0.004 C 
ENDBRANCH  12  13
ENDBRANCH  11  12
ENDBRANCH  10  11
ENDBRANCH   9  10
ENDBRANCH   1   9
TORSDOF 10
ENDMDL
MODEL 7
REMARK VINA RESULT:    -4.265     20.540     21.565
REMARK INTER + INTRA:          -7.743
REMARK INTER:                  -6.403
REMARK INTRA:                  -1.340
REMARK UNBOUND:                -0.984
REMARK SMILES CCCCCCCCCCCC(=O)[O-]
REMARK SMILES IDX 7 1 8 2 9 3 10 4 11 5 12 6 13 7 14 8 6 9 5 10 4 11 3 12 2 13
REMARK SMILES IDX 1 14
REMARK H PARENT
REMARK Flexibility Score: inf
ROOT
ATOM      1  C   UNL     1      -9.798 -18.665  29.524  1.00  0.00     0.000 C 
ENDROOT
BRANCH   1   2
ATOM      2  C   UNL     1     -10.751 -18.775  30.724  1.00  0.00     0.000 C 
BRANCH   2   3
ATOM      3  C   UNL     1     -11.276 -20.206  30.933  1.00  0.00     0.000 C 
BRANCH   3   4
ATOM      4  C   UNL     1     -12.440 -20.268  31.935  1.00  0.00     0.006 C 
BRANCH   4   5
ATOM      5  C   UNL     1     -12.306 -19.232  33.059  1.00  0.00     0.053 C 
BRANCH   5   6
ATOM      6  C   UNL     1     -12.254 -19.910  34.390  1.00  0.00     0.041 C 
ATOM      7  O   UNL     1     -12.398 -21.159  34.472  1.00  0.00    -0.550 OA
ATOM      8  O   UNL     1     -11.999 -19.171  35.538  1.00  0.00    -0.550 OA
ENDBRANCH   5   6
ENDBRANCH   4   5
ENDBRANCH   3   4
ENDBRANCH   2   3
ENDBRANCH   1   2
BRANCH   1   9
ATOM      9  C   UNL     1      -8.320 -18.648  29.942  1.00  0.00     0.000 C 
BRANCH   9  10
ATOM     10  C   UNL     1      -8.170 -18.232  31.410  1.00  0.00    -0.000 C 
BRANCH  10  11
ATOM     11  C   UNL     1      -6.957 -18.918  32.055  1.00  0.00    -0.000 C 
BRANCH  11  12
ATOM     12  C   UNL     1      -7.259 -19.475  33.459  1.00  0.00    -0.000 C 
BRANCH  12  13
ATOM     13  C   UNL     1      -8.716 -19.922  33.677  1.00  0.00    -0.003 C 
ATOM     14  C   UNL     1      -8.894 -21.438  33.608  1.00  0.00     0.004 C 
ENDBRANCH  12  13
ENDBRANCH  11  12
ENDBRANCH  10  11
ENDBRANCH   9  10
ENDBRANCH   1   9
TORSDOF 10
ENDMDL
MODEL 8
REMARK VINA RESULT:    -4.213     20.172     21.087
REMARK INTER + INTRA:          -7.660
REMARK INTER:                  -6.690
REMARK INTRA:                  -0.970
REMARK UNBOUND:                -0.984
REMARK SMILES CCCCCCCCCCCC(=O)[O-]
REMARK SMILES IDX 7 1 8 2 9 3 10 4 11 5 12 6 13 7 14 8 6 9 5 10 4 11 3 12 2 13
REMARK SMILES IDX 1 14
REMARK H PARENT
REMARK Flexibility Score: inf
ROOT
ATOM      1  C   UNL     1      -7.988 -18.641  30.714  1.00  0.00     0.000 C 
ENDROOT
BRANCH   1   2
ATOM      2  C   UNL     1      -9.229 -18.851  29.832  1.00  0.00     0.000 C 
BRANCH   2   3
ATOM      3  C   UNL     1     -10.545 -18.665  30.608  1.00  0.00     0.000 C 
BRANCH   3   4
ATOM      4  C   UNL     1     -11.256 -19.997  30.894  1.00  0.00     0.006 C 
BRANCH   4   5
ATOM      5  C   UNL     1     -11.985 -19.998  32.243  1.00  0.00     0.053 C 
BRANCH   5   6
ATOM      6  C   UNL     1     -11.000 -20.008  33.368  1.00  0.00     0.041 C 
ATOM      7  O   UNL     1     -10.055 -20.840  33.376  1.00  0.00    -0.550 OA
ATOM      8  O   UNL     1     -11.097 -19.066  34.385  1.00  0.00    -0.550 OA
ENDBRANCH   5   6
ENDBRANCH   4   5
ENDBRANCH   3   4
ENDBRANCH   2   3
ENDBRANCH   1   2
BRANCH   1   9
ATOM      9  C   UNL     1      -8.322 -17.976  32.057  1.00  0.00     0.000 C 
BRANCH   9  10
ATOM     10  C   UNL     1      -7.413 -18.503  33.172  1.00  0.00    -0.000 C 
BRANCH  10  11
ATOM     11  C   UNL     1      -6.152 -19.158  32.590  1.00  0.00    -0.000 C 
BRANCH  11  12
ATOM     12  C   UNL     1      -5.502 -20.169  33.553  1.00  0.00    -0.000 C 
BRANCH  12  13
ATOM     13  C   UNL     1      -6.488 -21.128  34.245  1.00  0.00    -0.003 C 
ATOM     14  C   UNL     1      -5.845 -21.941  35.368  1.00  0.00     0.004 C 
ENDBRANCH  12  13
ENDBRANCH  11  12
ENDBRANCH  10  11
ENDBRANCH   9  10
ENDBRANCH   1   9
TORSDOF 10
ENDMDL
