MODEL 1
REMARK VINA RESULT:    -4.920      0.000      0.000
REMARK INTER + INTRA:         -11.391
REMARK INTER:                  -8.946
REMARK INTRA:                  -2.445
REMARK UNBOUND:                -2.445
REMARK SMILES CCCCCCCCCCCCCCCC(=O)[O-]
REMARK SMILES IDX 9 1 10 2 11 3 12 4 13 5 14 6 15 7 16 8 17 9 18 10 8 11 7 12
REMARK SMILES IDX 6 13 5 14 4 15 3 16 2 17 1 18
REMARK H PARENT
REMARK Flexibility Score: inf
ROOT
ATOM      1  C   UNL     1      12.781  43.170   3.711  1.00  0.00     0.000 C 
ENDROOT
BRANCH   1   2
ATOM      2  C   UNL     1      14.222  43.370   3.209  1.00  0.00     0.000 C 
BRANCH   2   3
ATOM      3  C   UNL     1      14.744  44.792   3.468  1.00  0.00     0.000 C 
BRANCH   3   4
ATOM      4  C   UNL     1      15.960  44.816   4.408  1.00  0.00     0.000 C 
BRANCH   4   5
ATOM      5  C   UNL     1      16.756  43.510   4.309  1.00  0.00     0.000 C 
BRANCH   5   6
ATOM      6  C   UNL     1      16.816  42.796   5.668  1.00  0.00     0.006 C 
BRANCH   6   7
ATOM      7  C   UNL     1      17.549  43.627   6.728  1.00  0.00     0.053 C 
BRANCH   7   8
ATOM      8  C   UNL     1      17.261  43.137   8.114  1.00  0.00     0.041 C 
ATOM      9  O   UNL     1      16.612  42.072   8.288  1.00  0.00    -0.550 OA
ATOM     10  O   UNL     1      17.679  43.876   9.214  1.00  0.00    -0.550 OA
ENDBRANCH   7   8
ENDBRANCH   6   7
ENDBRANCH   5   6
ENDBRANCH   4   5
ENDBRANCH   3   4
ENDBRANCH   2   3
ENDBRANCH   1   2
BRANCH   1  11
ATOM     11  C   UNL     1      12.726  42.487   5.089  1.00  0.00     0.000 C 
BRANCH  11  12
ATOM     12  C   UNL     1      12.364  43.461   6.221  1.00  0.00    -0.000 C 
BRANCH  12  13
ATOM     13  C   UNL     1      13.570  43.707   7.140  1.00  0.00    -0.000 C 
BRANCH  13  14
ATOM     14  C   UNL     1      13.899  45.201   7.313  1.00  0.00    -0.000 C 
BRANCH  14  15
ATOM     15  C   UNL     1      12.787  46.040   7.969  1.00  0.00    -0.000 C 
BRANCH  15  16
ATOM     16  C   UNL     1      11.973  46.854   6.952  1.00  0.00    -0.000 C 
BRANCH  16  17
ATOM     17  C   UNL     1      12.766  47.061   5.655  1.00  0.00    -0.003 C 
ATOM     18  C   UNL     1      11.915  46.735   4.431  1.00  0.00     0.004 C 
ENDBRANCH  16  17
ENDBRANCH  15  16
ENDBRANCH  14  15
ENDBRANCH  13  14
ENDBRANCH  12  13
ENDBRANCH  11  12
ENDBRANCH   1  11
TORSDOF 14
ENDMDL
MODEL 2
REMARK VINA RESULT:    -4.888      2.797      5.319
REMARK INTER + INTRA:         -11.333
REMARK INTER:                  -9.395
REMARK INTRA:                  -1.938
REMARK UNBOUND:                -2.445
REMARK SMILES CCCCCCCCCCCCCCCC(=O)[O-]
REMARK SMILES IDX 9 1 10 2 11 3 12 4 13 5 14 6 15 7 16 8 17 9 18 10 8 11 7 12
REMARK SMILES IDX 6 13 5 14 4 15 3 16 2 17 1 18
REMARK H PARENT
REMARK Flexibility Score: inf
ROOT
ATOM      1  C   UNL     1      17.676  43.761   6.031  1.00  0.00     0.000 C 
ENDROOT
BRANCH   1   2
ATOM      2  C   UNL     1      17.060  43.311   4.695  1.00  0.00     0.000 C 
BRANCH   2   3
ATOM      3  C   UNL     1      15.525  43.241   4.747  1.00  0.00     0.000 C 
BRANCH   3   4
ATOM      4  C   UNL     1      14.860  43.845   3.501  1.00  0.00     0.000 C 
BRANCH   4   5
ATOM      5  C   UNL     1      14.754  45.370   3.620  1.00  0.00     0.000 C 
BRANCH   5   6
ATOM      6  C   UNL     1      13.462  45.778   4.344  1.00  0.00     0.006 C 
BRANCH   6   7
ATOM      7  C   UNL     1      13.738  46.404   5.716  1.00  0.00     0.053 C 
BRANCH   7   8
ATOM      8  C   UNL     1      12.599  46.189   6.665  1.00  0.00     0.041 C 
ATOM      9  O   UNL     1      11.499  45.743   6.244  1.00  0.00    -0.550 OA
ATOM     10  O   UNL     1      12.742  46.513   8.008  1.00  0.00    -0.550 OA
ENDBRANCH   7   8
ENDBRANCH   6   7
ENDBRANCH   5   6
ENDBRANCH   4   5
ENDBRANCH   3   4
ENDBRANCH   2   3
ENDBRANCH   1   2
BRANCH   1  11
ATOM     11  C   UNL     1      16.783  44.761   6.785  1.00  0.00     0.000 C 
BRANCH  11  12
ATOM     12  C   UNL     1      17.161  44.897   8.268  1.00  0.00    -0.000 C 
BRANCH  12  13
ATOM     13  C   UNL     1      16.291  43.981   9.142  1.00  0.00    -0.000 C 
BRANCH  13  14
ATOM     14  C   UNL     1      15.002  43.522   8.437  1.00  0.00    -0.000 C 
BRANCH  14  15
ATOM     15  C   UNL     1      14.879  42.001   8.234  1.00  0.00    -0.000 C 
BRANCH  15  16
ATOM     16  C   UNL     1      16.222  41.268   8.371  1.00  0.00    -0.000 C 
BRANCH  16  17
ATOM     17  C   UNL     1      16.075  40.015   9.243  1.00  0.00    -0.003 C 
ATOM     18  C   UNL     1      14.619  39.783   9.634  1.00  0.00     0.004 C 
ENDBRANCH  16  17
ENDBRANCH  15  16
ENDBRANCH  14  15
ENDBRANCH  13  14
ENDBRANCH  12  13
ENDBRANCH  11  12
ENDBRANCH   1  11
TORSDOF 14
ENDMDL
MODEL 3
REMARK VINA RESULT:    -4.823      1.246      4.065
REMARK INTER + INTRA:         -11.214
REMARK INTER:                  -8.956
REMARK INTRA:                  -2.258
REMARK UNBOUND:                -2.445
REMARK SMILES CCCCCCCCCCCCCCCC(=O)[O-]
REMARK SMILES IDX 9 1 10 2 11 3 12 4 13 5 14 6 15 7 16 8 17 9 18 10 8 11 7 12
REMARK SMILES IDX 6 13 5 14 4 15 3 16 2 17 1 18
REMARK H PARENT
REMARK Flexibility Score: inf
ROOT
ATOM      1  C   UNL     1      10.702  45.810   6.732  1.00  0.00     0.000 C 
ENDROOT
BRANCH   1   2
ATOM      2  C   UNL     1      11.178  45.766   8.195  1.00  0.00     0.000 C 
BRANCH   2   3
ATOM      3  C   UNL     1      12.677  45.446   8.318  1.00  0.00     0.000 C 
BRANCH   3   4
ATOM      4  C   UNL     1      13.028  44.039   7.810  1.00  0.00     0.000 C 
BRANCH   4   5
ATOM      5  C   UNL     1      14.402  43.596   8.326  1.00  0.00     0.000 C 
BRANCH   5   6
ATOM      6  C   UNL     1      14.897  42.350   7.576  1.00  0.00     0.006 C 
BRANCH   6   7
ATOM      7  C   UNL     1      16.115  42.652   6.692  1.00  0.00     0.053 C 
BRANCH   7   8
ATOM      8  C   UNL     1      17.174  43.399   7.443  1.00  0.00     0.041 C 
ATOM      9  O   UNL     1      17.809  42.836   8.373  1.00  0.00    -0.550 OA
ATOM     10  O   UNL     1      17.436  44.728   7.137  1.00  0.00    -0.550 OA
ENDBRANCH   7   8
ENDBRANCH   6   7
ENDBRANCH   5   6
ENDBRANCH   4   5
ENDBRANCH   3   4
ENDBRANCH   2   3
ENDBRANCH   1   2
BRANCH   1  11
ATOM     11  C   UNL     1      11.340  46.963   5.938  1.00  0.00     0.000 C 
BRANCH  11  12
ATOM     12  C   UNL     1      12.261  46.471   4.811  1.00  0.00    -0.000 C 
BRANCH  12  13
ATOM     13  C   UNL     1      13.733  46.754   5.143  1.00  0.00    -0.000 C 
BRANCH  13  14
ATOM     14  C   UNL     1      14.647  45.536   4.913  1.00  0.00    -0.000 C 
BRANCH  14  15
ATOM     15  C   UNL     1      14.535  44.894   3.518  1.00  0.00    -0.000 C 
BRANCH  15  16
ATOM     16  C   UNL     1      14.326  43.373   3.574  1.00  0.00    -0.000 C 
BRANCH  16  17
ATOM     17  C   UNL     1      12.840  43.019   3.439  1.00  0.00    -0.003 C 
ATOM     18  C   UNL     1      12.343  42.252   4.661  1.00  0.00     0.004 C 
ENDBRANCH  16  17
ENDBRANCH  15  16
ENDBRANCH  14  15
ENDBRANCH  13  14
ENDBRANCH  12  13
ENDBRANCH  11  12
ENDBRANCH   1  11
TORSDOF 14
ENDMDL
MODEL 4
REMARK VINA RESULT:    -4.752      0.964      2.874
REMARK INTER + INTRA:         -11.086
REMARK INTER:                  -8.589
REMARK INTRA:                  -2.496
REMARK UNBOUND:                -2.445
REMARK SMILES CCCCCCCCCCCCCCCC(=O)[O-]
REMARK SMILES IDX 9 1 10 2 11 3 12 4 13 5 14 6 15 7 16 8 17 9 18 10 8 11 7 12
REMARK SMILES IDX 6 13 5 14 4 15 3 16 2 17 1 18
REMARK H PARENT
REMARK Flexibility Score: inf
ROOT
ATOM      1  C   UNL     1      13.487  46.912   5.288  1.00  0.00     0.000 C 
ENDROOT
BRANCH   1   2
ATOM      2  C   UNL     1      13.281  46.031   4.043  1.00  0.00     0.000 C 
BRANCH   2   3
ATOM      3  C   UNL     1      14.566  45.305   3.615  1.00  0.00     0.000 C 
BRANCH   3   4
ATOM      4  C   UNL     1      15.489  44.981   4.800  1.00  0.00     0.000 C 
BRANCH   4   5
ATOM      5  C   UNL     1      16.351  43.748   4.503  1.00  0.00     0.000 C 
BRANCH   5   6
ATOM      6  C   UNL     1      17.081  43.270   5.767  1.00  0.00     0.006 C 
BRANCH   6   7
ATOM      7  C   UNL     1      16.201  42.365   6.639  1.00  0.00     0.053 C 
BRANCH   7   8
ATOM      8  C   UNL     1      16.589  42.437   8.083  1.00  0.00     0.041 C 
ATOM      9  O   UNL     1      15.735  42.215   8.982  1.00  0.00    -0.550 OA
ATOM     10  O   UNL     1      17.887  42.782   8.438  1.00  0.00    -0.550 OA
ENDBRANCH   7   8
ENDBRANCH   6   7
ENDBRANCH   5   6
ENDBRANCH   4   5
ENDBRANCH   3   4
ENDBRANCH   2   3
ENDBRANCH   1   2
BRANCH   1  11
ATOM     11  C   UNL     1      12.165  47.251   5.997  1.00  0.00     0.000 C 
BRANCH  11  12
ATOM     12  C   UNL     1      11.880  46.332   7.195  1.00  0.00    -0.000 C 
BRANCH  12  13
ATOM     13  C   UNL     1      13.159  45.618   7.656  1.00  0.00    -0.000 C 
BRANCH  13  14
ATOM     14  C   UNL     1      13.058  44.084   7.567  1.00  0.00    -0.000 C 
BRANCH  14  15
ATOM     15  C   UNL     1      12.066  43.558   6.513  1.00  0.00    -0.000 C 
BRANCH  15  16
ATOM     16  C   UNL     1      12.728  42.643   5.472  1.00  0.00    -0.000 C 
BRANCH  16  17
ATOM     17  C   UNL     1      11.918  42.619   4.171  1.00  0.00    -0.003 C 
ATOM     18  C   UNL     1      12.800  42.258   2.979  1.00  0.00     0.004 C 
ENDBRANCH  16  17
ENDBRANCH  15  16
ENDBRANCH  14  15
ENDBRANCH  13  14
ENDBRANCH  12  13
ENDBRANCH  11  12
ENDBRANCH   1  11
TORSDOF 14
ENDMDL
MODEL 5
REMARK VINA RESULT:    -4.739      3.455      5.815
REMARK INTER + INTRA:         -11.062
REMARK INTER:                  -9.127
REMARK INTRA:                  -1.935
REMARK UNBOUND:                -2.445
REMARK SMILES CCCCCCCCCCCCCCCC(=O)[O-]
REMARK SMILES IDX 9 1 10 2 11 3 12 4 13 5 14 6 15 7 16 8 17 9 18 10 8 11 7 12
REMARK SMILES IDX 6 13 5 14 4 15 3 16 2 17 1 18
REMARK H PARENT
REMARK Flexibility Score: inf
ROOT
ATOM      1  C   UNL     1      16.708  45.086   8.399  1.00  0.00     0.000 C 
ENDROOT
BRANCH   1   2
ATOM      2  C   UNL     1      17.365  45.073   7.008  1.00  0.00     0.000 C 
BRANCH   2   3
ATOM      3  C   UNL     1      17.706  43.651   6.531  1.00  0.00     0.000 C 
BRANCH   3   4
ATOM      4  C   UNL     1      16.813  43.184   5.372  1.00  0.00     0.000 C 
BRANCH   4   5
ATOM      5  C   UNL     1      16.081  44.368   4.731  1.00  0.00     0.000 C 
BRANCH   5   6
ATOM      6  C   UNL     1      14.568  44.284   4.984  1.00  0.00     0.006 C 
BRANCH   6   7
ATOM      7  C   UNL     1      14.003  45.588   5.561  1.00  0.00     0.053 C 
BRANCH   7   8
ATOM      8  C   UNL     1      13.120  45.336   6.744  1.00  0.00     0.041 C 
ATOM      9  O   UNL     1      12.470  44.260   6.832  1.00  0.00    -0.550 OA
ATOM     10  O   UNL     1      12.989  46.302   7.733  1.00  0.00    -0.550 OA
ENDBRANCH   7   8
ENDBRANCH   6   7
ENDBRANCH   5   6
ENDBRANCH   4   5
ENDBRANCH   3   4
ENDBRANCH   2   3
ENDBRANCH   1   2
BRANCH   1  11
ATOM     11  C   UNL     1      16.520  43.673   8.977  1.00  0.00     0.000 C 
BRANCH  11  12
ATOM     12  C   UNL     1      15.046  43.246   9.037  1.00  0.00    -0.000 C 
BRANCH  12  13
ATOM     13  C   UNL     1      14.823  41.934   8.271  1.00  0.00    -0.000 C 
BRANCH  13  14
ATOM     14  C   UNL     1      15.980  40.933   8.441  1.00  0.00    -0.000 C 
BRANCH  14  15
ATOM     15  C   UNL     1      15.711  39.792   9.439  1.00  0.00    -0.000 C 
BRANCH  15  16
ATOM     16  C   UNL     1      14.220  39.442   9.561  1.00  0.00    -0.000 C 
BRANCH  16  17
ATOM     17  C   UNL     1      13.932  38.728  10.887  1.00  0.00    -0.003 C 
ATOM     18  C   UNL     1      12.760  37.760  10.748  1.00  0.00     0.004 C 
ENDBRANCH  16  17
ENDBRANCH  15  16
ENDBRANCH  14  15
ENDBRANCH  13  14
ENDBRANCH  12  13
ENDBRANCH  11  12
ENDBRANCH   1  11
TORSDOF 14
ENDMDL
MODEL 6
REMARK VINA RESULT:    -4.733      1.826      2.800
REMARK INTER + INTRA:         -11.052
REMARK INTER:                  -8.741
REMARK INTRA:                  -2.311
REMARK UNBOUND:                -2.445
REMARK SMILES CCCCCCCCCCCCCCCC(=O)[O-]
REMARK SMILES IDX 9 1 10 2 11 3 12 4 13 5 14 6 15 7 16 8 17 9 18 10 8 11 7 12
REMARK SMILES IDX 6 13 5 14 4 15 3 16 2 17 1 18
REMARK H PARENT
REMARK Flexibility Score: inf
ROOT
ATOM      1  C   UNL     1      12.981  45.585   3.969  1.00  0.00     0.000 C 
ENDROOT
BRANCH   1   2
ATOM      2  C   UNL     1      14.473  45.267   3.771  1.00  0.00     0.000 C 
BRANCH   2   3
ATOM      3  C   UNL     1      14.819  43.813   4.135  1.00  0.00     0.000 C 
BRANCH   3   4
ATOM      4  C   UNL     1      13.589  43.000   4.567  1.00  0.00     0.000 C 
BRANCH   4   5
ATOM      5  C   UNL     1      13.696  42.585   6.039  1.00  0.00     0.000 C 
BRANCH   5   6
ATOM      6  C   UNL     1      15.140  42.712   6.545  1.00  0.00     0.006 C 
BRANCH   6   7
ATOM      7  C   UNL     1      15.238  43.571   7.812  1.00  0.00     0.053 C 
BRANCH   7   8
ATOM      8  C   UNL     1      16.534  44.317   7.880  1.00  0.00     0.041 C 
ATOM      9  O   UNL     1      17.402  44.005   8.738  1.00  0.00    -0.550 OA
ATOM     10  O   UNL     1      16.771  45.379   7.016  1.00  0.00    -0.550 OA
ENDBRANCH   7   8
ENDBRANCH   6   7
ENDBRANCH   5   6
ENDBRANCH   4   5
ENDBRANCH   3   4
ENDBRANCH   2   3
ENDBRANCH   1   2
BRANCH   1  11
ATOM     11  C   UNL     1      12.748  46.708   4.994  1.00  0.00     0.000 C 
BRANCH  11  12
ATOM     12  C   UNL     1      13.493  46.469   6.316  1.00  0.00    -0.000 C 
BRANCH  12  13
ATOM     13  C   UNL     1      12.519  46.471   7.504  1.00  0.00    -0.000 C 
BRANCH  13  14
ATOM     14  C   UNL     1      11.741  45.150   7.646  1.00  0.00    -0.000 C 
BRANCH  14  15
ATOM     15  C   UNL     1      10.234  45.248   7.347  1.00  0.00    -0.000 C 
BRANCH  15  16
ATOM     16  C   UNL     1       9.612  46.567   7.832  1.00  0.00    -0.000 C 
BRANCH  16  17
ATOM     17  C   UNL     1       8.811  47.239   6.710  1.00  0.00    -0.003 C 
ATOM     18  C   UNL     1       9.618  48.351   6.047  1.00  0.00     0.004 C 
ENDBRANCH  16  17
ENDBRANCH  15  16
ENDBRANCH  14  15
ENDBRANCH  13  14
ENDBRANCH  12  13
ENDBRANCH  11  12
ENDBRANCH   1  11
TORSDOF 14
ENDMDL
MODEL 7
REMARK VINA RESULT:    -4.694      1.560      2.908
REMARK INTER + INTRA:         -10.981
REMARK INTER:                  -8.829
REMARK INTRA:                  -2.152
REMARK UNBOUND:                -2.445
REMARK SMILES CCCCCCCCCCCCCCCC(=O)[O-]
REMARK SMILES IDX 9 1 10 2 11 3 12 4 13 5 14 6 15 7 16 8 17 9 18 10 8 11 7 12
REMARK SMILES IDX 6 13 5 14 4 15 3 16 2 17 1 18
REMARK H PARENT
REMARK Flexibility Score: inf
ROOT
ATOM      1  C   UNL     1      15.066  43.838   3.822  1.00  0.00     0.000 C 
ENDROOT
BRANCH   1   2
ATOM      2  C   UNL     1      15.532  43.633   5.275  1.00  0.00     0.000 C 
BRANCH   2   3
ATOM      3  C   UNL     1      16.087  44.922   5.903  1.00  0.00     0.000 C 
BRANCH   3   4
ATOM      4  C   UNL     1      17.213  44.653   6.913  1.00  0.00     0.000 C 
BRANCH   4   5
ATOM      5  C   UNL     1      16.773  45.019   8.335  1.00  0.00     0.000 C 
BRANCH   5   6
ATOM      6  C   UNL     1      16.602  43.761   9.200  1.00  0.00     0.006 C 
BRANCH   6   7
ATOM      7  C   UNL     1      17.065  42.491   8.474  1.00  0.00     0.053 C 
BRANCH   7   8
ATOM      8  C   UNL     1      16.057  41.389   8.583  1.00  0.00     0.041 C 
ATOM      9  O   UNL     1      14.890  41.552   8.138  1.00  0.00    -0.550 OA
ATOM     10  O   UNL     1      16.395  40.196   9.208  1.00  0.00    -0.550 OA
ENDBRANCH   7   8
ENDBRANCH   6   7
ENDBRANCH   5   6
ENDBRANCH   4   5
ENDBRANCH   3   4
ENDBRANCH   2   3
ENDBRANCH   1   2
BRANCH   1  11
ATOM     11  C   UNL     1      13.594  43.442   3.614  1.00  0.00     0.000 C 
BRANCH  11  12
ATOM     12  C   UNL     1      12.619  44.351   4.377  1.00  0.00    -0.000 C 
BRANCH  12  13
ATOM     13  C   UNL     1      12.787  45.817   3.950  1.00  0.00    -0.000 C 
BRANCH  13  14
ATOM     14  C   UNL     1      13.046  46.764   5.136  1.00  0.00    -0.000 C 
BRANCH  14  15
ATOM     15  C   UNL     1      11.792  47.161   5.937  1.00  0.00    -0.000 C 
BRANCH  15  16
ATOM     16  C   UNL     1      11.698  46.448   7.294  1.00  0.00    -0.000 C 
BRANCH  16  17
ATOM     17  C   UNL     1      13.081  45.980   7.764  1.00  0.00    -0.003 C 
ATOM     18  C   UNL     1      13.011  44.587   8.384  1.00  0.00     0.004 C 
ENDBRANCH  16  17
ENDBRANCH  15  16
ENDBRANCH  14  15
ENDBRANCH  13  14
ENDBRANCH  12  13
ENDBRANCH  11  12
ENDBRANCH   1  11
TORSDOF 14
ENDMDL
MODEL 8
REMARK VINA RESULT:    -4.682      3.718      6.135
REMARK INTER + INTRA:         -10.958
REMARK INTER:                  -8.530
REMARK INTRA:                  -2.428
REMARK UNBOUND:                -2.445
REMARK SMILES CCCCCCCCCCCCCCCC(=O)[O-]
REMARK SMILES IDX 9 1 10 2 11 3 12 4 13 5 14 6 15 7 16 8 17 9 18 10 8 11 7 12
REMARK SMILES IDX 6 13 5 14 4 15 3 16 2 17 1 18
REMARK H PARENT
REMARK Flexibility Score: inf
ROOT
ATOM      1  C   UNL     1      13.596  45.773   3.995  1.00  0.00     0.000 C 
ENDROOT
BRANCH   1   2
ATOM      2  C   UNL     1      13.794  46.687   5.217  1.00  0.00     0.000 C 
BRANCH   2   3
ATOM      3  C   UNL     1      12.479  46.966   5.964  1.00  0.00     0.000 C 
BRANCH   3   4
ATOM      4  C   UNL     1      12.587  46.705   7.474  1.00  0.00     0.000 C 
BRANCH   4   5
ATOM      5  C   UNL     1      11.808  45.446   7.871  1.00  0.00     0.000 C 
BRANCH   5   6
ATOM      6  C   UNL     1      10.415  45.433   7.223  1.00  0.00     0.006 C 
BRANCH   6   7
ATOM      7  C   UNL     1       9.429  46.359   7.949  1.00  0.00     0.053 C 
BRANCH   7   8
ATOM      8  C   UNL     1       8.722  47.273   6.996  1.00  0.00     0.041 C 
ATOM      9  O   UNL     1       9.276  48.335   6.607  1.00  0.00    -0.550 OA
ATOM     10  O   UNL     1       7.438  46.968   6.564  1.00  0.00    -0.550 OA
ENDBRANCH   7   8
ENDBRANCH   6   7
ENDBRANCH   5   6
ENDBRANCH   4   5
ENDBRANCH   3   4
ENDBRANCH   2   3
ENDBRANCH   1   2
BRANCH   1  11
ATOM     11  C   UNL     1      14.874  45.006   3.618  1.00  0.00     0.000 C 
BRANCH  11  12
ATOM     12  C   UNL     1      14.741  43.490   3.825  1.00  0.00    -0.000 C 
BRANCH  12  13
ATOM     13  C   UNL     1      13.419  43.145   4.526  1.00  0.00    -0.000 C 
BRANCH  13  14
ATOM     14  C   UNL     1      13.612  42.689   5.984  1.00  0.00    -0.000 C 
BRANCH  14  15
ATOM     15  C   UNL     1      15.046  42.830   6.525  1.00  0.00    -0.000 C 
BRANCH  15  16
ATOM     16  C   UNL     1      15.226  44.056   7.433  1.00  0.00    -0.000 C 
BRANCH  16  17
ATOM     17  C   UNL     1      16.482  44.846   7.044  1.00  0.00    -0.003 C 
ATOM     18  C   UNL     1      17.518  43.943   6.381  1.00  0.00     0.004 C 
ENDBRANCH  16  17
ENDBRANCH  15  16
ENDBRANCH  14  15
ENDBRANCH  13  14
ENDBRANCH  12  13
ENDBRANCH  11  12
ENDBRANCH   1  11
TORSDOF 14
ENDMDL
MODEL 9
REMARK VINA RESULT:    -4.655      1.302      2.394
REMARK INTER + INTRA:         -10.909
REMARK INTER:                  -8.808
REMARK INTRA:                  -2.101
REMARK UNBOUND:                -2.445
REMARK SMILES CCCCCCCCCCCCCCCC(=O)[O-]
REMARK SMILES IDX 9 1 10 2 11 3 12 4 13 5 14 6 15 7 16 8 17 9 18 10 8 11 7 12
REMARK SMILES IDX 6 13 5 14 4 15 3 16 2 17 1 18
REMARK H PARENT
REMARK Flexibility Score: inf
ROOT
ATOM      1  C   UNL     1      13.708  43.741   3.650  1.00  0.00     0.000 C 
ENDROOT
BRANCH   1   2
ATOM      2  C   UNL     1      14.886  44.692   3.369  1.00  0.00     0.000 C 
BRANCH   2   3
ATOM      3  C   UNL     1      15.926  44.693   4.501  1.00  0.00     0.000 C 
BRANCH   3   4
ATOM      4  C   UNL     1      16.818  43.442   4.489  1.00  0.00     0.000 C 
BRANCH   4   5
ATOM      5  C   UNL     1      16.752  42.708   5.834  1.00  0.00     0.000 C 
BRANCH   5   6
ATOM      6  C   UNL     1      15.513  43.136   6.635  1.00  0.00     0.006 C 
BRANCH   6   7
ATOM      7  C   UNL     1      15.728  43.008   8.149  1.00  0.00     0.053 C 
BRANCH   7   8
ATOM      8  C   UNL     1      16.710  44.018   8.657  1.00  0.00     0.041 C 
ATOM      9  O   UNL     1      17.701  43.650   9.343  1.00  0.00    -0.550 OA
ATOM     10  O   UNL     1      16.514  45.369   8.402  1.00  0.00    -0.550 OA
ENDBRANCH   7   8
ENDBRANCH   6   7
ENDBRANCH   5   6
ENDBRANCH   4   5
ENDBRANCH   3   4
ENDBRANCH   2   3
ENDBRANCH   1   2
BRANCH   1  11
ATOM     11  C   UNL     1      12.528  44.451   4.334  1.00  0.00     0.000 C 
BRANCH  11  12
ATOM     12  C   UNL     1      12.549  45.973   4.130  1.00  0.00    -0.000 C 
BRANCH  12  13
ATOM     13  C   UNL     1      12.362  46.710   5.464  1.00  0.00    -0.000 C 
BRANCH  13  14
ATOM     14  C   UNL     1      13.442  46.356   6.503  1.00  0.00    -0.000 C 
BRANCH  14  15
ATOM     15  C   UNL     1      12.910  46.060   7.917  1.00  0.00    -0.000 C 
BRANCH  15  16
ATOM     16  C   UNL     1      12.309  44.652   8.048  1.00  0.00    -0.000 C 
BRANCH  16  17
ATOM     17  C   UNL     1      10.916  44.708   8.686  1.00  0.00    -0.003 C 
ATOM     18  C   UNL     1      10.113  45.892   8.152  1.00  0.00     0.004 C 
ENDBRANCH  16  17
ENDBRANCH  15  16
ENDBRANCH  14  15
ENDBRANCH  13  14
ENDBRANCH  12  13
ENDBRANCH  11  12
ENDBRANCH   1  11
TORSDOF 14
ENDMDL
