MODEL 1
REMARK VINA RESULT:    -2.640      0.000      0.000
REMARK INTER + INTRA:          -2.958
REMARK INTER:                  -2.948
REMARK INTRA:                  -0.009
REMARK UNBOUND:                -0.009
REMARK SMILES CCCC(=O)[O-]
REMARK SMILES IDX 3 1 4 2 5 3 6 4 2 5 1 6
REMARK H PARENT
REMARK Flexibility Score: inf
ROOT
ATOM      1  C   UNL     1     -37.621 -32.914  25.324  1.00  0.00     0.052 C 
ENDROOT
BRANCH   1   2
ATOM      2  C   UNL     1     -38.355 -32.822  24.022  1.00  0.00     0.041 C 
ATOM      3  O   UNL     1     -39.596 -32.607  24.009  1.00  0.00    -0.550 OA
ATOM      4  O   UNL     1     -37.664 -32.939  22.822  1.00  0.00    -0.550 OA
ENDBRANCH   1   2
BRANCH   1   5
ATOM      5  C   UNL     1     -38.028 -34.160  26.120  1.00  0.00     0.003 C 
ATOM      6  C   UNL     1     -37.739 -34.016  27.614  1.00  0.00     0.004 C 
ENDBRANCH   1   5
TORSDOF 2
ENDMDL
MODEL 2
REMARK VINA RESULT:    -2.635     12.256     13.357
REMARK INTER + INTRA:          -2.952
REMARK INTER:                  -2.938
REMARK INTRA:                  -0.014
REMARK UNBOUND:                -0.009
REMARK SMILES CCCC(=O)[O-]
REMARK SMILES IDX 3 1 4 2 5 3 6 4 2 5 1 6
REMARK H PARENT
REMARK Flexibility Score: inf
ROOT
ATOM      1  C   UNL     1     -44.969 -37.052  14.627  1.00  0.00     0.052 C 
ENDROOT
BRANCH   1   2
ATOM      2  C   UNL     1     -44.199 -38.009  15.484  1.00  0.00     0.041 C 
ATOM      3  O   UNL     1     -43.068 -38.420  15.114  1.00  0.00    -0.550 OA
ATOM      4  O   UNL     1     -44.716 -38.419  16.706  1.00  0.00    -0.550 OA
ENDBRANCH   1   2
BRANCH   1   5
ATOM      5  C   UNL     1     -44.590 -37.182  13.146  1.00  0.00     0.003 C 
ATOM      6  C   UNL     1     -44.922 -35.923  12.347  1.00  0.00     0.004 C 
ENDBRANCH   1   5
TORSDOF 2
ENDMDL
MODEL 3
REMARK VINA RESULT:    -2.602     12.468     13.301
REMARK INTER + INTRA:          -2.915
REMARK INTER:                  -2.903
REMARK INTRA:                  -0.012
REMARK UNBOUND:                -0.009
REMARK SMILES CCCC(=O)[O-]
REMARK SMILES IDX 3 1 4 2 5 3 6 4 2 5 1 6
REMARK H PARENT
REMARK Flexibility Score: inf
ROOT
ATOM      1  C   UNL     1     -43.958 -38.241  14.636  1.00  0.00     0.052 C 
ENDROOT
BRANCH   1   2
ATOM      2  C   UNL     1     -44.653 -37.939  13.344  1.00  0.00     0.041 C 
ATOM      3  O   UNL     1     -45.550 -38.710  12.913  1.00  0.00    -0.550 OA
ATOM      4  O   UNL     1     -44.333 -36.790  12.633  1.00  0.00    -0.550 OA
ENDBRANCH   1   2
BRANCH   1   5
ATOM      5  C   UNL     1     -44.515 -37.399  15.792  1.00  0.00     0.003 C 
ATOM      6  C   UNL     1     -44.846 -38.245  17.020  1.00  0.00     0.004 C 
ENDBRANCH   1   5
TORSDOF 2
ENDMDL
MODEL 4
REMARK VINA RESULT:    -2.589     11.962     13.089
REMARK INTER + INTRA:          -2.901
REMARK INTER:                  -2.863
REMARK INTRA:                  -0.039
REMARK UNBOUND:                -0.009
REMARK SMILES CCCC(=O)[O-]
REMARK SMILES IDX 3 1 4 2 5 3 6 4 2 5 1 6
REMARK H PARENT
REMARK Flexibility Score: inf
ROOT
ATOM      1  C   UNL     1     -43.843 -38.145  14.941  1.00  0.00     0.052 C 
ENDROOT
BRANCH   1   2
ATOM      2  C   UNL     1     -44.767 -38.097  16.119  1.00  0.00     0.041 C 
ATOM      3  O   UNL     1     -46.012 -38.175  15.951  1.00  0.00    -0.550 OA
ATOM      4  O   UNL     1     -44.250 -38.000  17.405  1.00  0.00    -0.550 OA
ENDBRANCH   1   2
BRANCH   1   5
ATOM      5  C   UNL     1     -44.614 -38.178  13.614  1.00  0.00     0.003 C 
ATOM      6  C   UNL     1     -44.632 -36.818  12.918  1.00  0.00     0.004 C 
ENDBRANCH   1   5
TORSDOF 2
ENDMDL
MODEL 5
REMARK VINA RESULT:    -2.554      2.773      3.771
REMARK INTER + INTRA:          -2.862
REMARK INTER:                  -2.824
REMARK INTRA:                  -0.038
REMARK UNBOUND:                -0.009
REMARK SMILES CCCC(=O)[O-]
REMARK SMILES IDX 3 1 4 2 5 3 6 4 2 5 1 6
REMARK H PARENT
REMARK Flexibility Score: inf
ROOT
ATOM      1  C   UNL     1     -38.035 -34.152  26.014  1.00  0.00     0.052 C 
ENDROOT
BRANCH   1   2
ATOM      2  C   UNL     1     -37.743 -33.543  27.351  1.00  0.00     0.041 C 
ATOM      3  O   UNL     1     -36.684 -32.886  27.529  1.00  0.00    -0.550 OA
ATOM      4  O   UNL     1     -38.656 -33.673  28.391  1.00  0.00    -0.550 OA
ENDBRANCH   1   2
BRANCH   1   5
ATOM      5  C   UNL     1     -38.509 -33.101  25.002  1.00  0.00     0.003 C 
ATOM      6  C   UNL     1     -37.453 -32.801  23.939  1.00  0.00     0.004 C 
ENDBRANCH   1   5
TORSDOF 2
ENDMDL
MODEL 6
REMARK VINA RESULT:    -2.294     11.251     12.071
REMARK INTER + INTRA:          -2.571
REMARK INTER:                  -2.552
REMARK INTRA:                  -0.019
REMARK UNBOUND:                -0.009
REMARK SMILES CCCC(=O)[O-]
REMARK SMILES IDX 3 1 4 2 5 3 6 4 2 5 1 6
REMARK H PARENT
REMARK Flexibility Score: inf
ROOT
ATOM      1  C   UNL     1     -44.849 -37.316  15.842  1.00  0.00     0.052 C 
ENDROOT
BRANCH   1   2
ATOM      2  C   UNL     1     -43.980 -37.923  14.782  1.00  0.00     0.041 C 
ATOM      3  O   UNL     1     -44.312 -37.843  13.570  1.00  0.00    -0.550 OA
ATOM      4  O   UNL     1     -42.789 -38.546  15.131  1.00  0.00    -0.550 OA
ENDBRANCH   1   2
BRANCH   1   5
ATOM      5  C   UNL     1     -44.940 -38.212  17.084  1.00  0.00     0.003 C 
ATOM      6  C   UNL     1     -44.921 -37.408  18.383  1.00  0.00     0.004 C 
ENDBRANCH   1   5
TORSDOF 2
ENDMDL
MODEL 7
REMARK VINA RESULT:    -2.217     13.661     14.286
REMARK INTER + INTRA:          -2.486
REMARK INTER:                  -2.476
REMARK INTRA:                  -0.010
REMARK UNBOUND:                -0.009
REMARK SMILES CCCC(=O)[O-]
REMARK SMILES IDX 3 1 4 2 5 3 6 4 2 5 1 6
REMARK H PARENT
REMARK Flexibility Score: inf
ROOT
ATOM      1  C   UNL     1     -44.967 -36.093  12.586  1.00  0.00     0.052 C 
ENDROOT
BRANCH   1   2
ATOM      2  C   UNL     1     -44.703 -37.320  13.403  1.00  0.00     0.041 C 
ATOM      3  O   UNL     1     -44.819 -38.462  12.885  1.00  0.00    -0.550 OA
ATOM      4  O   UNL     1     -44.297 -37.202  14.726  1.00  0.00    -0.550 OA
ENDBRANCH   1   2
BRANCH   1   5
ATOM      5  C   UNL     1     -45.928 -35.131  13.298  1.00  0.00     0.003 C 
ATOM      6  C   UNL     1     -45.781 -33.692  12.805  1.00  0.00     0.004 C 
ENDBRANCH   1   5
TORSDOF 2
ENDMDL
MODEL 8
REMARK VINA RESULT:    -2.204     11.136     11.757
REMARK INTER + INTRA:          -2.471
REMARK INTER:                  -2.465
REMARK INTRA:                  -0.006
REMARK UNBOUND:                -0.009
REMARK SMILES CCCC(=O)[O-]
REMARK SMILES IDX 3 1 4 2 5 3 6 4 2 5 1 6
REMARK H PARENT
REMARK Flexibility Score: inf
ROOT
ATOM      1  C   UNL     1     -44.837 -36.393  15.609  1.00  0.00     0.052 C 
ENDROOT
BRANCH   1   2
ATOM      2  C   UNL     1     -44.348 -37.787  15.858  1.00  0.00     0.041 C 
ATOM      3  O   UNL     1     -43.466 -38.290  15.115  1.00  0.00    -0.550 OA
ATOM      4  O   UNL     1     -44.844 -38.516  16.931  1.00  0.00    -0.550 OA
ENDBRANCH   1   2
BRANCH   1   5
ATOM      5  C   UNL     1     -44.911 -35.575  16.905  1.00  0.00     0.003 C 
ATOM      6  C   UNL     1     -44.536 -34.110  16.691  1.00  0.00     0.004 C 
ENDBRANCH   1   5
TORSDOF 2
ENDMDL
MODEL 9
REMARK VINA RESULT:    -2.181     10.298     11.402
REMARK INTER + INTRA:          -2.445
REMARK INTER:                  -2.413
REMARK INTRA:                  -0.032
REMARK UNBOUND:                -0.009
REMARK SMILES CCCC(=O)[O-]
REMARK SMILES IDX 3 1 4 2 5 3 6 4 2 5 1 6
REMARK H PARENT
REMARK Flexibility Score: inf
ROOT
ATOM      1  C   UNL     1     -45.066 -38.359  17.288  1.00  0.00     0.052 C 
ENDROOT
BRANCH   1   2
ATOM      2  C   UNL     1     -44.902 -37.181  18.198  1.00  0.00     0.041 C 
ATOM      3  O   UNL     1     -43.976 -37.164  19.051  1.00  0.00    -0.550 OA
ATOM      4  O   UNL     1     -45.750 -36.087  18.082  1.00  0.00    -0.550 OA
ENDBRANCH   1   2
BRANCH   1   5
ATOM      5  C   UNL     1     -44.932 -37.961  15.812  1.00  0.00     0.003 C 
ATOM      6  C   UNL     1     -43.533 -38.233  15.262  1.00  0.00     0.004 C 
ENDBRANCH   1   5
TORSDOF 2
ENDMDL
