MODEL 1
REMARK VINA RESULT:   -10.181      0.000      0.000
REMARK INTER + INTRA:         -14.287
REMARK INTER:                 -13.455
REMARK INTRA:                  -0.832
REMARK UNBOUND:                -0.832
REMARK SMILES C=C(CC[C@H](C)[C@@H]1CC[C@]2(C)[C@H]3CC[C@H]4C(C)(C)[C@H](O)CC[C@@]45C[C@@]35CC[C@@]12C)C(C)C
REMARK SMILES IDX 4 1 3 2 2 3 1 4 30 5 31 6 32 7 5 8 6 9 7 10 8 11 28 12 9 13
REMARK SMILES IDX 10 14 27 15 29 16 11 17 12 18 26 19 25 20 13 21 23 22 24 23
REMARK SMILES IDX 14 24 15 25 22 26 16 27 21 28 19 29 17 30 18 31 20 32
REMARK H PARENT 20 33
REMARK Flexibility Score: inf
ROOT
ATOM      1  C   UNL     1     135.311 122.628 140.114  1.00  0.00     0.008 C 
ENDROOT
BRANCH   1   2
ATOM      2  C   UNL     1     135.041 121.112 140.081  1.00  0.00     0.031 C 
BRANCH   2   3
ATOM      3  C   UNL     1     136.254 120.320 139.637  1.00  0.00    -0.075 C 
ATOM      4  C   UNL     1     137.421 120.468 140.291  1.00  0.00     0.008 C 
BRANCH   3   5
ATOM      5  C   UNL     1     136.139 119.394 138.435  1.00  0.00     0.008 C 
ATOM      6  C   UNL     1     135.347 118.126 138.779  1.00  0.00     0.012 C 
ATOM      7  C   UNL     1     137.519 119.048 137.864  1.00  0.00     0.012 C 
ENDBRANCH   3   5
ENDBRANCH   2   3
ENDBRANCH   1   2
BRANCH   1   8
ATOM      8  C   UNL     1     134.036 123.495 139.951  1.00  0.00    -0.010 C 
ATOM      9  C   UNL     1     132.754 122.641 140.110  1.00  0.00     0.008 C 
BRANCH   8  10
ATOM     10  C   UNL     1     134.125 124.437 138.694  1.00  0.00    -0.002 C 
ATOM     11  C   UNL     1     135.559 124.557 138.104  1.00  0.00     0.005 C 
ATOM     12  C   UNL     1     133.575 125.903 138.703  1.00  0.00    -0.024 C 
ATOM     13  C   UNL     1     135.716 125.996 137.582  1.00  0.00     0.008 C 
ATOM     14  C   UNL     1     134.281 126.516 137.433  1.00  0.00    -0.024 C 
ATOM     15  C   UNL     1     132.044 126.065 138.528  1.00  0.00     0.008 C 
ATOM     16  C   UNL     1     133.975 126.592 140.050  1.00  0.00     0.012 C 
ATOM     17  C   UNL     1     133.729 125.950 136.068  1.00  0.00     0.012 C 
ATOM     18  C   UNL     1     134.114 128.066 137.435  1.00  0.00     0.002 C 
ATOM     19  C   UNL     1     131.634 127.554 138.365  1.00  0.00     0.008 C 
ATOM     20  C   UNL     1     132.584 128.409 137.456  1.00  0.00    -0.020 C 
ATOM     21  C   UNL     1     134.910 128.799 136.324  1.00  0.00     0.005 C 
ATOM     22  C   UNL     1     132.295 129.919 137.354  1.00  0.00    -0.020 C 
ATOM     23  C   UNL     1     131.927 128.993 136.187  1.00  0.00     0.015 C 
ATOM     24  C   UNL     1     134.616 130.317 136.239  1.00  0.00     0.005 C 
ATOM     25  C   UNL     1     133.553 130.846 137.248  1.00  0.00     0.004 C 
ATOM     26  C   UNL     1     131.084 130.510 138.095  1.00  0.00     0.010 C 
ATOM     27  C   UNL     1     133.147 132.381 137.074  1.00  0.00    -0.006 C 
ATOM     28  C   UNL     1     130.638 131.844 137.469  1.00  0.00     0.033 C 
ATOM     29  C   UNL     1     131.682 132.493 136.532  1.00  0.00     0.120 C 
ATOM     30  C   UNL     1     133.257 133.102 138.446  1.00  0.00     0.014 C 
ATOM     31  C   UNL     1     134.088 133.150 136.106  1.00  0.00     0.014 C 
BRANCH  29  32
ATOM     32  O   UNL     1     131.316 133.838 136.329  1.00  0.00    -0.393 OA
ATOM     33  H   UNL     1     131.319 134.285 137.215  1.00  0.00     0.210 HD
ENDBRANCH  29  32
ENDBRANCH   8  10
ENDBRANCH   1   8
TORSDOF 6
ENDMDL
MODEL 2
REMARK VINA RESULT:    -9.535      3.659      4.970
REMARK INTER + INTRA:         -13.432
REMARK INTER:                 -12.359
REMARK INTRA:                  -1.073
REMARK UNBOUND:                -0.832
REMARK SMILES C=C(CC[C@H](C)[C@@H]1CC[C@]2(C)[C@H]3CC[C@H]4C(C)(C)[C@H](O)CC[C@@]45C[C@@]35CC[C@@]12C)C(C)C
REMARK SMILES IDX 4 1 3 2 2 3 1 4 30 5 31 6 32 7 5 8 6 9 7 10 8 11 28 12 9 13
REMARK SMILES IDX 10 14 27 15 29 16 11 17 12 18 26 19 25 20 13 21 23 22 24 23
REMARK SMILES IDX 14 24 15 25 22 26 16 27 21 28 19 29 17 30 18 31 20 32
REMARK H PARENT 20 33
REMARK Flexibility Score: inf
ROOT
ATOM      1  C   UNL     1     135.571 122.723 139.250  1.00  0.00     0.008 C 
ENDROOT
BRANCH   1   2
ATOM      2  C   UNL     1     136.327 121.566 139.930  1.00  0.00     0.031 C 
BRANCH   2   3
ATOM      3  C   UNL     1     135.488 120.309 140.031  1.00  0.00    -0.075 C 
ATOM      4  C   UNL     1     134.177 120.406 140.323  1.00  0.00     0.008 C 
BRANCH   3   5
ATOM      5  C   UNL     1     136.151 118.954 139.832  1.00  0.00     0.008 C 
ATOM      6  C   UNL     1     137.628 119.104 139.449  1.00  0.00     0.012 C 
ATOM      7  C   UNL     1     135.394 118.110 138.800  1.00  0.00     0.012 C 
ENDBRANCH   3   5
ENDBRANCH   2   3
ENDBRANCH   1   2
BRANCH   1   8
ATOM      8  C   UNL     1     135.354 123.954 140.168  1.00  0.00    -0.010 C 
ATOM      9  C   UNL     1     136.293 123.907 141.399  1.00  0.00     0.008 C 
BRANCH   8  10
ATOM     10  C   UNL     1     133.827 124.223 140.435  1.00  0.00    -0.002 C 
ATOM     11  C   UNL     1     132.911 123.879 139.227  1.00  0.00     0.005 C 
ATOM     12  C   UNL     1     133.296 125.601 140.957  1.00  0.00    -0.024 C 
ATOM     13  C   UNL     1     131.764 124.906 139.219  1.00  0.00     0.008 C 
ATOM     14  C   UNL     1     131.756 125.491 140.637  1.00  0.00    -0.024 C 
ATOM     15  C   UNL     1     133.455 125.870 142.475  1.00  0.00     0.008 C 
ATOM     16  C   UNL     1     134.027 126.754 140.191  1.00  0.00     0.012 C 
ATOM     17  C   UNL     1     130.992 124.460 141.554  1.00  0.00     0.012 C 
ATOM     18  C   UNL     1     131.085 126.891 140.793  1.00  0.00     0.002 C 
ATOM     19  C   UNL     1     132.733 127.175 142.910  1.00  0.00     0.008 C 
ATOM     20  C   UNL     1     131.328 127.407 142.253  1.00  0.00    -0.020 C 
ATOM     21  C   UNL     1     129.603 126.945 140.342  1.00  0.00     0.005 C 
ATOM     22  C   UNL     1     130.617 128.741 142.555  1.00  0.00    -0.020 C 
ATOM     23  C   UNL     1     130.142 127.452 143.240  1.00  0.00     0.015 C 
ATOM     24  C   UNL     1     128.905 128.295 140.643  1.00  0.00     0.005 C 
ATOM     25  C   UNL     1     129.786 129.350 141.376  1.00  0.00     0.004 C 
ATOM     26  C   UNL     1     131.279 129.753 143.505  1.00  0.00     0.010 C 
ATOM     27  C   UNL     1     129.033 130.690 141.810  1.00  0.00    -0.006 C 
ATOM     28  C   UNL     1     130.242 130.719 144.107  1.00  0.00     0.033 C 
ATOM     29  C   UNL     1     128.885 130.743 143.368  1.00  0.00     0.120 C 
ATOM     30  C   UNL     1     129.841 131.920 141.315  1.00  0.00     0.014 C 
ATOM     31  C   UNL     1     127.619 130.820 141.179  1.00  0.00     0.014 C 
BRANCH  29  32
ATOM     32  O   UNL     1     128.184 131.896 143.773  1.00  0.00    -0.393 OA
ATOM     33  H   UNL     1     128.666 132.683 143.408  1.00  0.00     0.210 HD
ENDBRANCH  29  32
ENDBRANCH   8  10
ENDBRANCH   1   8
TORSDOF 6
ENDMDL
MODEL 3
REMARK VINA RESULT:    -9.254      2.815      3.774
REMARK INTER + INTRA:         -13.061
REMARK INTER:                 -12.351
REMARK INTRA:                  -0.710
REMARK UNBOUND:                -0.832
REMARK SMILES C=C(CC[C@H](C)[C@@H]1CC[C@]2(C)[C@H]3CC[C@H]4C(C)(C)[C@H](O)CC[C@@]45C[C@@]35CC[C@@]12C)C(C)C
REMARK SMILES IDX 4 1 3 2 2 3 1 4 30 5 31 6 32 7 5 8 6 9 7 10 8 11 28 12 9 13
REMARK SMILES IDX 10 14 27 15 29 16 11 17 12 18 26 19 25 20 13 21 23 22 24 23
REMARK SMILES IDX 14 24 15 25 22 26 16 27 21 28 19 29 17 30 18 31 20 32
REMARK H PARENT 20 33
REMARK Flexibility Score: inf
ROOT
ATOM      1  C   UNL     1     136.269 121.507 139.342  1.00  0.00     0.008 C 
ENDROOT
BRANCH   1   2
ATOM      2  C   UNL     1     136.028 120.135 138.685  1.00  0.00     0.031 C 
BRANCH   2   3
ATOM      3  C   UNL     1     137.279 119.281 138.660  1.00  0.00    -0.075 C 
ATOM      4  C   UNL     1     138.093 119.261 139.731  1.00  0.00     0.008 C 
BRANCH   3   5
ATOM      5  C   UNL     1     137.609 118.483 137.406  1.00  0.00     0.008 C 
ATOM      6  C   UNL     1     136.454 118.519 136.398  1.00  0.00     0.012 C 
ATOM      7  C   UNL     1     138.000 117.041 137.750  1.00  0.00     0.012 C 
ENDBRANCH   3   5
ENDBRANCH   2   3
ENDBRANCH   1   2
BRANCH   1   8
ATOM      8  C   UNL     1     135.020 122.091 140.050  1.00  0.00    -0.010 C 
ATOM      9  C   UNL     1     133.974 120.985 140.341  1.00  0.00     0.008 C 
BRANCH   8  10
ATOM     10  C   UNL     1     134.507 123.402 139.349  1.00  0.00    -0.002 C 
ATOM     11  C   UNL     1     135.641 124.405 138.997  1.00  0.00     0.005 C 
ATOM     12  C   UNL     1     133.367 124.288 139.955  1.00  0.00    -0.024 C 
ATOM     13  C   UNL     1     135.067 125.822 139.177  1.00  0.00     0.008 C 
ATOM     14  C   UNL     1     133.545 125.631 139.149  1.00  0.00    -0.024 C 
ATOM     15  C   UNL     1     131.917 123.785 139.738  1.00  0.00     0.008 C 
ATOM     16  C   UNL     1     133.594 124.432 141.496  1.00  0.00     0.012 C 
ATOM     17  C   UNL     1     133.125 125.521 137.633  1.00  0.00     0.012 C 
ATOM     18  C   UNL     1     132.704 126.762 139.819  1.00  0.00     0.002 C 
ATOM     19  C   UNL     1     130.866 124.827 140.213  1.00  0.00     0.008 C 
ATOM     20  C   UNL     1     131.201 126.317 139.858  1.00  0.00    -0.020 C 
ATOM     21  C   UNL     1     132.930 128.172 139.216  1.00  0.00     0.005 C 
ATOM     22  C   UNL     1     130.257 127.404 140.406  1.00  0.00    -0.020 C 
ATOM     23  C   UNL     1     130.188 127.012 138.924  1.00  0.00     0.015 C 
ATOM     24  C   UNL     1     131.981 129.256 139.784  1.00  0.00     0.005 C 
ATOM     25  C   UNL     1     130.940 128.749 140.827  1.00  0.00     0.004 C 
ATOM     26  C   UNL     1     129.023 126.992 141.225  1.00  0.00     0.010 C 
ATOM     27  C   UNL     1     129.872 129.832 141.312  1.00  0.00    -0.006 C 
ATOM     28  C   UNL     1     127.947 128.094 141.214  1.00  0.00     0.033 C 
ATOM     29  C   UNL     1     128.454 129.479 140.751  1.00  0.00     0.120 C 
ATOM     30  C   UNL     1     129.833 129.858 142.865  1.00  0.00     0.014 C 
ATOM     31  C   UNL     1     130.230 131.277 140.866  1.00  0.00     0.014 C 
BRANCH  29  32
ATOM     32  O   UNL     1     127.501 130.445 141.130  1.00  0.00    -0.393 OA
ATOM     33  H   UNL     1     127.450 131.117 140.402  1.00  0.00     0.210 HD
ENDBRANCH  29  32
ENDBRANCH   8  10
ENDBRANCH   1   8
TORSDOF 6
ENDMDL
MODEL 4
REMARK VINA RESULT:    -9.107      1.684      2.298
REMARK INTER + INTRA:         -12.868
REMARK INTER:                 -11.983
REMARK INTRA:                  -0.885
REMARK UNBOUND:                -0.832
REMARK SMILES C=C(CC[C@H](C)[C@@H]1CC[C@]2(C)[C@H]3CC[C@H]4C(C)(C)[C@H](O)CC[C@@]45C[C@@]35CC[C@@]12C)C(C)C
REMARK SMILES IDX 4 1 3 2 2 3 1 4 30 5 31 6 32 7 5 8 6 9 7 10 8 11 28 12 9 13
REMARK SMILES IDX 10 14 27 15 29 16 11 17 12 18 26 19 25 20 13 21 23 22 24 23
REMARK SMILES IDX 14 24 15 25 22 26 16 27 21 28 19 29 17 30 18 31 20 32
REMARK H PARENT 20 33
REMARK Flexibility Score: inf
ROOT
ATOM      1  C   UNL     1     135.983 121.518 139.792  1.00  0.00     0.008 C 
ENDROOT
BRANCH   1   2
ATOM      2  C   UNL     1     136.034 120.094 140.375  1.00  0.00     0.031 C 
BRANCH   2   3
ATOM      3  C   UNL     1     137.171 119.276 139.797  1.00  0.00    -0.075 C 
ATOM      4  C   UNL     1     138.430 119.496 140.218  1.00  0.00     0.008 C 
BRANCH   3   5
ATOM      5  C   UNL     1     136.871 118.240 138.724  1.00  0.00     0.008 C 
ATOM      6  C   UNL     1     137.620 118.551 137.421  1.00  0.00     0.012 C 
ATOM      7  C   UNL     1     135.363 118.112 138.479  1.00  0.00     0.012 C 
ENDBRANCH   3   5
ENDBRANCH   2   3
ENDBRANCH   1   2
BRANCH   1   8
ATOM      8  C   UNL     1     134.686 122.293 140.143  1.00  0.00    -0.010 C 
ATOM      9  C   UNL     1     133.497 121.324 140.358  1.00  0.00     0.008 C 
BRANCH   8  10
ATOM     10  C   UNL     1     134.455 123.516 139.182  1.00  0.00    -0.002 C 
ATOM     11  C   UNL     1     135.769 124.110 138.600  1.00  0.00     0.005 C 
ATOM     12  C   UNL     1     133.607 124.764 139.600  1.00  0.00    -0.024 C 
ATOM     13  C   UNL     1     135.566 125.630 138.478  1.00  0.00     0.008 C 
ATOM     14  C   UNL     1     134.045 125.825 138.518  1.00  0.00    -0.024 C 
ATOM     15  C   UNL     1     132.067 124.606 139.523  1.00  0.00     0.008 C 
ATOM     16  C   UNL     1     133.971 125.162 141.069  1.00  0.00     0.012 C 
ATOM     17  C   UNL     1     133.504 125.512 137.070  1.00  0.00     0.012 C 
ATOM     18  C   UNL     1     133.550 127.242 138.941  1.00  0.00     0.002 C 
ATOM     19  C   UNL     1     131.333 125.952 139.778  1.00  0.00     0.008 C 
ATOM     20  C   UNL     1     131.991 127.205 139.101  1.00  0.00    -0.020 C 
ATOM     21  C   UNL     1     134.065 128.395 138.041  1.00  0.00     0.005 C 
ATOM     22  C   UNL     1     131.376 128.583 139.416  1.00  0.00    -0.020 C 
ATOM     23  C   UNL     1     131.111 127.923 138.056  1.00  0.00     0.015 C 
ATOM     24  C   UNL     1     133.446 129.775 138.376  1.00  0.00     0.005 C 
ATOM     25  C   UNL     1     132.390 129.771 139.523  1.00  0.00     0.004 C 
ATOM     26  C   UNL     1     130.140 128.670 140.327  1.00  0.00     0.010 C 
ATOM     27  C   UNL     1     131.651 131.163 139.779  1.00  0.00    -0.006 C 
ATOM     28  C   UNL     1     129.363 129.978 140.094  1.00  0.00     0.033 C 
ATOM     29  C   UNL     1     130.153 131.067 139.332  1.00  0.00     0.120 C 
ATOM     30  C   UNL     1     131.729 131.518 141.289  1.00  0.00     0.014 C 
ATOM     31  C   UNL     1     132.313 132.348 139.022  1.00  0.00     0.014 C 
BRANCH  29  32
ATOM     32  O   UNL     1     129.490 132.297 139.509  1.00  0.00    -0.393 OA
ATOM     33  H   UNL     1     129.142 132.579 138.623  1.00  0.00     0.210 HD
ENDBRANCH  29  32
ENDBRANCH   8  10
ENDBRANCH   1   8
TORSDOF 6
ENDMDL
MODEL 5
REMARK VINA RESULT:    -8.933      3.080      9.638
REMARK INTER + INTRA:         -12.637
REMARK INTER:                 -11.600
REMARK INTRA:                  -1.037
REMARK UNBOUND:                -0.832
REMARK SMILES C=C(CC[C@H](C)[C@@H]1CC[C@]2(C)[C@H]3CC[C@H]4C(C)(C)[C@H](O)CC[C@@]45C[C@@]35CC[C@@]12C)C(C)C
REMARK SMILES IDX 4 1 3 2 2 3 1 4 30 5 31 6 32 7 5 8 6 9 7 10 8 11 28 12 9 13
REMARK SMILES IDX 10 14 27 15 29 16 11 17 12 18 26 19 25 20 13 21 23 22 24 23
REMARK SMILES IDX 14 24 15 25 22 26 16 27 21 28 19 29 17 30 18 31 20 32
REMARK H PARENT 20 33
REMARK Flexibility Score: inf
ROOT
ATOM      1  C   UNL     1     132.543 130.411 135.875  1.00  0.00     0.008 C 
ENDROOT
BRANCH   1   2
ATOM      2  C   UNL     1     131.834 131.759 136.102  1.00  0.00     0.031 C 
BRANCH   2   3
ATOM      3  C   UNL     1     132.812 132.899 136.294  1.00  0.00    -0.075 C 
ATOM      4  C   UNL     1     134.134 132.664 136.204  1.00  0.00     0.008 C 
BRANCH   3   5
ATOM      5  C   UNL     1     132.282 134.288 136.620  1.00  0.00     0.008 C 
ATOM      6  C   UNL     1     133.124 134.969 137.706  1.00  0.00     0.012 C 
ATOM      7  C   UNL     1     130.801 134.240 137.015  1.00  0.00     0.012 C 
ENDBRANCH   3   5
ENDBRANCH   2   3
ENDBRANCH   1   2
BRANCH   1   8
ATOM      8  C   UNL     1     131.863 129.217 136.594  1.00  0.00    -0.010 C 
ATOM      9  C   UNL     1     130.372 129.517 136.890  1.00  0.00     0.008 C 
BRANCH   8  10
ATOM     10  C   UNL     1     132.739 128.672 137.781  1.00  0.00    -0.002 C 
ATOM     11  C   UNL     1     134.159 129.300 137.849  1.00  0.00     0.005 C 
ATOM     12  C   UNL     1     132.970 127.141 138.020  1.00  0.00    -0.024 C 
ATOM     13  C   UNL     1     135.119 128.203 138.343  1.00  0.00     0.008 C 
ATOM     14  C   UNL     1     134.209 127.155 138.996  1.00  0.00    -0.024 C 
ATOM     15  C   UNL     1     131.818 126.372 138.716  1.00  0.00     0.008 C 
ATOM     16  C   UNL     1     133.246 126.444 136.647  1.00  0.00     0.012 C 
ATOM     17  C   UNL     1     133.869 127.681 140.443  1.00  0.00     0.012 C 
ATOM     18  C   UNL     1     134.801 125.717 139.113  1.00  0.00     0.002 C 
ATOM     19  C   UNL     1     132.225 124.915 139.069  1.00  0.00     0.008 C 
ATOM     20  C   UNL     1     133.680 124.750 139.631  1.00  0.00    -0.020 C 
ATOM     21  C   UNL     1     136.126 125.632 139.913  1.00  0.00     0.005 C 
ATOM     22  C   UNL     1     134.181 123.316 139.887  1.00  0.00    -0.020 C 
ATOM     23  C   UNL     1     133.769 124.200 141.070  1.00  0.00     0.015 C 
ATOM     24  C   UNL     1     136.623 124.185 140.154  1.00  0.00     0.005 C 
ATOM     25  C   UNL     1     135.699 123.063 139.593  1.00  0.00     0.004 C 
ATOM     26  C   UNL     1     133.239 122.128 139.629  1.00  0.00     0.010 C 
ATOM     27  C   UNL     1     136.134 121.570 139.956  1.00  0.00    -0.006 C 
ATOM     28  C   UNL     1     133.675 120.883 140.424  1.00  0.00     0.033 C 
ATOM     29  C   UNL     1     135.119 120.945 140.972  1.00  0.00     0.120 C 
ATOM     30  C   UNL     1     136.177 120.715 138.660  1.00  0.00     0.014 C 
ATOM     31  C   UNL     1     137.558 121.489 140.574  1.00  0.00     0.014 C 
BRANCH  29  32
ATOM     32  O   UNL     1     135.506 119.642 141.342  1.00  0.00    -0.393 OA
ATOM     33  H   UNL     1     134.719 119.051 141.221  1.00  0.00     0.210 HD
ENDBRANCH  29  32
ENDBRANCH   8  10
ENDBRANCH   1   8
TORSDOF 6
ENDMDL
MODEL 6
REMARK VINA RESULT:    -8.914      4.669     10.158
REMARK INTER + INTRA:         -12.613
REMARK INTER:                 -11.079
REMARK INTRA:                  -1.534
REMARK UNBOUND:                -0.832
REMARK SMILES C=C(CC[C@H](C)[C@@H]1CC[C@]2(C)[C@H]3CC[C@H]4C(C)(C)[C@H](O)CC[C@@]45C[C@@]35CC[C@@]12C)C(C)C
REMARK SMILES IDX 4 1 3 2 2 3 1 4 30 5 31 6 32 7 5 8 6 9 7 10 8 11 28 12 9 13
REMARK SMILES IDX 10 14 27 15 29 16 11 17 12 18 26 19 25 20 13 21 23 22 24 23
REMARK SMILES IDX 14 24 15 25 22 26 16 27 21 28 19 29 17 30 18 31 20 32
REMARK H PARENT 20 33
REMARK Flexibility Score: inf
ROOT
ATOM      1  C   UNL     1     131.174 135.381 139.712  1.00  0.00     0.008 C 
ENDROOT
BRANCH   1   2
ATOM      2  C   UNL     1     132.320 135.952 138.854  1.00  0.00     0.031 C 
BRANCH   2   3
ATOM      3  C   UNL     1     133.476 134.982 138.719  1.00  0.00    -0.075 C 
ATOM      4  C   UNL     1     134.149 134.592 139.817  1.00  0.00     0.008 C 
BRANCH   3   5
ATOM      5  C   UNL     1     133.876 134.491 137.336  1.00  0.00     0.008 C 
ATOM      6  C   UNL     1     132.695 134.543 136.359  1.00  0.00     0.012 C 
ATOM      7  C   UNL     1     134.482 133.084 137.398  1.00  0.00     0.012 C 
ENDBRANCH   3   5
ENDBRANCH   2   3
ENDBRANCH   1   2
BRANCH   1   8
ATOM      8  C   UNL     1     130.188 134.484 138.921  1.00  0.00    -0.010 C 
ATOM      9  C   UNL     1     129.215 135.337 138.069  1.00  0.00     0.008 C 
BRANCH   8  10
ATOM     10  C   UNL     1     129.559 133.363 139.828  1.00  0.00    -0.002 C 
ATOM     11  C   UNL     1     129.556 133.715 141.342  1.00  0.00     0.005 C 
ATOM     12  C   UNL     1     130.031 131.871 139.768  1.00  0.00    -0.024 C 
ATOM     13  C   UNL     1     129.786 132.403 142.114  1.00  0.00     0.008 C 
ATOM     14  C   UNL     1     129.440 131.295 141.111  1.00  0.00    -0.024 C 
ATOM     15  C   UNL     1     129.478 131.021 138.595  1.00  0.00     0.008 C 
ATOM     16  C   UNL     1     131.594 131.831 139.689  1.00  0.00     0.012 C 
ATOM     17  C   UNL     1     127.869 131.159 141.104  1.00  0.00     0.012 C 
ATOM     18  C   UNL     1     130.061 129.895 141.402  1.00  0.00     0.002 C 
ATOM     19  C   UNL     1     129.858 129.522 138.738  1.00  0.00     0.008 C 
ATOM     20  C   UNL     1     129.754 128.946 140.192  1.00  0.00    -0.020 C 
ATOM     21  C   UNL     1     129.684 129.300 142.783  1.00  0.00     0.005 C 
ATOM     22  C   UNL     1     130.232 127.497 140.416  1.00  0.00    -0.020 C 
ATOM     23  C   UNL     1     128.729 127.806 140.374  1.00  0.00     0.015 C 
ATOM     24  C   UNL     1     130.180 127.848 142.997  1.00  0.00     0.005 C 
ATOM     25  C   UNL     1     130.933 127.217 141.787  1.00  0.00     0.004 C 
ATOM     26  C   UNL     1     130.740 126.675 139.220  1.00  0.00     0.010 C 
ATOM     27  C   UNL     1     131.325 125.678 141.951  1.00  0.00    -0.006 C 
ATOM     28  C   UNL     1     130.649 125.164 139.498  1.00  0.00     0.033 C 
ATOM     29  C   UNL     1     130.460 124.797 140.988  1.00  0.00     0.120 C 
ATOM     30  C   UNL     1     132.833 125.492 141.625  1.00  0.00     0.014 C 
ATOM     31  C   UNL     1     131.130 125.155 143.401  1.00  0.00     0.014 C 
BRANCH  29  32
ATOM     32  O   UNL     1     130.758 123.429 141.145  1.00  0.00    -0.393 OA
ATOM     33  H   UNL     1     131.745 123.343 141.206  1.00  0.00     0.210 HD
ENDBRANCH  29  32
ENDBRANCH   8  10
ENDBRANCH   1   8
TORSDOF 6
ENDMDL
MODEL 7
REMARK VINA RESULT:    -8.731      3.066      4.708
REMARK INTER + INTRA:         -12.370
REMARK INTER:                 -11.779
REMARK INTRA:                  -0.591
REMARK UNBOUND:                -0.832
REMARK SMILES C=C(CC[C@H](C)[C@@H]1CC[C@]2(C)[C@H]3CC[C@H]4C(C)(C)[C@H](O)CC[C@@]45C[C@@]35CC[C@@]12C)C(C)C
REMARK SMILES IDX 4 1 3 2 2 3 1 4 30 5 31 6 32 7 5 8 6 9 7 10 8 11 28 12 9 13
REMARK SMILES IDX 10 14 27 15 29 16 11 17 12 18 26 19 25 20 13 21 23 22 24 23
REMARK SMILES IDX 14 24 15 25 22 26 16 27 21 28 19 29 17 30 18 31 20 32
REMARK H PARENT 20 33
REMARK Flexibility Score: inf
ROOT
ATOM      1  C   UNL     1     133.826 122.249 139.993  1.00  0.00     0.008 C 
ENDROOT
BRANCH   1   2
ATOM      2  C   UNL     1     135.247 121.682 140.171  1.00  0.00     0.031 C 
BRANCH   2   3
ATOM      3  C   UNL     1     135.440 120.370 139.438  1.00  0.00    -0.075 C 
ATOM      4  C   UNL     1     134.567 119.365 139.632  1.00  0.00     0.008 C 
BRANCH   3   5
ATOM      5  C   UNL     1     136.640 120.202 138.518  1.00  0.00     0.008 C 
ATOM      6  C   UNL     1     136.350 119.195 137.397  1.00  0.00     0.012 C 
ATOM      7  C   UNL     1     137.895 119.807 139.306  1.00  0.00     0.012 C 
ENDBRANCH   3   5
ENDBRANCH   2   3
ENDBRANCH   1   2
BRANCH   1   8
ATOM      8  C   UNL     1     133.786 123.787 139.801  1.00  0.00    -0.010 C 
ATOM      9  C   UNL     1     135.195 124.409 139.962  1.00  0.00     0.008 C 
BRANCH   8  10
ATOM     10  C   UNL     1     132.609 124.447 140.610  1.00  0.00    -0.002 C 
ATOM     11  C   UNL     1     131.233 123.762 140.381  1.00  0.00     0.005 C 
ATOM     12  C   UNL     1     132.305 125.982 140.547  1.00  0.00    -0.024 C 
ATOM     13  C   UNL     1     130.162 124.867 140.426  1.00  0.00     0.008 C 
ATOM     14  C   UNL     1     130.844 126.042 141.139  1.00  0.00    -0.024 C 
ATOM     15  C   UNL     1     133.210 126.900 141.408  1.00  0.00     0.008 C 
ATOM     16  C   UNL     1     132.413 126.466 139.063  1.00  0.00     0.012 C 
ATOM     17  C   UNL     1     130.775 125.742 142.685  1.00  0.00     0.012 C 
ATOM     18  C   UNL     1     130.227 127.450 140.875  1.00  0.00     0.002 C 
ATOM     19  C   UNL     1     132.706 128.369 141.416  1.00  0.00     0.008 C 
ATOM     20  C   UNL     1     131.151 128.535 141.529  1.00  0.00    -0.020 C 
ATOM     21  C   UNL     1     128.731 127.577 141.262  1.00  0.00     0.005 C 
ATOM     22  C   UNL     1     130.583 129.964 141.423  1.00  0.00    -0.020 C 
ATOM     23  C   UNL     1     130.661 129.276 142.792  1.00  0.00     0.015 C 
ATOM     24  C   UNL     1     128.172 129.017 141.141  1.00  0.00     0.005 C 
ATOM     25  C   UNL     1     129.204 130.096 140.692  1.00  0.00     0.004 C 
ATOM     26  C   UNL     1     131.546 131.151 141.258  1.00  0.00     0.010 C 
ATOM     27  C   UNL     1     128.669 131.600 140.697  1.00  0.00    -0.006 C 
ATOM     28  C   UNL     1     130.894 132.471 141.710  1.00  0.00     0.033 C 
ATOM     29  C   UNL     1     129.356 132.412 141.846  1.00  0.00     0.120 C 
ATOM     30  C   UNL     1     128.978 132.262 139.326  1.00  0.00     0.014 C 
ATOM     31  C   UNL     1     127.129 131.693 140.884  1.00  0.00     0.014 C 
BRANCH  29  32
ATOM     32  O   UNL     1     128.867 133.732 141.899  1.00  0.00    -0.393 OA
ATOM     33  H   UNL     1     129.611 134.314 142.205  1.00  0.00     0.210 HD
ENDBRANCH  29  32
ENDBRANCH   8  10
ENDBRANCH   1   8
TORSDOF 6
ENDMDL
MODEL 8
REMARK VINA RESULT:    -8.612      3.931      9.913
REMARK INTER + INTRA:         -12.213
REMARK INTER:                 -10.390
REMARK INTRA:                  -1.823
REMARK UNBOUND:                -0.832
REMARK SMILES C=C(CC[C@H](C)[C@@H]1CC[C@]2(C)[C@H]3CC[C@H]4C(C)(C)[C@H](O)CC[C@@]45C[C@@]35CC[C@@]12C)C(C)C
REMARK SMILES IDX 4 1 3 2 2 3 1 4 30 5 31 6 32 7 5 8 6 9 7 10 8 11 28 12 9 13
REMARK SMILES IDX 10 14 27 15 29 16 11 17 12 18 26 19 25 20 13 21 23 22 24 23
REMARK SMILES IDX 14 24 15 25 22 26 16 27 21 28 19 29 17 30 18 31 20 32
REMARK H PARENT 20 33
REMARK Flexibility Score: inf
ROOT
ATOM      1  C   UNL     1     128.632 133.657 141.208  1.00  0.00     0.008 C 
ENDROOT
BRANCH   1   2
ATOM      2  C   UNL     1     129.015 134.567 140.026  1.00  0.00     0.031 C 
BRANCH   2   3
ATOM      3  C   UNL     1     130.133 133.982 139.188  1.00  0.00    -0.075 C 
ATOM      4  C   UNL     1     131.396 134.004 139.655  1.00  0.00     0.008 C 
BRANCH   3   5
ATOM      5  C   UNL     1     129.813 133.409 137.815  1.00  0.00     0.008 C 
ATOM      6  C   UNL     1     130.860 133.827 136.775  1.00  0.00     0.012 C 
ATOM      7  C   UNL     1     128.400 133.797 137.366  1.00  0.00     0.012 C 
ENDBRANCH   3   5
ENDBRANCH   2   3
ENDBRANCH   1   2
BRANCH   1   8
ATOM      8  C   UNL     1     128.280 132.205 140.793  1.00  0.00    -0.010 C 
ATOM      9  C   UNL     1     126.747 131.999 140.720  1.00  0.00     0.008 C 
BRANCH   8  10
ATOM     10  C   UNL     1     129.113 131.146 141.604  1.00  0.00    -0.002 C 
ATOM     11  C   UNL     1     130.334 131.751 142.352  1.00  0.00     0.005 C 
ATOM     12  C   UNL     1     129.658 129.829 140.954  1.00  0.00    -0.024 C 
ATOM     13  C   UNL     1     131.454 130.696 142.321  1.00  0.00     0.008 C 
ATOM     14  C   UNL     1     130.738 129.376 142.010  1.00  0.00    -0.024 C 
ATOM     15  C   UNL     1     128.639 128.674 140.782  1.00  0.00     0.008 C 
ATOM     16  C   UNL     1     130.244 130.160 139.541  1.00  0.00     0.012 C 
ATOM     17  C   UNL     1     130.120 128.859 143.365  1.00  0.00     0.012 C 
ATOM     18  C   UNL     1     131.626 128.246 141.402  1.00  0.00     0.002 C 
ATOM     19  C   UNL     1     129.324 127.364 140.304  1.00  0.00     0.008 C 
ATOM     20  C   UNL     1     130.702 127.050 140.983  1.00  0.00    -0.020 C 
ATOM     21  C   UNL     1     132.832 127.834 142.284  1.00  0.00     0.005 C 
ATOM     22  C   UNL     1     131.485 125.827 140.465  1.00  0.00    -0.020 C 
ATOM     23  C   UNL     1     130.745 125.745 141.807  1.00  0.00     0.015 C 
ATOM     24  C   UNL     1     133.614 126.611 141.745  1.00  0.00     0.005 C 
ATOM     25  C   UNL     1     133.043 125.978 140.440  1.00  0.00     0.004 C 
ATOM     26  C   UNL     1     130.876 124.955 139.354  1.00  0.00     0.010 C 
ATOM     27  C   UNL     1     133.763 124.637 139.956  1.00  0.00    -0.006 C 
ATOM     28  C   UNL     1     131.488 123.542 139.351  1.00  0.00     0.033 C 
ATOM     29  C   UNL     1     132.805 123.413 140.149  1.00  0.00     0.120 C 
ATOM     30  C   UNL     1     134.151 124.772 138.458  1.00  0.00     0.014 C 
ATOM     31  C   UNL     1     135.085 124.351 140.721  1.00  0.00     0.014 C 
BRANCH  29  32
ATOM     32  O   UNL     1     133.434 122.211 139.770  1.00  0.00    -0.393 OA
ATOM     33  H   UNL     1     132.972 121.470 140.241  1.00  0.00     0.210 HD
ENDBRANCH  29  32
ENDBRANCH   8  10
ENDBRANCH   1   8
TORSDOF 6
ENDMDL
MODEL 9
REMARK VINA RESULT:    -8.597      3.208      9.803
REMARK INTER + INTRA:         -12.193
REMARK INTER:                 -10.510
REMARK INTRA:                  -1.683
REMARK UNBOUND:                -0.832
REMARK SMILES C=C(CC[C@H](C)[C@@H]1CC[C@]2(C)[C@H]3CC[C@H]4C(C)(C)[C@H](O)CC[C@@]45C[C@@]35CC[C@@]12C)C(C)C
REMARK SMILES IDX 4 1 3 2 2 3 1 4 30 5 31 6 32 7 5 8 6 9 7 10 8 11 28 12 9 13
REMARK SMILES IDX 10 14 27 15 29 16 11 17 12 18 26 19 25 20 13 21 23 22 24 23
REMARK SMILES IDX 14 24 15 25 22 26 16 27 21 28 19 29 17 30 18 31 20 32
REMARK H PARENT 20 33
REMARK Flexibility Score: inf
ROOT
ATOM      1  C   UNL     1     130.685 134.602 137.415  1.00  0.00     0.008 C 
ENDROOT
BRANCH   1   2
ATOM      2  C   UNL     1     130.830 135.261 138.800  1.00  0.00     0.031 C 
BRANCH   2   3
ATOM      3  C   UNL     1     129.552 135.188 139.609  1.00  0.00    -0.075 C 
ATOM      4  C   UNL     1     128.562 136.069 139.372  1.00  0.00     0.008 C 
BRANCH   3   5
ATOM      5  C   UNL     1     129.423 134.137 140.702  1.00  0.00     0.008 C 
ATOM      6  C   UNL     1     130.744 133.388 140.918  1.00  0.00     0.012 C 
ATOM      7  C   UNL     1     128.276 133.164 140.407  1.00  0.00     0.012 C 
ENDBRANCH   3   5
ENDBRANCH   2   3
ENDBRANCH   1   2
BRANCH   1   8
ATOM      8  C   UNL     1     131.874 133.684 137.031  1.00  0.00    -0.010 C 
ATOM      9  C   UNL     1     132.703 134.296 135.875  1.00  0.00     0.008 C 
BRANCH   8  10
ATOM     10  C   UNL     1     131.430 132.182 136.885  1.00  0.00    -0.002 C 
ATOM     11  C   UNL     1     130.029 131.883 137.488  1.00  0.00     0.005 C 
ATOM     12  C   UNL     1     132.329 130.990 137.359  1.00  0.00    -0.024 C 
ATOM     13  C   UNL     1     130.080 130.462 138.076  1.00  0.00     0.008 C 
ATOM     14  C   UNL     1     131.291 129.804 137.400  1.00  0.00    -0.024 C 
ATOM     15  C   UNL     1     133.488 130.583 136.414  1.00  0.00     0.008 C 
ATOM     16  C   UNL     1     132.952 131.342 138.751  1.00  0.00     0.012 C 
ATOM     17  C   UNL     1     130.816 129.329 135.973  1.00  0.00     0.012 C 
ATOM     18  C   UNL     1     131.912 128.587 138.151  1.00  0.00     0.002 C 
ATOM     19  C   UNL     1     134.193 129.283 136.889  1.00  0.00     0.008 C 
ATOM     20  C   UNL     1     133.232 128.163 137.418  1.00  0.00    -0.020 C 
ATOM     21  C   UNL     1     130.926 127.418 138.404  1.00  0.00     0.005 C 
ATOM     22  C   UNL     1     133.880 126.897 138.013  1.00  0.00    -0.020 C 
ATOM     23  C   UNL     1     133.253 126.846 136.614  1.00  0.00     0.015 C 
ATOM     24  C   UNL     1     131.590 126.157 139.011  1.00  0.00     0.005 C 
ATOM     25  C   UNL     1     133.130 126.256 139.229  1.00  0.00     0.004 C 
ATOM     26  C   UNL     1     135.412 126.766 138.023  1.00  0.00     0.010 C 
ATOM     27  C   UNL     1     133.840 124.915 139.725  1.00  0.00    -0.006 C 
ATOM     28  C   UNL     1     135.849 125.293 138.125  1.00  0.00     0.033 C 
ATOM     29  C   UNL     1     134.734 124.325 138.583  1.00  0.00     0.120 C 
ATOM     30  C   UNL     1     134.714 125.224 140.972  1.00  0.00     0.014 C 
ATOM     31  C   UNL     1     132.827 123.823 140.168  1.00  0.00     0.014 C 
BRANCH  29  32
ATOM     32  O   UNL     1     135.338 123.116 138.983  1.00  0.00    -0.393 OA
ATOM     33  H   UNL     1     134.624 122.534 139.354  1.00  0.00     0.210 HD
ENDBRANCH  29  32
ENDBRANCH   8  10
ENDBRANCH   1   8
TORSDOF 6
ENDMDL
