MODEL 1
REMARK VINA RESULT:    -3.519      0.000      0.000
REMARK INTER + INTRA:         -11.609
REMARK INTER:                  -8.045
REMARK INTRA:                  -3.563
REMARK UNBOUND:                -3.563
REMARK SMILES CCCCCCCCCCCCCCCCCCCCCCCC(=O)[O-]
REMARK SMILES IDX 13 1 14 2 15 3 16 4 17 5 18 6 19 7 20 8 21 9 22 10 23 11
REMARK SMILES IDX 24 12 25 13 26 14 12 15 11 16 10 17 9 18 8 19 7 20 6 21 5 22
REMARK SMILES IDX 4 23 3 24 2 25 1 26
REMARK H PARENT
REMARK Flexibility Score: inf
ROOT
ATOM      1  C   UNL     1      21.620  24.191  17.355  1.00  0.00     0.000 C 
ENDROOT
BRANCH   1   2
ATOM      2  C   UNL     1      21.536  23.029  18.356  1.00  0.00     0.000 C 
BRANCH   2   3
ATOM      3  C   UNL     1      21.547  21.655  17.668  1.00  0.00     0.000 C 
BRANCH   3   4
ATOM      4  C   UNL     1      22.955  21.042  17.594  1.00  0.00     0.000 C 
BRANCH   4   5
ATOM      5  C   UNL     1      23.841  21.468  18.783  1.00  0.00     0.000 C 
BRANCH   5   6
ATOM      6  C   UNL     1      25.343  21.514  18.451  1.00  0.00     0.000 C 
BRANCH   6   7
ATOM      7  C   UNL     1      25.826  22.924  18.069  1.00  0.00     0.000 C 
BRANCH   7   8
ATOM      8  C   UNL     1      26.117  23.061  16.566  1.00  0.00     0.000 C 
BRANCH   8   9
ATOM      9  C   UNL     1      24.988  23.780  15.804  1.00  0.00     0.000 C 
BRANCH   9  10
ATOM     10  C   UNL     1      25.081  23.598  14.278  1.00  0.00     0.006 C 
BRANCH  10  11
ATOM     11  C   UNL     1      24.202  22.459  13.732  1.00  0.00     0.053 C 
BRANCH  11  12
ATOM     12  C   UNL     1      22.771  22.869  13.557  1.00  0.00     0.041 C 
ATOM     13  O   UNL     1      22.466  23.758  12.718  1.00  0.00    -0.550 OA
ATOM     14  O   UNL     1      21.778  22.298  14.344  1.00  0.00    -0.550 OA
ENDBRANCH  11  12
ENDBRANCH  10  11
ENDBRANCH   9  10
ENDBRANCH   8   9
ENDBRANCH   7   8
ENDBRANCH   6   7
ENDBRANCH   5   6
ENDBRANCH   4   5
ENDBRANCH   3   4
ENDBRANCH   2   3
ENDBRANCH   1   2
BRANCH   1  15
ATOM     15  C   UNL     1      22.406  25.370  17.941  1.00  0.00     0.000 C 
BRANCH  15  16
ATOM     16  C   UNL     1      21.865  25.755  19.326  1.00  0.00     0.000 C 
BRANCH  16  17
ATOM     17  C   UNL     1      21.311  27.191  19.372  1.00  0.00     0.000 C 
BRANCH  17  18
ATOM     18  C   UNL     1      21.588  27.951  20.684  1.00  0.00    -0.000 C 
BRANCH  18  19
ATOM     19  C   UNL     1      21.909  29.450  20.518  1.00  0.00    -0.000 C 
BRANCH  19  20
ATOM     20  C   UNL     1      22.336  29.878  19.101  1.00  0.00    -0.000 C 
BRANCH  20  21
ATOM     21  C   UNL     1      23.838  29.677  18.842  1.00  0.00    -0.000 C 
BRANCH  21  22
ATOM     22  C   UNL     1      24.698  29.898  20.100  1.00  0.00    -0.000 C 
BRANCH  22  23
ATOM     23  C   UNL     1      25.712  28.781  20.406  1.00  0.00    -0.000 C 
BRANCH  23  24
ATOM     24  C   UNL     1      25.056  27.400  20.557  1.00  0.00    -0.000 C 
BRANCH  24  25
ATOM     25  C   UNL     1      25.623  26.408  19.533  1.00  0.00    -0.003 C 
ATOM     26  C   UNL     1      26.534  27.112  18.531  1.00  0.00     0.004 C 
ENDBRANCH  24  25
ENDBRANCH  23  24
ENDBRANCH  22  23
ENDBRANCH  21  22
ENDBRANCH  20  21
ENDBRANCH  19  20
ENDBRANCH  18  19
ENDBRANCH  17  18
ENDBRANCH  16  17
ENDBRANCH  15  16
ENDBRANCH   1  15
TORSDOF 22
ENDMDL
MODEL 2
REMARK VINA RESULT:    -3.503      2.264      3.684
REMARK INTER + INTRA:         -11.571
REMARK INTER:                  -7.798
REMARK INTRA:                  -3.774
REMARK UNBOUND:                -3.563
REMARK SMILES CCCCCCCCCCCCCCCCCCCCCCCC(=O)[O-]
REMARK SMILES IDX 13 1 14 2 15 3 16 4 17 5 18 6 19 7 20 8 21 9 22 10 23 11
REMARK SMILES IDX 24 12 25 13 26 14 12 15 11 16 10 17 9 18 8 19 7 20 6 21 5 22
REMARK SMILES IDX 4 23 3 24 2 25 1 26
REMARK H PARENT
REMARK Flexibility Score: inf
ROOT
ATOM      1  C   UNL     1      21.182  21.775  17.584  1.00  0.00     0.000 C 
ENDROOT
BRANCH   1   2
ATOM      2  C   UNL     1      21.538  21.530  16.111  1.00  0.00     0.000 C 
BRANCH   2   3
ATOM      3  C   UNL     1      21.820  22.833  15.347  1.00  0.00     0.000 C 
BRANCH   3   4
ATOM      4  C   UNL     1      22.071  22.598  13.848  1.00  0.00     0.000 C 
BRANCH   4   5
ATOM      5  C   UNL     1      23.412  23.200  13.378  1.00  0.00     0.000 C 
BRANCH   5   6
ATOM      6  C   UNL     1      24.548  22.168  13.265  1.00  0.00     0.000 C 
BRANCH   6   7
ATOM      7  C   UNL     1      25.722  22.468  14.213  1.00  0.00     0.000 C 
BRANCH   7   8
ATOM      8  C   UNL     1      25.583  23.830  14.912  1.00  0.00     0.000 C 
BRANCH   8   9
ATOM      9  C   UNL     1      26.013  23.789  16.390  1.00  0.00     0.000 C 
BRANCH   9  10
ATOM     10  C   UNL     1      24.868  23.396  17.340  1.00  0.00     0.006 C 
BRANCH  10  11
ATOM     11  C   UNL     1      24.886  21.916  17.760  1.00  0.00     0.053 C 
BRANCH  11  12
ATOM     12  C   UNL     1      26.075  21.573  18.606  1.00  0.00     0.041 C 
ATOM     13  O   UNL     1      26.258  22.155  19.707  1.00  0.00    -0.550 OA
ATOM     14  O   UNL     1      27.002  20.637  18.162  1.00  0.00    -0.550 OA
ENDBRANCH  11  12
ENDBRANCH  10  11
ENDBRANCH   9  10
ENDBRANCH   8   9
ENDBRANCH   7   8
ENDBRANCH   6   7
ENDBRANCH   5   6
ENDBRANCH   4   5
ENDBRANCH   3   4
ENDBRANCH   2   3
ENDBRANCH   1   2
BRANCH   1  15
ATOM     15  C   UNL     1      21.081  23.274  17.886  1.00  0.00     0.000 C 
BRANCH  15  16
ATOM     16  C   UNL     1      21.712  23.604  19.247  1.00  0.00     0.000 C 
BRANCH  16  17
ATOM     17  C   UNL     1      21.967  25.110  19.438  1.00  0.00     0.000 C 
BRANCH  17  18
ATOM     18  C   UNL     1      22.177  25.902  18.132  1.00  0.00    -0.000 C 
BRANCH  18  19
ATOM     19  C   UNL     1      21.314  27.172  17.989  1.00  0.00    -0.000 C 
BRANCH  19  20
ATOM     20  C   UNL     1      22.083  28.503  18.079  1.00  0.00    -0.000 C 
BRANCH  20  21
ATOM     21  C   UNL     1      21.895  29.214  19.430  1.00  0.00    -0.000 C 
BRANCH  21  22
ATOM     22  C   UNL     1      22.824  28.668  20.529  1.00  0.00    -0.000 C 
BRANCH  22  23
ATOM     23  C   UNL     1      24.158  29.420  20.693  1.00  0.00    -0.000 C 
BRANCH  23  24
ATOM     24  C   UNL     1      25.375  28.483  20.722  1.00  0.00    -0.000 C 
BRANCH  24  25
ATOM     25  C   UNL     1      25.535  27.749  19.384  1.00  0.00    -0.003 C 
ATOM     26  C   UNL     1      25.541  26.236  19.582  1.00  0.00     0.004 C 
ENDBRANCH  24  25
ENDBRANCH  23  24
ENDBRANCH  22  23
ENDBRANCH  21  22
ENDBRANCH  20  21
ENDBRANCH  19  20
ENDBRANCH  18  19
ENDBRANCH  17  18
ENDBRANCH  16  17
ENDBRANCH  15  16
ENDBRANCH   1  15
TORSDOF 22
ENDMDL
MODEL 3
REMARK VINA RESULT:    -3.470      3.581      7.397
REMARK INTER + INTRA:         -11.496
REMARK INTER:                  -8.152
REMARK INTRA:                  -3.344
REMARK UNBOUND:                -3.563
REMARK SMILES CCCCCCCCCCCCCCCCCCCCCCCC(=O)[O-]
REMARK SMILES IDX 13 1 14 2 15 3 16 4 17 5 18 6 19 7 20 8 21 9 22 10 23 11
REMARK SMILES IDX 24 12 25 13 26 14 12 15 11 16 10 17 9 18 8 19 7 20 6 21 5 22
REMARK SMILES IDX 4 23 3 24 2 25 1 26
REMARK H PARENT
REMARK Flexibility Score: inf
ROOT
ATOM      1  C   UNL     1      24.504  22.629  14.830  1.00  0.00     0.000 C 
ENDROOT
BRANCH   1   2
ATOM      2  C   UNL     1      23.406  22.808  13.771  1.00  0.00     0.000 C 
BRANCH   2   3
ATOM      3  C   UNL     1      21.995  22.589  14.341  1.00  0.00     0.000 C 
BRANCH   3   4
ATOM      4  C   UNL     1      21.952  22.702  15.874  1.00  0.00     0.000 C 
BRANCH   4   5
ATOM      5  C   UNL     1      21.199  23.964  16.345  1.00  0.00     0.000 C 
BRANCH   5   6
ATOM      6  C   UNL     1      21.045  24.058  17.873  1.00  0.00     0.000 C 
BRANCH   6   7
ATOM      7  C   UNL     1      21.548  25.397  18.441  1.00  0.00     0.000 C 
BRANCH   7   8
ATOM      8  C   UNL     1      21.925  25.304  19.928  1.00  0.00     0.000 C 
BRANCH   8   9
ATOM      9  C   UNL     1      22.324  26.663  20.529  1.00  0.00     0.000 C 
BRANCH   9  10
ATOM     10  C   UNL     1      23.845  26.823  20.701  1.00  0.00     0.006 C 
BRANCH  10  11
ATOM     11  C   UNL     1      24.542  27.489  19.501  1.00  0.00     0.053 C 
BRANCH  11  12
ATOM     12  C   UNL     1      25.029  28.871  19.813  1.00  0.00     0.041 C 
ATOM     13  O   UNL     1      24.404  29.875  19.380  1.00  0.00    -0.550 OA
ATOM     14  O   UNL     1      26.193  29.053  20.551  1.00  0.00    -0.550 OA
ENDBRANCH  11  12
ENDBRANCH  10  11
ENDBRANCH   9  10
ENDBRANCH   8   9
ENDBRANCH   7   8
ENDBRANCH   6   7
ENDBRANCH   5   6
ENDBRANCH   4   5
ENDBRANCH   3   4
ENDBRANCH   2   3
ENDBRANCH   1   2
BRANCH   1  15
ATOM     15  C   UNL     1      25.539  23.757  14.749  1.00  0.00     0.000 C 
BRANCH  15  16
ATOM     16  C   UNL     1      26.054  24.131  16.146  1.00  0.00     0.000 C 
BRANCH  16  17
ATOM     17  C   UNL     1      24.922  24.508  17.118  1.00  0.00     0.000 C 
BRANCH  17  18
ATOM     18  C   UNL     1      25.044  23.893  18.526  1.00  0.00    -0.000 C 
BRANCH  18  19
ATOM     19  C   UNL     1      24.285  22.567  18.731  1.00  0.00    -0.000 C 
BRANCH  19  20
ATOM     20  C   UNL     1      24.977  21.317  18.155  1.00  0.00    -0.000 C 
BRANCH  20  21
ATOM     21  C   UNL     1      26.458  21.213  18.558  1.00  0.00    -0.000 C 
BRANCH  21  22
ATOM     22  C   UNL     1      27.346  20.646  17.436  1.00  0.00    -0.000 C 
BRANCH  22  23
ATOM     23  C   UNL     1      28.101  19.350  17.788  1.00  0.00    -0.000 C 
BRANCH  23  24
ATOM     24  C   UNL     1      29.373  19.151  16.950  1.00  0.00    -0.000 C 
BRANCH  24  25
ATOM     25  C   UNL     1      29.560  17.674  16.579  1.00  0.00    -0.003 C 
ATOM     26  C   UNL     1      28.848  17.340  15.272  1.00  0.00     0.004 C 
ENDBRANCH  24  25
ENDBRANCH  23  24
ENDBRANCH  22  23
ENDBRANCH  21  22
ENDBRANCH  20  21
ENDBRANCH  19  20
ENDBRANCH  18  19
ENDBRANCH  17  18
ENDBRANCH  16  17
ENDBRANCH  15  16
ENDBRANCH   1  15
TORSDOF 22
ENDMDL
MODEL 4
REMARK VINA RESULT:    -3.451      3.311      5.402
REMARK INTER + INTRA:         -11.452
REMARK INTER:                  -7.954
REMARK INTRA:                  -3.498
REMARK UNBOUND:                -3.563
REMARK SMILES CCCCCCCCCCCCCCCCCCCCCCCC(=O)[O-]
REMARK SMILES IDX 13 1 14 2 15 3 16 4 17 5 18 6 19 7 20 8 21 9 22 10 23 11
REMARK SMILES IDX 24 12 25 13 26 14 12 15 11 16 10 17 9 18 8 19 7 20 6 21 5 22
REMARK SMILES IDX 4 23 3 24 2 25 1 26
REMARK H PARENT
REMARK Flexibility Score: inf
ROOT
ATOM      1  C   UNL     1      25.381  23.443  14.825  1.00  0.00     0.000 C 
ENDROOT
BRANCH   1   2
ATOM      2  C   UNL     1      25.848  24.152  16.104  1.00  0.00     0.000 C 
BRANCH   2   3
ATOM      3  C   UNL     1      24.695  24.424  17.084  1.00  0.00     0.000 C 
BRANCH   3   4
ATOM      4  C   UNL     1      24.988  23.903  18.501  1.00  0.00     0.000 C 
BRANCH   4   5
ATOM      5  C   UNL     1      24.207  22.612  18.822  1.00  0.00     0.000 C 
BRANCH   5   6
ATOM      6  C   UNL     1      24.937  21.325  18.401  1.00  0.00     0.000 C 
BRANCH   6   7
ATOM      7  C   UNL     1      26.446  21.370  18.703  1.00  0.00     0.000 C 
BRANCH   7   8
ATOM      8  C   UNL     1      27.288  20.708  17.601  1.00  0.00     0.000 C 
BRANCH   8   9
ATOM      9  C   UNL     1      27.900  19.367  18.043  1.00  0.00     0.000 C 
BRANCH   9  10
ATOM     10  C   UNL     1      29.088  18.928  17.168  1.00  0.00     0.006 C 
BRANCH  10  11
ATOM     11  C   UNL     1      29.583  20.017  16.199  1.00  0.00     0.053 C 
BRANCH  11  12
ATOM     12  C   UNL     1      30.016  19.457  14.878  1.00  0.00     0.041 C 
ATOM     13  O   UNL     1      29.643  18.307  14.525  1.00  0.00    -0.550 OA
ATOM     14  O   UNL     1      30.861  20.188  14.051  1.00  0.00    -0.550 OA
ENDBRANCH  11  12
ENDBRANCH  10  11
ENDBRANCH   9  10
ENDBRANCH   8   9
ENDBRANCH   7   8
ENDBRANCH   6   7
ENDBRANCH   5   6
ENDBRANCH   4   5
ENDBRANCH   3   4
ENDBRANCH   2   3
ENDBRANCH   1   2
BRANCH   1  15
ATOM     15  C   UNL     1      24.185  22.526  15.107  1.00  0.00     0.000 C 
BRANCH  15  16
ATOM     16  C   UNL     1      23.100  22.692  14.032  1.00  0.00     0.000 C 
BRANCH  16  17
ATOM     17  C   UNL     1      21.677  22.502  14.587  1.00  0.00     0.000 C 
BRANCH  17  18
ATOM     18  C   UNL     1      21.196  23.619  15.534  1.00  0.00    -0.000 C 
BRANCH  18  19
ATOM     19  C   UNL     1      20.956  23.183  16.994  1.00  0.00    -0.000 C 
BRANCH  19  20
ATOM     20  C   UNL     1      21.054  24.309  18.041  1.00  0.00    -0.000 C 
BRANCH  20  21
ATOM     21  C   UNL     1      20.978  25.713  17.418  1.00  0.00    -0.000 C 
BRANCH  21  22
ATOM     22  C   UNL     1      21.971  26.704  18.052  1.00  0.00    -0.000 C 
BRANCH  22  23
ATOM     23  C   UNL     1      22.463  26.329  19.462  1.00  0.00    -0.000 C 
BRANCH  23  24
ATOM     24  C   UNL     1      23.135  27.501  20.194  1.00  0.00    -0.000 C 
BRANCH  24  25
ATOM     25  C   UNL     1      24.193  28.169  19.306  1.00  0.00    -0.003 C 
ATOM     26  C   UNL     1      25.541  27.464  19.430  1.00  0.00     0.004 C 
ENDBRANCH  24  25
ENDBRANCH  23  24
ENDBRANCH  22  23
ENDBRANCH  21  22
ENDBRANCH  20  21
ENDBRANCH  19  20
ENDBRANCH  18  19
ENDBRANCH  17  18
ENDBRANCH  16  17
ENDBRANCH  15  16
ENDBRANCH   1  15
TORSDOF 22
ENDMDL
MODEL 5
REMARK VINA RESULT:    -3.432      1.617      3.208
REMARK INTER + INTRA:         -11.410
REMARK INTER:                  -7.928
REMARK INTRA:                  -3.482
REMARK UNBOUND:                -3.563
REMARK SMILES CCCCCCCCCCCCCCCCCCCCCCCC(=O)[O-]
REMARK SMILES IDX 13 1 14 2 15 3 16 4 17 5 18 6 19 7 20 8 21 9 22 10 23 11
REMARK SMILES IDX 24 12 25 13 26 14 12 15 11 16 10 17 9 18 8 19 7 20 6 21 5 22
REMARK SMILES IDX 4 23 3 24 2 25 1 26
REMARK H PARENT
REMARK Flexibility Score: inf
ROOT
ATOM      1  C   UNL     1      25.756  22.739  17.933  1.00  0.00     0.000 C 
ENDROOT
BRANCH   1   2
ATOM      2  C   UNL     1      25.235  21.529  18.722  1.00  0.00     0.000 C 
BRANCH   2   3
ATOM      3  C   UNL     1      23.700  21.454  18.743  1.00  0.00     0.000 C 
BRANCH   3   4
ATOM      4  C   UNL     1      23.126  20.739  17.508  1.00  0.00     0.000 C 
BRANCH   4   5
ATOM      5  C   UNL     1      21.586  20.819  17.450  1.00  0.00     0.000 C 
BRANCH   5   6
ATOM      6  C   UNL     1      21.037  22.254  17.519  1.00  0.00     0.000 C 
BRANCH   6   7
ATOM      7  C   UNL     1      21.268  23.044  16.219  1.00  0.00     0.000 C 
BRANCH   7   8
ATOM      8  C   UNL     1      21.566  22.132  15.019  1.00  0.00     0.000 C 
BRANCH   8   9
ATOM      9  C   UNL     1      22.630  22.720  14.074  1.00  0.00     0.000 C 
BRANCH   9  10
ATOM     10  C   UNL     1      24.039  22.744  14.693  1.00  0.00     0.006 C 
BRANCH  10  11
ATOM     11  C   UNL     1      25.147  23.150  13.704  1.00  0.00     0.053 C 
BRANCH  11  12
ATOM     12  C   UNL     1      25.789  21.968  13.043  1.00  0.00     0.041 C 
ATOM     13  O   UNL     1      26.970  21.644  13.335  1.00  0.00    -0.550 OA
ATOM     14  O   UNL     1      25.097  21.246  12.078  1.00  0.00    -0.550 OA
ENDBRANCH  11  12
ENDBRANCH  10  11
ENDBRANCH   9  10
ENDBRANCH   8   9
ENDBRANCH   7   8
ENDBRANCH   6   7
ENDBRANCH   5   6
ENDBRANCH   4   5
ENDBRANCH   3   4
ENDBRANCH   2   3
ENDBRANCH   1   2
BRANCH   1  15
ATOM     15  C   UNL     1      25.234  24.052  18.528  1.00  0.00     0.000 C 
BRANCH  15  16
ATOM     16  C   UNL     1      24.348  24.798  17.519  1.00  0.00     0.000 C 
BRANCH  16  17
ATOM     17  C   UNL     1      23.112  25.442  18.172  1.00  0.00     0.000 C 
BRANCH  17  18
ATOM     18  C   UNL     1      22.779  24.920  19.583  1.00  0.00    -0.000 C 
BRANCH  18  19
ATOM     19  C   UNL     1      22.290  25.991  20.581  1.00  0.00    -0.000 C 
BRANCH  19  20
ATOM     20  C   UNL     1      21.387  27.085  19.980  1.00  0.00    -0.000 C 
BRANCH  20  21
ATOM     21  C   UNL     1      21.540  28.442  20.688  1.00  0.00    -0.000 C 
BRANCH  21  22
ATOM     22  C   UNL     1      22.635  29.324  20.061  1.00  0.00    -0.000 C 
BRANCH  22  23
ATOM     23  C   UNL     1      24.033  29.180  20.690  1.00  0.00    -0.000 C 
BRANCH  23  24
ATOM     24  C   UNL     1      25.154  29.081  19.644  1.00  0.00    -0.000 C 
BRANCH  24  25
ATOM     25  C   UNL     1      25.707  27.652  19.565  1.00  0.00    -0.003 C 
ATOM     26  C   UNL     1      26.866  27.563  18.576  1.00  0.00     0.004 C 
ENDBRANCH  24  25
ENDBRANCH  23  24
ENDBRANCH  22  23
ENDBRANCH  21  22
ENDBRANCH  20  21
ENDBRANCH  19  20
ENDBRANCH  18  19
ENDBRANCH  17  18
ENDBRANCH  16  17
ENDBRANCH  15  16
ENDBRANCH   1  15
TORSDOF 22
ENDMDL
MODEL 6
REMARK VINA RESULT:    -3.430      2.726      7.294
REMARK INTER + INTRA:         -11.404
REMARK INTER:                  -8.132
REMARK INTRA:                  -3.273
REMARK UNBOUND:                -3.563
REMARK SMILES CCCCCCCCCCCCCCCCCCCCCCCC(=O)[O-]
REMARK SMILES IDX 13 1 14 2 15 3 16 4 17 5 18 6 19 7 20 8 21 9 22 10 23 11
REMARK SMILES IDX 24 12 25 13 26 14 12 15 11 16 10 17 9 18 8 19 7 20 6 21 5 22
REMARK SMILES IDX 4 23 3 24 2 25 1 26
REMARK H PARENT
REMARK Flexibility Score: inf
ROOT
ATOM      1  C   UNL     1      25.961  23.565  15.998  1.00  0.00     0.000 C 
ENDROOT
BRANCH   1   2
ATOM      2  C   UNL     1      25.600  24.662  17.011  1.00  0.00     0.000 C 
BRANCH   2   3
ATOM      3  C   UNL     1      24.111  24.649  17.391  1.00  0.00     0.000 C 
BRANCH   3   4
ATOM      4  C   UNL     1      23.874  25.021  18.864  1.00  0.00     0.000 C 
BRANCH   4   5
ATOM      5  C   UNL     1      22.576  24.400  19.422  1.00  0.00     0.000 C 
BRANCH   5   6
ATOM      6  C   UNL     1      21.429  25.410  19.592  1.00  0.00     0.000 C 
BRANCH   6   7
ATOM      7  C   UNL     1      21.919  26.800  20.034  1.00  0.00     0.000 C 
BRANCH   7   8
ATOM      8  C   UNL     1      21.799  27.851  18.920  1.00  0.00     0.000 C 
BRANCH   8   9
ATOM      9  C   UNL     1      21.758  29.292  19.461  1.00  0.00     0.000 C 
BRANCH   9  10
ATOM     10  C   UNL     1      23.074  29.721  20.133  1.00  0.00     0.006 C 
BRANCH  10  11
ATOM     11  C   UNL     1      24.310  29.587  19.226  1.00  0.00     0.053 C 
BRANCH  11  12
ATOM     12  C   UNL     1      25.276  28.552  19.719  1.00  0.00     0.041 C 
ATOM     13  O   UNL     1      25.396  28.336  20.953  1.00  0.00    -0.550 OA
ATOM     14  O   UNL     1      26.070  27.852  18.819  1.00  0.00    -0.550 OA
ENDBRANCH  11  12
ENDBRANCH  10  11
ENDBRANCH   9  10
ENDBRANCH   8   9
ENDBRANCH   7   8
ENDBRANCH   6   7
ENDBRANCH   5   6
ENDBRANCH   4   5
ENDBRANCH   3   4
ENDBRANCH   2   3
ENDBRANCH   1   2
BRANCH   1  15
ATOM     15  C   UNL     1      25.717  24.038  14.561  1.00  0.00     0.000 C 
BRANCH  15  16
ATOM     16  C   UNL     1      25.193  22.890  13.686  1.00  0.00     0.000 C 
BRANCH  16  17
ATOM     17  C   UNL     1      23.826  22.360  14.154  1.00  0.00     0.000 C 
BRANCH  17  18
ATOM     18  C   UNL     1      22.615  22.918  13.382  1.00  0.00    -0.000 C 
BRANCH  18  19
ATOM     19  C   UNL     1      21.321  23.065  14.208  1.00  0.00    -0.000 C 
BRANCH  19  20
ATOM     20  C   UNL     1      21.071  21.949  15.242  1.00  0.00    -0.000 C 
BRANCH  20  21
ATOM     21  C   UNL     1      21.195  22.440  16.694  1.00  0.00    -0.000 C 
BRANCH  21  22
ATOM     22  C   UNL     1      21.150  21.293  17.720  1.00  0.00    -0.000 C 
BRANCH  22  23
ATOM     23  C   UNL     1      22.373  20.356  17.710  1.00  0.00    -0.000 C 
BRANCH  23  24
ATOM     24  C   UNL     1      23.702  21.108  17.543  1.00  0.00    -0.000 C 
BRANCH  24  25
ATOM     25  C   UNL     1      24.401  21.295  18.896  1.00  0.00    -0.003 C 
ATOM     26  C   UNL     1      25.914  21.387  18.727  1.00  0.00     0.004 C 
ENDBRANCH  24  25
ENDBRANCH  23  24
ENDBRANCH  22  23
ENDBRANCH  21  22
ENDBRANCH  20  21
ENDBRANCH  19  20
ENDBRANCH  18  19
ENDBRANCH  17  18
ENDBRANCH  16  17
ENDBRANCH  15  16
ENDBRANCH   1  15
TORSDOF 22
ENDMDL
MODEL 7
REMARK VINA RESULT:    -3.408      1.279      3.205
REMARK INTER + INTRA:         -11.355
REMARK INTER:                  -8.129
REMARK INTRA:                  -3.226
REMARK UNBOUND:                -3.563
REMARK SMILES CCCCCCCCCCCCCCCCCCCCCCCC(=O)[O-]
REMARK SMILES IDX 13 1 14 2 15 3 16 4 17 5 18 6 19 7 20 8 21 9 22 10 23 11
REMARK SMILES IDX 24 12 25 13 26 14 12 15 11 16 10 17 9 18 8 19 7 20 6 21 5 22
REMARK SMILES IDX 4 23 3 24 2 25 1 26
REMARK H PARENT
REMARK Flexibility Score: inf
ROOT
ATOM      1  C   UNL     1      23.251  21.511  17.563  1.00  0.00     0.000 C 
ENDROOT
BRANCH   1   2
ATOM      2  C   UNL     1      24.045  21.601  18.875  1.00  0.00     0.000 C 
BRANCH   2   3
ATOM      3  C   UNL     1      25.327  22.438  18.733  1.00  0.00     0.000 C 
BRANCH   3   4
ATOM      4  C   UNL     1      26.085  22.142  17.428  1.00  0.00     0.000 C 
BRANCH   4   5
ATOM      5  C   UNL     1      26.304  23.412  16.579  1.00  0.00     0.000 C 
BRANCH   5   6
ATOM      6  C   UNL     1      25.065  23.838  15.772  1.00  0.00     0.000 C 
BRANCH   6   7
ATOM      7  C   UNL     1      25.207  23.551  14.267  1.00  0.00     0.000 C 
BRANCH   7   8
ATOM      8  C   UNL     1      24.175  22.531  13.760  1.00  0.00     0.000 C 
BRANCH   8   9
ATOM      9  C   UNL     1      22.776  22.747  14.366  1.00  0.00     0.000 C 
BRANCH   9  10
ATOM     10  C   UNL     1      21.772  23.347  13.365  1.00  0.00     0.006 C 
BRANCH  10  11
ATOM     11  C   UNL     1      21.490  22.446  12.150  1.00  0.00     0.053 C 
BRANCH  11  12
ATOM     12  C   UNL     1      21.325  23.227  10.881  1.00  0.00     0.041 C 
ATOM     13  O   UNL     1      21.403  24.484  10.897  1.00  0.00    -0.550 OA
ATOM     14  O   UNL     1      21.048  22.572   9.687  1.00  0.00    -0.550 OA
ENDBRANCH  11  12
ENDBRANCH  10  11
ENDBRANCH   9  10
ENDBRANCH   8   9
ENDBRANCH   7   8
ENDBRANCH   6   7
ENDBRANCH   5   6
ENDBRANCH   4   5
ENDBRANCH   3   4
ENDBRANCH   2   3
ENDBRANCH   1   2
BRANCH   1  15
ATOM     15  C   UNL     1      21.744  21.432  17.834  1.00  0.00     0.000 C 
BRANCH  15  16
ATOM     16  C   UNL     1      21.202  22.784  18.318  1.00  0.00     0.000 C 
BRANCH  16  17
ATOM     17  C   UNL     1      21.722  23.969  17.484  1.00  0.00     0.000 C 
BRANCH  17  18
ATOM     18  C   UNL     1      22.402  25.086  18.299  1.00  0.00    -0.000 C 
BRANCH  18  19
ATOM     19  C   UNL     1      21.680  25.478  19.605  1.00  0.00    -0.000 C 
BRANCH  19  20
ATOM     20  C   UNL     1      21.585  26.992  19.874  1.00  0.00    -0.000 C 
BRANCH  20  21
ATOM     21  C   UNL     1      22.208  27.840  18.751  1.00  0.00    -0.000 C 
BRANCH  21  22
ATOM     22  C   UNL     1      23.140  28.945  19.282  1.00  0.00    -0.000 C 
BRANCH  22  23
ATOM     23  C   UNL     1      24.055  28.527  20.448  1.00  0.00    -0.000 C 
BRANCH  23  24
ATOM     24  C   UNL     1      25.548  28.688  20.126  1.00  0.00    -0.000 C 
BRANCH  24  25
ATOM     25  C   UNL     1      26.014  27.618  19.130  1.00  0.00    -0.003 C 
ATOM     26  C   UNL     1      25.625  26.220  19.602  1.00  0.00     0.004 C 
ENDBRANCH  24  25
ENDBRANCH  23  24
ENDBRANCH  22  23
ENDBRANCH  21  22
ENDBRANCH  20  21
ENDBRANCH  19  20
ENDBRANCH  18  19
ENDBRANCH  17  18
ENDBRANCH  16  17
ENDBRANCH  15  16
ENDBRANCH   1  15
TORSDOF 22
ENDMDL
MODEL 8
REMARK VINA RESULT:    -3.392      2.699      7.164
REMARK INTER + INTRA:         -11.317
REMARK INTER:                  -7.860
REMARK INTRA:                  -3.457
REMARK UNBOUND:                -3.563
REMARK SMILES CCCCCCCCCCCCCCCCCCCCCCCC(=O)[O-]
REMARK SMILES IDX 13 1 14 2 15 3 16 4 17 5 18 6 19 7 20 8 21 9 22 10 23 11
REMARK SMILES IDX 24 12 25 13 26 14 12 15 11 16 10 17 9 18 8 19 7 20 6 21 5 22
REMARK SMILES IDX 4 23 3 24 2 25 1 26
REMARK H PARENT
REMARK Flexibility Score: inf
ROOT
ATOM      1  C   UNL     1      25.585  22.502  17.951  1.00  0.00     0.000 C 
ENDROOT
BRANCH   1   2
ATOM      2  C   UNL     1      25.036  23.775  18.612  1.00  0.00     0.000 C 
BRANCH   2   3
ATOM      3  C   UNL     1      24.431  24.756  17.595  1.00  0.00     0.000 C 
BRANCH   3   4
ATOM      4  C   UNL     1      22.955  25.074  17.886  1.00  0.00     0.000 C 
BRANCH   4   5
ATOM      5  C   UNL     1      22.539  24.665  19.314  1.00  0.00     0.000 C 
BRANCH   5   6
ATOM      6  C   UNL     1      21.238  25.331  19.795  1.00  0.00     0.000 C 
BRANCH   6   7
ATOM      7  C   UNL     1      21.151  26.817  19.407  1.00  0.00     0.000 C 
BRANCH   7   8
ATOM      8  C   UNL     1      21.588  27.752  20.546  1.00  0.00     0.000 C 
BRANCH   8   9
ATOM      9  C   UNL     1      21.842  29.194  20.070  1.00  0.00     0.000 C 
BRANCH   9  10
ATOM     10  C   UNL     1      23.334  29.570  20.055  1.00  0.00     0.006 C 
BRANCH  10  11
ATOM     11  C   UNL     1      24.166  28.775  19.033  1.00  0.00     0.053 C 
BRANCH  11  12
ATOM     12  C   UNL     1      25.281  28.005  19.674  1.00  0.00     0.041 C 
ATOM     13  O   UNL     1      25.033  26.960  20.330  1.00  0.00    -0.550 OA
ATOM     14  O   UNL     1      26.591  28.461  19.579  1.00  0.00    -0.550 OA
ENDBRANCH  11  12
ENDBRANCH  10  11
ENDBRANCH   9  10
ENDBRANCH   8   9
ENDBRANCH   7   8
ENDBRANCH   6   7
ENDBRANCH   5   6
ENDBRANCH   4   5
ENDBRANCH   3   4
ENDBRANCH   2   3
ENDBRANCH   1   2
BRANCH   1  15
ATOM     15  C   UNL     1      24.764  21.272  18.354  1.00  0.00     0.000 C 
BRANCH  15  16
ATOM     16  C   UNL     1      23.587  21.057  17.391  1.00  0.00     0.000 C 
BRANCH  16  17
ATOM     17  C   UNL     1      22.247  20.859  18.121  1.00  0.00     0.000 C 
BRANCH  17  18
ATOM     18  C   UNL     1      21.105  21.776  17.640  1.00  0.00    -0.000 C 
BRANCH  18  19
ATOM     19  C   UNL     1      20.875  21.792  16.115  1.00  0.00    -0.000 C 
BRANCH  19  20
ATOM     20  C   UNL     1      21.005  23.174  15.446  1.00  0.00    -0.000 C 
BRANCH  20  21
ATOM     21  C   UNL     1      21.156  23.087  13.918  1.00  0.00    -0.000 C 
BRANCH  21  22
ATOM     22  C   UNL     1      22.598  22.782  13.474  1.00  0.00    -0.000 C 
BRANCH  22  23
ATOM     23  C   UNL     1      23.654  22.834  14.594  1.00  0.00    -0.000 C 
BRANCH  23  24
ATOM     24  C   UNL     1      24.975  23.474  14.142  1.00  0.00    -0.000 C 
BRANCH  24  25
ATOM     25  C   UNL     1      26.079  22.417  14.007  1.00  0.00    -0.003 C 
ATOM     26  C   UNL     1      26.042  21.755  12.632  1.00  0.00     0.004 C 
ENDBRANCH  24  25
ENDBRANCH  23  24
ENDBRANCH  22  23
ENDBRANCH  21  22
ENDBRANCH  20  21
ENDBRANCH  19  20
ENDBRANCH  18  19
ENDBRANCH  17  18
ENDBRANCH  16  17
ENDBRANCH  15  16
ENDBRANCH   1  15
TORSDOF 22
ENDMDL
MODEL 9
REMARK VINA RESULT:    -3.247      2.439      7.048
REMARK INTER + INTRA:         -10.985
REMARK INTER:                  -8.150
REMARK INTRA:                  -2.835
REMARK UNBOUND:                -3.563
REMARK SMILES CCCCCCCCCCCCCCCCCCCCCCCC(=O)[O-]
REMARK SMILES IDX 13 1 14 2 15 3 16 4 17 5 18 6 19 7 20 8 21 9 22 10 23 11
REMARK SMILES IDX 24 12 25 13 26 14 12 15 11 16 10 17 9 18 8 19 7 20 6 21 5 22
REMARK SMILES IDX 4 23 3 24 2 25 1 26
REMARK H PARENT
REMARK Flexibility Score: inf
ROOT
ATOM      1  C   UNL     1      21.683  21.591  16.355  1.00  0.00     0.000 C 
ENDROOT
BRANCH   1   2
ATOM      2  C   UNL     1      21.208  23.049  16.441  1.00  0.00     0.000 C 
BRANCH   2   3
ATOM      3  C   UNL     1      21.109  23.554  17.889  1.00  0.00     0.000 C 
BRANCH   3   4
ATOM      4  C   UNL     1      22.086  24.706  18.181  1.00  0.00     0.000 C 
BRANCH   4   5
ATOM      5  C   UNL     1      22.617  24.668  19.629  1.00  0.00     0.000 C 
BRANCH   5   6
ATOM      6  C   UNL     1      22.385  25.975  20.408  1.00  0.00     0.000 C 
BRANCH   6   7
ATOM      7  C   UNL     1      22.469  27.224  19.514  1.00  0.00     0.000 C 
BRANCH   7   8
ATOM      8  C   UNL     1      22.191  28.523  20.287  1.00  0.00     0.000 C 
BRANCH   8   9
ATOM      9  C   UNL     1      23.476  29.205  20.790  1.00  0.00     0.000 C 
BRANCH   9  10
ATOM     10  C   UNL     1      24.734  28.340  20.592  1.00  0.00     0.006 C 
BRANCH  10  11
ATOM     11  C   UNL     1      25.427  28.551  19.233  1.00  0.00     0.053 C 
BRANCH  11  12
ATOM     12  C   UNL     1      26.299  27.395  18.847  1.00  0.00     0.041 C 
ATOM     13  O   UNL     1      27.476  27.595  18.449  1.00  0.00    -0.550 OA
ATOM     14  O   UNL     1      25.801  26.097  18.892  1.00  0.00    -0.550 OA
ENDBRANCH  11  12
ENDBRANCH  10  11
ENDBRANCH   9  10
ENDBRANCH   8   9
ENDBRANCH   7   8
ENDBRANCH   6   7
ENDBRANCH   5   6
ENDBRANCH   4   5
ENDBRANCH   3   4
ENDBRANCH   2   3
ENDBRANCH   1   2
BRANCH   1  15
ATOM     15  C   UNL     1      22.095  21.062  17.734  1.00  0.00     0.000 C 
BRANCH  15  16
ATOM     16  C   UNL     1      23.618  20.893  17.825  1.00  0.00     0.000 C 
BRANCH  16  17
ATOM     17  C   UNL     1      24.241  21.703  18.976  1.00  0.00     0.000 C 
BRANCH  17  18
ATOM     18  C   UNL     1      25.708  22.122  18.754  1.00  0.00    -0.000 C 
BRANCH  18  19
ATOM     19  C   UNL     1      26.167  22.148  17.282  1.00  0.00    -0.000 C 
BRANCH  19  20
ATOM     20  C   UNL     1      26.048  23.514  16.580  1.00  0.00    -0.000 C 
BRANCH  20  21
ATOM     21  C   UNL     1      24.783  23.634  15.714  1.00  0.00    -0.000 C 
BRANCH  21  22
ATOM     22  C   UNL     1      25.018  23.221  14.250  1.00  0.00    -0.000 C 
BRANCH  22  23
ATOM     23  C   UNL     1      23.836  22.504  13.572  1.00  0.00    -0.000 C 
BRANCH  23  24
ATOM     24  C   UNL     1      22.701  23.461  13.177  1.00  0.00    -0.000 C 
BRANCH  24  25
ATOM     25  C   UNL     1      21.464  22.683  12.710  1.00  0.00    -0.003 C 
ATOM     26  C   UNL     1      21.313  22.746  11.193  1.00  0.00     0.004 C 
ENDBRANCH  24  25
ENDBRANCH  23  24
ENDBRANCH  22  23
ENDBRANCH  21  22
ENDBRANCH  20  21
ENDBRANCH  19  20
ENDBRANCH  18  19
ENDBRANCH  17  18
ENDBRANCH  16  17
ENDBRANCH  15  16
ENDBRANCH   1  15
TORSDOF 22
ENDMDL
