MODEL 1
REMARK VINA RESULT:    -7.065      0.000      0.000
REMARK INTER + INTRA:          -8.571
REMARK INTER:                  -8.304
REMARK INTRA:                  -0.267
REMARK UNBOUND:                -0.267
REMARK SMILES O=c1cc(-c2ccc(O)c(O)c2)oc2cc(O)cc(O)c12
REMARK SMILES IDX 4 1 3 2 2 3 1 4 21 5 19 6 18 7 16 8 15 9 14 10 13 11 5 12
REMARK SMILES IDX 6 13 7 14 8 15 12 16 10 17 9 18 11 20 20 22 17 24
REMARK H PARENT 9 19 11 21 20 23 17 25
REMARK Flexibility Score: inf
ROOT
ATOM      1  C   UNL     1      18.020 -10.181  18.843  1.00  0.00     0.138 A 
ATOM      2  C   UNL     1      17.216  -9.063  18.581  1.00  0.00     0.100 A 
ATOM      3  C   UNL     1      17.265  -7.962  19.436  1.00  0.00     0.197 A 
ATOM      4  O   UNL     1      16.486  -6.999  19.210  1.00  0.00    -0.289 OA
ATOM      5  C   UNL     1      18.148  -7.968  20.541  1.00  0.00     0.107 A 
ATOM      6  C   UNL     1      18.312  -6.885  21.456  1.00  0.00     0.134 A 
ATOM      7  C   UNL     1      19.131  -7.050  22.580  1.00  0.00     0.093 A 
ATOM      8  C   UNL     1      19.837  -8.237  22.790  1.00  0.00     0.123 A 
ATOM      9  C   UNL     1      19.725  -9.280  21.874  1.00  0.00     0.094 A 
ATOM     10  C   UNL     1      18.890  -9.159  20.761  1.00  0.00     0.146 A 
ATOM     11  O   UNL     1      18.800 -10.183  19.920  1.00  0.00    -0.456 OA
ENDROOT
BRANCH   1  12
ATOM     12  C   UNL     1      18.008 -11.378  17.967  1.00  0.00     0.021 A 
ATOM     13  C   UNL     1      17.278 -12.512  18.357  1.00  0.00     0.016 A 
ATOM     14  C   UNL     1      17.256 -13.654  17.553  1.00  0.00     0.051 A 
ATOM     15  C   UNL     1      17.968 -13.694  16.350  1.00  0.00     0.157 A 
ATOM     16  C   UNL     1      18.735 -11.423  16.763  1.00  0.00     0.062 A 
ATOM     17  C   UNL     1      18.722 -12.565  15.952  1.00  0.00     0.158 A 
BRANCH  15  18
ATOM     18  O   UNL     1      17.900 -14.863  15.589  1.00  0.00    -0.504 OA
ATOM     19  H   UNL     1      17.329 -14.966  14.763  1.00  0.00     0.293 HD
ENDBRANCH  15  18
BRANCH  17  20
ATOM     20  O   UNL     1      19.470 -12.536  14.772  1.00  0.00    -0.504 OA
ATOM     21  H   UNL     1      19.378 -11.823  14.064  1.00  0.00     0.293 HD
ENDBRANCH  17  20
ENDBRANCH   1  12
BRANCH   6  22
ATOM     22  O   UNL     1      17.720  -5.629  21.294  1.00  0.00    -0.507 OA
ATOM     23  H   UNL     1      16.774  -5.399  21.558  1.00  0.00     0.293 HD
ENDBRANCH   6  22
BRANCH   8  24
ATOM     24  O   UNL     1      20.661  -8.386  23.904  1.00  0.00    -0.508 OA
ATOM     25  H   UNL     1      21.280  -7.643  24.209  1.00  0.00     0.293 HD
ENDBRANCH   8  24
TORSDOF 5
ENDMDL
MODEL 2
REMARK VINA RESULT:    -7.051      1.370      7.299
REMARK INTER + INTRA:          -8.555
REMARK INTER:                  -8.288
REMARK INTRA:                  -0.267
REMARK UNBOUND:                -0.267
REMARK SMILES O=c1cc(-c2ccc(O)c(O)c2)oc2cc(O)cc(O)c12
REMARK SMILES IDX 4 1 3 2 2 3 1 4 21 5 19 6 18 7 16 8 15 9 14 10 13 11 5 12
REMARK SMILES IDX 6 13 7 14 8 15 12 16 10 17 9 18 11 20 20 22 17 24
REMARK H PARENT 9 19 11 21 20 23 17 25
REMARK Flexibility Score: inf
ROOT
ATOM      1  C   UNL     1      18.038 -10.733  18.386  1.00  0.00     0.138 A 
ATOM      2  C   UNL     1      17.199 -11.832  18.620  1.00  0.00     0.100 A 
ATOM      3  C   UNL     1      17.249 -12.932  17.764  1.00  0.00     0.197 A 
ATOM      4  O   UNL     1      16.442 -13.877  17.963  1.00  0.00    -0.289 OA
ATOM      5  C   UNL     1      18.167 -12.945  16.687  1.00  0.00     0.107 A 
ATOM      6  C   UNL     1      18.333 -14.029  15.774  1.00  0.00     0.134 A 
ATOM      7  C   UNL     1      19.190 -13.881  14.677  1.00  0.00     0.093 A 
ATOM      8  C   UNL     1      19.931 -12.711  14.492  1.00  0.00     0.123 A 
ATOM      9  C   UNL     1      19.815 -11.667  15.407  1.00  0.00     0.094 A 
ATOM     10  C   UNL     1      18.942 -11.771  16.494  1.00  0.00     0.146 A 
ATOM     11  O   UNL     1      18.851 -10.747  17.335  1.00  0.00    -0.456 OA
ENDROOT
BRANCH   1  12
ATOM     12  C   UNL     1      18.026  -9.537  19.266  1.00  0.00     0.021 A 
ATOM     13  C   UNL     1      17.287  -8.407  18.884  1.00  0.00     0.016 A 
ATOM     14  C   UNL     1      17.265  -7.267  19.691  1.00  0.00     0.051 A 
ATOM     15  C   UNL     1      17.987  -7.225  20.888  1.00  0.00     0.157 A 
ATOM     16  C   UNL     1      18.763  -9.491  20.463  1.00  0.00     0.062 A 
ATOM     17  C   UNL     1      18.750  -8.350  21.277  1.00  0.00     0.158 A 
BRANCH  15  18
ATOM     18  O   UNL     1      17.918  -6.058  21.651  1.00  0.00    -0.504 OA
ATOM     19  H   UNL     1      17.060  -5.668  22.010  1.00  0.00     0.293 HD
ENDBRANCH  15  18
BRANCH  17  20
ATOM     20  O   UNL     1      19.508  -8.377  22.450  1.00  0.00    -0.504 OA
ATOM     21  H   UNL     1      19.899  -7.557  22.888  1.00  0.00     0.293 HD
ENDBRANCH  17  20
ENDBRANCH   1  12
BRANCH   6  22
ATOM     22  O   UNL     1      17.707 -15.271  15.914  1.00  0.00    -0.507 OA
ATOM     23  H   UNL     1      17.982 -15.985  16.571  1.00  0.00     0.293 HD
ENDBRANCH   6  22
BRANCH   8  24
ATOM     24  O   UNL     1      20.792 -12.578  13.405  1.00  0.00    -0.508 OA
ATOM     25  H   UNL     1      20.532 -12.903  12.481  1.00  0.00     0.293 HD
ENDBRANCH   8  24
TORSDOF 5
ENDMDL
MODEL 3
REMARK VINA RESULT:    -6.520      1.585      7.289
REMARK INTER + INTRA:          -7.930
REMARK INTER:                  -7.666
REMARK INTRA:                  -0.263
REMARK UNBOUND:                -0.267
REMARK SMILES O=c1cc(-c2ccc(O)c(O)c2)oc2cc(O)cc(O)c12
REMARK SMILES IDX 4 1 3 2 2 3 1 4 21 5 19 6 18 7 16 8 15 9 14 10 13 11 5 12
REMARK SMILES IDX 6 13 7 14 8 15 12 16 10 17 9 18 11 20 20 22 17 24
REMARK H PARENT 9 19 11 21 20 23 17 25
REMARK Flexibility Score: inf
ROOT
ATOM      1  C   UNL     1      19.428 -10.118  17.978  1.00  0.00     0.138 A 
ATOM      2  C   UNL     1      20.343  -9.753  16.980  1.00  0.00     0.100 A 
ATOM      3  C   UNL     1      20.574 -10.615  15.908  1.00  0.00     0.197 A 
ATOM      4  O   UNL     1      21.446 -10.288  15.061  1.00  0.00    -0.289 OA
ATOM      5  C   UNL     1      19.862 -11.834  15.818  1.00  0.00     0.107 A 
ATOM      6  C   UNL     1      19.987 -12.772  14.750  1.00  0.00     0.134 A 
ATOM      7  C   UNL     1      19.317 -13.999  14.828  1.00  0.00     0.093 A 
ATOM      8  C   UNL     1      18.481 -14.297  15.907  1.00  0.00     0.123 A 
ATOM      9  C   UNL     1      18.311 -13.367  16.929  1.00  0.00     0.094 A 
ATOM     10  C   UNL     1      18.992 -12.147  16.897  1.00  0.00     0.146 A 
ATOM     11  O   UNL     1      18.813 -11.294  17.899  1.00  0.00    -0.456 OA
ENDROOT
BRANCH   1  12
ATOM     12  C   UNL     1      19.143  -9.238  19.139  1.00  0.00     0.021 A 
ATOM     13  C   UNL     1      18.019  -8.399  19.111  1.00  0.00     0.016 A 
ATOM     14  C   UNL     1      17.733  -7.558  20.189  1.00  0.00     0.051 A 
ATOM     15  C   UNL     1      18.567  -7.527  21.311  1.00  0.00     0.157 A 
ATOM     16  C   UNL     1      19.990  -9.197  20.262  1.00  0.00     0.062 A 
ATOM     17  C   UNL     1      19.714  -8.354  21.346  1.00  0.00     0.158 A 
BRANCH  15  18
ATOM     18  O   UNL     1      18.222  -6.668  22.357  1.00  0.00    -0.504 OA
ATOM     19  H   UNL     1      17.299  -6.282  22.490  1.00  0.00     0.293 HD
ENDBRANCH  15  18
BRANCH  17  20
ATOM     20  O   UNL     1      20.601  -8.366  22.425  1.00  0.00    -0.504 OA
ATOM     21  H   UNL     1      20.916  -9.207  22.887  1.00  0.00     0.293 HD
ENDBRANCH  17  20
ENDBRANCH   1  12
BRANCH   6  22
ATOM     22  O   UNL     1      20.728 -12.537  13.588  1.00  0.00    -0.507 OA
ATOM     23  H   UNL     1      21.156 -13.254  13.023  1.00  0.00     0.293 HD
ENDBRANCH   6  22
BRANCH   8  24
ATOM     24  O   UNL     1      17.807 -15.516  15.968  1.00  0.00    -0.508 OA
ATOM     25  H   UNL     1      16.807 -15.560  16.131  1.00  0.00     0.293 HD
ENDBRANCH   8  24
TORSDOF 5
ENDMDL
MODEL 4
REMARK VINA RESULT:    -6.501      1.281      2.845
REMARK INTER + INTRA:          -7.908
REMARK INTER:                  -7.644
REMARK INTRA:                  -0.264
REMARK UNBOUND:                -0.267
REMARK SMILES O=c1cc(-c2ccc(O)c(O)c2)oc2cc(O)cc(O)c12
REMARK SMILES IDX 4 1 3 2 2 3 1 4 21 5 19 6 18 7 16 8 15 9 14 10 13 11 5 12
REMARK SMILES IDX 6 13 7 14 8 15 12 16 10 17 9 18 11 20 20 22 17 24
REMARK H PARENT 9 19 11 21 20 23 17 25
REMARK Flexibility Score: inf
ROOT
ATOM      1  C   UNL     1      19.499 -10.814  19.055  1.00  0.00     0.138 A 
ATOM      2  C   UNL     1      20.392 -11.192  20.067  1.00  0.00     0.100 A 
ATOM      3  C   UNL     1      20.572 -10.362  21.174  1.00  0.00     0.197 A 
ATOM      4  O   UNL     1      21.425 -10.697  22.036  1.00  0.00    -0.289 OA
ATOM      5  C   UNL     1      19.829  -9.162  21.282  1.00  0.00     0.107 A 
ATOM      6  C   UNL     1      19.901  -8.258  22.384  1.00  0.00     0.134 A 
ATOM      7  C   UNL     1      19.206  -7.044  22.326  1.00  0.00     0.093 A 
ATOM      8  C   UNL     1      18.396  -6.728  21.232  1.00  0.00     0.123 A 
ATOM      9  C   UNL     1      18.278  -7.627  20.175  1.00  0.00     0.094 A 
ATOM     10  C   UNL     1      18.985  -8.832  20.188  1.00  0.00     0.146 A 
ATOM     11  O   UNL     1      18.856  -9.655  19.154  1.00  0.00    -0.456 OA
ENDROOT
BRANCH   1  12
ATOM     12  C   UNL     1      19.270 -11.660  17.857  1.00  0.00     0.021 A 
ATOM     13  C   UNL     1      18.222 -12.593  17.861  1.00  0.00     0.016 A 
ATOM     14  C   UNL     1      17.989 -13.406  16.749  1.00  0.00     0.051 A 
ATOM     15  C   UNL     1      18.802 -13.313  15.615  1.00  0.00     0.157 A 
ATOM     16  C   UNL     1      20.096 -11.576  16.721  1.00  0.00     0.062 A 
ATOM     17  C   UNL     1      19.873 -12.389  15.602  1.00  0.00     0.158 A 
BRANCH  15  18
ATOM     18  O   UNL     1      18.513 -14.149  14.534  1.00  0.00    -0.504 OA
ATOM     19  H   UNL     1      19.097 -14.234  13.715  1.00  0.00     0.293 HD
ENDBRANCH  15  18
BRANCH  17  20
ATOM     20  O   UNL     1      20.736 -12.250  14.513  1.00  0.00    -0.504 OA
ATOM     21  H   UNL     1      20.427 -12.095  13.565  1.00  0.00     0.293 HD
ENDBRANCH  17  20
ENDBRANCH   1  12
BRANCH   6  22
ATOM     22  O   UNL     1      20.612  -8.515  23.560  1.00  0.00    -0.507 OA
ATOM     23  H   UNL     1      20.833  -7.826  24.262  1.00  0.00     0.293 HD
ENDBRANCH   6  22
BRANCH   8  24
ATOM     24  O   UNL     1      17.696  -5.523  21.190  1.00  0.00    -0.508 OA
ATOM     25  H   UNL     1      16.711  -5.475  21.421  1.00  0.00     0.293 HD
ENDBRANCH   8  24
TORSDOF 5
ENDMDL
MODEL 5
REMARK VINA RESULT:    -6.311      2.142      7.685
REMARK INTER + INTRA:          -7.685
REMARK INTER:                  -7.387
REMARK INTRA:                  -0.298
REMARK UNBOUND:                -0.267
REMARK SMILES O=c1cc(-c2ccc(O)c(O)c2)oc2cc(O)cc(O)c12
REMARK SMILES IDX 4 1 3 2 2 3 1 4 21 5 19 6 18 7 16 8 15 9 14 10 13 11 5 12
REMARK SMILES IDX 6 13 7 14 8 15 12 16 10 17 9 18 11 20 20 22 17 24
REMARK H PARENT 9 19 11 21 20 23 17 25
REMARK Flexibility Score: inf
ROOT
ATOM      1  C   UNL     1      18.893 -11.457  17.562  1.00  0.00     0.138 A 
ATOM      2  C   UNL     1      19.117 -12.686  18.197  1.00  0.00     0.100 A 
ATOM      3  C   UNL     1      19.528 -13.787  17.444  1.00  0.00     0.197 A 
ATOM      4  O   UNL     1      19.662 -14.892  18.032  1.00  0.00    -0.289 OA
ATOM      5  C   UNL     1      19.747 -13.646  16.054  1.00  0.00     0.107 A 
ATOM      6  C   UNL     1      20.205 -14.689  15.194  1.00  0.00     0.134 A 
ATOM      7  C   UNL     1      20.273 -14.464  13.813  1.00  0.00     0.093 A 
ATOM      8  C   UNL     1      19.956 -13.216  13.269  1.00  0.00     0.123 A 
ATOM      9  C   UNL     1      19.559 -12.177  14.106  1.00  0.00     0.094 A 
ATOM     10  C   UNL     1      19.448 -12.380  15.484  1.00  0.00     0.146 A 
ATOM     11  O   UNL     1      19.052 -11.366  16.246  1.00  0.00    -0.456 OA
ENDROOT
BRANCH   1  12
ATOM     12  C   UNL     1      18.456 -10.255  18.315  1.00  0.00     0.021 A 
ATOM     13  C   UNL     1      18.992 -10.003  19.587  1.00  0.00     0.016 A 
ATOM     14  C   UNL     1      18.592  -8.883  20.319  1.00  0.00     0.051 A 
ATOM     15  C   UNL     1      17.642  -7.996  19.803  1.00  0.00     0.157 A 
ATOM     16  C   UNL     1      17.489  -9.370  17.802  1.00  0.00     0.062 A 
ATOM     17  C   UNL     1      17.079  -8.246  18.529  1.00  0.00     0.158 A 
BRANCH  15  18
ATOM     18  O   UNL     1      17.289  -6.892  20.581  1.00  0.00    -0.504 OA
ATOM     19  H   UNL     1      17.922  -6.417  21.207  1.00  0.00     0.293 HD
ENDBRANCH  15  18
BRANCH  17  20
ATOM     20  O   UNL     1      16.114  -7.414  17.955  1.00  0.00    -0.504 OA
ATOM     21  H   UNL     1      16.271  -6.853  17.131  1.00  0.00     0.293 HD
ENDBRANCH  17  20
ENDBRANCH   1  12
BRANCH   6  22
ATOM     22  O   UNL     1      20.627 -15.943  15.643  1.00  0.00    -0.507 OA
ATOM     23  H   UNL     1      21.512 -16.128  16.090  1.00  0.00     0.293 HD
ENDBRANCH   6  22
BRANCH   8  24
ATOM     24  O   UNL     1      20.041 -12.997  11.895  1.00  0.00    -0.508 OA
ATOM     25  H   UNL     1      19.571 -12.216  11.454  1.00  0.00     0.293 HD
ENDBRANCH   8  24
TORSDOF 5
ENDMDL
MODEL 6
REMARK VINA RESULT:    -6.297      1.529      1.681
REMARK INTER + INTRA:          -7.668
REMARK INTER:                  -7.381
REMARK INTRA:                  -0.287
REMARK UNBOUND:                -0.267
REMARK SMILES O=c1cc(-c2ccc(O)c(O)c2)oc2cc(O)cc(O)c12
REMARK SMILES IDX 4 1 3 2 2 3 1 4 21 5 19 6 18 7 16 8 15 9 14 10 13 11 5 12
REMARK SMILES IDX 6 13 7 14 8 15 12 16 10 17 9 18 11 20 20 22 17 24
REMARK H PARENT 9 19 11 21 20 23 17 25
REMARK Flexibility Score: inf
ROOT
ATOM      1  C   UNL     1      18.911  -9.559  19.557  1.00  0.00     0.138 A 
ATOM      2  C   UNL     1      19.122  -8.316  18.943  1.00  0.00     0.100 A 
ATOM      3  C   UNL     1      19.521  -7.224  19.715  1.00  0.00     0.197 A 
ATOM      4  O   UNL     1      19.642  -6.108  19.147  1.00  0.00    -0.289 OA
ATOM      5  C   UNL     1      19.741  -7.387  21.103  1.00  0.00     0.107 A 
ATOM      6  C   UNL     1      20.188  -6.354  21.981  1.00  0.00     0.134 A 
ATOM      7  C   UNL     1      20.258  -6.602  23.357  1.00  0.00     0.093 A 
ATOM      8  C   UNL     1      19.955  -7.862  23.880  1.00  0.00     0.123 A 
ATOM      9  C   UNL     1      19.568  -8.892  23.024  1.00  0.00     0.094 A 
ATOM     10  C   UNL     1      19.456  -8.666  21.650  1.00  0.00     0.146 A 
ATOM     11  O   UNL     1      19.071  -9.671  20.871  1.00  0.00    -0.456 OA
ENDROOT
BRANCH   1  12
ATOM     12  C   UNL     1      18.487 -10.753  18.783  1.00  0.00     0.021 A 
ATOM     13  C   UNL     1      17.681 -11.724  19.398  1.00  0.00     0.016 A 
ATOM     14  C   UNL     1      17.274 -12.859  18.694  1.00  0.00     0.051 A 
ATOM     15  C   UNL     1      17.670 -13.056  17.368  1.00  0.00     0.157 A 
ATOM     16  C   UNL     1      18.896 -10.958  17.453  1.00  0.00     0.062 A 
ATOM     17  C   UNL     1      18.496 -12.095  16.740  1.00  0.00     0.158 A 
BRANCH  15  18
ATOM     18  O   UNL     1      17.224 -14.209  16.718  1.00  0.00    -0.504 OA
ATOM     19  H   UNL     1      17.787 -15.037  16.588  1.00  0.00     0.293 HD
ENDBRANCH  15  18
BRANCH  17  20
ATOM     20  O   UNL     1      18.944 -12.231  15.424  1.00  0.00    -0.504 OA
ATOM     21  H   UNL     1      19.660 -11.653  15.009  1.00  0.00     0.293 HD
ENDBRANCH  17  20
ENDBRANCH   1  12
BRANCH   6  22
ATOM     22  O   UNL     1      20.596  -5.088  21.553  1.00  0.00    -0.507 OA
ATOM     23  H   UNL     1      20.354  -4.673  20.667  1.00  0.00     0.293 HD
ENDBRANCH   6  22
BRANCH   8  24
ATOM     24  O   UNL     1      20.042  -8.104  25.250  1.00  0.00    -0.508 OA
ATOM     25  H   UNL     1      19.261  -7.922  25.870  1.00  0.00     0.293 HD
ENDBRANCH   8  24
TORSDOF 5
ENDMDL
MODEL 7
REMARK VINA RESULT:    -6.295      1.678      3.457
REMARK INTER + INTRA:          -7.666
REMARK INTER:                  -7.402
REMARK INTRA:                  -0.264
REMARK UNBOUND:                -0.267
REMARK SMILES O=c1cc(-c2ccc(O)c(O)c2)oc2cc(O)cc(O)c12
REMARK SMILES IDX 4 1 3 2 2 3 1 4 21 5 19 6 18 7 16 8 15 9 14 10 13 11 5 12
REMARK SMILES IDX 6 13 7 14 8 15 12 16 10 17 9 18 11 20 20 22 17 24
REMARK H PARENT 9 19 11 21 20 23 17 25
REMARK Flexibility Score: inf
ROOT
ATOM      1  C   UNL     1      20.252 -10.166  18.763  1.00  0.00     0.138 A 
ATOM      2  C   UNL     1      20.978 -10.660  19.856  1.00  0.00     0.100 A 
ATOM      3  C   UNL     1      20.945  -9.976  21.072  1.00  0.00     0.197 A 
ATOM      4  O   UNL     1      21.655 -10.409  22.016  1.00  0.00    -0.289 OA
ATOM      5  C   UNL     1      20.154  -8.810  21.202  1.00  0.00     0.107 A 
ATOM      6  C   UNL     1      20.012  -8.055  22.404  1.00  0.00     0.134 A 
ATOM      7  C   UNL     1      19.296  -6.852  22.382  1.00  0.00     0.093 A 
ATOM      8  C   UNL     1      18.666  -6.408  21.216  1.00  0.00     0.123 A 
ATOM      9  C   UNL     1      18.755  -7.166  20.050  1.00  0.00     0.094 A 
ATOM     10  C   UNL     1      19.491  -8.353  20.032  1.00  0.00     0.146 A 
ATOM     11  O   UNL     1      19.562  -9.038  18.896  1.00  0.00    -0.456 OA
ENDROOT
BRANCH   1  12
ATOM     12  C   UNL     1      20.252 -10.854  17.448  1.00  0.00     0.021 A 
ATOM     13  C   UNL     1      21.215 -10.507  16.487  1.00  0.00     0.016 A 
ATOM     14  C   UNL     1      21.232 -11.135  15.239  1.00  0.00     0.051 A 
ATOM     15  C   UNL     1      20.285 -12.113  14.919  1.00  0.00     0.157 A 
ATOM     16  C   UNL     1      19.291 -11.828  17.121  1.00  0.00     0.062 A 
ATOM     17  C   UNL     1      19.298 -12.461  15.871  1.00  0.00     0.158 A 
BRANCH  15  18
ATOM     18  O   UNL     1      20.360 -12.706  13.657  1.00  0.00    -0.504 OA
ATOM     19  H   UNL     1      20.527 -13.690  13.505  1.00  0.00     0.293 HD
ENDBRANCH  15  18
BRANCH  17  20
ATOM     20  O   UNL     1      18.311 -13.416  15.618  1.00  0.00    -0.504 OA
ATOM     21  H   UNL     1      18.504 -14.381  15.391  1.00  0.00     0.293 HD
ENDBRANCH  17  20
ENDBRANCH   1  12
BRANCH   6  22
ATOM     22  O   UNL     1      20.528  -8.451  23.641  1.00  0.00    -0.507 OA
ATOM     23  H   UNL     1      20.072  -9.083  24.281  1.00  0.00     0.293 HD
ENDBRANCH   6  22
BRANCH   8  24
ATOM     24  O   UNL     1      17.942  -5.217  21.207  1.00  0.00    -0.508 OA
ATOM     25  H   UNL     1      18.104  -4.495  21.900  1.00  0.00     0.293 HD
ENDBRANCH   8  24
TORSDOF 5
ENDMDL
MODEL 8
REMARK VINA RESULT:    -6.191      1.573      2.543
REMARK INTER + INTRA:          -7.544
REMARK INTER:                  -7.231
REMARK INTRA:                  -0.313
REMARK UNBOUND:                -0.267
REMARK SMILES O=c1cc(-c2ccc(O)c(O)c2)oc2cc(O)cc(O)c12
REMARK SMILES IDX 4 1 3 2 2 3 1 4 21 5 19 6 18 7 16 8 15 9 14 10 13 11 5 12
REMARK SMILES IDX 6 13 7 14 8 15 12 16 10 17 9 18 11 20 20 22 17 24
REMARK H PARENT 9 19 11 21 20 23 17 25
REMARK Flexibility Score: inf
ROOT
ATOM      1  C   UNL     1      18.989 -10.238  19.268  1.00  0.00     0.138 A 
ATOM      2  C   UNL     1      18.908 -10.585  20.624  1.00  0.00     0.100 A 
ATOM      3  C   UNL     1      19.143  -9.614  21.599  1.00  0.00     0.197 A 
ATOM      4  O   UNL     1      19.125  -9.969  22.806  1.00  0.00    -0.289 OA
ATOM      5  C   UNL     1      19.428  -8.283  21.213  1.00  0.00     0.107 A 
ATOM      6  C   UNL     1      19.644  -7.203  22.120  1.00  0.00     0.134 A 
ATOM      7  C   UNL     1      20.034  -5.953  21.623  1.00  0.00     0.093 A 
ATOM      8  C   UNL     1      20.157  -5.729  20.250  1.00  0.00     0.123 A 
ATOM      9  C   UNL     1      19.897  -6.763  19.354  1.00  0.00     0.094 A 
ATOM     10  C   UNL     1      19.539  -8.031  19.820  1.00  0.00     0.146 A 
ATOM     11  O   UNL     1      19.313  -8.993  18.932  1.00  0.00    -0.456 OA
ENDROOT
BRANCH   1  12
ATOM     12  C   UNL     1      18.748 -11.230  18.190  1.00  0.00     0.021 A 
ATOM     13  C   UNL     1      18.060 -12.417  18.485  1.00  0.00     0.016 A 
ATOM     14  C   UNL     1      17.827 -13.369  17.490  1.00  0.00     0.051 A 
ATOM     15  C   UNL     1      18.283 -13.164  16.185  1.00  0.00     0.157 A 
ATOM     16  C   UNL     1      19.219 -11.029  16.879  1.00  0.00     0.062 A 
ATOM     17  C   UNL     1      18.993 -11.980  15.876  1.00  0.00     0.158 A 
BRANCH  15  18
ATOM     18  O   UNL     1      18.013 -14.151  15.235  1.00  0.00    -0.504 OA
ATOM     19  H   UNL     1      18.510 -15.027  15.174  1.00  0.00     0.293 HD
ENDBRANCH  15  18
BRANCH  17  20
ATOM     20  O   UNL     1      19.493 -11.712  14.599  1.00  0.00    -0.504 OA
ATOM     21  H   UNL     1      20.319 -12.145  14.214  1.00  0.00     0.293 HD
ENDBRANCH  17  20
ENDBRANCH   1  12
BRANCH   6  22
ATOM     22  O   UNL     1      19.465  -7.297  23.503  1.00  0.00    -0.507 OA
ATOM     23  H   UNL     1      18.573  -7.376  23.965  1.00  0.00     0.293 HD
ENDBRANCH   6  22
BRANCH   8  24
ATOM     24  O   UNL     1      20.531  -4.477  19.764  1.00  0.00    -0.508 OA
ATOM     25  H   UNL     1      21.240  -4.378  19.046  1.00  0.00     0.293 HD
ENDBRANCH   8  24
TORSDOF 5
ENDMDL
MODEL 9
REMARK VINA RESULT:    -6.067      2.542      7.185
REMARK INTER + INTRA:          -7.398
REMARK INTER:                  -7.098
REMARK INTRA:                  -0.300
REMARK UNBOUND:                -0.267
REMARK SMILES O=c1cc(-c2ccc(O)c(O)c2)oc2cc(O)cc(O)c12
REMARK SMILES IDX 4 1 3 2 2 3 1 4 21 5 19 6 18 7 16 8 15 9 14 10 13 11 5 12
REMARK SMILES IDX 6 13 7 14 8 15 12 16 10 17 9 18 11 20 20 22 17 24
REMARK H PARENT 9 19 11 21 20 23 17 25
REMARK Flexibility Score: inf
ROOT
ATOM      1  C   UNL     1      19.613  -8.375  19.728  1.00  0.00     0.138 A 
ATOM      2  C   UNL     1      18.993  -9.247  20.633  1.00  0.00     0.100 A 
ATOM      3  C   UNL     1      18.896 -10.606  20.326  1.00  0.00     0.197 A 
ATOM      4  O   UNL     1      18.280 -11.353  21.129  1.00  0.00    -0.289 OA
ATOM      5  C   UNL     1      19.452 -11.096  19.121  1.00  0.00     0.107 A 
ATOM      6  C   UNL     1      19.449 -12.467  18.724  1.00  0.00     0.134 A 
ATOM      7  C   UNL     1      19.925 -12.818  17.455  1.00  0.00     0.093 A 
ATOM      8  C   UNL     1      20.460 -11.856  16.594  1.00  0.00     0.123 A 
ATOM      9  C   UNL     1      20.517 -10.523  16.994  1.00  0.00     0.094 A 
ATOM     10  C   UNL     1      20.018 -10.136  18.240  1.00  0.00     0.146 A 
ATOM     11  O   UNL     1      20.078  -8.853  18.578  1.00  0.00    -0.456 OA
ENDROOT
BRANCH   1  12
ATOM     12  C   UNL     1      19.743  -6.923  20.004  1.00  0.00     0.021 A 
ATOM     13  C   UNL     1      18.703  -6.249  20.663  1.00  0.00     0.016 A 
ATOM     14  C   UNL     1      18.799  -4.881  20.929  1.00  0.00     0.051 A 
ATOM     15  C   UNL     1      19.926  -4.154  20.534  1.00  0.00     0.157 A 
ATOM     16  C   UNL     1      20.872  -6.189  19.595  1.00  0.00     0.062 A 
ATOM     17  C   UNL     1      20.975  -4.816  19.854  1.00  0.00     0.158 A 
BRANCH  15  18
ATOM     18  O   UNL     1      19.963  -2.791  20.835  1.00  0.00    -0.504 OA
ATOM     19  H   UNL     1      20.738  -2.184  20.612  1.00  0.00     0.293 HD
ENDBRANCH  15  18
BRANCH  17  20
ATOM     20  O   UNL     1      22.125  -4.154  19.416  1.00  0.00    -0.504 OA
ATOM     21  H   UNL     1      22.611  -4.375  18.559  1.00  0.00     0.293 HD
ENDBRANCH  17  20
ENDBRANCH   1  12
BRANCH   6  22
ATOM     22  O   UNL     1      19.016 -13.515  19.540  1.00  0.00    -0.507 OA
ATOM     23  H   UNL     1      18.052 -13.772  19.687  1.00  0.00     0.293 HD
ENDBRANCH   6  22
BRANCH   8  24
ATOM     24  O   UNL     1      20.946 -12.217  15.338  1.00  0.00    -0.508 OA
ATOM     25  H   UNL     1      21.938 -12.336  15.169  1.00  0.00     0.293 HD
ENDBRANCH   8  24
TORSDOF 5
ENDMDL
