MODEL 1
REMARK VINA RESULT:    -5.426      0.000      0.000
REMARK INTER + INTRA:          -5.426
REMARK INTER:                  -5.426
REMARK INTRA:                   0.000
REMARK UNBOUND:                 0.000
REMARK SMILES C=C1CCC[C@@]2(C)C=C3OC(=O)C(C)=C3C[C@@H]12
REMARK SMILES IDX 14 1 13 2 15 3 16 4 17 5 2 6 1 7 3 8 4 9 5 10 6 11 8 12 9 13
REMARK SMILES IDX 10 14 11 15 12 16 7 17
REMARK H PARENT
REMARK Flexibility Score: inf
ROOT
ATOM      1  C   UNL     1      20.383  -6.745 105.996  1.00  0.00     0.053 C 
ATOM      2  C   UNL     1      21.790  -6.366 105.661  1.00  0.00     0.041 C 
ATOM      3  C   UNL     1      22.262  -6.054 104.455  1.00  0.00     0.005 C 
ATOM      4  C   UNL     1      21.537  -5.979 103.152  1.00  0.00     0.049 C 
ATOM      5  C   UNL     1      22.561  -6.033 101.988  1.00  0.00     0.029 C 
ATOM      6  C   UNL     1      21.849  -5.739 100.680  1.00  0.00    -0.073 C 
ATOM      7  C   UNL     1      21.394  -6.741  99.911  1.00  0.00     0.008 C 
ATOM      8  C   UNL     1      21.513  -4.304 100.340  1.00  0.00     0.031 C 
ATOM      9  C   UNL     1      22.722  -3.389 100.546  1.00  0.00     0.005 C 
ATOM     10  C   UNL     1      23.375  -3.595 101.924  1.00  0.00     0.012 C 
ATOM     11  C   UNL     1      23.795  -5.068 102.182  1.00  0.00    -0.004 C 
ATOM     12  C   UNL     1      24.367  -5.154 103.595  1.00  0.00     0.027 C 
ATOM     13  C   UNL     1      23.623  -5.585 104.608  1.00  0.00     0.131 C 
ATOM     14  O   UNL     1      24.001  -5.635 105.942  1.00  0.00    -0.423 OA
ATOM     15  C   UNL     1      22.878  -6.107 106.608  1.00  0.00     0.339 C 
ATOM     16  O   UNL     1      22.818  -6.270 107.855  1.00  0.00    -0.246 OA
ATOM     17  C   UNL     1      24.927  -5.484 101.213  1.00  0.00     0.016 C 
ENDROOT
TORSDOF 0
ENDMDL
MODEL 2
REMARK VINA RESULT:    -5.363     12.299     14.492
REMARK INTER + INTRA:          -5.363
REMARK INTER:                  -5.363
REMARK INTRA:                   0.000
REMARK UNBOUND:                 0.000
REMARK SMILES C=C1CCC[C@@]2(C)C=C3OC(=O)C(C)=C3C[C@@H]12
REMARK SMILES IDX 14 1 13 2 15 3 16 4 17 5 2 6 1 7 3 8 4 9 5 10 6 11 8 12 9 13
REMARK SMILES IDX 10 14 11 15 12 16 7 17
REMARK H PARENT
REMARK Flexibility Score: inf
ROOT
ATOM      1  C   UNL     1      32.931   6.358  99.620  1.00  0.00     0.053 C 
ATOM      2  C   UNL     1      32.577   4.953  99.991  1.00  0.00     0.041 C 
ATOM      3  C   UNL     1      32.421   4.473 101.223  1.00  0.00     0.005 C 
ATOM      4  C   UNL     1      32.531   5.185 102.531  1.00  0.00     0.049 C 
ATOM      5  C   UNL     1      32.723   4.148 103.669  1.00  0.00     0.029 C 
ATOM      6  C   UNL     1      32.617   4.851 105.010  1.00  0.00    -0.073 C 
ATOM      7  C   UNL     1      33.719   5.283 105.643  1.00  0.00     0.008 C 
ATOM      8  C   UNL     1      31.246   5.205 105.541  1.00  0.00     0.031 C 
ATOM      9  C   UNL     1      30.292   4.010 105.448  1.00  0.00     0.005 C 
ATOM     10  C   UNL     1      30.303   3.369 104.050  1.00  0.00     0.012 C 
ATOM     11  C   UNL     1      31.722   2.931 103.595  1.00  0.00    -0.004 C 
ATOM     12  C   UNL     1      31.611   2.372 102.178  1.00  0.00     0.027 C 
ATOM     13  C   UNL     1      31.915   3.121 101.122  1.00  0.00     0.131 C 
ATOM     14  O   UNL     1      31.781   2.756  99.791  1.00  0.00    -0.423 OA
ATOM     15  C   UNL     1      32.178   3.879  99.077  1.00  0.00     0.339 C 
ATOM     16  O   UNL     1      32.175   3.950  97.820  1.00  0.00    -0.246 OA
ATOM     17  C   UNL     1      32.246   1.782 104.490  1.00  0.00     0.016 C 
ENDROOT
TORSDOF 0
ENDMDL
MODEL 3
REMARK VINA RESULT:    -5.344     10.494     12.126
REMARK INTER + INTRA:          -5.344
REMARK INTER:                  -5.344
REMARK INTRA:                   0.000
REMARK UNBOUND:                 0.000
REMARK SMILES C=C1CCC[C@@]2(C)C=C3OC(=O)C(C)=C3C[C@@H]12
REMARK SMILES IDX 14 1 13 2 15 3 16 4 17 5 2 6 1 7 3 8 4 9 5 10 6 11 8 12 9 13
REMARK SMILES IDX 10 14 11 15 12 16 7 17
REMARK H PARENT
REMARK Flexibility Score: inf
ROOT
ATOM      1  C   UNL     1      27.842   1.053 102.328  1.00  0.00     0.053 C 
ATOM      2  C   UNL     1      28.900   1.765 103.108  1.00  0.00     0.041 C 
ATOM      3  C   UNL     1      30.073   2.192 102.645  1.00  0.00     0.005 C 
ATOM      4  C   UNL     1      30.630   2.101 101.263  1.00  0.00     0.049 C 
ATOM      5  C   UNL     1      32.167   2.307 101.311  1.00  0.00     0.029 C 
ATOM      6  C   UNL     1      32.700   2.431  99.894  1.00  0.00    -0.073 C 
ATOM      7  C   UNL     1      33.179   1.354  99.250  1.00  0.00     0.008 C 
ATOM      8  C   UNL     1      32.529   3.743  99.163  1.00  0.00     0.031 C 
ATOM      9  C   UNL     1      32.961   4.923 100.038  1.00  0.00     0.005 C 
ATOM     10  C   UNL     1      32.324   4.870 101.437  1.00  0.00     0.012 C 
ATOM     11  C   UNL     1      32.616   3.541 102.186  1.00  0.00    -0.004 C 
ATOM     12  C   UNL     1      31.883   3.585 103.524  1.00  0.00     0.027 C 
ATOM     13  C   UNL     1      30.711   2.977 103.682  1.00  0.00     0.131 C 
ATOM     14  O   UNL     1      29.915   3.010 104.818  1.00  0.00    -0.423 OA
ATOM     15  C   UNL     1      28.788   2.273 104.479  1.00  0.00     0.339 C 
ATOM     16  O   UNL     1      27.810   2.089 105.250  1.00  0.00    -0.246 OA
ATOM     17  C   UNL     1      34.125   3.421 102.505  1.00  0.00     0.016 C 
ENDROOT
TORSDOF 0
ENDMDL
MODEL 4
REMARK VINA RESULT:    -5.227     12.288     13.836
REMARK INTER + INTRA:          -5.227
REMARK INTER:                  -5.227
REMARK INTRA:                   0.000
REMARK UNBOUND:                 0.000
REMARK SMILES C=C1CCC[C@@]2(C)C=C3OC(=O)C(C)=C3C[C@@H]12
REMARK SMILES IDX 14 1 13 2 15 3 16 4 17 5 2 6 1 7 3 8 4 9 5 10 6 11 8 12 9 13
REMARK SMILES IDX 10 14 11 15 12 16 7 17
REMARK H PARENT
REMARK Flexibility Score: inf
ROOT
ATOM      1  C   UNL     1      29.224   7.006 104.921  1.00  0.00     0.053 C 
ATOM      2  C   UNL     1      30.408   6.263 105.453  1.00  0.00     0.041 C 
ATOM      3  C   UNL     1      31.067   5.281 104.843  1.00  0.00     0.005 C 
ATOM      4  C   UNL     1      30.830   4.682 103.496  1.00  0.00     0.049 C 
ATOM      5  C   UNL     1      31.529   3.300 103.414  1.00  0.00     0.029 C 
ATOM      6  C   UNL     1      31.472   2.794 101.984  1.00  0.00    -0.073 C 
ATOM      7  C   UNL     1      30.487   1.969 101.591  1.00  0.00     0.008 C 
ATOM      8  C   UNL     1      32.439   3.362 100.970  1.00  0.00     0.031 C 
ATOM      9  C   UNL     1      33.870   3.367 101.515  1.00  0.00     0.005 C 
ATOM     10  C   UNL     1      33.954   3.994 102.917  1.00  0.00     0.012 C 
ATOM     11  C   UNL     1      33.015   3.307 103.946  1.00  0.00    -0.004 C 
ATOM     12  C   UNL     1      33.141   4.055 105.271  1.00  0.00     0.027 C 
ATOM     13  C   UNL     1      32.243   4.967 105.629  1.00  0.00     0.131 C 
ATOM     14  O   UNL     1      32.289   5.765 106.763  1.00  0.00    -0.423 OA
ATOM     15  C   UNL     1      31.167   6.577 106.667  1.00  0.00     0.339 C 
ATOM     16  O   UNL     1      30.869   7.465 107.509  1.00  0.00    -0.246 OA
ATOM     17  C   UNL     1      33.472   1.852 104.206  1.00  0.00     0.016 C 
ENDROOT
TORSDOF 0
ENDMDL
MODEL 5
REMARK VINA RESULT:    -5.183     10.481     12.395
REMARK INTER + INTRA:          -5.183
REMARK INTER:                  -5.183
REMARK INTRA:                   0.000
REMARK UNBOUND:                 0.000
REMARK SMILES C=C1CCC[C@@]2(C)C=C3OC(=O)C(C)=C3C[C@@H]12
REMARK SMILES IDX 14 1 13 2 15 3 16 4 17 5 2 6 1 7 3 8 4 9 5 10 6 11 8 12 9 13
REMARK SMILES IDX 10 14 11 15 12 16 7 17
REMARK H PARENT
REMARK Flexibility Score: inf
ROOT
ATOM      1  C   UNL     1      34.125   3.227 102.696  1.00  0.00     0.053 C 
ATOM      2  C   UNL     1      32.979   3.954 103.324  1.00  0.00     0.041 C 
ATOM      3  C   UNL     1      31.726   3.516 103.433  1.00  0.00     0.005 C 
ATOM      4  C   UNL     1      31.142   2.215 102.992  1.00  0.00     0.049 C 
ATOM      5  C   UNL     1      29.599   2.343 102.909  1.00  0.00     0.029 C 
ATOM      6  C   UNL     1      28.994   0.970 102.674  1.00  0.00    -0.073 C 
ATOM      7  C   UNL     1      28.712   0.553 101.429  1.00  0.00     0.008 C 
ATOM      8  C   UNL     1      28.870   0.018 103.843  1.00  0.00     0.031 C 
ATOM      9  C   UNL     1      28.248   0.713 105.057  1.00  0.00     0.005 C 
ATOM     10  C   UNL     1      28.940   2.049 105.377  1.00  0.00     0.012 C 
ATOM     11  C   UNL     1      28.950   3.030 104.173  1.00  0.00    -0.004 C 
ATOM     12  C   UNL     1      29.714   4.283 104.593  1.00  0.00     0.027 C 
ATOM     13  C   UNL     1      30.989   4.452 104.256  1.00  0.00     0.131 C 
ATOM     14  O   UNL     1      31.809   5.503 104.641  1.00  0.00    -0.423 OA
ATOM     15  C   UNL     1      33.044   5.208 104.081  1.00  0.00     0.339 C 
ATOM     16  O   UNL     1      34.070   5.923 104.226  1.00  0.00    -0.246 OA
ATOM     17  C   UNL     1      27.509   3.478 103.829  1.00  0.00     0.016 C 
ENDROOT
TORSDOF 0
ENDMDL
MODEL 6
REMARK VINA RESULT:    -5.182     11.688     13.461
REMARK INTER + INTRA:          -5.182
REMARK INTER:                  -5.182
REMARK INTRA:                   0.000
REMARK UNBOUND:                 0.000
REMARK SMILES C=C1CCC[C@@]2(C)C=C3OC(=O)C(C)=C3C[C@@H]12
REMARK SMILES IDX 14 1 13 2 15 3 16 4 17 5 2 6 1 7 3 8 4 9 5 10 6 11 8 12 9 13
REMARK SMILES IDX 10 14 11 15 12 16 7 17
REMARK H PARENT
REMARK Flexibility Score: inf
ROOT
ATOM      1  C   UNL     1      34.125   6.037 104.844  1.00  0.00     0.053 C 
ATOM      2  C   UNL     1      33.050   5.001 104.920  1.00  0.00     0.041 C 
ATOM      3  C   UNL     1      32.590   4.260 103.915  1.00  0.00     0.005 C 
ATOM      4  C   UNL     1      33.020   4.242 102.485  1.00  0.00     0.049 C 
ATOM      5  C   UNL     1      31.916   3.576 101.622  1.00  0.00     0.029 C 
ATOM      6  C   UNL     1      32.442   3.363 100.214  1.00  0.00    -0.073 C 
ATOM      7  C   UNL     1      32.207   4.271  99.253  1.00  0.00     0.008 C 
ATOM      8  C   UNL     1      33.372   2.200  99.951  1.00  0.00     0.031 C 
ATOM      9  C   UNL     1      32.822   0.905 100.555  1.00  0.00     0.005 C 
ATOM     10  C   UNL     1      32.402   1.084 102.024  1.00  0.00     0.012 C 
ATOM     11  C   UNL     1      31.367   2.225 102.225  1.00  0.00    -0.004 C 
ATOM     12  C   UNL     1      31.081   2.344 103.719  1.00  0.00     0.027 C 
ATOM     13  C   UNL     1      31.682   3.271 104.459  1.00  0.00     0.131 C 
ATOM     14  O   UNL     1      31.567   3.429 105.832  1.00  0.00    -0.423 OA
ATOM     15  C   UNL     1      32.410   4.489 106.136  1.00  0.00     0.339 C 
ATOM     16  O   UNL     1      32.599   4.924 107.302  1.00  0.00    -0.246 OA
ATOM     17  C   UNL     1      30.028   1.866 101.539  1.00  0.00     0.016 C 
ENDROOT
TORSDOF 0
ENDMDL
MODEL 7
REMARK VINA RESULT:    -5.121      2.934      4.814
REMARK INTER + INTRA:          -5.121
REMARK INTER:                  -5.121
REMARK INTRA:                   0.000
REMARK UNBOUND:                 0.000
REMARK SMILES C=C1CCC[C@@]2(C)C=C3OC(=O)C(C)=C3C[C@@H]12
REMARK SMILES IDX 14 1 13 2 15 3 16 4 17 5 2 6 1 7 3 8 4 9 5 10 6 11 8 12 9 13
REMARK SMILES IDX 10 14 11 15 12 16 7 17
REMARK H PARENT
REMARK Flexibility Score: inf
ROOT
ATOM      1  C   UNL     1      23.740  -7.021 103.155  1.00  0.00     0.053 C 
ATOM      2  C   UNL     1      22.905  -5.917 102.589  1.00  0.00     0.041 C 
ATOM      3  C   UNL     1      23.252  -4.636 102.479  1.00  0.00     0.005 C 
ATOM      4  C   UNL     1      24.534  -3.973 102.859  1.00  0.00     0.049 C 
ATOM      5  C   UNL     1      24.309  -2.443 102.977  1.00  0.00     0.029 C 
ATOM      6  C   UNL     1      25.650  -1.751 103.147  1.00  0.00    -0.073 C 
ATOM      7  C   UNL     1      26.116  -1.460 104.373  1.00  0.00     0.008 C 
ATOM      8  C   UNL     1      26.524  -1.546 101.931  1.00  0.00     0.031 C 
ATOM      9  C   UNL     1      25.724  -0.955 100.768  1.00  0.00     0.005 C 
ATOM     10  C   UNL     1      24.421  -1.730 100.509  1.00  0.00     0.012 C 
ATOM     11  C   UNL     1      23.511  -1.823 101.764  1.00  0.00    -0.004 C 
ATOM     12  C   UNL     1      22.290  -2.664 101.399  1.00  0.00     0.027 C 
ATOM     13  C   UNL     1      22.225  -3.952 101.722  1.00  0.00     0.131 C 
ATOM     14  O   UNL     1      21.211  -4.834 101.380  1.00  0.00    -0.423 OA
ATOM     15  C   UNL     1      21.618  -6.055 101.901  1.00  0.00     0.339 C 
ATOM     16  O   UNL     1      20.966  -7.125 101.776  1.00  0.00    -0.246 OA
ATOM     17  C   UNL     1      22.989  -0.421 102.158  1.00  0.00     0.016 C 
ENDROOT
TORSDOF 0
ENDMDL
MODEL 8
REMARK VINA RESULT:    -5.041      2.340      4.137
REMARK INTER + INTRA:          -5.041
REMARK INTER:                  -5.041
REMARK INTRA:                   0.000
REMARK UNBOUND:                 0.000
REMARK SMILES C=C1CCC[C@@]2(C)C=C3OC(=O)C(C)=C3C[C@@H]12
REMARK SMILES IDX 14 1 13 2 15 3 16 4 17 5 2 6 1 7 3 8 4 9 5 10 6 11 8 12 9 13
REMARK SMILES IDX 10 14 11 15 12 16 7 17
REMARK H PARENT
REMARK Flexibility Score: inf
ROOT
ATOM      1  C   UNL     1      24.744  -0.121 102.634  1.00  0.00     0.053 C 
ATOM      2  C   UNL     1      24.763  -1.524 103.152  1.00  0.00     0.041 C 
ATOM      3  C   UNL     1      23.998  -2.532 102.739  1.00  0.00     0.005 C 
ATOM      4  C   UNL     1      22.959  -2.547 101.667  1.00  0.00     0.049 C 
ATOM      5  C   UNL     1      22.037  -3.780 101.858  1.00  0.00     0.029 C 
ATOM      6  C   UNL     1      21.124  -3.914 100.653  1.00  0.00    -0.073 C 
ATOM      7  C   UNL     1      19.892  -3.382 100.668  1.00  0.00     0.008 C 
ATOM      8  C   UNL     1      21.682  -4.509  99.379  1.00  0.00     0.031 C 
ATOM      9  C   UNL     1      22.445  -5.805  99.662  1.00  0.00     0.005 C 
ATOM     10  C   UNL     1      23.463  -5.640 100.803  1.00  0.00     0.012 C 
ATOM     11  C   UNL     1      22.821  -5.125 102.120  1.00  0.00    -0.004 C 
ATOM     12  C   UNL     1      23.934  -4.943 103.148  1.00  0.00     0.027 C 
ATOM     13  C   UNL     1      24.462  -3.745 103.380  1.00  0.00     0.131 C 
ATOM     14  O   UNL     1      25.525  -3.465 104.226  1.00  0.00    -0.423 OA
ATOM     15  C   UNL     1      25.730  -2.098 104.092  1.00  0.00     0.339 C 
ATOM     16  O   UNL     1      26.635  -1.462 104.693  1.00  0.00    -0.246 OA
ATOM     17  C   UNL     1      21.847  -6.180 102.695  1.00  0.00     0.016 C 
ENDROOT
TORSDOF 0
ENDMDL
MODEL 9
REMARK VINA RESULT:    -4.943      3.137      4.919
REMARK INTER + INTRA:          -4.943
REMARK INTER:                  -4.943
REMARK INTRA:                   0.000
REMARK UNBOUND:                 0.000
REMARK SMILES C=C1CCC[C@@]2(C)C=C3OC(=O)C(C)=C3C[C@@H]12
REMARK SMILES IDX 14 1 13 2 15 3 16 4 17 5 2 6 1 7 3 8 4 9 5 10 6 11 8 12 9 13
REMARK SMILES IDX 10 14 11 15 12 16 7 17
REMARK H PARENT
REMARK Flexibility Score: inf
ROOT
ATOM      1  C   UNL     1      25.544  -1.294 104.123  1.00  0.00     0.053 C 
ATOM      2  C   UNL     1      24.434  -1.416 103.129  1.00  0.00     0.041 C 
ATOM      3  C   UNL     1      23.974  -2.542 102.588  1.00  0.00     0.005 C 
ATOM      4  C   UNL     1      24.408  -3.949 102.832  1.00  0.00     0.049 C 
ATOM      5  C   UNL     1      23.919  -4.850 101.668  1.00  0.00     0.029 C 
ATOM      6  C   UNL     1      24.169  -6.305 102.021  1.00  0.00    -0.073 C 
ATOM      7  C   UNL     1      25.289  -6.923 101.613  1.00  0.00     0.008 C 
ATOM      8  C   UNL     1      23.222  -6.997 102.976  1.00  0.00     0.031 C 
ATOM      9  C   UNL     1      21.763  -6.750 102.583  1.00  0.00     0.005 C 
ATOM     10  C   UNL     1      21.472  -5.258 102.344  1.00  0.00     0.012 C 
ATOM     11  C   UNL     1      22.406  -4.621 101.280  1.00  0.00    -0.004 C 
ATOM     12  C   UNL     1      22.063  -3.137 101.181  1.00  0.00     0.027 C 
ATOM     13  C   UNL     1      22.791  -2.223 101.816  1.00  0.00     0.131 C 
ATOM     14  O   UNL     1      22.536  -0.861 101.868  1.00  0.00    -0.423 OA
ATOM     15  C   UNL     1      23.537  -0.346 102.681  1.00  0.00     0.339 C 
ATOM     16  O   UNL     1      23.635   0.870 102.991  1.00  0.00    -0.246 OA
ATOM     17  C   UNL     1      22.136  -5.237  99.887  1.00  0.00     0.016 C 
ENDROOT
TORSDOF 0
ENDMDL
