MODEL 1
REMARK VINA RESULT:    -2.289      0.000      0.000
REMARK INTER + INTRA:          -6.082
REMARK INTER:                  -3.494
REMARK INTRA:                  -2.588
REMARK UNBOUND:                -2.588
REMARK SMILES CC(=O)CCC=C(C)CCC=C(C)CCC=C(C)C
REMARK SMILES IDX 10 1 11 2 12 3 13 4 14 5 15 6 16 7 18 8 17 9 19 10 9 11 7 12
REMARK SMILES IDX 6 13 8 14 5 15 4 16 2 17 3 18 1 19
REMARK H PARENT
REMARK Flexibility Score: inf
ROOT
ATOM      1  C   UNL     1      31.927  59.852   9.889  1.00  0.00     0.032 C 
ENDROOT
BRANCH   1   2
ATOM      2  C   UNL     1      31.051  60.968   9.366  1.00  0.00    -0.028 C 
ATOM      3  C   UNL     1      29.714  61.054   9.553  1.00  0.00    -0.077 C 
ATOM      4  C   UNL     1      29.003  62.282   9.043  1.00  0.00     0.039 C 
BRANCH   3   5
ATOM      5  C   UNL     1      28.900  59.960  10.218  1.00  0.00     0.034 C 
BRANCH   5   6
ATOM      6  C   UNL     1      28.557  60.311  11.674  1.00  0.00     0.032 C 
BRANCH   6   7
ATOM      7  C   UNL     1      29.527  59.676  12.642  1.00  0.00    -0.028 C 
ATOM      8  C   UNL     1      30.820  61.793  12.993  1.00  0.00     0.039 C 
ATOM      9  C   UNL     1      30.527  60.336  13.268  1.00  0.00    -0.080 C 
ATOM     10  C   UNL     1      31.378  59.580  14.255  1.00  0.00     0.039 C 
ENDBRANCH   6   7
ENDBRANCH   5   6
ENDBRANCH   3   5
ENDBRANCH   1   2
BRANCH   1  11
ATOM     11  C   UNL     1      32.094  58.731   8.850  1.00  0.00     0.034 C 
BRANCH  11  12
ATOM     12  C   UNL     1      31.690  57.383   9.410  1.00  0.00    -0.077 C 
ATOM     13  C   UNL     1      31.302  57.298  10.702  1.00  0.00    -0.028 C 
ATOM     14  C   UNL     1      31.737  56.172   8.508  1.00  0.00     0.039 C 
BRANCH  13  15
ATOM     15  C   UNL     1      30.788  56.040  11.360  1.00  0.00     0.035 C 
BRANCH  15  16
ATOM     16  C   UNL     1      31.345  55.876  12.781  1.00  0.00     0.079 C 
BRANCH  16  17
ATOM     17  C   UNL     1      30.272  56.049  13.827  1.00  0.00     0.130 C 
ATOM     18  O   UNL     1      30.574  56.041  15.010  1.00  0.00    -0.300 OA
ATOM     19  C   UNL     1      28.831  56.194  13.437  1.00  0.00     0.087 C 
ENDBRANCH  16  17
ENDBRANCH  15  16
ENDBRANCH  13  15
ENDBRANCH  11  12
ENDBRANCH   1  11
TORSDOF 9
ENDMDL
MODEL 2
REMARK VINA RESULT:    -2.101      2.418      5.518
REMARK INTER + INTRA:          -5.794
REMARK INTER:                  -2.730
REMARK INTRA:                  -3.064
REMARK UNBOUND:                -2.588
REMARK SMILES CC(=O)CCC=C(C)CCC=C(C)CCC=C(C)C
REMARK SMILES IDX 10 1 11 2 12 3 13 4 14 5 15 6 16 7 18 8 17 9 19 10 9 11 7 12
REMARK SMILES IDX 6 13 8 14 5 15 4 16 2 17 3 18 1 19
REMARK H PARENT
REMARK Flexibility Score: inf
ROOT
ATOM      1  C   UNL     1      31.352  56.948  12.396  1.00  0.00     0.032 C 
ENDROOT
BRANCH   1   2
ATOM      2  C   UNL     1      31.210  56.226  11.076  1.00  0.00    -0.028 C 
ATOM      3  C   UNL     1      31.493  56.762   9.867  1.00  0.00    -0.077 C 
ATOM      4  C   UNL     1      31.385  55.875   8.652  1.00  0.00     0.039 C 
BRANCH   3   5
ATOM      5  C   UNL     1      31.878  58.218   9.677  1.00  0.00     0.034 C 
BRANCH   5   6
ATOM      6  C   UNL     1      30.870  58.961   8.786  1.00  0.00     0.032 C 
BRANCH   6   7
ATOM      7  C   UNL     1      29.830  59.687   9.607  1.00  0.00    -0.028 C 
ATOM      8  C   UNL     1      28.124  57.869   9.358  1.00  0.00     0.039 C 
ATOM      9  C   UNL     1      28.606  59.195   9.900  1.00  0.00    -0.080 C 
ATOM     10  C   UNL     1      27.698  60.013  10.782  1.00  0.00     0.039 C 
ENDBRANCH   6   7
ENDBRANCH   5   6
ENDBRANCH   3   5
ENDBRANCH   1   2
BRANCH   1  11
ATOM     11  C   UNL     1      29.989  57.411  12.936  1.00  0.00     0.034 C 
BRANCH  11  12
ATOM     12  C   UNL     1      30.020  58.863  13.367  1.00  0.00    -0.077 C 
ATOM     13  C   UNL     1      31.008  59.663  12.908  1.00  0.00    -0.028 C 
ATOM     14  C   UNL     1      28.946  59.373  14.300  1.00  0.00     0.039 C 
BRANCH  13  15
ATOM     15  C   UNL     1      31.107  61.144  13.184  1.00  0.00     0.035 C 
BRANCH  15  16
ATOM     16  C   UNL     1      31.511  61.928  11.928  1.00  0.00     0.079 C 
BRANCH  16  17
ATOM     17  C   UNL     1      30.501  62.994  11.583  1.00  0.00     0.130 C 
ATOM     18  O   UNL     1      30.683  63.706  10.607  1.00  0.00    -0.300 OA
ATOM     19  C   UNL     1      29.291  63.216  12.441  1.00  0.00     0.087 C 
ENDBRANCH  16  17
ENDBRANCH  15  16
ENDBRANCH  13  15
ENDBRANCH  11  12
ENDBRANCH   1  11
TORSDOF 9
ENDMDL
MODEL 3
REMARK VINA RESULT:    -2.029      1.634      2.907
REMARK INTER + INTRA:          -5.684
REMARK INTER:                  -3.053
REMARK INTRA:                  -2.631
REMARK UNBOUND:                -2.588
REMARK SMILES CC(=O)CCC=C(C)CCC=C(C)CCC=C(C)C
REMARK SMILES IDX 10 1 11 2 12 3 13 4 14 5 15 6 16 7 18 8 17 9 19 10 9 11 7 12
REMARK SMILES IDX 6 13 8 14 5 15 4 16 2 17 3 18 1 19
REMARK H PARENT
REMARK Flexibility Score: inf
ROOT
ATOM      1  C   UNL     1      31.364  60.074  10.546  1.00  0.00     0.032 C 
ENDROOT
BRANCH   1   2
ATOM      2  C   UNL     1      30.302  61.077  10.159  1.00  0.00    -0.028 C 
ATOM      3  C   UNL     1      29.023  61.058  10.598  1.00  0.00    -0.077 C 
ATOM      4  C   UNL     1      28.112  62.187  10.188  1.00  0.00     0.039 C 
BRANCH   3   5
ATOM      5  C   UNL     1      28.458  59.937  11.452  1.00  0.00     0.034 C 
BRANCH   5   6
ATOM      6  C   UNL     1      27.288  59.226  10.756  1.00  0.00     0.032 C 
BRANCH   6   7
ATOM      7  C   UNL     1      27.773  58.185   9.775  1.00  0.00    -0.028 C 
ATOM      8  C   UNL     1      27.222  56.264  11.287  1.00  0.00     0.039 C 
ATOM      9  C   UNL     1      27.719  56.851   9.986  1.00  0.00    -0.080 C 
ATOM     10  C   UNL     1      28.187  55.932   8.887  1.00  0.00     0.039 C 
ENDBRANCH   6   7
ENDBRANCH   5   6
ENDBRANCH   3   5
ENDBRANCH   1   2
BRANCH   1  11
ATOM     11  C   UNL     1      31.621  59.060   9.420  1.00  0.00     0.034 C 
BRANCH  11  12
ATOM     12  C   UNL     1      31.521  57.632   9.916  1.00  0.00    -0.077 C 
ATOM     13  C   UNL     1      31.147  57.407  11.196  1.00  0.00    -0.028 C 
ATOM     14  C   UNL     1      31.846  56.502   8.967  1.00  0.00     0.039 C 
BRANCH  13  15
ATOM     15  C   UNL     1      30.919  56.039  11.792  1.00  0.00     0.035 C 
BRANCH  15  16
ATOM     16  C   UNL     1      31.650  55.875  13.131  1.00  0.00     0.079 C 
BRANCH  16  17
ATOM     17  C   UNL     1      30.920  56.564  14.256  1.00  0.00     0.130 C 
ATOM     18  O   UNL     1      31.552  57.183  15.099  1.00  0.00    -0.300 OA
ATOM     19  C   UNL     1      29.428  56.472  14.378  1.00  0.00     0.087 C 
ENDBRANCH  16  17
ENDBRANCH  15  16
ENDBRANCH  13  15
ENDBRANCH  11  12
ENDBRANCH   1  11
TORSDOF 9
ENDMDL
MODEL 4
REMARK VINA RESULT:    -2.002      2.124      3.883
REMARK INTER + INTRA:          -5.644
REMARK INTER:                  -2.487
REMARK INTRA:                  -3.156
REMARK UNBOUND:                -2.588
REMARK SMILES CC(=O)CCC=C(C)CCC=C(C)CCC=C(C)C
REMARK SMILES IDX 10 1 11 2 12 3 13 4 14 5 15 6 16 7 18 8 17 9 19 10 9 11 7 12
REMARK SMILES IDX 6 13 8 14 5 15 4 16 2 17 3 18 1 19
REMARK H PARENT
REMARK Flexibility Score: inf
ROOT
ATOM      1  C   UNL     1      29.886  60.285  12.467  1.00  0.00     0.032 C 
ENDROOT
BRANCH   1   2
ATOM      2  C   UNL     1      30.227  61.153  11.278  1.00  0.00    -0.028 C 
ATOM      3  C   UNL     1      29.690  61.019  10.043  1.00  0.00    -0.077 C 
ATOM      4  C   UNL     1      30.071  62.027   8.989  1.00  0.00     0.039 C 
BRANCH   3   5
ATOM      5  C   UNL     1      28.754  59.885   9.667  1.00  0.00     0.034 C 
BRANCH   5   6
ATOM      6  C   UNL     1      29.309  59.053   8.500  1.00  0.00     0.032 C 
BRANCH   6   7
ATOM      7  C   UNL     1      29.687  57.659   8.941  1.00  0.00    -0.028 C 
ATOM      8  C   UNL     1      32.092  58.251   9.320  1.00  0.00     0.039 C 
ATOM      9  C   UNL     1      30.924  57.292   9.343  1.00  0.00    -0.080 C 
ATOM     10  C   UNL     1      31.135  55.875   9.812  1.00  0.00     0.039 C 
ENDBRANCH   6   7
ENDBRANCH   5   6
ENDBRANCH   3   5
ENDBRANCH   1   2
BRANCH   1  11
ATOM     11  C   UNL     1      31.036  59.327  12.816  1.00  0.00     0.034 C 
BRANCH  11  12
ATOM     12  C   UNL     1      30.551  57.899  12.966  1.00  0.00    -0.077 C 
ATOM     13  C   UNL     1      29.253  57.617  12.715  1.00  0.00    -0.028 C 
ATOM     14  C   UNL     1      31.532  56.834  13.398  1.00  0.00     0.039 C 
BRANCH  13  15
ATOM     15  C   UNL     1      28.659  56.229  12.737  1.00  0.00     0.035 C 
BRANCH  15  16
ATOM     16  C   UNL     1      27.797  55.961  11.496  1.00  0.00     0.079 C 
BRANCH  16  17
ATOM     17  C   UNL     1      26.442  56.616  11.603  1.00  0.00     0.130 C 
ATOM     18  O   UNL     1      25.675  56.277  12.490  1.00  0.00    -0.300 OA
ATOM     19  C   UNL     1      26.008  57.655  10.612  1.00  0.00     0.087 C 
ENDBRANCH  16  17
ENDBRANCH  15  16
ENDBRANCH  13  15
ENDBRANCH  11  12
ENDBRANCH   1  11
TORSDOF 9
ENDMDL
MODEL 5
REMARK VINA RESULT:    -2.002      1.764      4.358
REMARK INTER + INTRA:          -5.642
REMARK INTER:                  -2.708
REMARK INTRA:                  -2.934
REMARK UNBOUND:                -2.588
REMARK SMILES CC(=O)CCC=C(C)CCC=C(C)CCC=C(C)C
REMARK SMILES IDX 10 1 11 2 12 3 13 4 14 5 15 6 16 7 18 8 17 9 19 10 9 11 7 12
REMARK SMILES IDX 6 13 8 14 5 15 4 16 2 17 3 18 1 19
REMARK H PARENT
REMARK Flexibility Score: inf
ROOT
ATOM      1  C   UNL     1      31.503  59.654  10.182  1.00  0.00     0.032 C 
ENDROOT
BRANCH   1   2
ATOM      2  C   UNL     1      31.372  58.394   9.357  1.00  0.00    -0.028 C 
ATOM      3  C   UNL     1      31.264  57.145   9.865  1.00  0.00    -0.077 C 
ATOM      4  C   UNL     1      31.048  56.003   8.904  1.00  0.00     0.039 C 
BRANCH   3   5
ATOM      5  C   UNL     1      31.384  56.841  11.347  1.00  0.00     0.034 C 
BRANCH   5   6
ATOM      6  C   UNL     1      30.287  55.875  11.820  1.00  0.00     0.032 C 
BRANCH   6   7
ATOM      7  C   UNL     1      29.392  56.514  12.856  1.00  0.00    -0.028 C 
ATOM      8  C   UNL     1      27.740  57.336  11.160  1.00  0.00     0.039 C 
ATOM      9  C   UNL     1      28.229  57.144  12.577  1.00  0.00    -0.080 C 
ATOM     10  C   UNL     1      27.412  57.681  13.724  1.00  0.00     0.039 C 
ENDBRANCH   6   7
ENDBRANCH   5   6
ENDBRANCH   3   5
ENDBRANCH   1   2
BRANCH   1  11
ATOM     11  C   UNL     1      30.128  60.244  10.534  1.00  0.00     0.034 C 
BRANCH  11  12
ATOM     12  C   UNL     1      29.935  60.361  12.032  1.00  0.00    -0.077 C 
ATOM     13  C   UNL     1      30.935  59.973  12.856  1.00  0.00    -0.028 C 
ATOM     14  C   UNL     1      28.628  60.904  12.562  1.00  0.00     0.039 C 
BRANCH  13  15
ATOM     15  C   UNL     1      30.911  60.120  14.358  1.00  0.00     0.035 C 
BRANCH  15  16
ATOM     16  C   UNL     1      31.326  58.821  15.061  1.00  0.00     0.079 C 
BRANCH  16  17
ATOM     17  C   UNL     1      30.803  58.756  16.474  1.00  0.00     0.130 C 
ATOM     18  O   UNL     1      31.447  59.261  17.381  1.00  0.00    -0.300 OA
ATOM     19  C   UNL     1      29.519  58.048  16.790  1.00  0.00     0.087 C 
ENDBRANCH  16  17
ENDBRANCH  15  16
ENDBRANCH  13  15
ENDBRANCH  11  12
ENDBRANCH   1  11
TORSDOF 9
ENDMDL
MODEL 6
REMARK VINA RESULT:    -1.912      2.371      5.492
REMARK INTER + INTRA:          -5.505
REMARK INTER:                  -2.870
REMARK INTRA:                  -2.635
REMARK UNBOUND:                -2.588
REMARK SMILES CC(=O)CCC=C(C)CCC=C(C)CCC=C(C)C
REMARK SMILES IDX 10 1 11 2 12 3 13 4 14 5 15 6 16 7 18 8 17 9 19 10 9 11 7 12
REMARK SMILES IDX 6 13 8 14 5 15 4 16 2 17 3 18 1 19
REMARK H PARENT
REMARK Flexibility Score: inf
ROOT
ATOM      1  C   UNL     1      30.205  59.279  13.479  1.00  0.00     0.032 C 
ENDROOT
BRANCH   1   2
ATOM      2  C   UNL     1      31.085  58.143  13.948  1.00  0.00    -0.028 C 
ATOM      3  C   UNL     1      31.112  56.908  13.399  1.00  0.00    -0.077 C 
ATOM      4  C   UNL     1      32.116  55.915  13.928  1.00  0.00     0.039 C 
BRANCH   3   5
ATOM      5  C   UNL     1      30.157  56.469  12.303  1.00  0.00     0.034 C 
BRANCH   5   6
ATOM      6  C   UNL     1      30.906  55.875  11.100  1.00  0.00     0.032 C 
BRANCH   6   7
ATOM      7  C   UNL     1      31.616  56.945  10.304  1.00  0.00    -0.028 C 
ATOM      8  C   UNL     1      30.305  56.495   8.217  1.00  0.00     0.039 C 
ATOM      9  C   UNL     1      31.335  57.256   9.019  1.00  0.00    -0.080 C 
ATOM     10  C   UNL     1      32.090  58.391   8.375  1.00  0.00     0.039 C 
ENDBRANCH   6   7
ENDBRANCH   5   6
ENDBRANCH   3   5
ENDBRANCH   1   2
BRANCH   1  11
ATOM     11  C   UNL     1      30.972  60.247  12.563  1.00  0.00     0.034 C 
BRANCH  11  12
ATOM     12  C   UNL     1      30.309  60.379  11.207  1.00  0.00    -0.077 C 
ATOM     13  C   UNL     1      29.242  59.601  10.918  1.00  0.00    -0.028 C 
ATOM     14  C   UNL     1      30.865  61.374  10.214  1.00  0.00     0.039 C 
BRANCH  13  15
ATOM     15  C   UNL     1      28.435  59.693   9.646  1.00  0.00     0.035 C 
BRANCH  15  16
ATOM     16  C   UNL     1      27.344  58.615   9.587  1.00  0.00     0.079 C 
BRANCH  16  17
ATOM     17  C   UNL     1      26.177  58.949  10.482  1.00  0.00     0.130 C 
ATOM     18  O   UNL     1      25.466  59.906  10.217  1.00  0.00    -0.300 OA
ATOM     19  C   UNL     1      25.895  58.143  11.715  1.00  0.00     0.087 C 
ENDBRANCH  16  17
ENDBRANCH  15  16
ENDBRANCH  13  15
ENDBRANCH  11  12
ENDBRANCH   1  11
TORSDOF 9
ENDMDL
MODEL 7
REMARK VINA RESULT:    -1.874      2.246      4.604
REMARK INTER + INTRA:          -5.448
REMARK INTER:                  -2.944
REMARK INTRA:                  -2.504
REMARK UNBOUND:                -2.588
REMARK SMILES CC(=O)CCC=C(C)CCC=C(C)CCC=C(C)C
REMARK SMILES IDX 10 1 11 2 12 3 13 4 14 5 15 6 16 7 18 8 17 9 19 10 9 11 7 12
REMARK SMILES IDX 6 13 8 14 5 15 4 16 2 17 3 18 1 19
REMARK H PARENT
REMARK Flexibility Score: inf
ROOT
ATOM      1  C   UNL     1      30.100  59.457  12.006  1.00  0.00     0.032 C 
ENDROOT
BRANCH   1   2
ATOM      2  C   UNL     1      30.918  59.327  10.742  1.00  0.00    -0.028 C 
ATOM      3  C   UNL     1      31.380  58.160  10.237  1.00  0.00    -0.077 C 
ATOM      4  C   UNL     1      32.104  58.196   8.914  1.00  0.00     0.039 C 
BRANCH   3   5
ATOM      5  C   UNL     1      31.233  56.831  10.955  1.00  0.00     0.034 C 
BRANCH   5   6
ATOM      6  C   UNL     1      30.130  55.966  10.329  1.00  0.00     0.032 C 
BRANCH   6   7
ATOM      7  C   UNL     1      28.910  55.890  11.217  1.00  0.00    -0.028 C 
ATOM      8  C   UNL     1      27.645  57.612   9.908  1.00  0.00     0.039 C 
ATOM      9  C   UNL     1      27.776  56.599  11.022  1.00  0.00    -0.080 C 
ATOM     10  C   UNL     1      26.618  56.372  11.960  1.00  0.00     0.039 C 
ENDBRANCH   6   7
ENDBRANCH   5   6
ENDBRANCH   3   5
ENDBRANCH   1   2
BRANCH   1  11
ATOM     11  C   UNL     1      30.994  59.678  13.238  1.00  0.00     0.034 C 
BRANCH  11  12
ATOM     12  C   UNL     1      30.930  58.505  14.195  1.00  0.00    -0.077 C 
ATOM     13  C   UNL     1      29.818  57.736  14.218  1.00  0.00    -0.028 C 
ATOM     14  C   UNL     1      32.109  58.233  15.100  1.00  0.00     0.039 C 
BRANCH  13  15
ATOM     15  C   UNL     1      29.658  56.489  15.053  1.00  0.00     0.035 C 
BRANCH  15  16
ATOM     16  C   UNL     1      28.180  56.166  15.311  1.00  0.00     0.079 C 
BRANCH  16  17
ATOM     17  C   UNL     1      27.724  56.665  16.659  1.00  0.00     0.130 C 
ATOM     18  O   UNL     1      26.529  56.739  16.904  1.00  0.00    -0.300 OA
ATOM     19  C   UNL     1      28.716  57.108  17.693  1.00  0.00     0.087 C 
ENDBRANCH  16  17
ENDBRANCH  15  16
ENDBRANCH  13  15
ENDBRANCH  11  12
ENDBRANCH   1  11
TORSDOF 9
ENDMDL
MODEL 8
REMARK VINA RESULT:    -1.863      2.504      4.887
REMARK INTER + INTRA:          -5.430
REMARK INTER:                  -2.409
REMARK INTRA:                  -3.021
REMARK UNBOUND:                -2.588
REMARK SMILES CC(=O)CCC=C(C)CCC=C(C)CCC=C(C)C
REMARK SMILES IDX 10 1 11 2 12 3 13 4 14 5 15 6 16 7 18 8 17 9 19 10 9 11 7 12
REMARK SMILES IDX 6 13 8 14 5 15 4 16 2 17 3 18 1 19
REMARK H PARENT
REMARK Flexibility Score: inf
ROOT
ATOM      1  C   UNL     1      30.876  60.261  10.597  1.00  0.00     0.032 C 
ENDROOT
BRANCH   1   2
ATOM      2  C   UNL     1      31.691  59.206   9.886  1.00  0.00    -0.028 C 
ATOM      3  C   UNL     1      31.187  58.072   9.349  1.00  0.00    -0.077 C 
ATOM      4  C   UNL     1      32.125  57.165   8.591  1.00  0.00     0.039 C 
BRANCH   3   5
ATOM      5  C   UNL     1      29.735  57.656   9.504  1.00  0.00     0.034 C 
BRANCH   5   6
ATOM      6  C   UNL     1      29.607  56.278  10.171  1.00  0.00     0.032 C 
BRANCH   6   7
ATOM      7  C   UNL     1      29.083  56.391  11.584  1.00  0.00    -0.028 C 
ATOM      8  C   UNL     1      31.371  56.485  12.601  1.00  0.00     0.039 C 
ATOM      9  C   UNL     1      29.862  56.517  12.681  1.00  0.00    -0.080 C 
ATOM     10  C   UNL     1      29.192  56.679  14.021  1.00  0.00     0.039 C 
ENDBRANCH   6   7
ENDBRANCH   5   6
ENDBRANCH   3   5
ENDBRANCH   1   2
BRANCH   1  11
ATOM     11  C   UNL     1      30.999  60.136  12.125  1.00  0.00     0.034 C 
BRANCH  11  12
ATOM     12  C   UNL     1      29.663  60.334  12.812  1.00  0.00    -0.077 C 
ATOM     13  C   UNL     1      28.537  59.915  12.193  1.00  0.00    -0.028 C 
ATOM     14  C   UNL     1      29.630  60.998  14.170  1.00  0.00     0.039 C 
BRANCH  13  15
ATOM     15  C   UNL     1      27.156  59.967  12.801  1.00  0.00     0.035 C 
BRANCH  15  16
ATOM     16  C   UNL     1      26.298  58.773  12.362  1.00  0.00     0.079 C 
BRANCH  16  17
ATOM     17  C   UNL     1      25.711  58.979  10.988  1.00  0.00     0.130 C 
ATOM     18  O   UNL     1      24.930  59.898  10.796  1.00  0.00    -0.300 OA
ATOM     19  C   UNL     1      26.046  58.050   9.859  1.00  0.00     0.087 C 
ENDBRANCH  16  17
ENDBRANCH  15  16
ENDBRANCH  13  15
ENDBRANCH  11  12
ENDBRANCH   1  11
TORSDOF 9
ENDMDL
