MODEL 1
REMARK VINA RESULT:    -4.007      0.000      0.000
REMARK INTER + INTRA:          -7.967
REMARK INTER:                  -6.817
REMARK INTRA:                  -1.149
REMARK UNBOUND:                -1.149
REMARK SMILES CCCCCCCCCCCCCC(=O)[O-]
REMARK SMILES IDX 8 1 9 2 10 3 11 4 12 5 13 6 14 7 15 8 16 9 7 10 6 11 5 12
REMARK SMILES IDX 4 13 3 14 2 15 1 16
REMARK H PARENT
REMARK Flexibility Score: inf
ROOT
ATOM      1  C   UNL     1       9.617  63.343   8.730  1.00  0.00     0.000 C 
ENDROOT
BRANCH   1   2
ATOM      2  C   UNL     1       9.278  64.836   8.577  1.00  0.00     0.000 C 
BRANCH   2   3
ATOM      3  C   UNL     1       7.791  65.131   8.834  1.00  0.00     0.000 C 
BRANCH   3   4
ATOM      4  C   UNL     1       6.908  63.876   8.723  1.00  0.00     0.000 C 
BRANCH   4   5
ATOM      5  C   UNL     1       5.425  64.214   8.508  1.00  0.00     0.006 C 
BRANCH   5   6
ATOM      6  C   UNL     1       5.224  65.541   7.764  1.00  0.00     0.053 C 
BRANCH   6   7
ATOM      7  C   UNL     1       4.340  66.453   8.554  1.00  0.00     0.041 C 
ATOM      8  O   UNL     1       3.586  67.272   7.965  1.00  0.00    -0.550 OA
ATOM      9  O   UNL     1       4.311  66.367   9.940  1.00  0.00    -0.550 OA
ENDBRANCH   6   7
ENDBRANCH   5   6
ENDBRANCH   4   5
ENDBRANCH   3   4
ENDBRANCH   2   3
ENDBRANCH   1   2
BRANCH   1  10
ATOM     10  C   UNL     1      11.129  63.091   8.847  1.00  0.00     0.000 C 
BRANCH  10  11
ATOM     11  C   UNL     1      11.643  62.072   7.814  1.00  0.00    -0.000 C 
BRANCH  11  12
ATOM     12  C   UNL     1      12.815  62.616   6.982  1.00  0.00    -0.000 C 
BRANCH  12  13
ATOM     13  C   UNL     1      13.462  63.859   7.619  1.00  0.00    -0.000 C 
BRANCH  13  14
ATOM     14  C   UNL     1      13.519  65.054   6.655  1.00  0.00    -0.000 C 
BRANCH  14  15
ATOM     15  C   UNL     1      12.424  64.997   5.580  1.00  0.00    -0.003 C 
ATOM     16  C   UNL     1      11.329  66.024   5.857  1.00  0.00     0.004 C 
ENDBRANCH  14  15
ENDBRANCH  13  14
ENDBRANCH  12  13
ENDBRANCH  11  12
ENDBRANCH  10  11
ENDBRANCH   1  10
TORSDOF 12
ENDMDL
MODEL 2
REMARK VINA RESULT:    -3.982      4.255      6.120
REMARK INTER + INTRA:          -7.925
REMARK INTER:                  -6.011
REMARK INTRA:                  -1.914
REMARK UNBOUND:                -1.149
REMARK SMILES CCCCCCCCCCCCCC(=O)[O-]
REMARK SMILES IDX 8 1 9 2 10 3 11 4 12 5 13 6 14 7 15 8 16 9 7 10 6 11 5 12
REMARK SMILES IDX 4 13 3 14 2 15 1 16
REMARK H PARENT
REMARK Flexibility Score: inf
ROOT
ATOM      1  C   UNL     1      13.371  63.698   7.639  1.00  0.00     0.000 C 
ENDROOT
BRANCH   1   2
ATOM      2  C   UNL     1      13.630  64.832   6.632  1.00  0.00     0.000 C 
BRANCH   2   3
ATOM      3  C   UNL     1      12.620  64.832   5.472  1.00  0.00     0.000 C 
BRANCH   3   4
ATOM      4  C   UNL     1      12.103  66.241   5.134  1.00  0.00     0.000 C 
BRANCH   4   5
ATOM      5  C   UNL     1      10.653  66.231   4.626  1.00  0.00     0.006 C 
BRANCH   5   6
ATOM      6  C   UNL     1      10.558  65.943   3.122  1.00  0.00     0.053 C 
BRANCH   6   7
ATOM      7  C   UNL     1      11.450  66.867   2.356  1.00  0.00     0.041 C 
ATOM      8  O   UNL     1      11.147  68.083   2.231  1.00  0.00    -0.550 OA
ATOM      9  O   UNL     1      12.643  66.398   1.821  1.00  0.00    -0.550 OA
ENDBRANCH   6   7
ENDBRANCH   5   6
ENDBRANCH   4   5
ENDBRANCH   3   4
ENDBRANCH   2   3
ENDBRANCH   1   2
BRANCH   1  10
ATOM     10  C   UNL     1      12.527  62.561   7.041  1.00  0.00     0.000 C 
BRANCH  10  11
ATOM     11  C   UNL     1      11.496  62.000   8.037  1.00  0.00    -0.000 C 
BRANCH  11  12
ATOM     12  C   UNL     1      10.936  63.081   8.975  1.00  0.00    -0.000 C 
BRANCH  12  13
ATOM     13  C   UNL     1       9.706  63.795   8.385  1.00  0.00    -0.000 C 
BRANCH  13  14
ATOM     14  C   UNL     1       9.951  65.293   8.145  1.00  0.00    -0.000 C 
BRANCH  14  15
ATOM     15  C   UNL     1      10.814  65.932   9.243  1.00  0.00    -0.003 C 
ATOM     16  C   UNL     1      11.609  67.115   8.697  1.00  0.00     0.004 C 
ENDBRANCH  14  15
ENDBRANCH  13  14
ENDBRANCH  12  13
ENDBRANCH  11  12
ENDBRANCH  10  11
ENDBRANCH   1  10
TORSDOF 12
ENDMDL
MODEL 3
REMARK VINA RESULT:    -3.971      3.766      5.964
REMARK INTER + INTRA:          -7.905
REMARK INTER:                  -5.905
REMARK INTRA:                  -2.000
REMARK UNBOUND:                -1.149
REMARK SMILES CCCCCCCCCCCCCC(=O)[O-]
REMARK SMILES IDX 8 1 9 2 10 3 11 4 12 5 13 6 14 7 15 8 16 9 7 10 6 11 5 12
REMARK SMILES IDX 4 13 3 14 2 15 1 16
REMARK H PARENT
REMARK Flexibility Score: inf
ROOT
ATOM      1  C   UNL     1      11.563  62.002   7.977  1.00  0.00     0.000 C 
ENDROOT
BRANCH   1   2
ATOM      2  C   UNL     1      12.695  62.519   7.073  1.00  0.00     0.000 C 
BRANCH   2   3
ATOM      3  C   UNL     1      13.363  63.786   7.632  1.00  0.00     0.000 C 
BRANCH   3   4
ATOM      4  C   UNL     1      13.430  64.926   6.601  1.00  0.00     0.000 C 
BRANCH   4   5
ATOM      5  C   UNL     1      12.568  64.651   5.360  1.00  0.00     0.006 C 
BRANCH   5   6
ATOM      6  C   UNL     1      11.621  65.812   5.030  1.00  0.00     0.053 C 
BRANCH   6   7
ATOM      7  C   UNL     1      11.337  65.853   3.561  1.00  0.00     0.041 C 
ATOM      8  O   UNL     1      12.277  66.006   2.738  1.00  0.00    -0.550 OA
ATOM      9  O   UNL     1      10.040  65.672   3.099  1.00  0.00    -0.550 OA
ENDBRANCH   6   7
ENDBRANCH   5   6
ENDBRANCH   4   5
ENDBRANCH   3   4
ENDBRANCH   2   3
ENDBRANCH   1   2
BRANCH   1  10
ATOM     10  C   UNL     1      11.002  63.094   8.903  1.00  0.00     0.000 C 
BRANCH  10  11
ATOM     11  C   UNL     1       9.637  63.627   8.434  1.00  0.00    -0.000 C 
BRANCH  11  12
ATOM     12  C   UNL     1       9.566  65.162   8.451  1.00  0.00    -0.000 C 
BRANCH  12  13
ATOM     13  C   UNL     1      10.743  65.798   9.213  1.00  0.00    -0.000 C 
BRANCH  13  14
ATOM     14  C   UNL     1      11.110  67.190   8.678  1.00  0.00    -0.000 C 
BRANCH  14  15
ATOM     15  C   UNL     1      12.595  67.525   8.877  1.00  0.00    -0.003 C 
ATOM     16  C   UNL     1      13.187  66.728  10.037  1.00  0.00     0.004 C 
ENDBRANCH  14  15
ENDBRANCH  13  14
ENDBRANCH  12  13
ENDBRANCH  11  12
ENDBRANCH  10  11
ENDBRANCH   1  10
TORSDOF 12
ENDMDL
MODEL 4
REMARK VINA RESULT:    -3.817      1.291      2.561
REMARK INTER + INTRA:          -7.644
REMARK INTER:                  -6.390
REMARK INTRA:                  -1.254
REMARK UNBOUND:                -1.149
REMARK SMILES CCCCCCCCCCCCCC(=O)[O-]
REMARK SMILES IDX 8 1 9 2 10 3 11 4 12 5 13 6 14 7 15 8 16 9 7 10 6 11 5 12
REMARK SMILES IDX 4 13 3 14 2 15 1 16
REMARK H PARENT
REMARK Flexibility Score: inf
ROOT
ATOM      1  C   UNL     1      11.512  62.127   7.959  1.00  0.00     0.000 C 
ENDROOT
BRANCH   1   2
ATOM      2  C   UNL     1      10.981  63.165   8.962  1.00  0.00     0.000 C 
BRANCH   2   3
ATOM      3  C   UNL     1       9.683  63.837   8.483  1.00  0.00     0.000 C 
BRANCH   3   4
ATOM      4  C   UNL     1       9.704  65.365   8.663  1.00  0.00     0.000 C 
BRANCH   4   5
ATOM      5  C   UNL     1       8.334  66.009   8.399  1.00  0.00     0.006 C 
BRANCH   5   6
ATOM      6  C   UNL     1       7.206  65.341   9.195  1.00  0.00     0.053 C 
BRANCH   6   7
ATOM      7  C   UNL     1       5.939  65.336   8.400  1.00  0.00     0.041 C 
ATOM      8  O   UNL     1       5.638  66.324   7.681  1.00  0.00    -0.550 OA
ATOM      9  O   UNL     1       5.113  64.219   8.413  1.00  0.00    -0.550 OA
ENDBRANCH   6   7
ENDBRANCH   5   6
ENDBRANCH   4   5
ENDBRANCH   3   4
ENDBRANCH   2   3
ENDBRANCH   1   2
BRANCH   1  10
ATOM     10  C   UNL     1      12.669  62.672   7.105  1.00  0.00     0.000 C 
BRANCH  10  11
ATOM     11  C   UNL     1      13.411  63.837   7.784  1.00  0.00    -0.000 C 
BRANCH  11  12
ATOM     12  C   UNL     1      13.485  65.087   6.892  1.00  0.00    -0.000 C 
BRANCH  12  13
ATOM     13  C   UNL     1      12.613  64.963   5.630  1.00  0.00    -0.000 C 
BRANCH  13  14
ATOM     14  C   UNL     1      11.370  65.865   5.681  1.00  0.00    -0.000 C 
BRANCH  14  15
ATOM     15  C   UNL     1      11.048  66.501   4.321  1.00  0.00    -0.003 C 
ATOM     16  C   UNL     1      11.178  65.481   3.193  1.00  0.00     0.004 C 
ENDBRANCH  14  15
ENDBRANCH  13  14
ENDBRANCH  12  13
ENDBRANCH  11  12
ENDBRANCH  10  11
ENDBRANCH   1  10
TORSDOF 12
ENDMDL
MODEL 5
REMARK VINA RESULT:    -3.809      3.128      6.700
REMARK INTER + INTRA:          -7.631
REMARK INTER:                  -6.459
REMARK INTRA:                  -1.172
REMARK UNBOUND:                -1.149
REMARK SMILES CCCCCCCCCCCCCC(=O)[O-]
REMARK SMILES IDX 8 1 9 2 10 3 11 4 12 5 13 6 14 7 15 8 16 9 7 10 6 11 5 12
REMARK SMILES IDX 4 13 3 14 2 15 1 16
REMARK H PARENT
REMARK Flexibility Score: inf
ROOT
ATOM      1  C   UNL     1      11.040  63.162   8.916  1.00  0.00     0.000 C 
ENDROOT
BRANCH   1   2
ATOM      2  C   UNL     1      11.520  62.136   7.875  1.00  0.00     0.000 C 
BRANCH   2   3
ATOM      3  C   UNL     1      12.804  62.582   7.157  1.00  0.00     0.000 C 
BRANCH   3   4
ATOM      4  C   UNL     1      13.410  63.861   7.762  1.00  0.00     0.000 C 
BRANCH   4   5
ATOM      5  C   UNL     1      13.772  64.904   6.695  1.00  0.00     0.006 C 
BRANCH   5   6
ATOM      6  C   UNL     1      12.719  66.013   6.572  1.00  0.00     0.053 C 
BRANCH   6   7
ATOM      7  C   UNL     1      11.827  65.758   5.398  1.00  0.00     0.041 C 
ATOM      8  O   UNL     1      12.237  65.066   4.430  1.00  0.00    -0.550 OA
ATOM      9  O   UNL     1      10.526  66.244   5.395  1.00  0.00    -0.550 OA
ENDBRANCH   6   7
ENDBRANCH   5   6
ENDBRANCH   4   5
ENDBRANCH   3   4
ENDBRANCH   2   3
ENDBRANCH   1   2
BRANCH   1  10
ATOM     10  C   UNL     1       9.713  63.829   8.518  1.00  0.00     0.000 C 
BRANCH  10  11
ATOM     11  C   UNL     1       9.714  65.348   8.765  1.00  0.00    -0.000 C 
BRANCH  11  12
ATOM     12  C   UNL     1       8.405  66.018   8.318  1.00  0.00    -0.000 C 
BRANCH  12  13
ATOM     13  C   UNL     1       7.249  65.768   9.302  1.00  0.00    -0.000 C 
BRANCH  13  14
ATOM     14  C   UNL     1       5.934  66.421   8.848  1.00  0.00    -0.000 C 
BRANCH  14  15
ATOM     15  C   UNL     1       5.019  65.443   8.098  1.00  0.00    -0.003 C 
ATOM     16  C   UNL     1       4.830  64.151   8.888  1.00  0.00     0.004 C 
ENDBRANCH  14  15
ENDBRANCH  13  14
ENDBRANCH  12  13
ENDBRANCH  11  12
ENDBRANCH  10  11
ENDBRANCH   1  10
TORSDOF 12
ENDMDL
MODEL 6
REMARK VINA RESULT:    -3.801      3.535      4.504
REMARK INTER + INTRA:          -7.616
REMARK INTER:                  -5.815
REMARK INTRA:                  -1.802
REMARK UNBOUND:                -1.149
REMARK SMILES CCCCCCCCCCCCCC(=O)[O-]
REMARK SMILES IDX 8 1 9 2 10 3 11 4 12 5 13 6 14 7 15 8 16 9 7 10 6 11 5 12
REMARK SMILES IDX 4 13 3 14 2 15 1 16
REMARK H PARENT
REMARK Flexibility Score: inf
ROOT
ATOM      1  C   UNL     1      10.983  63.148   8.891  1.00  0.00     0.000 C 
ENDROOT
BRANCH   1   2
ATOM      2  C   UNL     1       9.481  63.419   8.703  1.00  0.00     0.000 C 
BRANCH   2   3
ATOM      3  C   UNL     1       9.150  64.920   8.691  1.00  0.00     0.000 C 
BRANCH   3   4
ATOM      4  C   UNL     1      10.122  65.736   7.821  1.00  0.00     0.000 C 
BRANCH   4   5
ATOM      5  C   UNL     1      10.583  67.031   8.507  1.00  0.00     0.006 C 
BRANCH   5   6
ATOM      6  C   UNL     1      11.984  66.907   9.121  1.00  0.00     0.053 C 
BRANCH   6   7
ATOM      7  C   UNL     1      11.895  66.838  10.613  1.00  0.00     0.041 C 
ATOM      8  O   UNL     1      12.046  67.878  11.305  1.00  0.00    -0.550 OA
ATOM      9  O   UNL     1      11.598  65.633  11.236  1.00  0.00    -0.550 OA
ENDBRANCH   6   7
ENDBRANCH   5   6
ENDBRANCH   4   5
ENDBRANCH   3   4
ENDBRANCH   2   3
ENDBRANCH   1   2
BRANCH   1  10
ATOM     10  C   UNL     1      11.501  62.032   7.970  1.00  0.00     0.000 C 
BRANCH  10  11
ATOM     11  C   UNL     1      12.693  62.480   7.105  1.00  0.00    -0.000 C 
BRANCH  11  12
ATOM     12  C   UNL     1      13.322  63.791   7.604  1.00  0.00    -0.000 C 
BRANCH  12  13
ATOM     13  C   UNL     1      13.485  64.832   6.482  1.00  0.00    -0.000 C 
BRANCH  13  14
ATOM     14  C   UNL     1      12.529  64.584   5.304  1.00  0.00    -0.000 C 
BRANCH  14  15
ATOM     15  C   UNL     1      12.036  65.889   4.662  1.00  0.00    -0.003 C 
ATOM     16  C   UNL     1      11.716  65.687   3.183  1.00  0.00     0.004 C 
ENDBRANCH  14  15
ENDBRANCH  13  14
ENDBRANCH  12  13
ENDBRANCH  11  12
ENDBRANCH  10  11
ENDBRANCH   1  10
TORSDOF 12
ENDMDL
MODEL 7
REMARK VINA RESULT:    -3.785      3.443      5.778
REMARK INTER + INTRA:          -7.590
REMARK INTER:                  -6.105
REMARK INTRA:                  -1.484
REMARK UNBOUND:                -1.149
REMARK SMILES CCCCCCCCCCCCCC(=O)[O-]
REMARK SMILES IDX 8 1 9 2 10 3 11 4 12 5 13 6 14 7 15 8 16 9 7 10 6 11 5 12
REMARK SMILES IDX 4 13 3 14 2 15 1 16
REMARK H PARENT
REMARK Flexibility Score: inf
ROOT
ATOM      1  C   UNL     1      13.374  63.734   7.563  1.00  0.00     0.000 C 
ENDROOT
BRANCH   1   2
ATOM      2  C   UNL     1      13.477  64.871   6.533  1.00  0.00     0.000 C 
BRANCH   2   3
ATOM      3  C   UNL     1      12.606  64.621   5.291  1.00  0.00     0.000 C 
BRANCH   3   4
ATOM      4  C   UNL     1      12.253  65.919   4.542  1.00  0.00     0.000 C 
BRANCH   4   5
ATOM      5  C   UNL     1      11.195  65.700   3.450  1.00  0.00     0.006 C 
BRANCH   5   6
ATOM      6  C   UNL     1      11.076  66.896   2.496  1.00  0.00     0.053 C 
BRANCH   6   7
ATOM      7  C   UNL     1       9.649  67.334   2.384  1.00  0.00     0.041 C 
ATOM      8  O   UNL     1       8.766  66.806   3.109  1.00  0.00    -0.550 OA
ATOM      9  O   UNL     1       9.303  68.359   1.514  1.00  0.00    -0.550 OA
ENDBRANCH   6   7
ENDBRANCH   5   6
ENDBRANCH   4   5
ENDBRANCH   3   4
ENDBRANCH   2   3
ENDBRANCH   1   2
BRANCH   1  10
ATOM     10  C   UNL     1      12.619  62.510   7.018  1.00  0.00     0.000 C 
BRANCH  10  11
ATOM     11  C   UNL     1      11.518  62.018   7.973  1.00  0.00    -0.000 C 
BRANCH  11  12
ATOM     12  C   UNL     1      11.021  63.123   8.919  1.00  0.00    -0.000 C 
BRANCH  12  13
ATOM     13  C   UNL     1       9.542  63.478   8.686  1.00  0.00    -0.000 C 
BRANCH  13  14
ATOM     14  C   UNL     1       9.293  64.994   8.681  1.00  0.00    -0.000 C 
BRANCH  14  15
ATOM     15  C   UNL     1      10.046  65.711   7.551  1.00  0.00    -0.003 C 
ATOM     16  C   UNL     1      10.715  66.985   8.058  1.00  0.00     0.004 C 
ENDBRANCH  14  15
ENDBRANCH  13  14
ENDBRANCH  12  13
ENDBRANCH  11  12
ENDBRANCH  10  11
ENDBRANCH   1  10
TORSDOF 12
ENDMDL
MODEL 8
REMARK VINA RESULT:    -3.762      3.719      5.943
REMARK INTER + INTRA:          -7.551
REMARK INTER:                  -6.098
REMARK INTRA:                  -1.454
REMARK UNBOUND:                -1.149
REMARK SMILES CCCCCCCCCCCCCC(=O)[O-]
REMARK SMILES IDX 8 1 9 2 10 3 11 4 12 5 13 6 14 7 15 8 16 9 7 10 6 11 5 12
REMARK SMILES IDX 4 13 3 14 2 15 1 16
REMARK H PARENT
REMARK Flexibility Score: inf
ROOT
ATOM      1  C   UNL     1      14.091  64.667   6.778  1.00  0.00     0.000 C 
ENDROOT
BRANCH   1   2
ATOM      2  C   UNL     1      14.066  66.088   7.367  1.00  0.00     0.000 C 
BRANCH   2   3
ATOM      3  C   UNL     1      13.057  67.003   6.654  1.00  0.00     0.000 C 
BRANCH   3   4
ATOM      4  C   UNL     1      11.596  66.643   6.978  1.00  0.00     0.000 C 
BRANCH   4   5
ATOM      5  C   UNL     1      10.883  65.957   5.802  1.00  0.00     0.006 C 
BRANCH   5   6
ATOM      6  C   UNL     1      10.901  66.807   4.525  1.00  0.00     0.053 C 
BRANCH   6   7
ATOM      7  C   UNL     1      11.307  65.974   3.350  1.00  0.00     0.041 C 
ATOM      8  O   UNL     1      10.948  66.300   2.188  1.00  0.00    -0.550 OA
ATOM      9  O   UNL     1      12.125  64.866   3.532  1.00  0.00    -0.550 OA
ENDBRANCH   6   7
ENDBRANCH   5   6
ENDBRANCH   4   5
ENDBRANCH   3   4
ENDBRANCH   2   3
ENDBRANCH   1   2
BRANCH   1  10
ATOM     10  C   UNL     1      13.530  63.616   7.749  1.00  0.00     0.000 C 
BRANCH  10  11
ATOM     11  C   UNL     1      12.638  62.576   7.049  1.00  0.00    -0.000 C 
BRANCH  11  12
ATOM     12  C   UNL     1      11.423  62.173   7.900  1.00  0.00    -0.000 C 
BRANCH  12  13
ATOM     13  C   UNL     1      10.899  63.334   8.764  1.00  0.00    -0.000 C 
BRANCH  13  14
ATOM     14  C   UNL     1       9.372  63.485   8.686  1.00  0.00    -0.000 C 
BRANCH  14  15
ATOM     15  C   UNL     1       8.919  64.950   8.779  1.00  0.00    -0.003 C 
ATOM     16  C   UNL     1       7.397  65.052   8.838  1.00  0.00     0.004 C 
ENDBRANCH  14  15
ENDBRANCH  13  14
ENDBRANCH  12  13
ENDBRANCH  11  12
ENDBRANCH  10  11
ENDBRANCH   1  10
TORSDOF 12
ENDMDL
MODEL 9
REMARK VINA RESULT:    -3.709      4.377      5.463
REMARK INTER + INTRA:          -7.460
REMARK INTER:                  -5.518
REMARK INTRA:                  -1.941
REMARK UNBOUND:                -1.149
REMARK SMILES CCCCCCCCCCCCCC(=O)[O-]
REMARK SMILES IDX 8 1 9 2 10 3 11 4 12 5 13 6 14 7 15 8 16 9 7 10 6 11 5 12
REMARK SMILES IDX 4 13 3 14 2 15 1 16
REMARK H PARENT
REMARK Flexibility Score: inf
ROOT
ATOM      1  C   UNL     1       9.931  63.839   8.392  1.00  0.00     0.000 C 
ENDROOT
BRANCH   1   2
ATOM      2  C   UNL     1      10.285  65.335   8.397  1.00  0.00     0.000 C 
BRANCH   2   3
ATOM      3  C   UNL     1       9.945  66.026   7.066  1.00  0.00     0.000 C 
BRANCH   3   4
ATOM      4  C   UNL     1      11.183  66.616   6.369  1.00  0.00     0.000 C 
BRANCH   4   5
ATOM      5  C   UNL     1      11.654  65.764   5.180  1.00  0.00     0.006 C 
BRANCH   5   6
ATOM      6  C   UNL     1      10.777  65.952   3.936  1.00  0.00     0.053 C 
BRANCH   6   7
ATOM      7  C   UNL     1      11.499  66.762   2.906  1.00  0.00     0.041 C 
ATOM      8  O   UNL     1      11.018  66.892   1.750  1.00  0.00    -0.550 OA
ATOM      9  O   UNL     1      12.680  67.415   3.237  1.00  0.00    -0.550 OA
ENDBRANCH   6   7
ENDBRANCH   5   6
ENDBRANCH   4   5
ENDBRANCH   3   4
ENDBRANCH   2   3
ENDBRANCH   1   2
BRANCH   1  10
ATOM     10  C   UNL     1      11.111  62.952   8.823  1.00  0.00     0.000 C 
BRANCH  10  11
ATOM     11  C   UNL     1      11.853  62.328   7.628  1.00  0.00    -0.000 C 
BRANCH  11  12
ATOM     12  C   UNL     1      13.099  63.132   7.224  1.00  0.00    -0.000 C 
BRANCH  12  13
ATOM     13  C   UNL     1      13.697  63.924   8.401  1.00  0.00    -0.000 C 
BRANCH  13  14
ATOM     14  C   UNL     1      14.125  65.344   8.000  1.00  0.00    -0.000 C 
BRANCH  14  15
ATOM     15  C   UNL     1      13.743  66.394   9.053  1.00  0.00    -0.003 C 
ATOM     16  C   UNL     1      13.475  65.742  10.407  1.00  0.00     0.004 C 
ENDBRANCH  14  15
ENDBRANCH  13  14
ENDBRANCH  12  13
ENDBRANCH  11  12
ENDBRANCH  10  11
ENDBRANCH   1  10
TORSDOF 12
ENDMDL
