MODEL 1
REMARK VINA RESULT:    -3.222      0.000      0.000
REMARK INTER + INTRA:          -3.876
REMARK INTER:                  -3.787
REMARK INTRA:                  -0.090
REMARK UNBOUND:                -0.090
REMARK SMILES CCCCC(=O)[O-]
REMARK SMILES IDX 4 1 5 2 6 3 7 4 3 5 2 6 1 7
REMARK H PARENT
REMARK Flexibility Score: inf
ROOT
ATOM      1  C   UNL     1      -3.374  -3.912   9.233  1.00  0.00     0.053 C 
ENDROOT
BRANCH   1   2
ATOM      2  C   UNL     1      -3.396  -2.500   8.743  1.00  0.00     0.041 C 
ATOM      3  O   UNL     1      -2.471  -2.071   8.003  1.00  0.00    -0.550 OA
ATOM      4  O   UNL     1      -4.463  -1.669   9.063  1.00  0.00    -0.550 OA
ENDBRANCH   1   2
BRANCH   1   5
ATOM      5  C   UNL     1      -3.589  -3.958  10.749  1.00  0.00     0.006 C 
BRANCH   5   6
ATOM      6  C   UNL     1      -4.648  -5.002  11.122  1.00  0.00    -0.003 C 
ATOM      7  C   UNL     1      -5.630  -5.224   9.976  1.00  0.00     0.004 C 
ENDBRANCH   5   6
ENDBRANCH   1   5
TORSDOF 3
ENDMDL
MODEL 2
REMARK VINA RESULT:    -3.212     10.641     11.250
REMARK INTER + INTRA:          -3.865
REMARK INTER:                  -3.780
REMARK INTRA:                  -0.085
REMARK UNBOUND:                -0.090
REMARK SMILES CCCCC(=O)[O-]
REMARK SMILES IDX 4 1 5 2 6 3 7 4 3 5 2 6 1 7
REMARK H PARENT
REMARK Flexibility Score: inf
ROOT
ATOM      1  C   UNL     1       0.282   1.915  18.191  1.00  0.00     0.053 C 
ENDROOT
BRANCH   1   2
ATOM      2  C   UNL     1       1.774   1.913  18.081  1.00  0.00     0.041 C 
ATOM      3  O   UNL     1       2.326   2.058  16.959  1.00  0.00    -0.550 OA
ATOM      4  O   UNL     1       2.555   1.798  19.225  1.00  0.00    -0.550 OA
ENDBRANCH   1   2
BRANCH   1   5
ATOM      5  C   UNL     1      -0.291   0.570  17.733  1.00  0.00     0.006 C 
BRANCH   5   6
ATOM      6  C   UNL     1      -0.410  -0.406  18.909  1.00  0.00    -0.003 C 
ATOM      7  C   UNL     1      -0.677   0.336  20.216  1.00  0.00     0.004 C 
ENDBRANCH   5   6
ENDBRANCH   1   5
TORSDOF 3
ENDMDL
MODEL 3
REMARK VINA RESULT:    -3.167     10.330     11.161
REMARK INTER + INTRA:          -3.812
REMARK INTER:                  -3.759
REMARK INTRA:                  -0.053
REMARK UNBOUND:                -0.090
REMARK SMILES CCCCC(=O)[O-]
REMARK SMILES IDX 4 1 5 2 6 3 7 4 3 5 2 6 1 7
REMARK H PARENT
REMARK Flexibility Score: inf
ROOT
ATOM      1  C   UNL     1      -0.437  -0.292  18.753  1.00  0.00     0.053 C 
ENDROOT
BRANCH   1   2
ATOM      2  C   UNL     1      -0.102   0.294  20.087  1.00  0.00     0.041 C 
ATOM      3  O   UNL     1      -1.020   0.689  20.854  1.00  0.00    -0.550 OA
ATOM      4  O   UNL     1       1.221   0.361  20.504  1.00  0.00    -0.550 OA
ENDBRANCH   1   2
BRANCH   1   5
ATOM      5  C   UNL     1       0.240   0.503  17.632  1.00  0.00     0.006 C 
BRANCH   5   6
ATOM      6  C   UNL     1      -0.688   1.599  17.098  1.00  0.00    -0.003 C 
ATOM      7  C   UNL     1      -1.325   1.186  15.774  1.00  0.00     0.004 C 
ENDBRANCH   5   6
ENDBRANCH   1   5
TORSDOF 3
ENDMDL
MODEL 4
REMARK VINA RESULT:    -3.129      9.278      9.983
REMARK INTER + INTRA:          -3.767
REMARK INTER:                  -3.687
REMARK INTRA:                  -0.080
REMARK UNBOUND:                -0.090
REMARK SMILES CCCCC(=O)[O-]
REMARK SMILES IDX 4 1 5 2 6 3 7 4 3 5 2 6 1 7
REMARK H PARENT
REMARK Flexibility Score: inf
ROOT
ATOM      1  C   UNL     1      -6.980   2.932  16.437  1.00  0.00     0.053 C 
ENDROOT
BRANCH   1   2
ATOM      2  C   UNL     1      -7.896   4.071  16.119  1.00  0.00     0.041 C 
ATOM      3  O   UNL     1      -7.903   5.100  16.846  1.00  0.00    -0.550 OA
ATOM      4  O   UNL     1      -8.707   4.017  14.992  1.00  0.00    -0.550 OA
ENDBRANCH   1   2
BRANCH   1   5
ATOM      5  C   UNL     1      -5.533   3.294  16.089  1.00  0.00     0.006 C 
BRANCH   5   6
ATOM      6  C   UNL     1      -4.900   2.224  15.193  1.00  0.00    -0.003 C 
ATOM      7  C   UNL     1      -5.577   2.179  13.826  1.00  0.00     0.004 C 
ENDBRANCH   5   6
ENDBRANCH   1   5
TORSDOF 3
ENDMDL
MODEL 5
REMARK VINA RESULT:    -3.099      2.510      3.804
REMARK INTER + INTRA:          -3.732
REMARK INTER:                  -3.708
REMARK INTRA:                  -0.024
REMARK UNBOUND:                -0.090
REMARK SMILES CCCCC(=O)[O-]
REMARK SMILES IDX 4 1 5 2 6 3 7 4 3 5 2 6 1 7
REMARK H PARENT
REMARK Flexibility Score: inf
ROOT
ATOM      1  C   UNL     1      -4.002  -3.931   9.264  1.00  0.00     0.053 C 
ENDROOT
BRANCH   1   2
ATOM      2  C   UNL     1      -4.796  -4.742  10.237  1.00  0.00     0.041 C 
ATOM      3  O   UNL     1      -4.507  -4.722  11.463  1.00  0.00    -0.550 OA
ATOM      4  O   UNL     1      -5.885  -5.484   9.798  1.00  0.00    -0.550 OA
ENDBRANCH   1   2
BRANCH   1   5
ATOM      5  C   UNL     1      -3.715  -2.538   9.834  1.00  0.00     0.006 C 
BRANCH   5   6
ATOM      6  C   UNL     1      -4.232  -1.443   8.895  1.00  0.00    -0.003 C 
ATOM      7  C   UNL     1      -3.692  -0.073   9.296  1.00  0.00     0.004 C 
ENDBRANCH   5   6
ENDBRANCH   1   5
TORSDOF 3
ENDMDL
MODEL 6
REMARK VINA RESULT:    -3.066      9.493     10.017
REMARK INTER + INTRA:          -3.693
REMARK INTER:                  -3.599
REMARK INTRA:                  -0.094
REMARK UNBOUND:                -0.090
REMARK SMILES CCCCC(=O)[O-]
REMARK SMILES IDX 4 1 5 2 6 3 7 4 3 5 2 6 1 7
REMARK H PARENT
REMARK Flexibility Score: inf
ROOT
ATOM      1  C   UNL     1      -6.847   2.862  16.586  1.00  0.00     0.053 C 
ENDROOT
BRANCH   1   2
ATOM      2  C   UNL     1      -5.488   2.977  15.972  1.00  0.00     0.041 C 
ATOM      3  O   UNL     1      -4.692   3.873  16.360  1.00  0.00    -0.550 OA
ATOM      4  O   UNL     1      -5.082   2.066  15.005  1.00  0.00    -0.550 OA
ENDBRANCH   1   2
BRANCH   1   5
ATOM      5  C   UNL     1      -7.643   4.153  16.373  1.00  0.00     0.006 C 
BRANCH   5   6
ATOM      6  C   UNL     1      -7.843   4.436  14.880  1.00  0.00    -0.003 C 
ATOM      7  C   UNL     1      -9.213   3.956  14.408  1.00  0.00     0.004 C 
ENDBRANCH   5   6
ENDBRANCH   1   5
TORSDOF 3
ENDMDL
MODEL 7
REMARK VINA RESULT:    -3.058     11.647     12.789
REMARK INTER + INTRA:          -3.683
REMARK INTER:                  -3.649
REMARK INTRA:                  -0.035
REMARK UNBOUND:                -0.090
REMARK SMILES CCCCC(=O)[O-]
REMARK SMILES IDX 4 1 5 2 6 3 7 4 3 5 2 6 1 7
REMARK H PARENT
REMARK Flexibility Score: inf
ROOT
ATOM      1  C   UNL     1      -2.163   8.335   5.941  1.00  0.00     0.053 C 
ENDROOT
BRANCH   1   2
ATOM      2  C   UNL     1      -1.973   9.818   5.980  1.00  0.00     0.041 C 
ATOM      3  O   UNL     1      -1.740  10.398   7.073  1.00  0.00    -0.550 OA
ATOM      4  O   UNL     1      -2.006  10.554   4.802  1.00  0.00    -0.550 OA
ENDBRANCH   1   2
BRANCH   1   5
ATOM      5  C   UNL     1      -3.436   7.978   5.167  1.00  0.00     0.006 C 
BRANCH   5   6
ATOM      6  C   UNL     1      -3.994   6.625   5.622  1.00  0.00    -0.003 C 
ATOM      7  C   UNL     1      -4.406   6.664   7.090  1.00  0.00     0.004 C 
ENDBRANCH   5   6
ENDBRANCH   1   5
TORSDOF 3
ENDMDL
MODEL 8
REMARK VINA RESULT:    -3.017      2.436      3.592
REMARK INTER + INTRA:          -3.636
REMARK INTER:                  -3.558
REMARK INTRA:                  -0.078
REMARK UNBOUND:                -0.090
REMARK SMILES CCCCC(=O)[O-]
REMARK SMILES IDX 4 1 5 2 6 3 7 4 3 5 2 6 1 7
REMARK H PARENT
REMARK Flexibility Score: inf
ROOT
ATOM      1  C   UNL     1      -3.802  -3.897  11.530  1.00  0.00     0.053 C 
ENDROOT
BRANCH   1   2
ATOM      2  C   UNL     1      -4.428  -4.557  10.344  1.00  0.00     0.041 C 
ATOM      3  O   UNL     1      -5.332  -5.419  10.503  1.00  0.00    -0.550 OA
ATOM      4  O   UNL     1      -4.048  -4.185   9.060  1.00  0.00    -0.550 OA
ENDBRANCH   1   2
BRANCH   1   5
ATOM      5  C   UNL     1      -3.379  -2.465  11.186  1.00  0.00     0.006 C 
BRANCH   5   6
ATOM      6  C   UNL     1      -1.909  -2.224  11.547  1.00  0.00    -0.003 C 
ATOM      7  C   UNL     1      -1.305  -3.444  12.238  1.00  0.00     0.004 C 
ENDBRANCH   5   6
ENDBRANCH   1   5
TORSDOF 3
ENDMDL
MODEL 9
REMARK VINA RESULT:    -3.013      9.936     11.092
REMARK INTER + INTRA:          -3.631
REMARK INTER:                  -3.522
REMARK INTRA:                  -0.109
REMARK UNBOUND:                -0.090
REMARK SMILES CCCCC(=O)[O-]
REMARK SMILES IDX 4 1 5 2 6 3 7 4 3 5 2 6 1 7
REMARK H PARENT
REMARK Flexibility Score: inf
ROOT
ATOM      1  C   UNL     1      -3.322   5.935   7.832  1.00  0.00     0.053 C 
ENDROOT
BRANCH   1   2
ATOM      2  C   UNL     1      -2.865   6.873   8.903  1.00  0.00     0.041 C 
ATOM      3  O   UNL     1      -2.277   6.430   9.925  1.00  0.00    -0.550 OA
ATOM      4  O   UNL     1      -3.046   8.242   8.752  1.00  0.00    -0.550 OA
ENDBRANCH   1   2
BRANCH   1   5
ATOM      5  C   UNL     1      -4.422   6.583   6.985  1.00  0.00     0.006 C 
BRANCH   5   6
ATOM      6  C   UNL     1      -3.999   6.678   5.515  1.00  0.00    -0.003 C 
ATOM      7  C   UNL     1      -3.367   8.033   5.209  1.00  0.00     0.004 C 
ENDBRANCH   5   6
ENDBRANCH   1   5
TORSDOF 3
ENDMDL
