MODEL 1
REMARK VINA RESULT:    -6.307      0.000      0.000
REMARK INTER + INTRA:          -7.528
REMARK INTER:                  -7.228
REMARK INTRA:                  -0.300
REMARK UNBOUND:                -0.300
REMARK SMILES O=C1C[C@H](c2ccc(O)cc2)Oc2cc(O)cc(O)c21
REMARK SMILES IDX 3 1 4 2 12 3 13 4 14 5 15 6 17 7 18 8 20 9 2 10 1 11 5 12
REMARK SMILES IDX 6 13 11 14 7 15 10 16 8 17 9 18 19 20 16 22
REMARK H PARENT 9 19 19 21 16 23
REMARK Flexibility Score: inf
ROOT
ATOM      1  C   UNL     1      30.072 -92.312  37.159  1.00  0.00     0.131 C 
ATOM      2  C   UNL     1      30.973 -91.673  38.225  1.00  0.00     0.211 C 
ATOM      3  O   UNL     1      32.148 -92.464  38.431  1.00  0.00    -0.484 OA
ATOM      4  C   UNL     1      32.123 -93.865  38.441  1.00  0.00     0.138 A 
ATOM      5  C   UNL     1      33.239 -94.557  38.919  1.00  0.00     0.093 A 
ATOM      6  C   UNL     1      33.238 -95.954  38.955  1.00  0.00     0.123 A 
ATOM      7  C   UNL     1      32.130 -96.660  38.483  1.00  0.00     0.093 A 
ATOM      8  C   UNL     1      31.018 -95.987  37.963  1.00  0.00     0.133 A 
ATOM      9  C   UNL     1      30.994 -94.568  37.968  1.00  0.00     0.102 A 
ATOM     10  C   UNL     1      29.843 -93.752  37.509  1.00  0.00     0.174 C 
ATOM     11  O   UNL     1      28.676 -94.222  37.457  1.00  0.00    -0.294 OA
ENDROOT
BRANCH   2  12
ATOM     12  C   UNL     1      31.357 -90.269  37.828  1.00  0.00    -0.007 A 
ATOM     13  C   UNL     1      32.443 -90.051  36.962  1.00  0.00     0.011 A 
ATOM     14  C   UNL     1      30.672 -89.162  38.360  1.00  0.00     0.011 A 
ATOM     15  C   UNL     1      32.821 -88.750  36.617  1.00  0.00     0.046 A 
ATOM     16  C   UNL     1      31.053 -87.863  38.013  1.00  0.00     0.046 A 
ATOM     17  C   UNL     1      32.125 -87.652  37.140  1.00  0.00     0.115 A 
BRANCH  17  18
ATOM     18  O   UNL     1      32.493 -86.351  36.802  1.00  0.00    -0.508 OA
ATOM     19  H   UNL     1      32.359 -85.990  35.866  1.00  0.00     0.293 HD
ENDBRANCH  17  18
ENDBRANCH   2  12
BRANCH   8  20
ATOM     20  O   UNL     1      29.990 -96.766  37.426  1.00  0.00    -0.507 OA
ATOM     21  H   UNL     1      29.928 -97.768  37.531  1.00  0.00     0.293 HD
ENDBRANCH   8  20
BRANCH   6  22
ATOM     22  O   UNL     1      34.338 -96.652  39.450  1.00  0.00    -0.508 OA
ATOM     23  H   UNL     1      35.074 -96.184  39.966  1.00  0.00     0.293 HD
ENDBRANCH   6  22
TORSDOF 4
ENDMDL
MODEL 2
REMARK VINA RESULT:    -6.282      1.502      3.051
REMARK INTER + INTRA:          -7.500
REMARK INTER:                  -7.202
REMARK INTRA:                  -0.298
REMARK UNBOUND:                -0.300
REMARK SMILES O=C1C[C@H](c2ccc(O)cc2)Oc2cc(O)cc(O)c21
REMARK SMILES IDX 3 1 4 2 12 3 13 4 14 5 15 6 17 7 18 8 20 9 2 10 1 11 5 12
REMARK SMILES IDX 6 13 11 14 7 15 10 16 8 17 9 18 19 20 16 22
REMARK H PARENT 9 19 19 21 16 23
REMARK Flexibility Score: inf
ROOT
ATOM      1  C   UNL     1      32.109 -92.876  38.624  1.00  0.00     0.131 C 
ATOM      2  C   UNL     1      31.400 -92.278  37.401  1.00  0.00     0.211 C 
ATOM      3  O   UNL     1      30.050 -92.746  37.322  1.00  0.00    -0.484 OA
ATOM      4  C   UNL     1      29.688 -94.065  37.628  1.00  0.00     0.138 A 
ATOM      5  C   UNL     1      28.418 -94.519  37.265  1.00  0.00     0.093 A 
ATOM      6  C   UNL     1      28.034 -95.834  37.544  1.00  0.00     0.123 A 
ATOM      7  C   UNL     1      28.914 -96.687  38.212  1.00  0.00     0.093 A 
ATOM      8  C   UNL     1      30.177 -96.241  38.620  1.00  0.00     0.133 A 
ATOM      9  C   UNL     1      30.589 -94.920  38.298  1.00  0.00     0.102 A 
ATOM     10  C   UNL     1      31.928 -94.365  38.617  1.00  0.00     0.174 C 
ATOM     11  O   UNL     1      32.922 -95.109  38.826  1.00  0.00    -0.294 OA
ENDROOT
BRANCH   2  12
ATOM     12  C   UNL     1      31.422 -90.770  37.455  1.00  0.00    -0.007 A 
ATOM     13  C   UNL     1      32.356 -90.048  36.692  1.00  0.00     0.011 A 
ATOM     14  C   UNL     1      30.551 -90.072  38.311  1.00  0.00     0.011 A 
ATOM     15  C   UNL     1      32.399 -88.653  36.764  1.00  0.00     0.046 A 
ATOM     16  C   UNL     1      30.597 -88.677  38.380  1.00  0.00     0.046 A 
ATOM     17  C   UNL     1      31.518 -87.963  37.607  1.00  0.00     0.115 A 
BRANCH  17  18
ATOM     18  O   UNL     1      31.553 -86.573  37.687  1.00  0.00    -0.508 OA
ATOM     19  H   UNL     1      31.862 -86.098  38.525  1.00  0.00     0.293 HD
ENDBRANCH  17  18
ENDBRANCH   2  12
BRANCH   8  20
ATOM     20  O   UNL     1      30.961 -97.125  39.365  1.00  0.00    -0.507 OA
ATOM     21  H   UNL     1      31.181 -98.066  39.073  1.00  0.00     0.293 HD
ENDBRANCH   8  20
BRANCH   6  22
ATOM     22  O   UNL     1      26.777 -96.302  37.166  1.00  0.00    -0.508 OA
ATOM     23  H   UNL     1      26.133 -95.724  36.640  1.00  0.00     0.293 HD
ENDBRANCH   6  22
TORSDOF 4
ENDMDL
MODEL 3
REMARK VINA RESULT:    -5.298      9.445     10.824
REMARK INTER + INTRA:          -6.372
REMARK INTER:                  -6.071
REMARK INTRA:                  -0.301
REMARK UNBOUND:                -0.300
REMARK SMILES O=C1C[C@H](c2ccc(O)cc2)Oc2cc(O)cc(O)c21
REMARK SMILES IDX 3 1 4 2 12 3 13 4 14 5 15 6 17 7 18 8 20 9 2 10 1 11 5 12
REMARK SMILES IDX 6 13 11 14 7 15 10 16 8 17 9 18 19 20 16 22
REMARK H PARENT 9 19 19 21 16 23
REMARK Flexibility Score: inf
ROOT
ATOM      1  C   UNL     1      38.686 -95.693  30.441  1.00  0.00     0.131 C 
ATOM      2  C   UNL     1      38.304 -94.424  31.215  1.00  0.00     0.211 C 
ATOM      3  O   UNL     1      36.895 -94.189  31.134  1.00  0.00    -0.484 OA
ATOM      4  C   UNL     1      36.159 -94.410  29.962  1.00  0.00     0.138 A 
ATOM      5  C   UNL     1      34.860 -93.901  29.873  1.00  0.00     0.093 A 
ATOM      6  C   UNL     1      34.107 -94.093  28.712  1.00  0.00     0.123 A 
ATOM      7  C   UNL     1      34.644 -94.821  27.648  1.00  0.00     0.093 A 
ATOM      8  C   UNL     1      35.928 -95.373  27.731  1.00  0.00     0.133 A 
ATOM      9  C   UNL     1      36.715 -95.141  28.890  1.00  0.00     0.102 A 
ATOM     10  C   UNL     1      38.111 -95.616  29.058  1.00  0.00     0.174 C 
ATOM     11  O   UNL     1      38.837 -95.903  28.070  1.00  0.00    -0.294 OA
ENDROOT
BRANCH   2  12
ATOM     12  C   UNL     1      38.728 -94.531  32.659  1.00  0.00    -0.007 A 
ATOM     13  C   UNL     1      37.881 -95.141  33.602  1.00  0.00     0.011 A 
ATOM     14  C   UNL     1      39.946 -93.976  33.091  1.00  0.00     0.011 A 
ATOM     15  C   UNL     1      38.258 -95.214  34.946  1.00  0.00     0.046 A 
ATOM     16  C   UNL     1      40.319 -94.051  34.436  1.00  0.00     0.046 A 
ATOM     17  C   UNL     1      39.480 -94.671  35.366  1.00  0.00     0.115 A 
BRANCH  17  18
ATOM     18  O   UNL     1      39.864 -94.740  36.703  1.00  0.00    -0.508 OA
ATOM     19  H   UNL     1      39.827 -95.609  37.221  1.00  0.00     0.293 HD
ENDBRANCH  17  18
ENDBRANCH   2  12
BRANCH   8  20
ATOM     20  O   UNL     1      36.356 -96.165  26.664  1.00  0.00    -0.507 OA
ATOM     21  H   UNL     1      36.318 -95.877  25.697  1.00  0.00     0.293 HD
ENDBRANCH   8  20
BRANCH   6  22
ATOM     22  O   UNL     1      32.819 -93.571  28.606  1.00  0.00    -0.508 OA
ATOM     23  H   UNL     1      32.428 -92.976  29.327  1.00  0.00     0.293 HD
ENDBRANCH   6  22
TORSDOF 4
ENDMDL
MODEL 4
REMARK VINA RESULT:    -5.269      8.076     10.272
REMARK INTER + INTRA:          -6.339
REMARK INTER:                  -6.040
REMARK INTRA:                  -0.299
REMARK UNBOUND:                -0.300
REMARK SMILES O=C1C[C@H](c2ccc(O)cc2)Oc2cc(O)cc(O)c21
REMARK SMILES IDX 3 1 4 2 12 3 13 4 14 5 15 6 17 7 18 8 20 9 2 10 1 11 5 12
REMARK SMILES IDX 6 13 11 14 7 15 10 16 8 17 9 18 19 20 16 22
REMARK H PARENT 9 19 19 21 16 23
REMARK Flexibility Score: inf
ROOT
ATOM      1  C   UNL     1      41.486 -94.236  35.987  1.00  0.00     0.131 C 
ATOM      2  C   UNL     1      40.692 -95.319  35.244  1.00  0.00     0.211 C 
ATOM      3  O   UNL     1      39.360 -95.410  35.760  1.00  0.00    -0.484 OA
ATOM      4  C   UNL     1      39.070 -95.298  37.126  1.00  0.00     0.138 A 
ATOM      5  C   UNL     1      37.802 -95.670  37.582  1.00  0.00     0.093 A 
ATOM      6  C   UNL     1      37.488 -95.583  38.941  1.00  0.00     0.123 A 
ATOM      7  C   UNL     1      38.436 -95.095  39.842  1.00  0.00     0.093 A 
ATOM      8  C   UNL     1      39.698 -94.678  39.402  1.00  0.00     0.133 A 
ATOM      9  C   UNL     1      40.038 -94.809  38.029  1.00  0.00     0.102 A 
ATOM     10  C   UNL     1      41.367 -94.467  37.464  1.00  0.00     0.174 C 
ATOM     11  O   UNL     1      42.401 -94.419  38.182  1.00  0.00    -0.294 OA
ENDROOT
BRANCH   2  12
ATOM     12  C   UNL     1      40.654 -95.032  33.764  1.00  0.00    -0.007 A 
ATOM     13  C   UNL     1      39.720 -94.119  33.243  1.00  0.00     0.011 A 
ATOM     14  C   UNL     1      41.512 -95.713  32.880  1.00  0.00     0.011 A 
ATOM     15  C   UNL     1      39.663 -93.874  31.868  1.00  0.00     0.046 A 
ATOM     16  C   UNL     1      41.451 -95.465  31.506  1.00  0.00     0.046 A 
ATOM     17  C   UNL     1      40.530 -94.546  30.996  1.00  0.00     0.115 A 
BRANCH  17  18
ATOM     18  O   UNL     1      40.481 -94.309  29.624  1.00  0.00    -0.508 OA
ATOM     19  H   UNL     1      39.649 -93.943  29.179  1.00  0.00     0.293 HD
ENDBRANCH  17  18
ENDBRANCH   2  12
BRANCH   8  20
ATOM     20  O   UNL     1      40.555 -94.115  40.350  1.00  0.00    -0.507 OA
ATOM     21  H   UNL     1      40.250 -93.499  41.090  1.00  0.00     0.293 HD
ENDBRANCH   8  20
BRANCH   6  22
ATOM     22  O   UNL     1      36.234 -95.973  39.406  1.00  0.00    -0.508 OA
ATOM     23  H   UNL     1      36.101 -96.847  39.901  1.00  0.00     0.293 HD
ENDBRANCH   6  22
TORSDOF 4
ENDMDL
MODEL 5
REMARK VINA RESULT:    -5.236      8.911     11.189
REMARK INTER + INTRA:          -6.301
REMARK INTER:                  -5.990
REMARK INTRA:                  -0.311
REMARK UNBOUND:                -0.300
REMARK SMILES O=C1C[C@H](c2ccc(O)cc2)Oc2cc(O)cc(O)c21
REMARK SMILES IDX 3 1 4 2 12 3 13 4 14 5 15 6 17 7 18 8 20 9 2 10 1 11 5 12
REMARK SMILES IDX 6 13 11 14 7 15 10 16 8 17 9 18 19 20 16 22
REMARK H PARENT 9 19 19 21 16 23
REMARK Flexibility Score: inf
ROOT
ATOM      1  C   UNL     1      42.265 -95.132  35.459  1.00  0.00     0.131 C 
ATOM      2  C   UNL     1      41.314 -94.151  36.157  1.00  0.00     0.211 C 
ATOM      3  O   UNL     1      40.000 -94.238  35.596  1.00  0.00    -0.484 OA
ATOM      4  C   UNL     1      39.774 -94.405  34.224  1.00  0.00     0.138 A 
ATOM      5  C   UNL     1      38.486 -94.204  33.721  1.00  0.00     0.093 A 
ATOM      6  C   UNL     1      38.232 -94.349  32.354  1.00  0.00     0.123 A 
ATOM      7  C   UNL     1      39.265 -94.724  31.493  1.00  0.00     0.093 A 
ATOM      8  C   UNL     1      40.555 -94.969  31.981  1.00  0.00     0.133 A 
ATOM      9  C   UNL     1      40.827 -94.777  33.361  1.00  0.00     0.102 A 
ATOM     10  C   UNL     1      42.169 -94.939  33.975  1.00  0.00     0.174 C 
ATOM     11  O   UNL     1      43.224 -94.863  33.292  1.00  0.00    -0.294 OA
ENDROOT
BRANCH   2  12
ATOM     12  C   UNL     1      41.263 -94.421  37.640  1.00  0.00    -0.007 A 
ATOM     13  C   UNL     1      40.118 -94.081  38.382  1.00  0.00     0.011 A 
ATOM     14  C   UNL     1      42.377 -94.961  38.309  1.00  0.00     0.011 A 
ATOM     15  C   UNL     1      40.080 -94.302  39.762  1.00  0.00     0.046 A 
ATOM     16  C   UNL     1      42.335 -95.180  39.688  1.00  0.00     0.046 A 
ATOM     17  C   UNL     1      41.188 -94.854  40.418  1.00  0.00     0.115 A 
BRANCH  17  18
ATOM     18  O   UNL     1      41.160 -95.078  41.793  1.00  0.00    -0.508 OA
ATOM     19  H   UNL     1      41.810 -95.713  42.240  1.00  0.00     0.293 HD
ENDBRANCH  17  18
ENDBRANCH   2  12
BRANCH   8  20
ATOM     20  O   UNL     1      41.508 -95.431  31.071  1.00  0.00    -0.507 OA
ATOM     21  H   UNL     1      42.256 -94.862  30.700  1.00  0.00     0.293 HD
ENDBRANCH   8  20
BRANCH   6  22
ATOM     22  O   UNL     1      36.955 -94.129  31.842  1.00  0.00    -0.508 OA
ATOM     23  H   UNL     1      36.793 -93.471  31.089  1.00  0.00     0.293 HD
ENDBRANCH   6  22
TORSDOF 4
ENDMDL
MODEL 6
REMARK VINA RESULT:    -5.210      9.693     11.242
REMARK INTER + INTRA:          -6.271
REMARK INTER:                  -5.957
REMARK INTRA:                  -0.315
REMARK UNBOUND:                -0.300
REMARK SMILES O=C1C[C@H](c2ccc(O)cc2)Oc2cc(O)cc(O)c21
REMARK SMILES IDX 3 1 4 2 12 3 13 4 14 5 15 6 17 7 18 8 20 9 2 10 1 11 5 12
REMARK SMILES IDX 6 13 11 14 7 15 10 16 8 17 9 18 19 20 16 22
REMARK H PARENT 9 19 19 21 16 23
REMARK Flexibility Score: inf
ROOT
ATOM      1  C   UNL     1      40.860 -95.064  31.574  1.00  0.00     0.131 C 
ATOM      2  C   UNL     1      40.201 -94.077  32.547  1.00  0.00     0.211 C 
ATOM      3  O   UNL     1      38.784 -94.277  32.585  1.00  0.00    -0.484 OA
ATOM      4  C   UNL     1      38.032 -94.569  31.440  1.00  0.00     0.138 A 
ATOM      5  C   UNL     1      36.639 -94.476  31.504  1.00  0.00     0.093 A 
ATOM      6  C   UNL     1      35.862 -94.747  30.374  1.00  0.00     0.123 A 
ATOM      7  C   UNL     1      36.480 -95.140  29.185  1.00  0.00     0.093 A 
ATOM      8  C   UNL     1      37.871 -95.278  29.110  1.00  0.00     0.133 A 
ATOM      9  C   UNL     1      38.667 -94.958  30.241  1.00  0.00     0.102 A 
ATOM     10  C   UNL     1      40.151 -94.999  30.254  1.00  0.00     0.174 C 
ATOM     11  O   UNL     1      40.826 -94.928  29.193  1.00  0.00    -0.294 OA
ENDROOT
BRANCH   2  12
ATOM     12  C   UNL     1      40.781 -94.224  33.932  1.00  0.00    -0.007 A 
ATOM     13  C   UNL     1      39.964 -94.060  35.063  1.00  0.00     0.011 A 
ATOM     14  C   UNL     1      42.155 -94.471  34.109  1.00  0.00     0.011 A 
ATOM     15  C   UNL     1      40.506 -94.166  36.347  1.00  0.00     0.046 A 
ATOM     16  C   UNL     1      42.693 -94.576  35.395  1.00  0.00     0.046 A 
ATOM     17  C   UNL     1      41.872 -94.426  36.516  1.00  0.00     0.115 A 
BRANCH  17  18
ATOM     18  O   UNL     1      42.422 -94.534  37.792  1.00  0.00    -0.508 OA
ATOM     19  H   UNL     1      43.223 -93.981  38.072  1.00  0.00     0.293 HD
ENDBRANCH  17  18
ENDBRANCH   2  12
BRANCH   8  20
ATOM     20  O   UNL     1      38.404 -95.764  27.914  1.00  0.00    -0.507 OA
ATOM     21  H   UNL     1      38.864 -96.659  27.824  1.00  0.00     0.293 HD
ENDBRANCH   8  20
BRANCH   6  22
ATOM     22  O   UNL     1      34.474 -94.636  30.423  1.00  0.00    -0.508 OA
ATOM     23  H   UNL     1      33.873 -95.280  29.924  1.00  0.00     0.293 HD
ENDBRANCH   6  22
TORSDOF 4
ENDMDL
MODEL 7
REMARK VINA RESULT:    -5.177      9.354     11.148
REMARK INTER + INTRA:          -6.234
REMARK INTER:                  -5.915
REMARK INTRA:                  -0.319
REMARK UNBOUND:                -0.300
REMARK SMILES O=C1C[C@H](c2ccc(O)cc2)Oc2cc(O)cc(O)c21
REMARK SMILES IDX 3 1 4 2 12 3 13 4 14 5 15 6 17 7 18 8 20 9 2 10 1 11 5 12
REMARK SMILES IDX 6 13 11 14 7 15 10 16 8 17 9 18 19 20 16 22
REMARK H PARENT 9 19 19 21 16 23
REMARK Flexibility Score: inf
ROOT
ATOM      1  C   UNL     1      41.505 -95.242  32.959  1.00  0.00     0.131 C 
ATOM      2  C   UNL     1      40.768 -94.161  33.761  1.00  0.00     0.211 C 
ATOM      3  O   UNL     1      39.353 -94.277  33.578  1.00  0.00    -0.484 OA
ATOM      4  C   UNL     1      38.774 -94.593  32.342  1.00  0.00     0.138 A 
ATOM      5  C   UNL     1      37.399 -94.416  32.173  1.00  0.00     0.093 A 
ATOM      6  C   UNL     1      36.795 -94.710  30.947  1.00  0.00     0.123 A 
ATOM      7  C   UNL     1      37.567 -95.209  29.896  1.00  0.00     0.093 A 
ATOM      8  C   UNL     1      38.940 -95.432  30.055  1.00  0.00     0.133 A 
ATOM      9  C   UNL     1      39.566 -95.091  31.284  1.00  0.00     0.102 A 
ATOM     10  C   UNL     1      41.022 -95.217  31.540  1.00  0.00     0.174 C 
ATOM     11  O   UNL     1      41.860 -95.249  30.601  1.00  0.00    -0.294 OA
ENDROOT
BRANCH   2  12
ATOM     12  C   UNL     1      41.109 -94.258  35.227  1.00  0.00    -0.007 A 
ATOM     13  C   UNL     1      42.390 -94.672  35.631  1.00  0.00     0.011 A 
ATOM     14  C   UNL     1      40.136 -93.991  36.208  1.00  0.00     0.011 A 
ATOM     15  C   UNL     1      42.699 -94.792  36.988  1.00  0.00     0.046 A 
ATOM     16  C   UNL     1      40.449 -94.112  37.565  1.00  0.00     0.046 A 
ATOM     17  C   UNL     1      41.729 -94.510  37.960  1.00  0.00     0.115 A 
BRANCH  17  18
ATOM     18  O   UNL     1      42.027 -94.626  39.316  1.00  0.00    -0.508 OA
ATOM     19  H   UNL     1      41.403 -95.101  39.956  1.00  0.00     0.293 HD
ENDBRANCH  17  18
ENDBRANCH   2  12
BRANCH   8  20
ATOM     20  O   UNL     1      39.623 -96.020  28.988  1.00  0.00    -0.507 OA
ATOM     21  H   UNL     1      40.437 -96.609  29.095  1.00  0.00     0.293 HD
ENDBRANCH   8  20
BRANCH   6  22
ATOM     22  O   UNL     1      35.428 -94.515  30.764  1.00  0.00    -0.508 OA
ATOM     23  H   UNL     1      34.743 -95.010  31.323  1.00  0.00     0.293 HD
ENDBRANCH   6  22
TORSDOF 4
ENDMDL
MODEL 8
REMARK VINA RESULT:    -5.166      9.798     10.948
REMARK INTER + INTRA:          -6.221
REMARK INTER:                  -5.928
REMARK INTRA:                  -0.293
REMARK UNBOUND:                -0.300
REMARK SMILES O=C1C[C@H](c2ccc(O)cc2)Oc2cc(O)cc(O)c21
REMARK SMILES IDX 3 1 4 2 12 3 13 4 14 5 15 6 17 7 18 8 20 9 2 10 1 11 5 12
REMARK SMILES IDX 6 13 11 14 7 15 10 16 8 17 9 18 19 20 16 22
REMARK H PARENT 9 19 19 21 16 23
REMARK Flexibility Score: inf
ROOT
ATOM      1  C   UNL     1      37.591 -95.252  28.724  1.00  0.00     0.131 C 
ATOM      2  C   UNL     1      36.470 -95.625  29.704  1.00  0.00     0.211 C 
ATOM      3  O   UNL     1      36.636 -94.932  30.946  1.00  0.00    -0.484 OA
ATOM      4  C   UNL     1      37.892 -94.726  31.534  1.00  0.00     0.138 A 
ATOM      5  C   UNL     1      37.954 -94.296  32.862  1.00  0.00     0.093 A 
ATOM      6  C   UNL     1      39.191 -94.096  33.480  1.00  0.00     0.123 A 
ATOM      7  C   UNL     1      40.369 -94.300  32.758  1.00  0.00     0.093 A 
ATOM      8  C   UNL     1      40.329 -94.692  31.414  1.00  0.00     0.133 A 
ATOM      9  C   UNL     1      39.075 -94.942  30.796  1.00  0.00     0.102 A 
ATOM     10  C   UNL     1      38.916 -95.428  29.403  1.00  0.00     0.174 C 
ATOM     11  O   UNL     1      39.844 -96.030  28.800  1.00  0.00    -0.294 OA
ENDROOT
BRANCH   2  12
ATOM     12  C   UNL     1      35.118 -95.310  29.114  1.00  0.00    -0.007 A 
ATOM     13  C   UNL     1      34.232 -96.350  28.779  1.00  0.00     0.011 A 
ATOM     14  C   UNL     1      34.748 -93.981  28.839  1.00  0.00     0.011 A 
ATOM     15  C   UNL     1      32.992 -96.062  28.203  1.00  0.00     0.046 A 
ATOM     16  C   UNL     1      33.507 -93.698  28.264  1.00  0.00     0.046 A 
ATOM     17  C   UNL     1      32.624 -94.735  27.946  1.00  0.00     0.115 A 
BRANCH  17  18
ATOM     18  O   UNL     1      31.390 -94.438  27.373  1.00  0.00    -0.508 OA
ATOM     19  H   UNL     1      30.695 -95.156  27.211  1.00  0.00     0.293 HD
ENDBRANCH  17  18
ENDBRANCH   2  12
BRANCH   8  20
ATOM     20  O   UNL     1      41.547 -94.783  30.736  1.00  0.00    -0.507 OA
ATOM     21  H   UNL     1      41.863 -95.612  30.253  1.00  0.00     0.293 HD
ENDBRANCH   8  20
BRANCH   6  22
ATOM     22  O   UNL     1      39.263 -93.689  34.810  1.00  0.00    -0.508 OA
ATOM     23  H   UNL     1      39.964 -94.058  35.441  1.00  0.00     0.293 HD
ENDBRANCH   6  22
TORSDOF 4
ENDMDL
MODEL 9
REMARK VINA RESULT:    -5.009     10.818     12.279
REMARK INTER + INTRA:          -6.041
REMARK INTER:                  -5.726
REMARK INTRA:                  -0.315
REMARK UNBOUND:                -0.300
REMARK SMILES O=C1C[C@H](c2ccc(O)cc2)Oc2cc(O)cc(O)c21
REMARK SMILES IDX 3 1 4 2 12 3 13 4 14 5 15 6 17 7 18 8 20 9 2 10 1 11 5 12
REMARK SMILES IDX 6 13 11 14 7 15 10 16 8 17 9 18 19 20 16 22
REMARK H PARENT 9 19 19 21 16 23
REMARK Flexibility Score: inf
ROOT
ATOM      1  C   UNL     1      39.560 -94.245  32.595  1.00  0.00     0.131 C 
ATOM      2  C   UNL     1      40.559 -95.283  33.127  1.00  0.00     0.211 C 
ATOM      3  O   UNL     1      41.709 -95.356  32.278  1.00  0.00    -0.484 OA
ATOM      4  C   UNL     1      41.622 -95.281  30.881  1.00  0.00     0.138 A 
ATOM      5  C   UNL     1      42.735 -95.635  30.114  1.00  0.00     0.093 A 
ATOM      6  C   UNL     1      42.675 -95.584  28.719  1.00  0.00     0.123 A 
ATOM      7  C   UNL     1      41.507 -95.149  28.091  1.00  0.00     0.093 A 
ATOM      8  C   UNL     1      40.393 -94.751  28.840  1.00  0.00     0.133 A 
ATOM      9  C   UNL     1      40.433 -94.846  30.256  1.00  0.00     0.102 A 
ATOM     10  C   UNL     1      39.291 -94.521  31.146  1.00  0.00     0.174 C 
ATOM     11  O   UNL     1      38.103 -94.523  30.728  1.00  0.00    -0.294 OA
ENDROOT
BRANCH   2  12
ATOM     12  C   UNL     1      40.978 -94.947  34.537  1.00  0.00    -0.007 A 
ATOM     13  C   UNL     1      42.294 -95.196  34.963  1.00  0.00     0.011 A 
ATOM     14  C   UNL     1      40.046 -94.435  35.458  1.00  0.00     0.011 A 
ATOM     15  C   UNL     1      42.676 -94.915  36.277  1.00  0.00     0.046 A 
ATOM     16  C   UNL     1      40.432 -94.154  36.771  1.00  0.00     0.046 A 
ATOM     17  C   UNL     1      41.746 -94.391  37.185  1.00  0.00     0.115 A 
BRANCH  17  18
ATOM     18  O   UNL     1      42.117 -94.107  38.497  1.00  0.00    -0.508 OA
ATOM     19  H   UNL     1      42.436 -94.833  39.127  1.00  0.00     0.293 HD
ENDBRANCH  17  18
ENDBRANCH   2  12
BRANCH   8  20
ATOM     20  O   UNL     1      39.297 -94.241  28.140  1.00  0.00    -0.507 OA
ATOM     21  H   UNL     1      38.805 -93.399  28.400  1.00  0.00     0.293 HD
ENDBRANCH   8  20
BRANCH   6  22
ATOM     22  O   UNL     1      43.773 -95.956  27.947  1.00  0.00    -0.508 OA
ATOM     23  H   UNL     1      44.580 -95.352  27.847  1.00  0.00     0.293 HD
ENDBRANCH   6  22
TORSDOF 4
ENDMDL
