MODEL 1
REMARK VINA RESULT:    -2.227      0.000      0.000
REMARK INTER + INTRA:          -4.739
REMARK INTER:                  -3.398
REMARK INTRA:                  -1.341
REMARK UNBOUND:                -1.341
REMARK SMILES CCCCCCCCCCC(=O)[O-]
REMARK SMILES IDX 7 1 8 2 9 3 10 4 11 5 12 6 13 7 6 8 5 9 4 10 3 11 2 12 1 13
REMARK H PARENT
REMARK Flexibility Score: inf
ROOT
ATOM      1  C   UNL     1       1.343  12.748  -3.325  1.00  0.00     0.000 C 
ENDROOT
BRANCH   1   2
ATOM      2  C   UNL     1       1.846  13.980  -4.098  1.00  0.00     0.000 C 
BRANCH   2   3
ATOM      3  C   UNL     1       0.819  14.495  -5.119  1.00  0.00     0.006 C 
BRANCH   3   4
ATOM      4  C   UNL     1      -0.191  13.418  -5.539  1.00  0.00     0.053 C 
BRANCH   4   5
ATOM      5  C   UNL     1       0.053  12.998  -6.953  1.00  0.00     0.041 C 
ATOM      6  O   UNL     1       1.211  12.674  -7.329  1.00  0.00    -0.550 OA
ATOM      7  O   UNL     1      -0.990  13.011  -7.872  1.00  0.00    -0.550 OA
ENDBRANCH   4   5
ENDBRANCH   3   4
ENDBRANCH   2   3
ENDBRANCH   1   2
BRANCH   1   8
ATOM      8  C   UNL     1       1.427  12.931  -1.801  1.00  0.00     0.000 C 
BRANCH   8   9
ATOM      9  C   UNL     1       0.075  12.720  -1.103  1.00  0.00    -0.000 C 
BRANCH   9  10
ATOM     10  C   UNL     1      -1.062  13.375  -1.900  1.00  0.00    -0.000 C 
BRANCH  10  11
ATOM     11  C   UNL     1      -1.443  14.734  -1.296  1.00  0.00    -0.000 C 
BRANCH  11  12
ATOM     12  C   UNL     1      -1.013  15.915  -2.181  1.00  0.00    -0.003 C 
ATOM     13  C   UNL     1       0.355  16.476  -1.795  1.00  0.00     0.004 C 
ENDBRANCH  11  12
ENDBRANCH  10  11
ENDBRANCH   9  10
ENDBRANCH   8   9
ENDBRANCH   1   8
TORSDOF 9
ENDMDL
MODEL 2
REMARK VINA RESULT:    -2.223      1.149      2.769
REMARK INTER + INTRA:          -4.734
REMARK INTER:                  -3.505
REMARK INTRA:                  -1.229
REMARK UNBOUND:                -1.341
REMARK SMILES CCCCCCCCCCC(=O)[O-]
REMARK SMILES IDX 7 1 8 2 9 3 10 4 11 5 12 6 13 7 6 8 5 9 4 10 3 11 2 12 1 13
REMARK H PARENT
REMARK Flexibility Score: inf
ROOT
ATOM      1  C   UNL     1       0.098  15.872  -2.123  1.00  0.00     0.000 C 
ENDROOT
BRANCH   1   2
ATOM      2  C   UNL     1       0.521  15.613  -3.579  1.00  0.00     0.000 C 
BRANCH   2   3
ATOM      3  C   UNL     1       0.862  14.137  -3.841  1.00  0.00     0.006 C 
BRANCH   3   4
ATOM      4  C   UNL     1      -0.205  13.423  -4.682  1.00  0.00     0.053 C 
BRANCH   4   5
ATOM      5  C   UNL     1       0.145  13.488  -6.134  1.00  0.00     0.041 C 
ATOM      6  O   UNL     1      -0.713  13.192  -7.008  1.00  0.00    -0.550 OA
ATOM      7  O   UNL     1       1.434  13.828  -6.525  1.00  0.00    -0.550 OA
ENDBRANCH   4   5
ENDBRANCH   3   4
ENDBRANCH   2   3
ENDBRANCH   1   2
BRANCH   1   8
ATOM      8  C   UNL     1      -1.416  16.095  -1.978  1.00  0.00     0.000 C 
BRANCH   8   9
ATOM      9  C   UNL     1      -2.062  15.137  -0.966  1.00  0.00    -0.000 C 
BRANCH   9  10
ATOM     10  C   UNL     1      -2.113  13.707  -1.520  1.00  0.00    -0.000 C 
BRANCH  10  11
ATOM     11  C   UNL     1      -1.563  12.702  -0.498  1.00  0.00    -0.000 C 
BRANCH  11  12
ATOM     12  C   UNL     1      -0.084  12.363  -0.741  1.00  0.00    -0.003 C 
ATOM     13  C   UNL     1       0.852  13.053   0.250  1.00  0.00     0.004 C 
ENDBRANCH  11  12
ENDBRANCH  10  11
ENDBRANCH   9  10
ENDBRANCH   8   9
ENDBRANCH   1   8
TORSDOF 9
ENDMDL
MODEL 3
REMARK VINA RESULT:    -2.137      1.066      2.518
REMARK INTER + INTRA:          -4.603
REMARK INTER:                  -3.545
REMARK INTRA:                  -1.058
REMARK UNBOUND:                -1.341
REMARK SMILES CCCCCCCCCCC(=O)[O-]
REMARK SMILES IDX 7 1 8 2 9 3 10 4 11 5 12 6 13 7 6 8 5 9 4 10 3 11 2 12 1 13
REMARK H PARENT
REMARK Flexibility Score: inf
ROOT
ATOM      1  C   UNL     1       1.086  15.841  -4.654  1.00  0.00     0.000 C 
ENDROOT
BRANCH   1   2
ATOM      2  C   UNL     1       1.986  14.595  -4.579  1.00  0.00     0.000 C 
BRANCH   2   3
ATOM      3  C   UNL     1       1.215  13.293  -4.847  1.00  0.00     0.006 C 
BRANCH   3   4
ATOM      4  C   UNL     1      -0.103  13.529  -5.597  1.00  0.00     0.053 C 
BRANCH   4   5
ATOM      5  C   UNL     1       0.044  13.160  -7.039  1.00  0.00     0.041 C 
ATOM      6  O   UNL     1      -0.975  13.027  -7.767  1.00  0.00    -0.550 OA
ATOM      7  O   UNL     1       1.305  12.913  -7.569  1.00  0.00    -0.550 OA
ENDBRANCH   4   5
ENDBRANCH   3   4
ENDBRANCH   2   3
ENDBRANCH   1   2
BRANCH   1   8
ATOM      8  C   UNL     1       0.877  16.503  -3.282  1.00  0.00     0.000 C 
BRANCH   8   9
ATOM      9  C   UNL     1      -0.310  15.907  -2.511  1.00  0.00    -0.000 C 
BRANCH   9  10
ATOM     10  C   UNL     1       0.173  14.936  -1.425  1.00  0.00    -0.000 C 
BRANCH  10  11
ATOM     11  C   UNL     1      -0.509  13.568  -1.569  1.00  0.00    -0.000 C 
BRANCH  11  12
ATOM     12  C   UNL     1      -1.994  13.685  -1.947  1.00  0.00    -0.003 C 
ATOM     13  C   UNL     1      -2.895  13.927  -0.736  1.00  0.00     0.004 C 
ENDBRANCH  11  12
ENDBRANCH  10  11
ENDBRANCH   9  10
ENDBRANCH   8   9
ENDBRANCH   1   8
TORSDOF 9
ENDMDL
MODEL 4
REMARK VINA RESULT:    -2.128      1.257      1.788
REMARK INTER + INTRA:          -4.588
REMARK INTER:                  -3.827
REMARK INTRA:                  -0.762
REMARK UNBOUND:                -1.341
REMARK SMILES CCCCCCCCCCC(=O)[O-]
REMARK SMILES IDX 7 1 8 2 9 3 10 4 11 5 12 6 13 7 6 8 5 9 4 10 3 11 2 12 1 13
REMARK H PARENT
REMARK Flexibility Score: inf
ROOT
ATOM      1  C   UNL     1       0.505  15.185  -3.578  1.00  0.00     0.000 C 
ENDROOT
BRANCH   1   2
ATOM      2  C   UNL     1       1.047  15.245  -5.017  1.00  0.00     0.000 C 
BRANCH   2   3
ATOM      3  C   UNL     1       1.151  13.856  -5.667  1.00  0.00     0.006 C 
BRANCH   3   4
ATOM      4  C   UNL     1      -0.207  13.317  -6.135  1.00  0.00     0.053 C 
BRANCH   4   5
ATOM      5  C   UNL     1      -0.090  12.725  -7.503  1.00  0.00     0.041 C 
ATOM      6  O   UNL     1       0.794  11.860  -7.746  1.00  0.00    -0.550 OA
ATOM      7  O   UNL     1      -0.924  13.162  -8.525  1.00  0.00    -0.550 OA
ENDBRANCH   4   5
ENDBRANCH   3   4
ENDBRANCH   2   3
ENDBRANCH   1   2
BRANCH   1   8
ATOM      8  C   UNL     1       1.151  14.062  -2.749  1.00  0.00     0.000 C 
BRANCH   8   9
ATOM      9  C   UNL     1       0.114  13.144  -2.084  1.00  0.00    -0.000 C 
BRANCH   9  10
ATOM     10  C   UNL     1      -1.301  13.459  -2.589  1.00  0.00    -0.000 C 
BRANCH  10  11
ATOM     11  C   UNL     1      -2.243  13.776  -1.418  1.00  0.00    -0.000 C 
BRANCH  11  12
ATOM     12  C   UNL     1      -2.479  15.285  -1.243  1.00  0.00    -0.003 C 
ATOM     13  C   UNL     1      -3.958  15.638  -1.094  1.00  0.00     0.004 C 
ENDBRANCH  11  12
ENDBRANCH  10  11
ENDBRANCH   9  10
ENDBRANCH   8   9
ENDBRANCH   1   8
TORSDOF 9
ENDMDL
MODEL 5
REMARK VINA RESULT:    -2.086      1.310      2.856
REMARK INTER + INTRA:          -4.525
REMARK INTER:                  -3.342
REMARK INTRA:                  -1.184
REMARK UNBOUND:                -1.341
REMARK SMILES CCCCCCCCCCC(=O)[O-]
REMARK SMILES IDX 7 1 8 2 9 3 10 4 11 5 12 6 13 7 6 8 5 9 4 10 3 11 2 12 1 13
REMARK H PARENT
REMARK Flexibility Score: inf
ROOT
ATOM      1  C   UNL     1      -0.882  15.289  -2.151  1.00  0.00     0.000 C 
ENDROOT
BRANCH   1   2
ATOM      2  C   UNL     1       0.066  14.994  -3.327  1.00  0.00     0.000 C 
BRANCH   2   3
ATOM      3  C   UNL     1      -0.192  13.618  -3.962  1.00  0.00     0.006 C 
BRANCH   3   4
ATOM      4  C   UNL     1       0.968  13.147  -4.847  1.00  0.00     0.053 C 
BRANCH   4   5
ATOM      5  C   UNL     1       0.607  13.276  -6.293  1.00  0.00     0.041 C 
ATOM      6  O   UNL     1      -0.601  13.348  -6.641  1.00  0.00    -0.550 OA
ATOM      7  O   UNL     1       1.603  13.267  -7.263  1.00  0.00    -0.550 OA
ENDBRANCH   4   5
ENDBRANCH   3   4
ENDBRANCH   2   3
ENDBRANCH   1   2
BRANCH   1   8
ATOM      8  C   UNL     1      -1.876  14.146  -1.892  1.00  0.00     0.000 C 
BRANCH   8   9
ATOM      9  C   UNL     1      -1.910  13.711  -0.419  1.00  0.00    -0.000 C 
BRANCH   9  10
ATOM     10  C   UNL     1      -1.454  12.254  -0.266  1.00  0.00    -0.000 C 
BRANCH  10  11
ATOM     11  C   UNL     1      -0.014  12.181   0.262  1.00  0.00    -0.000 C 
BRANCH  11  12
ATOM     12  C   UNL     1       1.003  11.851  -0.841  1.00  0.00    -0.003 C 
ATOM     13  C   UNL     1       2.062  12.940  -1.014  1.00  0.00     0.004 C 
ENDBRANCH  11  12
ENDBRANCH  10  11
ENDBRANCH   9  10
ENDBRANCH   8   9
ENDBRANCH   1   8
TORSDOF 9
ENDMDL
MODEL 6
REMARK VINA RESULT:    -2.066      1.588      2.245
REMARK INTER + INTRA:          -4.494
REMARK INTER:                  -3.546
REMARK INTRA:                  -0.948
REMARK UNBOUND:                -1.341
REMARK SMILES CCCCCCCCCCC(=O)[O-]
REMARK SMILES IDX 7 1 8 2 9 3 10 4 11 5 12 6 13 7 6 8 5 9 4 10 3 11 2 12 1 13
REMARK H PARENT
REMARK Flexibility Score: inf
ROOT
ATOM      1  C   UNL     1      -0.371  13.421  -4.187  1.00  0.00     0.000 C 
ENDROOT
BRANCH   1   2
ATOM      2  C   UNL     1       0.900  13.221  -5.030  1.00  0.00     0.000 C 
BRANCH   2   3
ATOM      3  C   UNL     1       0.730  13.705  -6.478  1.00  0.00     0.006 C 
BRANCH   3   4
ATOM      4  C   UNL     1      -0.199  12.802  -7.300  1.00  0.00     0.053 C 
BRANCH   4   5
ATOM      5  C   UNL     1      -0.291  13.294  -8.709  1.00  0.00     0.041 C 
ATOM      6  O   UNL     1       0.703  13.840  -9.258  1.00  0.00    -0.550 OA
ATOM      7  O   UNL     1      -1.491  13.195  -9.404  1.00  0.00    -0.550 OA
ENDBRANCH   4   5
ENDBRANCH   3   4
ENDBRANCH   2   3
ENDBRANCH   1   2
BRANCH   1   8
ATOM      8  C   UNL     1      -0.125  13.205  -2.685  1.00  0.00     0.000 C 
BRANCH   8   9
ATOM      9  C   UNL     1       0.360  14.478  -1.974  1.00  0.00    -0.000 C 
BRANCH   9  10
ATOM     10  C   UNL     1      -0.562  15.665  -2.284  1.00  0.00    -0.000 C 
BRANCH  10  11
ATOM     11  C   UNL     1       0.254  16.913  -2.651  1.00  0.00    -0.000 C 
BRANCH  11  12
ATOM     12  C   UNL     1       1.555  16.571  -3.394  1.00  0.00    -0.003 C 
ATOM     13  C   UNL     1       1.525  16.993  -4.863  1.00  0.00     0.004 C 
ENDBRANCH  11  12
ENDBRANCH  10  11
ENDBRANCH   9  10
ENDBRANCH   8   9
ENDBRANCH   1   8
TORSDOF 9
ENDMDL
MODEL 7
REMARK VINA RESULT:    -2.057      2.405      4.419
REMARK INTER + INTRA:          -4.481
REMARK INTER:                  -3.272
REMARK INTRA:                  -1.209
REMARK UNBOUND:                -1.341
REMARK SMILES CCCCCCCCCCC(=O)[O-]
REMARK SMILES IDX 7 1 8 2 9 3 10 4 11 5 12 6 13 7 6 8 5 9 4 10 3 11 2 12 1 13
REMARK H PARENT
REMARK Flexibility Score: inf
ROOT
ATOM      1  C   UNL     1      -0.542  13.421   0.222  1.00  0.00     0.000 C 
ENDROOT
BRANCH   1   2
ATOM      2  C   UNL     1       0.264  12.126   0.419  1.00  0.00     0.000 C 
BRANCH   2   3
ATOM      3  C   UNL     1       0.928  11.641  -0.880  1.00  0.00     0.006 C 
BRANCH   3   4
ATOM      4  C   UNL     1       2.172  12.460  -1.250  1.00  0.00     0.053 C 
BRANCH   4   5
ATOM      5  C   UNL     1       2.810  11.909  -2.486  1.00  0.00     0.041 C 
ATOM      6  O   UNL     1       2.925  12.627  -3.515  1.00  0.00    -0.550 OA
ATOM      7  O   UNL     1       3.235  10.586  -2.519  1.00  0.00    -0.550 OA
ENDBRANCH   4   5
ENDBRANCH   3   4
ENDBRANCH   2   3
ENDBRANCH   1   2
BRANCH   1   8
ATOM      8  C   UNL     1      -1.911  13.173  -0.432  1.00  0.00     0.000 C 
BRANCH   8   9
ATOM      9  C   UNL     1      -1.979  13.685  -1.878  1.00  0.00    -0.000 C 
BRANCH   9  10
ATOM     10  C   UNL     1      -1.009  14.854  -2.093  1.00  0.00    -0.000 C 
BRANCH  10  11
ATOM     11  C   UNL     1      -0.097  14.597  -3.302  1.00  0.00    -0.000 C 
BRANCH  11  12
ATOM     12  C   UNL     1      -0.481  13.321  -4.069  1.00  0.00    -0.003 C 
ATOM     13  C   UNL     1      -0.005  13.340  -5.522  1.00  0.00     0.004 C 
ENDBRANCH  11  12
ENDBRANCH  10  11
ENDBRANCH   9  10
ENDBRANCH   8   9
ENDBRANCH   1   8
TORSDOF 9
ENDMDL
MODEL 8
REMARK VINA RESULT:    -2.027      1.662      2.873
REMARK INTER + INTRA:          -4.434
REMARK INTER:                  -3.789
REMARK INTRA:                  -0.646
REMARK UNBOUND:                -1.341
REMARK SMILES CCCCCCCCCCC(=O)[O-]
REMARK SMILES IDX 7 1 8 2 9 3 10 4 11 5 12 6 13 7 6 8 5 9 4 10 3 11 2 12 1 13
REMARK H PARENT
REMARK Flexibility Score: inf
ROOT
ATOM      1  C   UNL     1       0.892  14.035  -5.508  1.00  0.00     0.000 C 
ENDROOT
BRANCH   1   2
ATOM      2  C   UNL     1      -0.096  13.407  -6.507  1.00  0.00     0.000 C 
BRANCH   2   3
ATOM      3  C   UNL     1       0.509  13.245  -7.910  1.00  0.00     0.006 C 
BRANCH   3   4
ATOM      4  C   UNL     1       0.111  11.921  -8.577  1.00  0.00     0.053 C 
BRANCH   4   5
ATOM      5  C   UNL     1      -1.312  11.975  -9.037  1.00  0.00     0.041 C 
ATOM      6  O   UNL     1      -2.059  10.970  -8.905  1.00  0.00    -0.550 OA
ATOM      7  O   UNL     1      -1.800  13.120  -9.655  1.00  0.00    -0.550 OA
ENDBRANCH   4   5
ENDBRANCH   3   4
ENDBRANCH   2   3
ENDBRANCH   1   2
BRANCH   1   8
ATOM      8  C   UNL     1       1.362  13.039  -4.435  1.00  0.00     0.000 C 
BRANCH   8   9
ATOM      9  C   UNL     1       0.892  13.422  -3.024  1.00  0.00    -0.000 C 
BRANCH   9  10
ATOM     10  C   UNL     1       0.339  14.853  -2.999  1.00  0.00    -0.000 C 
BRANCH  10  11
ATOM     11  C   UNL     1      -1.030  14.901  -2.303  1.00  0.00    -0.000 C 
BRANCH  11  12
ATOM     12  C   UNL     1      -1.680  13.514  -2.185  1.00  0.00    -0.003 C 
ATOM     13  C   UNL     1      -2.120  13.187  -0.758  1.00  0.00     0.004 C 
ENDBRANCH  11  12
ENDBRANCH  10  11
ENDBRANCH   9  10
ENDBRANCH   8   9
ENDBRANCH   1   8
TORSDOF 9
ENDMDL
MODEL 9
REMARK VINA RESULT:    -1.995      0.953      2.340
REMARK INTER + INTRA:          -4.386
REMARK INTER:                  -3.169
REMARK INTRA:                  -1.217
REMARK UNBOUND:                -1.341
REMARK SMILES CCCCCCCCCCC(=O)[O-]
REMARK SMILES IDX 7 1 8 2 9 3 10 4 11 5 12 6 13 7 6 8 5 9 4 10 3 11 2 12 1 13
REMARK H PARENT
REMARK Flexibility Score: inf
ROOT
ATOM      1  C   UNL     1       0.699  15.586  -4.117  1.00  0.00     0.000 C 
ENDROOT
BRANCH   1   2
ATOM      2  C   UNL     1       1.776  14.492  -4.220  1.00  0.00     0.000 C 
BRANCH   2   3
ATOM      3  C   UNL     1       1.228  13.176  -4.794  1.00  0.00     0.006 C 
BRANCH   3   4
ATOM      4  C   UNL     1      -0.087  13.366  -5.562  1.00  0.00     0.053 C 
BRANCH   4   5
ATOM      5  C   UNL     1       0.032  12.811  -6.945  1.00  0.00     0.041 C 
ATOM      6  O   UNL     1       1.035  12.121  -7.268  1.00  0.00    -0.550 OA
ATOM      7  O   UNL     1      -0.941  13.097  -7.896  1.00  0.00    -0.550 OA
ENDBRANCH   4   5
ENDBRANCH   3   4
ENDBRANCH   2   3
ENDBRANCH   1   2
BRANCH   1   8
ATOM      8  C   UNL     1       0.297  15.886  -2.664  1.00  0.00     0.000 C 
BRANCH   8   9
ATOM      9  C   UNL     1      -0.898  15.044  -2.193  1.00  0.00    -0.000 C 
BRANCH   9  10
ATOM     10  C   UNL     1      -0.545  14.247  -0.931  1.00  0.00    -0.000 C 
BRANCH  10  11
ATOM     11  C   UNL     1      -0.022  12.849  -1.292  1.00  0.00    -0.000 C 
BRANCH  11  12
ATOM     12  C   UNL     1       1.261  12.484  -0.530  1.00  0.00    -0.003 C 
ATOM     13  C   UNL     1       2.358  13.538  -0.680  1.00  0.00     0.004 C 
ENDBRANCH  11  12
ENDBRANCH  10  11
ENDBRANCH   9  10
ENDBRANCH   8   9
ENDBRANCH   1   8
TORSDOF 9
ENDMDL
