MODEL 1
REMARK VINA RESULT:    -4.284      0.000      0.000
REMARK INTER + INTRA:          -4.535
REMARK INTER:                  -4.535
REMARK INTRA:                   0.000
REMARK UNBOUND:                 0.000
REMARK SMILES Cc1cc(O)c(C)c(C)c1O
REMARK SMILES IDX 1 1 2 2 3 3 4 4 6 5 8 6 10 7 9 8 7 9 11 10 5 12
REMARK H PARENT 11 11 5 13
REMARK Flexibility Score: inf
ROOT
ATOM      1  C   UNL     1     160.253 165.740 182.129  1.00  0.00     0.048 C 
ATOM      2  C   UNL     1     160.375 164.327 181.626  1.00  0.00    -0.005 A 
ATOM      3  C   UNL     1     160.271 163.258 182.520  1.00  0.00     0.053 A 
ATOM      4  C   UNL     1     160.415 161.942 182.084  1.00  0.00     0.119 A 
ATOM      5  C   UNL     1     160.687 161.671 180.722  1.00  0.00    -0.003 A 
ATOM      6  C   UNL     1     160.669 162.744 179.786  1.00  0.00    -0.002 A 
ATOM      7  C   UNL     1     160.583 164.078 180.260  1.00  0.00     0.121 A 
ATOM      8  C   UNL     1     160.753 162.482 178.298  1.00  0.00     0.049 C 
ATOM      9  C   UNL     1     160.974 160.253 180.282  1.00  0.00     0.049 C 
ENDROOT
BRANCH   7  10
ATOM     10  O   UNL     1     160.713 165.175 179.402  1.00  0.00    -0.507 OA
ATOM     11  H   UNL     1     160.458 165.156 178.423  1.00  0.00     0.293 HD
ENDBRANCH   7  10
BRANCH   4  12
ATOM     12  O   UNL     1     160.270 160.926 183.035  1.00  0.00    -0.508 OA
ATOM     13  H   UNL     1     160.315 159.941 182.813  1.00  0.00     0.293 HD
ENDBRANCH   4  12
TORSDOF 2
ENDMDL
MODEL 2
REMARK VINA RESULT:    -4.223      2.123      4.470
REMARK INTER + INTRA:          -4.470
REMARK INTER:                  -4.470
REMARK INTRA:                   0.000
REMARK UNBOUND:                 0.000
REMARK SMILES Cc1cc(O)c(C)c(C)c1O
REMARK SMILES IDX 1 1 2 2 3 3 4 4 6 5 8 6 10 7 9 8 7 9 11 10 5 12
REMARK H PARENT 11 11 5 13
REMARK Flexibility Score: inf
ROOT
ATOM      1  C   UNL     1     163.837 160.561 178.529  1.00  0.00     0.048 C 
ATOM      2  C   UNL     1     162.835 161.278 179.393  1.00  0.00    -0.005 A 
ATOM      3  C   UNL     1     161.874 162.105 178.805  1.00  0.00     0.053 A 
ATOM      4  C   UNL     1     160.957 162.806 179.587  1.00  0.00     0.119 A 
ATOM      5  C   UNL     1     161.000 162.702 180.997  1.00  0.00    -0.003 A 
ATOM      6  C   UNL     1     161.893 161.767 181.596  1.00  0.00    -0.002 A 
ATOM      7  C   UNL     1     162.856 161.112 180.786  1.00  0.00     0.121 A 
ATOM      8  C   UNL     1     161.835 161.473 183.079  1.00  0.00     0.049 C 
ATOM      9  C   UNL     1     160.092 163.567 181.842  1.00  0.00     0.049 C 
ENDROOT
BRANCH   7  10
ATOM     10  O   UNL     1     163.854 160.301 181.340  1.00  0.00    -0.507 OA
ATOM     11  H   UNL     1     163.671 159.414 181.791  1.00  0.00     0.293 HD
ENDBRANCH   7  10
BRANCH   4  12
ATOM     12  O   UNL     1     160.008 163.591 178.923  1.00  0.00    -0.508 OA
ATOM     13  H   UNL     1     159.399 164.249 179.390  1.00  0.00     0.293 HD
ENDBRANCH   4  12
TORSDOF 2
ENDMDL
MODEL 3
REMARK VINA RESULT:    -4.199      1.985      3.553
REMARK INTER + INTRA:          -4.445
REMARK INTER:                  -4.445
REMARK INTRA:                   0.000
REMARK UNBOUND:                 0.000
REMARK SMILES Cc1cc(O)c(C)c(C)c1O
REMARK SMILES IDX 1 1 2 2 3 3 4 4 6 5 8 6 10 7 9 8 7 9 11 10 5 12
REMARK H PARENT 11 11 5 13
REMARK Flexibility Score: inf
ROOT
ATOM      1  C   UNL     1     161.622 162.148 177.111  1.00  0.00     0.048 C 
ATOM      2  C   UNL     1     161.767 162.010 178.603  1.00  0.00    -0.005 A 
ATOM      3  C   UNL     1     162.776 161.203 179.133  1.00  0.00     0.053 A 
ATOM      4  C   UNL     1     162.908 161.032 180.511  1.00  0.00     0.119 A 
ATOM      5  C   UNL     1     162.003 161.667 181.394  1.00  0.00    -0.003 A 
ATOM      6  C   UNL     1     161.053 162.588 180.869  1.00  0.00    -0.002 A 
ATOM      7  C   UNL     1     160.897 162.698 179.463  1.00  0.00     0.121 A 
ATOM      8  C   UNL     1     160.203 163.440 181.786  1.00  0.00     0.049 C 
ATOM      9  C   UNL     1     162.069 161.371 182.876  1.00  0.00     0.049 C 
ENDROOT
BRANCH   7  10
ATOM     10  O   UNL     1     159.879 163.471 178.894  1.00  0.00    -0.507 OA
ATOM     11  H   UNL     1     159.894 163.805 177.939  1.00  0.00     0.293 HD
ENDBRANCH   7  10
BRANCH   4  12
ATOM     12  O   UNL     1     163.961 160.231 180.965  1.00  0.00    -0.508 OA
ATOM     13  H   UNL     1     164.612 160.516 181.683  1.00  0.00     0.293 HD
ENDBRANCH   4  12
TORSDOF 2
ENDMDL
MODEL 4
REMARK VINA RESULT:    -4.062      3.098      4.127
REMARK INTER + INTRA:          -4.299
REMARK INTER:                  -4.299
REMARK INTRA:                   0.000
REMARK UNBOUND:                 0.000
REMARK SMILES Cc1cc(O)c(C)c(C)c1O
REMARK SMILES IDX 1 1 2 2 3 3 4 4 6 5 8 6 10 7 9 8 7 9 11 10 5 12
REMARK H PARENT 11 11 5 13
REMARK Flexibility Score: inf
ROOT
ATOM      1  C   UNL     1     165.315 160.357 183.249  1.00  0.00     0.048 C 
ATOM      2  C   UNL     1     164.026 160.620 182.518  1.00  0.00    -0.005 A 
ATOM      3  C   UNL     1     162.868 160.926 183.237  1.00  0.00     0.053 A 
ATOM      4  C   UNL     1     161.654 161.139 182.584  1.00  0.00     0.119 A 
ATOM      5  C   UNL     1     161.578 161.031 181.175  1.00  0.00    -0.003 A 
ATOM      6  C   UNL     1     162.776 160.845 180.429  1.00  0.00    -0.002 A 
ATOM      7  C   UNL     1     163.986 160.569 181.116  1.00  0.00     0.121 A 
ATOM      8  C   UNL     1     162.774 160.924 178.918  1.00  0.00     0.049 C 
ATOM      9  C   UNL     1     160.235 161.131 180.487  1.00  0.00     0.049 C 
ENDROOT
BRANCH   7  10
ATOM     10  O   UNL     1     165.159 160.228 180.434  1.00  0.00    -0.507 OA
ATOM     11  H   UNL     1     165.179 159.649 179.604  1.00  0.00     0.293 HD
ENDBRANCH   7  10
BRANCH   4  12
ATOM     12  O   UNL     1     160.546 161.468 183.371  1.00  0.00    -0.508 OA
ATOM     13  H   UNL     1     159.609 161.570 183.005  1.00  0.00     0.293 HD
ENDBRANCH   4  12
TORSDOF 2
ENDMDL
MODEL 5
REMARK VINA RESULT:    -4.047      1.875      3.567
REMARK INTER + INTRA:          -4.283
REMARK INTER:                  -4.283
REMARK INTRA:                   0.000
REMARK UNBOUND:                 0.000
REMARK SMILES Cc1cc(O)c(C)c(C)c1O
REMARK SMILES IDX 1 1 2 2 3 3 4 4 6 5 8 6 10 7 9 8 7 9 11 10 5 12
REMARK H PARENT 11 11 5 13
REMARK Flexibility Score: inf
ROOT
ATOM      1  C   UNL     1     160.629 161.935 183.589  1.00  0.00     0.048 C 
ATOM      2  C   UNL     1     161.115 162.053 182.170  1.00  0.00    -0.005 A 
ATOM      3  C   UNL     1     160.374 162.783 181.238  1.00  0.00     0.053 A 
ATOM      4  C   UNL     1     160.786 162.877 179.909  1.00  0.00     0.119 A 
ATOM      5  C   UNL     1     161.962 162.215 179.482  1.00  0.00    -0.003 A 
ATOM      6  C   UNL     1     162.787 161.576 180.451  1.00  0.00    -0.002 A 
ATOM      7  C   UNL     1     162.317 161.440 181.782  1.00  0.00     0.121 A 
ATOM      8  C   UNL     1     164.149 161.032 180.078  1.00  0.00     0.049 C 
ATOM      9  C   UNL     1     162.329 162.211 178.016  1.00  0.00     0.049 C 
ENDROOT
BRANCH   7  10
ATOM     10  O   UNL     1     163.015 160.692 182.737  1.00  0.00    -0.507 OA
ATOM     11  H   UNL     1     162.702 159.796 183.087  1.00  0.00     0.293 HD
ENDBRANCH   7  10
BRANCH   4  12
ATOM     12  O   UNL     1     160.004 163.649 179.043  1.00  0.00    -0.508 OA
ATOM     13  H   UNL     1     158.996 163.594 178.999  1.00  0.00     0.293 HD
ENDBRANCH   4  12
TORSDOF 2
ENDMDL
MODEL 6
REMARK VINA RESULT:    -3.971      2.178      2.626
REMARK INTER + INTRA:          -4.203
REMARK INTER:                  -4.203
REMARK INTRA:                   0.000
REMARK UNBOUND:                 0.000
REMARK SMILES Cc1cc(O)c(C)c(C)c1O
REMARK SMILES IDX 1 1 2 2 3 3 4 4 6 5 8 6 10 7 9 8 7 9 11 10 5 12
REMARK H PARENT 11 11 5 13
REMARK Flexibility Score: inf
ROOT
ATOM      1  C   UNL     1     160.233 163.326 181.880  1.00  0.00     0.048 C 
ATOM      2  C   UNL     1     161.127 162.614 180.901  1.00  0.00    -0.005 A 
ATOM      3  C   UNL     1     162.122 161.751 181.366  1.00  0.00     0.053 A 
ATOM      4  C   UNL     1     162.985 161.108 180.480  1.00  0.00     0.119 A 
ATOM      5  C   UNL     1     162.872 161.336 179.088  1.00  0.00    -0.003 A 
ATOM      6  C   UNL     1     161.784 162.114 178.599  1.00  0.00    -0.002 A 
ATOM      7  C   UNL     1     160.958 162.807 179.521  1.00  0.00     0.121 A 
ATOM      8  C   UNL     1     161.505 162.220 177.116  1.00  0.00     0.049 C 
ATOM      9  C   UNL     1     163.894 160.742 178.145  1.00  0.00     0.049 C 
ENDROOT
BRANCH   7  10
ATOM     10  O   UNL     1     159.971 163.704 179.095  1.00  0.00    -0.507 OA
ATOM     11  H   UNL     1     159.007 163.663 179.398  1.00  0.00     0.293 HD
ENDBRANCH   7  10
BRANCH   4  12
ATOM     12  O   UNL     1     163.937 160.237 181.021  1.00  0.00    -0.508 OA
ATOM     13  H   UNL     1     163.857 159.230 180.990  1.00  0.00     0.293 HD
ENDBRANCH   4  12
TORSDOF 2
ENDMDL
MODEL 7
REMARK VINA RESULT:    -3.942     15.521     17.453
REMARK INTER + INTRA:          -4.173
REMARK INTER:                  -4.173
REMARK INTRA:                   0.000
REMARK UNBOUND:                 0.000
REMARK SMILES Cc1cc(O)c(C)c(C)c1O
REMARK SMILES IDX 1 1 2 2 3 3 4 4 6 5 8 6 10 7 9 8 7 9 11 10 5 12
REMARK H PARENT 11 11 5 13
REMARK Flexibility Score: inf
ROOT
ATOM      1  C   UNL     1     170.806 179.367 182.867  1.00  0.00     0.048 C 
ATOM      2  C   UNL     1     169.382 178.886 182.806  1.00  0.00    -0.005 A 
ATOM      3  C   UNL     1     168.432 179.610 182.081  1.00  0.00     0.053 A 
ATOM      4  C   UNL     1     167.099 179.204 182.040  1.00  0.00     0.119 A 
ATOM      5  C   UNL     1     166.685 178.052 182.751  1.00  0.00    -0.003 A 
ATOM      6  C   UNL     1     167.668 177.241 183.387  1.00  0.00    -0.002 A 
ATOM      7  C   UNL     1     169.005 177.707 183.469  1.00  0.00     0.121 A 
ATOM      8  C   UNL     1     167.304 175.900 183.985  1.00  0.00     0.049 C 
ATOM      9  C   UNL     1     165.218 177.694 182.810  1.00  0.00     0.049 C 
ENDROOT
BRANCH   7  10
ATOM     10  O   UNL     1     169.978 177.027 184.211  1.00  0.00    -0.507 OA
ATOM     11  H   UNL     1     170.437 177.415 185.024  1.00  0.00     0.293 HD
ENDBRANCH   7  10
BRANCH   4  12
ATOM     12  O   UNL     1     166.215 179.966 181.269  1.00  0.00    -0.508 OA
ATOM     13  H   UNL     1     165.824 179.652 180.391  1.00  0.00     0.293 HD
ENDBRANCH   4  12
TORSDOF 2
ENDMDL
MODEL 8
REMARK VINA RESULT:    -3.940     19.101     20.496
REMARK INTER + INTRA:          -4.170
REMARK INTER:                  -4.170
REMARK INTRA:                   0.000
REMARK UNBOUND:                 0.000
REMARK SMILES Cc1cc(O)c(C)c(C)c1O
REMARK SMILES IDX 1 1 2 2 3 3 4 4 6 5 8 6 10 7 9 8 7 9 11 10 5 12
REMARK H PARENT 11 11 5 13
REMARK Flexibility Score: inf
ROOT
ATOM      1  C   UNL     1     168.892 179.911 179.465  1.00  0.00     0.048 C 
ATOM      2  C   UNL     1     170.264 179.889 180.082  1.00  0.00    -0.005 A 
ATOM      3  C   UNL     1     171.395 179.836 179.264  1.00  0.00     0.053 A 
ATOM      4  C   UNL     1     172.675 179.780 179.813  1.00  0.00     0.119 A 
ATOM      5  C   UNL     1     172.845 179.759 181.217  1.00  0.00    -0.003 A 
ATOM      6  C   UNL     1     171.708 179.939 182.055  1.00  0.00    -0.002 A 
ATOM      7  C   UNL     1     170.412 179.931 181.477  1.00  0.00     0.121 A 
ATOM      8  C   UNL     1     171.861 180.125 183.549  1.00  0.00     0.049 C 
ATOM      9  C   UNL     1     174.225 179.563 181.804  1.00  0.00     0.049 C 
ENDROOT
BRANCH   7  10
ATOM     10  O   UNL     1     169.255 179.952 182.264  1.00  0.00    -0.507 OA
ATOM     11  H   UNL     1     169.262 180.018 183.273  1.00  0.00     0.293 HD
ENDBRANCH   7  10
BRANCH   4  12
ATOM     12  O   UNL     1     173.758 179.757 178.927  1.00  0.00    -0.508 OA
ATOM     13  H   UNL     1     174.349 180.557 178.745  1.00  0.00     0.293 HD
ENDBRANCH   4  12
TORSDOF 2
ENDMDL
MODEL 9
REMARK VINA RESULT:    -3.921     15.655     16.093
REMARK INTER + INTRA:          -4.150
REMARK INTER:                  -4.150
REMARK INTRA:                   0.000
REMARK UNBOUND:                 0.000
REMARK SMILES Cc1cc(O)c(C)c(C)c1O
REMARK SMILES IDX 1 1 2 2 3 3 4 4 6 5 8 6 10 7 9 8 7 9 11 10 5 12
REMARK H PARENT 11 11 5 13
REMARK Flexibility Score: inf
ROOT
ATOM      1  C   UNL     1     174.491 160.769 182.752  1.00  0.00     0.048 C 
ATOM      2  C   UNL     1     175.324 162.021 182.703  1.00  0.00    -0.005 A 
ATOM      3  C   UNL     1     176.502 162.046 181.952  1.00  0.00     0.053 A 
ATOM      4  C   UNL     1     177.309 163.182 181.919  1.00  0.00     0.119 A 
ATOM      5  C   UNL     1     176.950 164.329 182.667  1.00  0.00    -0.003 A 
ATOM      6  C   UNL     1     175.691 164.356 183.333  1.00  0.00    -0.002 A 
ATOM      7  C   UNL     1     174.918 163.168 183.404  1.00  0.00     0.121 A 
ATOM      8  C   UNL     1     175.175 165.625 183.974  1.00  0.00     0.049 C 
ATOM      9  C   UNL     1     177.895 165.507 182.734  1.00  0.00     0.049 C 
ENDROOT
BRANCH   7  10
ATOM     10  O   UNL     1     173.750 163.095 184.171  1.00  0.00    -0.507 OA
ATOM     11  H   UNL     1     172.856 163.460 183.869  1.00  0.00     0.293 HD
ENDBRANCH   7  10
BRANCH   4  12
ATOM     12  O   UNL     1     178.456 163.138 181.121  1.00  0.00    -0.508 OA
ATOM     13  H   UNL     1     178.465 162.792 180.171  1.00  0.00     0.293 HD
ENDBRANCH   4  12
TORSDOF 2
ENDMDL
