MODEL 1
REMARK VINA RESULT:    -4.134      0.000      0.000
REMARK INTER + INTRA:          -5.744
REMARK INTER:                  -5.585
REMARK INTRA:                  -0.160
REMARK UNBOUND:                -0.160
REMARK SMILES CCCCCCCC(=O)[O-]
REMARK SMILES IDX 5 1 6 2 7 3 8 4 9 5 10 6 4 7 3 8 2 9 1 10
REMARK H PARENT
REMARK Flexibility Score: inf
ROOT
ATOM      1  C   UNL     1      12.892  49.504  97.273  1.00  0.00     0.000 C 
ENDROOT
BRANCH   1   2
ATOM      2  C   UNL     1      11.473  48.912  97.276  1.00  0.00     0.006 C 
BRANCH   2   3
ATOM      3  C   UNL     1      10.588  49.503  98.380  1.00  0.00     0.053 C 
BRANCH   3   4
ATOM      4  C   UNL     1       9.156  49.523  97.946  1.00  0.00     0.041 C 
ATOM      5  O   UNL     1       8.519  50.609  97.914  1.00  0.00    -0.550 OA
ATOM      6  O   UNL     1       8.509  48.336  97.627  1.00  0.00    -0.550 OA
ENDBRANCH   3   4
ENDBRANCH   2   3
ENDBRANCH   1   2
BRANCH   1   7
ATOM      7  C   UNL     1      13.498  49.579  95.865  1.00  0.00     0.000 C 
BRANCH   7   8
ATOM      8  C   UNL     1      14.267  50.892  95.666  1.00  0.00    -0.000 C 
BRANCH   8   9
ATOM      9  C   UNL     1      15.618  50.643  94.987  1.00  0.00    -0.003 C 
ATOM     10  C   UNL     1      15.613  49.326  94.215  1.00  0.00     0.004 C 
ENDBRANCH   8   9
ENDBRANCH   7   8
ENDBRANCH   1   7
TORSDOF 6
ENDMDL
MODEL 2
REMARK VINA RESULT:    -3.927      0.803      1.609
REMARK INTER + INTRA:          -5.464
REMARK INTER:                  -5.308
REMARK INTRA:                  -0.155
REMARK UNBOUND:                -0.160
REMARK SMILES CCCCCCCC(=O)[O-]
REMARK SMILES IDX 5 1 6 2 7 3 8 4 9 5 10 6 4 7 3 8 2 9 1 10
REMARK H PARENT
REMARK Flexibility Score: inf
ROOT
ATOM      1  C   UNL     1      11.703  49.002  96.698  1.00  0.00     0.000 C 
ENDROOT
BRANCH   1   2
ATOM      2  C   UNL     1      10.604  48.595  97.694  1.00  0.00     0.006 C 
BRANCH   2   3
ATOM      3  C   UNL     1      10.004  49.795  98.434  1.00  0.00     0.053 C 
BRANCH   3   4
ATOM      4  C   UNL     1       8.561  49.964  98.071  1.00  0.00     0.041 C 
ATOM      5  O   UNL     1       7.826  48.955  97.913  1.00  0.00    -0.550 OA
ATOM      6  O   UNL     1       8.042  51.234  97.859  1.00  0.00    -0.550 OA
ENDBRANCH   3   4
ENDBRANCH   2   3
ENDBRANCH   1   2
BRANCH   1   7
ATOM      7  C   UNL     1      12.947  49.575  97.392  1.00  0.00     0.000 C 
BRANCH   7   8
ATOM      8  C   UNL     1      14.177  49.478  96.481  1.00  0.00    -0.000 C 
BRANCH   8   9
ATOM      9  C   UNL     1      14.312  50.725  95.601  1.00  0.00    -0.003 C 
ATOM     10  C   UNL     1      15.671  50.769  94.910  1.00  0.00     0.004 C 
ENDBRANCH   8   9
ENDBRANCH   7   8
ENDBRANCH   1   7
TORSDOF 6
ENDMDL
MODEL 3
REMARK VINA RESULT:    -3.872      3.655      5.831
REMARK INTER + INTRA:          -5.391
REMARK INTER:                  -5.132
REMARK INTRA:                  -0.259
REMARK UNBOUND:                -0.160
REMARK SMILES CCCCCCCC(=O)[O-]
REMARK SMILES IDX 5 1 6 2 7 3 8 4 9 5 10 6 4 7 3 8 2 9 1 10
REMARK H PARENT
REMARK Flexibility Score: inf
ROOT
ATOM      1  C   UNL     1      12.688  49.667  97.659  1.00  0.00     0.000 C 
ENDROOT
BRANCH   1   2
ATOM      2  C   UNL     1      13.954  50.011  96.858  1.00  0.00     0.006 C 
BRANCH   2   3
ATOM      3  C   UNL     1      13.816  49.686  95.366  1.00  0.00     0.053 C 
BRANCH   3   4
ATOM      4  C   UNL     1      15.133  49.846  94.673  1.00  0.00     0.041 C 
ATOM      5  O   UNL     1      15.895  50.801  94.974  1.00  0.00    -0.550 OA
ATOM      6  O   UNL     1      15.496  48.969  93.659  1.00  0.00    -0.550 OA
ENDBRANCH   3   4
ENDBRANCH   2   3
ENDBRANCH   1   2
BRANCH   1   7
ATOM      7  C   UNL     1      11.718  48.771  96.875  1.00  0.00     0.000 C 
BRANCH   7   8
ATOM      8  C   UNL     1      10.424  48.540  97.664  1.00  0.00    -0.000 C 
BRANCH   8   9
ATOM      9  C   UNL     1      10.070  49.764  98.515  1.00  0.00    -0.003 C 
ATOM     10  C   UNL     1       8.667  50.271  98.196  1.00  0.00     0.004 C 
ENDBRANCH   8   9
ENDBRANCH   7   8
ENDBRANCH   1   7
TORSDOF 6
ENDMDL
MODEL 4
REMARK VINA RESULT:    -3.871      3.475      5.675
REMARK INTER + INTRA:          -5.389
REMARK INTER:                  -5.174
REMARK INTRA:                  -0.215
REMARK UNBOUND:                -0.160
REMARK SMILES CCCCCCCC(=O)[O-]
REMARK SMILES IDX 5 1 6 2 7 3 8 4 9 5 10 6 4 7 3 8 2 9 1 10
REMARK H PARENT
REMARK Flexibility Score: inf
ROOT
ATOM      1  C   UNL     1      12.022  49.066  97.087  1.00  0.00     0.000 C 
ENDROOT
BRANCH   1   2
ATOM      2  C   UNL     1      13.304  49.887  97.299  1.00  0.00     0.006 C 
BRANCH   2   3
ATOM      3  C   UNL     1      14.443  49.455  96.367  1.00  0.00     0.053 C 
BRANCH   3   4
ATOM      4  C   UNL     1      14.667  50.485  95.304  1.00  0.00     0.041 C 
ATOM      5  O   UNL     1      13.689  50.972  94.678  1.00  0.00    -0.550 OA
ATOM      6  O   UNL     1      15.959  50.869  94.969  1.00  0.00    -0.550 OA
ENDBRANCH   3   4
ENDBRANCH   2   3
ENDBRANCH   1   2
BRANCH   1   7
ATOM      7  C   UNL     1      10.928  49.403  98.111  1.00  0.00     0.000 C 
BRANCH   7   8
ATOM      8  C   UNL     1       9.614  48.692  97.766  1.00  0.00    -0.000 C 
BRANCH   8   9
ATOM      9  C   UNL     1       9.874  47.403  96.979  1.00  0.00    -0.003 C 
ATOM     10  C   UNL     1       9.094  46.230  97.566  1.00  0.00     0.004 C 
ENDBRANCH   8   9
ENDBRANCH   7   8
ENDBRANCH   1   7
TORSDOF 6
ENDMDL
MODEL 5
REMARK VINA RESULT:    -3.789      1.789      2.103
REMARK INTER + INTRA:          -5.278
REMARK INTER:                  -5.012
REMARK INTRA:                  -0.266
REMARK UNBOUND:                -0.160
REMARK SMILES CCCCCCCC(=O)[O-]
REMARK SMILES IDX 5 1 6 2 7 3 8 4 9 5 10 6 4 7 3 8 2 9 1 10
REMARK H PARENT
REMARK Flexibility Score: inf
ROOT
ATOM      1  C   UNL     1      11.987  49.621  97.760  1.00  0.00     0.000 C 
ENDROOT
BRANCH   1   2
ATOM      2  C   UNL     1      10.971  48.534  97.374  1.00  0.00     0.006 C 
BRANCH   2   3
ATOM      3  C   UNL     1      10.905  48.297  95.860  1.00  0.00     0.053 C 
BRANCH   3   4
ATOM      4  C   UNL     1       9.658  48.897  95.291  1.00  0.00     0.041 C 
ATOM      5  O   UNL     1       8.720  49.250  96.054  1.00  0.00    -0.550 OA
ATOM      6  O   UNL     1       9.510  49.019  93.916  1.00  0.00    -0.550 OA
ENDBRANCH   3   4
ENDBRANCH   2   3
ENDBRANCH   1   2
BRANCH   1   7
ATOM      7  C   UNL     1      13.352  49.421  97.084  1.00  0.00     0.000 C 
BRANCH   7   8
ATOM      8  C   UNL     1      14.080  50.759  96.910  1.00  0.00    -0.000 C 
BRANCH   8   9
ATOM      9  C   UNL     1      14.334  51.060  95.429  1.00  0.00    -0.003 C 
ATOM     10  C   UNL     1      15.547  50.294  94.910  1.00  0.00     0.004 C 
ENDBRANCH   8   9
ENDBRANCH   7   8
ENDBRANCH   1   7
TORSDOF 6
ENDMDL
MODEL 6
REMARK VINA RESULT:    -3.606      2.494      3.780
REMARK INTER + INTRA:          -5.031
REMARK INTER:                  -4.792
REMARK INTRA:                  -0.239
REMARK UNBOUND:                -0.160
REMARK SMILES CCCCCCCC(=O)[O-]
REMARK SMILES IDX 5 1 6 2 7 3 8 4 9 5 10 6 4 7 3 8 2 9 1 10
REMARK H PARENT
REMARK Flexibility Score: inf
ROOT
ATOM      1  C   UNL     1      15.357  50.211  94.675  1.00  0.00     0.000 C 
ENDROOT
BRANCH   1   2
ATOM      2  C   UNL     1      14.334  50.838  95.637  1.00  0.00     0.006 C 
BRANCH   2   3
ATOM      3  C   UNL     1      14.078  49.970  96.874  1.00  0.00     0.053 C 
BRANCH   3   4
ATOM      4  C   UNL     1      12.685  49.423  96.850  1.00  0.00     0.041 C 
ATOM      5  O   UNL     1      11.929  49.573  97.845  1.00  0.00    -0.550 OA
ATOM      6  O   UNL     1      12.239  48.704  95.748  1.00  0.00    -0.550 OA
ENDBRANCH   3   4
ENDBRANCH   2   3
ENDBRANCH   1   2
BRANCH   1   7
ATOM      7  C   UNL     1      16.019  48.953  95.254  1.00  0.00     0.000 C 
BRANCH   7   8
ATOM      8  C   UNL     1      16.490  48.015  94.136  1.00  0.00    -0.000 C 
BRANCH   8   9
ATOM      9  C   UNL     1      17.516  47.004  94.659  1.00  0.00    -0.003 C 
ATOM     10  C   UNL     1      17.649  45.814  93.714  1.00  0.00     0.004 C 
ENDBRANCH   8   9
ENDBRANCH   7   8
ENDBRANCH   1   7
TORSDOF 6
ENDMDL
MODEL 7
REMARK VINA RESULT:    -3.526      3.564      5.101
REMARK INTER + INTRA:          -4.922
REMARK INTER:                  -4.654
REMARK INTRA:                  -0.268
REMARK UNBOUND:                -0.160
REMARK SMILES CCCCCCCC(=O)[O-]
REMARK SMILES IDX 5 1 6 2 7 3 8 4 9 5 10 6 4 7 3 8 2 9 1 10
REMARK H PARENT
REMARK Flexibility Score: inf
ROOT
ATOM      1  C   UNL     1      11.806  49.550  97.685  1.00  0.00     0.000 C 
ENDROOT
BRANCH   1   2
ATOM      2  C   UNL     1      13.230  49.316  97.155  1.00  0.00     0.006 C 
BRANCH   2   3
ATOM      3  C   UNL     1      14.008  50.622  96.957  1.00  0.00     0.053 C 
BRANCH   3   4
ATOM      4  C   UNL     1      14.455  50.753  95.534  1.00  0.00     0.041 C 
ATOM      5  O   UNL     1      13.613  50.707  94.600  1.00  0.00    -0.550 OA
ATOM      6  O   UNL     1      15.806  50.876  95.239  1.00  0.00    -0.550 OA
ENDBRANCH   3   4
ENDBRANCH   2   3
ENDBRANCH   1   2
BRANCH   1   7
ATOM      7  C   UNL     1      10.857  48.386  97.364  1.00  0.00     0.000 C 
BRANCH   7   8
ATOM      8  C   UNL     1       9.845  48.784  96.283  1.00  0.00    -0.000 C 
BRANCH   8   9
ATOM      9  C   UNL     1      10.461  48.676  94.884  1.00  0.00    -0.003 C 
ATOM     10  C   UNL     1       9.514  49.222  93.820  1.00  0.00     0.004 C 
ENDBRANCH   8   9
ENDBRANCH   7   8
ENDBRANCH   1   7
TORSDOF 6
ENDMDL
MODEL 8
REMARK VINA RESULT:    -3.494      1.606      2.881
REMARK INTER + INTRA:          -4.880
REMARK INTER:                  -4.715
REMARK INTRA:                  -0.165
REMARK UNBOUND:                -0.160
REMARK SMILES CCCCCCCC(=O)[O-]
REMARK SMILES IDX 5 1 6 2 7 3 8 4 9 5 10 6 4 7 3 8 2 9 1 10
REMARK H PARENT
REMARK Flexibility Score: inf
ROOT
ATOM      1  C   UNL     1      10.233  49.550  98.329  1.00  0.00     0.000 C 
ENDROOT
BRANCH   1   2
ATOM      2  C   UNL     1       8.801  49.265  97.846  1.00  0.00     0.006 C 
BRANCH   2   3
ATOM      3  C   UNL     1       8.375  50.178  96.690  1.00  0.00     0.053 C 
BRANCH   3   4
ATOM      4  C   UNL     1       7.576  51.334  97.206  1.00  0.00     0.041 C 
ATOM      5  O   UNL     1       7.315  51.426  98.434  1.00  0.00    -0.550 OA
ATOM      6  O   UNL     1       7.078  52.283  96.323  1.00  0.00    -0.550 OA
ENDBRANCH   3   4
ENDBRANCH   2   3
ENDBRANCH   1   2
BRANCH   1   7
ATOM      7  C   UNL     1      11.300  48.938  97.410  1.00  0.00     0.000 C 
BRANCH   7   8
ATOM      8  C   UNL     1      12.669  49.586  97.649  1.00  0.00    -0.000 C 
BRANCH   8   9
ATOM      9  C   UNL     1      13.555  49.480  96.404  1.00  0.00    -0.003 C 
ATOM     10  C   UNL     1      14.308  50.782  96.150  1.00  0.00     0.004 C 
ENDBRANCH   8   9
ENDBRANCH   7   8
ENDBRANCH   1   7
TORSDOF 6
ENDMDL
MODEL 9
REMARK VINA RESULT:    -3.471     12.730     14.159
REMARK INTER + INTRA:          -4.849
REMARK INTER:                  -4.615
REMARK INTRA:                  -0.234
REMARK UNBOUND:                -0.160
REMARK SMILES CCCCCCCC(=O)[O-]
REMARK SMILES IDX 5 1 6 2 7 3 8 4 9 5 10 6 4 7 3 8 2 9 1 10
REMARK H PARENT
REMARK Flexibility Score: inf
ROOT
ATOM      1  C   UNL     1      20.043  39.493  94.795  1.00  0.00     0.000 C 
ENDROOT
BRANCH   1   2
ATOM      2  C   UNL     1      21.355  39.893  95.489  1.00  0.00     0.006 C 
BRANCH   2   3
ATOM      3  C   UNL     1      21.184  40.104  96.998  1.00  0.00     0.053 C 
BRANCH   3   4
ATOM      4  C   UNL     1      22.438  39.728  97.724  1.00  0.00     0.041 C 
ATOM      5  O   UNL     1      23.514  40.335  97.485  1.00  0.00    -0.550 OA
ATOM      6  O   UNL     1      22.428  38.673  98.627  1.00  0.00    -0.550 OA
ENDBRANCH   3   4
ENDBRANCH   2   3
ENDBRANCH   1   2
BRANCH   1   7
ATOM      7  C   UNL     1      18.948  39.083  95.790  1.00  0.00     0.000 C 
BRANCH   7   8
ATOM      8  C   UNL     1      18.094  37.940  95.228  1.00  0.00    -0.000 C 
BRANCH   8   9
ATOM      9  C   UNL     1      16.603  38.289  95.280  1.00  0.00    -0.003 C 
ATOM     10  C   UNL     1      16.317  39.599  94.550  1.00  0.00     0.004 C 
ENDBRANCH   8   9
ENDBRANCH   7   8
ENDBRANCH   1   7
TORSDOF 6
ENDMDL
