MODEL 1
REMARK VINA RESULT:    -4.704      0.000      0.000
REMARK INTER + INTRA:         -10.098
REMARK INTER:                  -8.555
REMARK INTRA:                  -1.543
REMARK UNBOUND:                -1.543
REMARK SMILES CCCCCC=CCC=CCCCCCCCC(=O)[O-]
REMARK SMILES IDX 11 1 12 2 13 3 14 4 15 5 16 6 17 7 18 8 19 9 20 10 10 11
REMARK SMILES IDX 9 12 8 13 7 14 6 15 5 16 4 17 3 18 2 19 1 20
REMARK H PARENT
REMARK Flexibility Score: inf
ROOT
ATOM      1  C   UNL     1      -4.771   6.455  -0.364  1.00  0.00     0.027 C 
ENDROOT
BRANCH   1   2
ATOM      2  C   UNL     1      -4.048   6.669   0.975  1.00  0.00     0.004 C 
BRANCH   2   3
ATOM      3  C   UNL     1      -2.612   6.123   0.963  1.00  0.00     0.000 C 
BRANCH   3   4
ATOM      4  C   UNL     1      -2.287   5.281   2.205  1.00  0.00     0.000 C 
BRANCH   4   5
ATOM      5  C   UNL     1      -3.574   4.833   2.915  1.00  0.00     0.000 C 
BRANCH   5   6
ATOM      6  C   UNL     1      -3.732   3.303   2.958  1.00  0.00     0.006 C 
BRANCH   6   7
ATOM      7  C   UNL     1      -4.903   2.766   2.121  1.00  0.00     0.053 C 
BRANCH   7   8
ATOM      8  C   UNL     1      -5.084   1.289   2.292  1.00  0.00     0.041 C 
ATOM      9  O   UNL     1      -6.069   0.841   2.936  1.00  0.00    -0.550 OA
ATOM     10  O   UNL     1      -4.149   0.407   1.766  1.00  0.00    -0.550 OA
ENDBRANCH   7   8
ENDBRANCH   6   7
ENDBRANCH   5   6
ENDBRANCH   4   5
ENDBRANCH   3   4
ENDBRANCH   2   3
ENDBRANCH   1   2
BRANCH   1  11
ATOM     11  C   UNL     1      -5.684   5.257  -0.307  1.00  0.00    -0.031 C 
ATOM     12  C   UNL     1      -6.477   4.843  -1.314  1.00  0.00    -0.027 C 
BRANCH  12  13
ATOM     13  C   UNL     1      -6.599   5.517  -2.658  1.00  0.00     0.054 C 
BRANCH  13  14
ATOM     14  C   UNL     1      -6.123   4.596  -3.750  1.00  0.00    -0.027 C 
ATOM     15  C   UNL     1      -5.019   4.814  -4.488  1.00  0.00    -0.031 C 
BRANCH  15  16
ATOM     16  C   UNL     1      -4.138   6.026  -4.311  1.00  0.00     0.027 C 
BRANCH  16  17
ATOM     17  C   UNL     1      -4.673   7.229  -5.100  1.00  0.00     0.004 C 
BRANCH  17  18
ATOM     18  C   UNL     1      -4.097   7.286  -6.531  1.00  0.00     0.000 C 
BRANCH  18  19
ATOM     19  C   UNL     1      -2.706   6.645  -6.667  1.00  0.00    -0.003 C 
ATOM     20  C   UNL     1      -2.551   5.802  -7.930  1.00  0.00     0.004 C 
ENDBRANCH  18  19
ENDBRANCH  17  18
ENDBRANCH  16  17
ENDBRANCH  15  16
ENDBRANCH  13  14
ENDBRANCH  12  13
ENDBRANCH   1  11
TORSDOF 14
ENDMDL
MODEL 2
REMARK VINA RESULT:    -4.655      3.584      7.710
REMARK INTER + INTRA:         -10.007
REMARK INTER:                  -8.461
REMARK INTRA:                  -1.546
REMARK UNBOUND:                -1.543
REMARK SMILES CCCCCC=CCC=CCCCCCCCC(=O)[O-]
REMARK SMILES IDX 11 1 12 2 13 3 14 4 15 5 16 6 17 7 18 8 19 9 20 10 10 11
REMARK SMILES IDX 9 12 8 13 7 14 6 15 5 16 4 17 3 18 2 19 1 20
REMARK H PARENT
REMARK Flexibility Score: inf
ROOT
ATOM      1  C   UNL     1      -5.925   4.518   0.660  1.00  0.00     0.027 C 
ENDROOT
BRANCH   1   2
ATOM      2  C   UNL     1      -6.055   4.790  -0.846  1.00  0.00     0.004 C 
BRANCH   2   3
ATOM      3  C   UNL     1      -5.575   6.196  -1.236  1.00  0.00     0.000 C 
BRANCH   3   4
ATOM      4  C   UNL     1      -5.423   6.372  -2.754  1.00  0.00     0.000 C 
BRANCH   4   5
ATOM      5  C   UNL     1      -5.798   5.079  -3.495  1.00  0.00     0.000 C 
BRANCH   5   6
ATOM      6  C   UNL     1      -4.776   4.694  -4.580  1.00  0.00     0.006 C 
BRANCH   6   7
ATOM      7  C   UNL     1      -3.806   5.824  -4.962  1.00  0.00     0.053 C 
BRANCH   7   8
ATOM      8  C   UNL     1      -3.696   5.990  -6.446  1.00  0.00     0.041 C 
ATOM      9  O   UNL     1      -4.352   6.889  -7.035  1.00  0.00    -0.550 OA
ATOM     10  O   UNL     1      -2.890   5.133  -7.184  1.00  0.00    -0.550 OA
ENDBRANCH   7   8
ENDBRANCH   6   7
ENDBRANCH   5   6
ENDBRANCH   4   5
ENDBRANCH   3   4
ENDBRANCH   2   3
ENDBRANCH   1   2
BRANCH   1  11
ATOM     11  C   UNL     1      -6.928   3.491   1.119  1.00  0.00    -0.031 C 
ATOM     12  C   UNL     1      -6.638   2.211   1.423  1.00  0.00    -0.027 C 
BRANCH  12  13
ATOM     13  C   UNL     1      -5.266   1.587   1.337  1.00  0.00     0.054 C 
BRANCH  13  14
ATOM     14  C   UNL     1      -4.832   1.089   2.690  1.00  0.00    -0.027 C 
ATOM     15  C   UNL     1      -4.151   1.832   3.581  1.00  0.00    -0.031 C 
BRANCH  15  16
ATOM     16  C   UNL     1      -3.727   3.255   3.311  1.00  0.00     0.027 C 
BRANCH  16  17
ATOM     17  C   UNL     1      -2.245   3.471   3.643  1.00  0.00     0.004 C 
BRANCH  17  18
ATOM     18  C   UNL     1      -1.638   4.646   2.848  1.00  0.00     0.000 C 
BRANCH  18  19
ATOM     19  C   UNL     1      -2.655   5.741   2.485  1.00  0.00    -0.003 C 
ATOM     20  C   UNL     1      -2.607   6.145   1.013  1.00  0.00     0.004 C 
ENDBRANCH  18  19
ENDBRANCH  17  18
ENDBRANCH  16  17
ENDBRANCH  15  16
ENDBRANCH  13  14
ENDBRANCH  12  13
ENDBRANCH   1  11
TORSDOF 14
ENDMDL
MODEL 3
REMARK VINA RESULT:    -4.652      3.201      7.502
REMARK INTER + INTRA:         -10.002
REMARK INTER:                  -8.129
REMARK INTRA:                  -1.872
REMARK UNBOUND:                -1.543
REMARK SMILES CCCCCC=CCC=CCCCCCCCC(=O)[O-]
REMARK SMILES IDX 11 1 12 2 13 3 14 4 15 5 16 6 17 7 18 8 19 9 20 10 10 11
REMARK SMILES IDX 9 12 8 13 7 14 6 15 5 16 4 17 3 18 2 19 1 20
REMARK H PARENT
REMARK Flexibility Score: inf
ROOT
ATOM      1  C   UNL     1      -4.344   7.149   1.168  1.00  0.00     0.027 C 
ENDROOT
BRANCH   1   2
ATOM      2  C   UNL     1      -5.580   6.677   0.388  1.00  0.00     0.004 C 
BRANCH   2   3
ATOM      3  C   UNL     1      -5.215   5.982  -0.933  1.00  0.00     0.000 C 
BRANCH   3   4
ATOM      4  C   UNL     1      -6.224   4.896  -1.332  1.00  0.00     0.000 C 
BRANCH   4   5
ATOM      5  C   UNL     1      -6.601   5.017  -2.816  1.00  0.00     0.000 C 
BRANCH   5   6
ATOM      6  C   UNL     1      -5.642   4.247  -3.740  1.00  0.00     0.006 C 
BRANCH   6   7
ATOM      7  C   UNL     1      -5.254   5.005  -5.020  1.00  0.00     0.053 C 
BRANCH   7   8
ATOM      8  C   UNL     1      -4.189   6.026  -4.767  1.00  0.00     0.041 C 
ATOM      9  O   UNL     1      -3.003   5.810  -5.129  1.00  0.00    -0.550 OA
ATOM     10  O   UNL     1      -4.499   7.206  -4.102  1.00  0.00    -0.550 OA
ENDBRANCH   7   8
ENDBRANCH   6   7
ENDBRANCH   5   6
ENDBRANCH   4   5
ENDBRANCH   3   4
ENDBRANCH   2   3
ENDBRANCH   1   2
BRANCH   1  11
ATOM     11  C   UNL     1      -3.091   6.479   0.663  1.00  0.00    -0.031 C 
ATOM     12  C   UNL     1      -2.229   5.780   1.426  1.00  0.00    -0.027 C 
BRANCH  12  13
ATOM     13  C   UNL     1      -2.361   5.567   2.914  1.00  0.00     0.054 C 
BRANCH  13  14
ATOM     14  C   UNL     1      -2.254   4.101   3.243  1.00  0.00    -0.027 C 
ATOM     15  C   UNL     1      -3.302   3.258   3.266  1.00  0.00    -0.031 C 
BRANCH  15  16
ATOM     16  C   UNL     1      -4.717   3.698   2.978  1.00  0.00     0.027 C 
BRANCH  16  17
ATOM     17  C   UNL     1      -5.244   3.075   1.678  1.00  0.00     0.004 C 
BRANCH  17  18
ATOM     18  C   UNL     1      -6.545   2.277   1.903  1.00  0.00     0.000 C 
BRANCH  18  19
ATOM     19  C   UNL     1      -6.444   0.797   1.500  1.00  0.00    -0.003 C 
ATOM     20  C   UNL     1      -5.019   0.251   1.562  1.00  0.00     0.004 C 
ENDBRANCH  18  19
ENDBRANCH  17  18
ENDBRANCH  16  17
ENDBRANCH  15  16
ENDBRANCH  13  14
ENDBRANCH  12  13
ENDBRANCH   1  11
TORSDOF 14
ENDMDL
MODEL 4
REMARK VINA RESULT:    -4.554     15.135     17.381
REMARK INTER + INTRA:          -9.824
REMARK INTER:                  -7.175
REMARK INTRA:                  -2.649
REMARK UNBOUND:                -1.543
REMARK SMILES CCCCCC=CCC=CCCCCCCCC(=O)[O-]
REMARK SMILES IDX 11 1 12 2 13 3 14 4 15 5 16 6 17 7 18 8 19 9 20 10 10 11
REMARK SMILES IDX 9 12 8 13 7 14 6 15 5 16 4 17 3 18 2 19 1 20
REMARK H PARENT
REMARK Flexibility Score: inf
ROOT
ATOM      1  C   UNL     1       7.222   1.296 -14.721  1.00  0.00     0.027 C 
ENDROOT
BRANCH   1   2
ATOM      2  C   UNL     1       5.748   1.055 -15.080  1.00  0.00     0.004 C 
BRANCH   2   3
ATOM      3  C   UNL     1       5.017   0.202 -14.032  1.00  0.00     0.000 C 
BRANCH   3   4
ATOM      4  C   UNL     1       4.730  -1.224 -14.522  1.00  0.00     0.000 C 
BRANCH   4   5
ATOM      5  C   UNL     1       5.608  -2.245 -13.782  1.00  0.00     0.000 C 
BRANCH   5   6
ATOM      6  C   UNL     1       5.852  -1.867 -12.310  1.00  0.00     0.006 C 
BRANCH   6   7
ATOM      7  C   UNL     1       7.246  -2.243 -11.785  1.00  0.00     0.053 C 
BRANCH   7   8
ATOM      8  C   UNL     1       7.179  -3.277 -10.704  1.00  0.00     0.041 C 
ATOM      9  O   UNL     1       6.134  -3.961 -10.544  1.00  0.00    -0.550 OA
ATOM     10  O   UNL     1       8.259  -3.465  -9.852  1.00  0.00    -0.550 OA
ENDBRANCH   7   8
ENDBRANCH   6   7
ENDBRANCH   5   6
ENDBRANCH   4   5
ENDBRANCH   3   4
ENDBRANCH   2   3
ENDBRANCH   1   2
BRANCH   1  11
ATOM     11  C   UNL     1       7.461   1.112 -13.244  1.00  0.00    -0.031 C 
ATOM     12  C   UNL     1       8.447   1.704 -12.542  1.00  0.00    -0.027 C 
BRANCH  12  13
ATOM     13  C   UNL     1       9.488   2.632 -13.119  1.00  0.00     0.054 C 
BRANCH  13  14
ATOM     14  C   UNL     1       9.352   4.007 -12.519  1.00  0.00    -0.027 C 
ATOM     15  C   UNL     1       8.702   5.024 -13.113  1.00  0.00    -0.031 C 
BRANCH  15  16
ATOM     16  C   UNL     1       8.045   4.902 -14.466  1.00  0.00     0.027 C 
BRANCH  16  17
ATOM     17  C   UNL     1       6.517   4.833 -14.344  1.00  0.00     0.004 C 
BRANCH  17  18
ATOM     18  C   UNL     1       6.026   5.275 -12.949  1.00  0.00     0.000 C 
BRANCH  18  19
ATOM     19  C   UNL     1       5.109   4.250 -12.261  1.00  0.00    -0.003 C 
ATOM     20  C   UNL     1       4.019   3.702 -13.180  1.00  0.00     0.004 C 
ENDBRANCH  18  19
ENDBRANCH  17  18
ENDBRANCH  16  17
ENDBRANCH  15  16
ENDBRANCH  13  14
ENDBRANCH  12  13
ENDBRANCH   1  11
TORSDOF 14
ENDMDL
MODEL 5
REMARK VINA RESULT:    -4.493      3.011      7.709
REMARK INTER + INTRA:          -9.714
REMARK INTER:                  -8.004
REMARK INTRA:                  -1.709
REMARK UNBOUND:                -1.543
REMARK SMILES CCCCCC=CCC=CCCCCCCCC(=O)[O-]
REMARK SMILES IDX 11 1 12 2 13 3 14 4 15 5 16 6 17 7 18 8 19 9 20 10 10 11
REMARK SMILES IDX 9 12 8 13 7 14 6 15 5 16 4 17 3 18 2 19 1 20
REMARK H PARENT
REMARK Flexibility Score: inf
ROOT
ATOM      1  C   UNL     1      -5.571   6.315   0.634  1.00  0.00     0.027 C 
ENDROOT
BRANCH   1   2
ATOM      2  C   UNL     1      -6.419   5.225  -0.041  1.00  0.00     0.004 C 
BRANCH   2   3
ATOM      3  C   UNL     1      -6.020   4.991  -1.506  1.00  0.00     0.000 C 
BRANCH   3   4
ATOM      4  C   UNL     1      -7.095   5.460  -2.496  1.00  0.00     0.000 C 
BRANCH   4   5
ATOM      5  C   UNL     1      -6.467   6.251  -3.654  1.00  0.00     0.000 C 
BRANCH   5   6
ATOM      6  C   UNL     1      -4.929   6.286  -3.587  1.00  0.00     0.006 C 
BRANCH   6   7
ATOM      7  C   UNL     1      -4.250   6.681  -4.908  1.00  0.00     0.053 C 
BRANCH   7   8
ATOM      8  C   UNL     1      -3.739   5.487  -5.654  1.00  0.00     0.041 C 
ATOM      9  O   UNL     1      -3.034   5.639  -6.687  1.00  0.00    -0.550 OA
ATOM     10  O   UNL     1      -4.065   4.207  -5.227  1.00  0.00    -0.550 OA
ENDBRANCH   7   8
ENDBRANCH   6   7
ENDBRANCH   5   6
ENDBRANCH   4   5
ENDBRANCH   3   4
ENDBRANCH   2   3
ENDBRANCH   1   2
BRANCH   1  11
ATOM     11  C   UNL     1      -4.277   6.536  -0.106  1.00  0.00    -0.031 C 
ATOM     12  C   UNL     1      -3.063   6.625   0.472  1.00  0.00    -0.027 C 
BRANCH  12  13
ATOM     13  C   UNL     1      -2.798   6.537   1.955  1.00  0.00     0.054 C 
BRANCH  13  14
ATOM     14  C   UNL     1      -1.919   5.353   2.260  1.00  0.00    -0.027 C 
ATOM     15  C   UNL     1      -2.343   4.246   2.896  1.00  0.00    -0.031 C 
BRANCH  15  16
ATOM     16  C   UNL     1      -3.757   4.075   3.393  1.00  0.00     0.027 C 
BRANCH  16  17
ATOM     17  C   UNL     1      -4.607   3.269   2.401  1.00  0.00     0.004 C 
BRANCH  17  18
ATOM     18  C   UNL     1      -4.911   1.848   2.919  1.00  0.00     0.000 C 
BRANCH  18  19
ATOM     19  C   UNL     1      -5.775   1.010   1.961  1.00  0.00    -0.003 C 
ATOM     20  C   UNL     1      -5.002  -0.119   1.283  1.00  0.00     0.004 C 
ENDBRANCH  18  19
ENDBRANCH  17  18
ENDBRANCH  16  17
ENDBRANCH  15  16
ENDBRANCH  13  14
ENDBRANCH  12  13
ENDBRANCH   1  11
TORSDOF 14
ENDMDL
MODEL 6
REMARK VINA RESULT:    -4.481     16.629     19.206
REMARK INTER + INTRA:          -9.691
REMARK INTER:                  -6.928
REMARK INTRA:                  -2.763
REMARK UNBOUND:                -1.543
REMARK SMILES CCCCCC=CCC=CCCCCCCCC(=O)[O-]
REMARK SMILES IDX 11 1 12 2 13 3 14 4 15 5 16 6 17 7 18 8 19 9 20 10 10 11
REMARK SMILES IDX 9 12 8 13 7 14 6 15 5 16 4 17 3 18 2 19 1 20
REMARK H PARENT
REMARK Flexibility Score: inf
ROOT
ATOM      1  C   UNL     1       6.329  -2.468 -11.673  1.00  0.00     0.027 C 
ENDROOT
BRANCH   1   2
ATOM      2  C   UNL     1       6.110  -3.279 -12.960  1.00  0.00     0.004 C 
BRANCH   2   3
ATOM      3  C   UNL     1       5.669  -2.402 -14.142  1.00  0.00     0.000 C 
BRANCH   3   4
ATOM      4  C   UNL     1       5.311  -0.971 -13.718  1.00  0.00     0.000 C 
BRANCH   4   5
ATOM      5  C   UNL     1       6.245   0.049 -14.388  1.00  0.00     0.000 C 
BRANCH   5   6
ATOM      6  C   UNL     1       7.090   0.841 -13.375  1.00  0.00     0.006 C 
BRANCH   6   7
ATOM      7  C   UNL     1       7.181   2.347 -13.670  1.00  0.00     0.053 C 
BRANCH   7   8
ATOM      8  C   UNL     1       7.228   3.163 -12.416  1.00  0.00     0.041 C 
ATOM      9  O   UNL     1       6.161   3.508 -11.843  1.00  0.00    -0.550 OA
ATOM     10  O   UNL     1       8.450   3.571 -11.896  1.00  0.00    -0.550 OA
ENDBRANCH   7   8
ENDBRANCH   6   7
ENDBRANCH   5   6
ENDBRANCH   4   5
ENDBRANCH   3   4
ENDBRANCH   2   3
ENDBRANCH   1   2
BRANCH   1  11
ATOM     11  C   UNL     1       7.489  -3.010 -10.877  1.00  0.00    -0.031 C 
ATOM     12  C   UNL     1       8.707  -2.440 -10.802  1.00  0.00    -0.027 C 
BRANCH  12  13
ATOM     13  C   UNL     1       9.121  -1.176 -11.517  1.00  0.00     0.054 C 
BRANCH  13  14
ATOM     14  C   UNL     1      10.434  -1.382 -12.225  1.00  0.00    -0.027 C 
ATOM     15  C   UNL     1      10.545  -1.860 -13.477  1.00  0.00    -0.031 C 
BRANCH  15  16
ATOM     16  C   UNL     1       9.355  -2.263 -14.312  1.00  0.00     0.027 C 
BRANCH  16  17
ATOM     17  C   UNL     1       9.406  -3.751 -14.680  1.00  0.00     0.004 C 
BRANCH  17  18
ATOM     18  C   UNL     1       9.728  -4.640 -13.461  1.00  0.00     0.000 C 
BRANCH  18  19
ATOM     19  C   UNL     1       8.965  -5.975 -13.446  1.00  0.00    -0.003 C 
ATOM     20  C   UNL     1       7.888  -6.066 -14.525  1.00  0.00     0.004 C 
ENDBRANCH  18  19
ENDBRANCH  17  18
ENDBRANCH  16  17
ENDBRANCH  15  16
ENDBRANCH  13  14
ENDBRANCH  12  13
ENDBRANCH   1  11
TORSDOF 14
ENDMDL
MODEL 7
REMARK VINA RESULT:    -4.470     15.443     18.618
REMARK INTER + INTRA:          -9.671
REMARK INTER:                  -7.057
REMARK INTRA:                  -2.614
REMARK UNBOUND:                -1.543
REMARK SMILES CCCCCC=CCC=CCCCCCCCC(=O)[O-]
REMARK SMILES IDX 11 1 12 2 13 3 14 4 15 5 16 6 17 7 18 8 19 9 20 10 10 11
REMARK SMILES IDX 9 12 8 13 7 14 6 15 5 16 4 17 3 18 2 19 1 20
REMARK H PARENT
REMARK Flexibility Score: inf
ROOT
ATOM      1  C   UNL     1       5.152  -2.119 -14.331  1.00  0.00     0.027 C 
ENDROOT
BRANCH   1   2
ATOM      2  C   UNL     1       5.337  -1.033 -13.259  1.00  0.00     0.004 C 
BRANCH   2   3
ATOM      3  C   UNL     1       5.714   0.330 -13.859  1.00  0.00     0.000 C 
BRANCH   3   4
ATOM      4  C   UNL     1       7.210   0.441 -14.186  1.00  0.00     0.000 C 
BRANCH   4   5
ATOM      5  C   UNL     1       7.910   1.415 -13.227  1.00  0.00     0.000 C 
BRANCH   5   6
ATOM      6  C   UNL     1       7.434   2.868 -13.398  1.00  0.00     0.006 C 
BRANCH   6   7
ATOM      7  C   UNL     1       6.859   3.499 -12.120  1.00  0.00     0.053 C 
BRANCH   7   8
ATOM      8  C   UNL     1       5.510   4.107 -12.352  1.00  0.00     0.041 C 
ATOM      9  O   UNL     1       4.468   3.495 -11.998  1.00  0.00    -0.550 OA
ATOM     10  O   UNL     1       5.401   5.337 -12.987  1.00  0.00    -0.550 OA
ENDBRANCH   7   8
ENDBRANCH   6   7
ENDBRANCH   5   6
ENDBRANCH   4   5
ENDBRANCH   3   4
ENDBRANCH   2   3
ENDBRANCH   1   2
BRANCH   1  11
ATOM     11  C   UNL     1       5.619  -3.463 -13.833  1.00  0.00    -0.031 C 
ATOM     12  C   UNL     1       6.862  -3.955 -13.993  1.00  0.00    -0.027 C 
BRANCH  12  13
ATOM     13  C   UNL     1       7.988  -3.255 -14.713  1.00  0.00     0.054 C 
BRANCH  13  14
ATOM     14  C   UNL     1       9.319  -3.769 -14.229  1.00  0.00    -0.027 C 
ATOM     15  C   UNL     1      10.178  -3.048 -13.488  1.00  0.00    -0.031 C 
BRANCH  15  16
ATOM     16  C   UNL     1       9.909  -1.623 -13.071  1.00  0.00     0.027 C 
BRANCH  16  17
ATOM     17  C   UNL     1       9.643  -1.521 -11.563  1.00  0.00     0.004 C 
BRANCH  17  18
ATOM     18  C   UNL     1       8.219  -1.984 -11.193  1.00  0.00     0.000 C 
BRANCH  18  19
ATOM     19  C   UNL     1       8.181  -3.295 -10.388  1.00  0.00    -0.003 C 
ATOM     20  C   UNL     1       6.789  -3.918 -10.313  1.00  0.00     0.004 C 
ENDBRANCH  18  19
ENDBRANCH  17  18
ENDBRANCH  16  17
ENDBRANCH  15  16
ENDBRANCH  13  14
ENDBRANCH  12  13
ENDBRANCH   1  11
TORSDOF 14
ENDMDL
MODEL 8
REMARK VINA RESULT:    -4.469     15.506     18.444
REMARK INTER + INTRA:          -9.670
REMARK INTER:                  -6.958
REMARK INTRA:                  -2.712
REMARK UNBOUND:                -1.543
REMARK SMILES CCCCCC=CCC=CCCCCCCCC(=O)[O-]
REMARK SMILES IDX 11 1 12 2 13 3 14 4 15 5 16 6 17 7 18 8 19 9 20 10 10 11
REMARK SMILES IDX 9 12 8 13 7 14 6 15 5 16 4 17 3 18 2 19 1 20
REMARK H PARENT
REMARK Flexibility Score: inf
ROOT
ATOM      1  C   UNL     1       6.156  -2.021 -12.195  1.00  0.00     0.027 C 
ENDROOT
BRANCH   1   2
ATOM      2  C   UNL     1       5.739  -2.615 -13.549  1.00  0.00     0.004 C 
BRANCH   2   3
ATOM      3  C   UNL     1       5.076  -1.578 -14.469  1.00  0.00     0.000 C 
BRANCH   3   4
ATOM      4  C   UNL     1       5.210  -0.143 -13.939  1.00  0.00     0.000 C 
BRANCH   4   5
ATOM      5  C   UNL     1       5.786   0.787 -15.018  1.00  0.00     0.000 C 
BRANCH   5   6
ATOM      6  C   UNL     1       5.309   2.242 -14.868  1.00  0.00     0.006 C 
BRANCH   6   7
ATOM      7  C   UNL     1       4.447   2.499 -13.621  1.00  0.00     0.053 C 
BRANCH   7   8
ATOM      8  C   UNL     1       4.922   3.689 -12.846  1.00  0.00     0.041 C 
ATOM      9  O   UNL     1       5.515   3.534 -11.746  1.00  0.00    -0.550 OA
ATOM     10  O   UNL     1       4.682   4.971 -13.322  1.00  0.00    -0.550 OA
ENDBRANCH   7   8
ENDBRANCH   6   7
ENDBRANCH   5   6
ENDBRANCH   4   5
ENDBRANCH   3   4
ENDBRANCH   2   3
ENDBRANCH   1   2
BRANCH   1  11
ATOM     11  C   UNL     1       6.169  -3.075 -11.117  1.00  0.00    -0.031 C 
ATOM     12  C   UNL     1       7.279  -3.644 -10.608  1.00  0.00    -0.027 C 
BRANCH  12  13
ATOM     13  C   UNL     1       8.691  -3.338 -11.044  1.00  0.00     0.054 C 
BRANCH  13  14
ATOM     14  C   UNL     1       9.114  -4.277 -12.143  1.00  0.00    -0.027 C 
ATOM     15  C   UNL     1       9.803  -3.895 -13.233  1.00  0.00    -0.031 C 
BRANCH  15  16
ATOM     16  C   UNL     1      10.219  -2.466 -13.484  1.00  0.00     0.027 C 
BRANCH  16  17
ATOM     17  C   UNL     1       9.208  -1.737 -14.380  1.00  0.00     0.004 C 
BRANCH  17  18
ATOM     18  C   UNL     1       9.223  -0.211 -14.148  1.00  0.00     0.000 C 
BRANCH  18  19
ATOM     19  C   UNL     1       8.942   0.199 -12.693  1.00  0.00    -0.003 C 
ATOM     20  C   UNL     1       8.426   1.630 -12.558  1.00  0.00     0.004 C 
ENDBRANCH  18  19
ENDBRANCH  17  18
ENDBRANCH  16  17
ENDBRANCH  15  16
ENDBRANCH  13  14
ENDBRANCH  12  13
ENDBRANCH   1  11
TORSDOF 14
ENDMDL
MODEL 9
REMARK VINA RESULT:    -4.450     16.054     18.041
REMARK INTER + INTRA:          -9.635
REMARK INTER:                  -6.845
REMARK INTRA:                  -2.790
REMARK UNBOUND:                -1.543
REMARK SMILES CCCCCC=CCC=CCCCCCCCC(=O)[O-]
REMARK SMILES IDX 11 1 12 2 13 3 14 4 15 5 16 6 17 7 18 8 19 9 20 10 10 11
REMARK SMILES IDX 9 12 8 13 7 14 6 15 5 16 4 17 3 18 2 19 1 20
REMARK H PARENT
REMARK Flexibility Score: inf
ROOT
ATOM      1  C   UNL     1       4.325   1.227 -15.001  1.00  0.00     0.027 C 
ENDROOT
BRANCH   1   2
ATOM      2  C   UNL     1       3.881  -0.094 -14.355  1.00  0.00     0.004 C 
BRANCH   2   3
ATOM      3  C   UNL     1       4.986  -0.734 -13.501  1.00  0.00     0.000 C 
BRANCH   3   4
ATOM      4  C   UNL     1       5.485  -2.066 -14.078  1.00  0.00     0.000 C 
BRANCH   4   5
ATOM      5  C   UNL     1       6.516  -2.716 -13.142  1.00  0.00     0.000 C 
BRANCH   5   6
ATOM      6  C   UNL     1       6.759  -1.898 -11.861  1.00  0.00     0.006 C 
BRANCH   6   7
ATOM      7  C   UNL     1       7.914  -2.418 -10.991  1.00  0.00     0.053 C 
BRANCH   7   8
ATOM      8  C   UNL     1       7.793  -3.884 -10.714  1.00  0.00     0.041 C 
ATOM      9  O   UNL     1       8.632  -4.692 -11.193  1.00  0.00    -0.550 OA
ATOM     10  O   UNL     1       6.736  -4.364  -9.952  1.00  0.00    -0.550 OA
ENDBRANCH   7   8
ENDBRANCH   6   7
ENDBRANCH   5   6
ENDBRANCH   4   5
ENDBRANCH   3   4
ENDBRANCH   2   3
ENDBRANCH   1   2
BRANCH   1  11
ATOM     11  C   UNL     1       4.103   2.392 -14.070  1.00  0.00    -0.031 C 
ATOM     12  C   UNL     1       5.072   3.205 -13.607  1.00  0.00    -0.027 C 
BRANCH  12  13
ATOM     13  C   UNL     1       6.542   3.075 -13.926  1.00  0.00     0.054 C 
BRANCH  13  14
ATOM     14  C   UNL     1       7.256   2.348 -12.817  1.00  0.00    -0.027 C 
ATOM     15  C   UNL     1       8.021   1.258 -13.004  1.00  0.00    -0.031 C 
BRANCH  15  16
ATOM     16  C   UNL     1       8.236   0.627 -14.358  1.00  0.00     0.027 C 
BRANCH  16  17
ATOM     17  C   UNL     1       9.659   0.068 -14.496  1.00  0.00     0.004 C 
BRANCH  17  18
ATOM     18  C   UNL     1       9.668  -1.470 -14.616  1.00  0.00     0.000 C 
BRANCH  18  19
ATOM     19  C   UNL     1      10.485  -2.174 -13.519  1.00  0.00    -0.003 C 
ATOM     20  C   UNL     1      11.170  -1.203 -12.560  1.00  0.00     0.004 C 
ENDBRANCH  18  19
ENDBRANCH  17  18
ENDBRANCH  16  17
ENDBRANCH  15  16
ENDBRANCH  13  14
ENDBRANCH  12  13
ENDBRANCH   1  11
TORSDOF 14
ENDMDL
