MODEL 1
REMARK VINA RESULT:    -6.134      0.000      0.000
REMARK INTER + INTRA:          -8.035
REMARK INTER:                  -7.568
REMARK INTRA:                  -0.467
REMARK UNBOUND:                -0.467
REMARK SMILES CC(C)=CCC[C@H](C)c1ccc(C)cc1
REMARK SMILES IDX 6 1 7 2 8 3 9 4 13 5 12 6 11 7 14 8 10 9 15 10 5 11 4 12
REMARK SMILES IDX 2 13 1 14 3 15
REMARK H PARENT
REMARK Flexibility Score: inf
ROOT
ATOM      1  C   UNL     1      18.260   9.754  32.262  1.00  0.00     0.012 C 
ENDROOT
BRANCH   1   2
ATOM      2  C   UNL     1      18.103  11.168  31.654  1.00  0.00     0.016 C 
ATOM      3  C   UNL     1      16.721  11.390  31.023  1.00  0.00     0.013 C 
BRANCH   2   4
ATOM      4  C   UNL     1      19.198  11.421  30.633  1.00  0.00    -0.045 A 
ATOM      5  C   UNL     1      22.305  12.205  27.735  1.00  0.00     0.044 C 
ATOM      6  C   UNL     1      21.221  11.907  28.728  1.00  0.00    -0.051 A 
ATOM      7  C   UNL     1      21.526  11.256  29.932  1.00  0.00     0.004 A 
ATOM      8  C   UNL     1      19.907  12.337  28.492  1.00  0.00     0.004 A 
ATOM      9  C   UNL     1      20.523  11.010  30.875  1.00  0.00     0.004 A 
ATOM     10  C   UNL     1      18.904  12.093  29.433  1.00  0.00     0.004 A 
ENDBRANCH   2   4
ENDBRANCH   1   2
BRANCH   1  11
ATOM     11  C   UNL     1      18.834   9.751  33.694  1.00  0.00     0.028 C 
BRANCH  11  12
ATOM     12  C   UNL     1      19.438   8.419  34.069  1.00  0.00    -0.028 C 
ATOM     13  C   UNL     1      19.961   8.130  35.281  1.00  0.00    -0.080 C 
ATOM     14  C   UNL     1      20.545   6.759  35.502  1.00  0.00     0.039 C 
ATOM     15  C   UNL     1      19.948   9.124  36.419  1.00  0.00     0.039 C 
ENDBRANCH  11  12
ENDBRANCH   1  11
TORSDOF 4
ENDMDL
MODEL 2
REMARK VINA RESULT:    -6.121      1.472      1.831
REMARK INTER + INTRA:          -8.020
REMARK INTER:                  -6.953
REMARK INTRA:                  -1.066
REMARK UNBOUND:                -0.467
REMARK SMILES CC(C)=CCC[C@H](C)c1ccc(C)cc1
REMARK SMILES IDX 6 1 7 2 8 3 9 4 13 5 12 6 11 7 14 8 10 9 15 10 5 11 4 12
REMARK SMILES IDX 2 13 1 14 3 15
REMARK H PARENT
REMARK Flexibility Score: inf
ROOT
ATOM      1  C   UNL     1      18.950   9.407  32.263  1.00  0.00     0.012 C 
ENDROOT
BRANCH   1   2
ATOM      2  C   UNL     1      18.667  10.876  31.866  1.00  0.00     0.016 C 
ATOM      3  C   UNL     1      17.191  11.120  31.517  1.00  0.00     0.013 C 
BRANCH   2   4
ATOM      4  C   UNL     1      19.559  11.285  30.708  1.00  0.00    -0.045 A 
ATOM      5  C   UNL     1      22.086  12.511  27.425  1.00  0.00     0.044 C 
ATOM      6  C   UNL     1      21.203  12.060  28.551  1.00  0.00    -0.051 A 
ATOM      7  C   UNL     1      21.751  11.381  29.649  1.00  0.00     0.004 A 
ATOM      8  C   UNL     1      19.837  12.373  28.548  1.00  0.00     0.004 A 
ATOM      9  C   UNL     1      20.936  10.992  30.717  1.00  0.00     0.004 A 
ATOM     10  C   UNL     1      19.021  11.985  29.614  1.00  0.00     0.004 A 
ENDBRANCH   2   4
ENDBRANCH   1   2
BRANCH   1  11
ATOM     11  C   UNL     1      19.188   9.205  33.773  1.00  0.00     0.028 C 
BRANCH  11  12
ATOM     12  C   UNL     1      20.083  10.269  34.362  1.00  0.00    -0.028 C 
ATOM     13  C   UNL     1      21.433  10.210  34.375  1.00  0.00    -0.080 C 
ATOM     14  C   UNL     1      22.194  11.343  35.015  1.00  0.00     0.039 C 
ATOM     15  C   UNL     1      22.194   9.067  33.744  1.00  0.00     0.039 C 
ENDBRANCH  11  12
ENDBRANCH   1  11
TORSDOF 4
ENDMDL
MODEL 3
REMARK VINA RESULT:    -5.913      2.000      3.894
REMARK INTER + INTRA:          -7.763
REMARK INTER:                  -6.754
REMARK INTRA:                  -1.009
REMARK UNBOUND:                -0.467
REMARK SMILES CC(C)=CCC[C@H](C)c1ccc(C)cc1
REMARK SMILES IDX 6 1 7 2 8 3 9 4 13 5 12 6 11 7 14 8 10 9 15 10 5 11 4 12
REMARK SMILES IDX 2 13 1 14 3 15
REMARK H PARENT
REMARK Flexibility Score: inf
ROOT
ATOM      1  C   UNL     1      21.718  10.249  34.323  1.00  0.00     0.012 C 
ENDROOT
BRANCH   1   2
ATOM      2  C   UNL     1      21.298   9.470  33.054  1.00  0.00     0.016 C 
ATOM      3  C   UNL     1      22.337   9.573  31.927  1.00  0.00     0.013 C 
BRANCH   2   4
ATOM      4  C   UNL     1      19.942   9.952  32.569  1.00  0.00    -0.045 A 
ATOM      5  C   UNL     1      16.097  11.299  31.133  1.00  0.00     0.044 C 
ATOM      6  C   UNL     1      17.433  10.853  31.651  1.00  0.00    -0.051 A 
ATOM      7  C   UNL     1      17.510   9.918  32.693  1.00  0.00     0.004 A 
ATOM      8  C   UNL     1      18.613  11.315  31.053  1.00  0.00     0.004 A 
ATOM      9  C   UNL     1      18.754   9.474  33.153  1.00  0.00     0.004 A 
ATOM     10  C   UNL     1      19.857  10.873  31.510  1.00  0.00     0.004 A 
ENDBRANCH   2   4
ENDBRANCH   1   2
BRANCH   1  11
ATOM     11  C   UNL     1      22.304   9.356  35.437  1.00  0.00     0.028 C 
BRANCH  11  12
ATOM     12  C   UNL     1      21.910   7.907  35.279  1.00  0.00    -0.028 C 
ATOM     13  C   UNL     1      20.834   7.338  35.866  1.00  0.00    -0.080 C 
ATOM     14  C   UNL     1      20.578   5.872  35.628  1.00  0.00     0.039 C 
ATOM     15  C   UNL     1      19.872   8.131  36.720  1.00  0.00     0.039 C 
ENDBRANCH  11  12
ENDBRANCH   1  11
TORSDOF 4
ENDMDL
MODEL 4
REMARK VINA RESULT:    -5.756      2.709      7.850
REMARK INTER + INTRA:          -7.569
REMARK INTER:                  -6.849
REMARK INTRA:                  -0.719
REMARK UNBOUND:                -0.467
REMARK SMILES CC(C)=CCC[C@H](C)c1ccc(C)cc1
REMARK SMILES IDX 6 1 7 2 8 3 9 4 13 5 12 6 11 7 14 8 10 9 15 10 5 11 4 12
REMARK SMILES IDX 2 13 1 14 3 15
REMARK H PARENT
REMARK Flexibility Score: inf
ROOT
ATOM      1  C   UNL     1      19.621   9.166  35.565  1.00  0.00     0.012 C 
ENDROOT
BRANCH   1   2
ATOM      2  C   UNL     1      20.219  10.532  35.978  1.00  0.00     0.016 C 
ATOM      3  C   UNL     1      21.625  10.760  35.404  1.00  0.00     0.013 C 
BRANCH   2   4
ATOM      4  C   UNL     1      20.237  10.658  37.491  1.00  0.00    -0.045 A 
ATOM      5  C   UNL     1      20.349  10.991  41.797  1.00  0.00     0.044 C 
ATOM      6  C   UNL     1      20.281  10.873  40.303  1.00  0.00    -0.051 A 
ATOM      7  C   UNL     1      20.168  12.023  39.508  1.00  0.00     0.004 A 
ATOM      8  C   UNL     1      20.398   9.619  39.687  1.00  0.00     0.004 A 
ATOM      9  C   UNL     1      20.142  11.917  38.114  1.00  0.00     0.004 A 
ATOM     10  C   UNL     1      20.372   9.511  38.294  1.00  0.00     0.004 A 
ENDBRANCH   2   4
ENDBRANCH   1   2
BRANCH   1  11
ATOM     11  C   UNL     1      19.694   8.886  34.050  1.00  0.00     0.028 C 
BRANCH  11  12
ATOM     12  C   UNL     1      18.684   9.691  33.268  1.00  0.00    -0.028 C 
ATOM     13  C   UNL     1      18.979  10.445  32.186  1.00  0.00    -0.080 C 
ATOM     14  C   UNL     1      17.865  11.208  31.517  1.00  0.00     0.039 C 
ATOM     15  C   UNL     1      20.376  10.517  31.614  1.00  0.00     0.039 C 
ENDBRANCH  11  12
ENDBRANCH   1  11
TORSDOF 4
ENDMDL
MODEL 5
REMARK VINA RESULT:    -5.715      2.491      7.498
REMARK INTER + INTRA:          -7.518
REMARK INTER:                  -6.727
REMARK INTRA:                  -0.791
REMARK UNBOUND:                -0.467
REMARK SMILES CC(C)=CCC[C@H](C)c1ccc(C)cc1
REMARK SMILES IDX 6 1 7 2 8 3 9 4 13 5 12 6 11 7 14 8 10 9 15 10 5 11 4 12
REMARK SMILES IDX 2 13 1 14 3 15
REMARK H PARENT
REMARK Flexibility Score: inf
ROOT
ATOM      1  C   UNL     1      19.655   8.931  35.191  1.00  0.00     0.012 C 
ENDROOT
BRANCH   1   2
ATOM      2  C   UNL     1      20.232  10.327  35.528  1.00  0.00     0.016 C 
ATOM      3  C   UNL     1      21.631  10.547  34.933  1.00  0.00     0.013 C 
BRANCH   2   4
ATOM      4  C   UNL     1      20.257  10.533  37.032  1.00  0.00    -0.045 A 
ATOM      5  C   UNL     1      20.270  11.147  41.308  1.00  0.00     0.044 C 
ATOM      6  C   UNL     1      20.295  10.935  39.823  1.00  0.00    -0.051 A 
ATOM      7  C   UNL     1      20.332   9.636  39.296  1.00  0.00     0.004 A 
ATOM      8  C   UNL     1      20.212  12.029  38.951  1.00  0.00     0.004 A 
ATOM      9  C   UNL     1      20.318   9.436  37.912  1.00  0.00     0.004 A 
ATOM     10  C   UNL     1      20.198  11.832  37.568  1.00  0.00     0.004 A 
ENDBRANCH   2   4
ENDBRANCH   1   2
BRANCH   1  11
ATOM     11  C   UNL     1      19.520   8.660  33.678  1.00  0.00     0.028 C 
BRANCH  11  12
ATOM     12  C   UNL     1      18.444   9.504  33.037  1.00  0.00    -0.028 C 
ATOM     13  C   UNL     1      18.668  10.435  32.084  1.00  0.00    -0.080 C 
ATOM     14  C   UNL     1      17.493  11.212  31.549  1.00  0.00     0.039 C 
ATOM     15  C   UNL     1      20.047  10.691  31.520  1.00  0.00     0.039 C 
ENDBRANCH  11  12
ENDBRANCH   1  11
TORSDOF 4
ENDMDL
MODEL 6
REMARK VINA RESULT:    -5.599      2.159      4.522
REMARK INTER + INTRA:          -7.375
REMARK INTER:                  -6.307
REMARK INTRA:                  -1.068
REMARK UNBOUND:                -0.467
REMARK SMILES CC(C)=CCC[C@H](C)c1ccc(C)cc1
REMARK SMILES IDX 6 1 7 2 8 3 9 4 13 5 12 6 11 7 14 8 10 9 15 10 5 11 4 12
REMARK SMILES IDX 2 13 1 14 3 15
REMARK H PARENT
REMARK Flexibility Score: inf
ROOT
ATOM      1  C   UNL     1      21.467   8.684  35.041  1.00  0.00     0.012 C 
ENDROOT
BRANCH   1   2
ATOM      2  C   UNL     1      21.706   9.120  33.576  1.00  0.00     0.016 C 
ATOM      3  C   UNL     1      22.840  10.147  33.443  1.00  0.00     0.013 C 
BRANCH   2   4
ATOM      4  C   UNL     1      20.422   9.668  32.978  1.00  0.00    -0.045 A 
ATOM      5  C   UNL     1      16.784  11.197  31.220  1.00  0.00     0.044 C 
ATOM      6  C   UNL     1      18.048  10.689  31.848  1.00  0.00    -0.051 A 
ATOM      7  C   UNL     1      17.991   9.815  32.943  1.00  0.00     0.004 A 
ATOM      8  C   UNL     1      19.295  11.029  31.304  1.00  0.00     0.004 A 
ATOM      9  C   UNL     1      19.167   9.312  33.507  1.00  0.00     0.004 A 
ATOM     10  C   UNL     1      20.472  10.528  31.866  1.00  0.00     0.004 A 
ENDBRANCH   2   4
ENDBRANCH   1   2
BRANCH   1  11
ATOM     11  C   UNL     1      22.332   9.444  36.067  1.00  0.00     0.028 C 
BRANCH  11  12
ATOM     12  C   UNL     1      21.513  10.011  37.202  1.00  0.00    -0.028 C 
ATOM     13  C   UNL     1      20.882  11.206  37.167  1.00  0.00    -0.080 C 
ATOM     14  C   UNL     1      20.114  11.647  38.386  1.00  0.00     0.039 C 
ATOM     15  C   UNL     1      20.898  12.088  35.940  1.00  0.00     0.039 C 
ENDBRANCH  11  12
ENDBRANCH   1  11
TORSDOF 4
ENDMDL
MODEL 7
REMARK VINA RESULT:    -5.597      2.289      6.905
REMARK INTER + INTRA:          -7.373
REMARK INTER:                  -6.638
REMARK INTRA:                  -0.735
REMARK UNBOUND:                -0.467
REMARK SMILES CC(C)=CCC[C@H](C)c1ccc(C)cc1
REMARK SMILES IDX 6 1 7 2 8 3 9 4 13 5 12 6 11 7 14 8 10 9 15 10 5 11 4 12
REMARK SMILES IDX 2 13 1 14 3 15
REMARK H PARENT
REMARK Flexibility Score: inf
ROOT
ATOM      1  C   UNL     1      20.911  10.509  33.538  1.00  0.00     0.012 C 
ENDROOT
BRANCH   1   2
ATOM      2  C   UNL     1      21.090   9.515  34.710  1.00  0.00     0.016 C 
ATOM      3  C   UNL     1      20.205   8.268  34.568  1.00  0.00     0.013 C 
BRANCH   2   4
ATOM      4  C   UNL     1      20.816  10.212  36.031  1.00  0.00    -0.045 A 
ATOM      5  C   UNL     1      20.086  12.161  39.817  1.00  0.00     0.044 C 
ATOM      6  C   UNL     1      20.311  11.487  38.496  1.00  0.00    -0.051 A 
ATOM      7  C   UNL     1      20.667  12.242  37.369  1.00  0.00     0.004 A 
ATOM      8  C   UNL     1      20.234  10.091  38.392  1.00  0.00     0.004 A 
ATOM      9  C   UNL     1      20.913  11.612  36.145  1.00  0.00     0.004 A 
ATOM     10  C   UNL     1      20.480   9.459  37.170  1.00  0.00     0.004 A 
ENDBRANCH   2   4
ENDBRANCH   1   2
BRANCH   1  11
ATOM     11  C   UNL     1      20.365   9.861  32.249  1.00  0.00     0.028 C 
BRANCH  11  12
ATOM     12  C   UNL     1      19.325  10.720  31.570  1.00  0.00    -0.028 C 
ATOM     13  C   UNL     1      18.001  10.672  31.836  1.00  0.00    -0.080 C 
ATOM     14  C   UNL     1      17.080  11.581  31.063  1.00  0.00     0.039 C 
ATOM     15  C   UNL     1      17.428   9.764  32.900  1.00  0.00     0.039 C 
ENDBRANCH  11  12
ENDBRANCH   1  11
TORSDOF 4
ENDMDL
MODEL 8
REMARK VINA RESULT:    -5.415      2.422      6.815
REMARK INTER + INTRA:          -7.149
REMARK INTER:                  -6.368
REMARK INTRA:                  -0.780
REMARK UNBOUND:                -0.467
REMARK SMILES CC(C)=CCC[C@H](C)c1ccc(C)cc1
REMARK SMILES IDX 6 1 7 2 8 3 9 4 13 5 12 6 11 7 14 8 10 9 15 10 5 11 4 12
REMARK SMILES IDX 2 13 1 14 3 15
REMARK H PARENT
REMARK Flexibility Score: inf
ROOT
ATOM      1  C   UNL     1      20.505  10.645  34.689  1.00  0.00     0.012 C 
ENDROOT
BRANCH   1   2
ATOM      2  C   UNL     1      19.982   9.705  35.801  1.00  0.00     0.016 C 
ATOM      3  C   UNL     1      19.929  10.388  37.176  1.00  0.00     0.013 C 
BRANCH   2   4
ATOM      4  C   UNL     1      20.833   8.449  35.865  1.00  0.00    -0.045 A 
ATOM      5  C   UNL     1      23.262   4.885  36.111  1.00  0.00     0.044 C 
ATOM      6  C   UNL     1      22.427   6.126  35.998  1.00  0.00    -0.051 A 
ATOM      7  C   UNL     1      21.073   6.035  35.641  1.00  0.00     0.004 A 
ATOM      8  C   UNL     1      22.972   7.378  36.313  1.00  0.00     0.004 A 
ATOM      9  C   UNL     1      20.283   7.187  35.570  1.00  0.00     0.004 A 
ATOM     10  C   UNL     1      22.185   8.530  36.244  1.00  0.00     0.004 A 
ENDBRANCH   2   4
ENDBRANCH   1   2
BRANCH   1  11
ATOM     11  C   UNL     1      20.505  10.009  33.283  1.00  0.00     0.028 C 
BRANCH  11  12
ATOM     12  C   UNL     1      19.684  10.802  32.294  1.00  0.00    -0.028 C 
ATOM     13  C   UNL     1      18.363  10.620  32.077  1.00  0.00    -0.080 C 
ATOM     14  C   UNL     1      17.681  11.478  31.043  1.00  0.00     0.039 C 
ATOM     15  C   UNL     1      17.552   9.613  32.858  1.00  0.00     0.039 C 
ENDBRANCH  11  12
ENDBRANCH   1  11
TORSDOF 4
ENDMDL
MODEL 9
REMARK VINA RESULT:    -5.410      1.609      6.599
REMARK INTER + INTRA:          -7.142
REMARK INTER:                  -6.659
REMARK INTRA:                  -0.483
REMARK UNBOUND:                -0.467
REMARK SMILES CC(C)=CCC[C@H](C)c1ccc(C)cc1
REMARK SMILES IDX 6 1 7 2 8 3 9 4 13 5 12 6 11 7 14 8 10 9 15 10 5 11 4 12
REMARK SMILES IDX 2 13 1 14 3 15
REMARK H PARENT
REMARK Flexibility Score: inf
ROOT
ATOM      1  C   UNL     1      20.846   9.828  32.091  1.00  0.00     0.012 C 
ENDROOT
BRANCH   1   2
ATOM      2  C   UNL     1      19.732   9.416  33.083  1.00  0.00     0.016 C 
ATOM      3  C   UNL     1      18.330   9.807  32.593  1.00  0.00     0.013 C 
BRANCH   2   4
ATOM      4  C   UNL     1      20.002  10.017  34.451  1.00  0.00    -0.045 A 
ATOM      5  C   UNL     1      20.805  11.673  38.360  1.00  0.00     0.044 C 
ATOM      6  C   UNL     1      20.501  11.113  37.001  1.00  0.00    -0.051 A 
ATOM      7  C   UNL     1      20.985  11.752  35.851  1.00  0.00     0.004 A 
ATOM      8  C   UNL     1      19.791   9.912  36.874  1.00  0.00     0.004 A 
ATOM      9  C   UNL     1      20.734  11.212  34.585  1.00  0.00     0.004 A 
ATOM     10  C   UNL     1      19.539   9.370  35.610  1.00  0.00     0.004 A 
ENDBRANCH   2   4
ENDBRANCH   1   2
BRANCH   1  11
ATOM     11  C   UNL     1      20.397  10.874  31.050  1.00  0.00     0.028 C 
BRANCH  11  12
ATOM     12  C   UNL     1      21.498  11.226  30.077  1.00  0.00    -0.028 C 
ATOM     13  C   UNL     1      21.310  11.896  28.919  1.00  0.00    -0.080 C 
ATOM     14  C   UNL     1      22.505  12.160  28.041  1.00  0.00     0.039 C 
ATOM     15  C   UNL     1      19.952  12.411  28.500  1.00  0.00     0.039 C 
ENDBRANCH  11  12
ENDBRANCH   1  11
TORSDOF 4
ENDMDL
