MODEL 1
REMARK VINA RESULT:    -4.158      0.000      0.000
REMARK INTER + INTRA:          -5.505
REMARK INTER:                  -5.009
REMARK INTRA:                  -0.496
REMARK UNBOUND:                -0.496
REMARK SMILES NC(=O)C[C@@H]([NH3+])C(=O)[O-]
REMARK SMILES IDX 4 1 5 2 6 3 7 7 8 8 9 9 2 10 3 11 1 12
REMARK H PARENT 6 4 6 5 6 6 1 13 1 14
REMARK Flexibility Score: inf
ROOT
ATOM      1  C   UNL     1     -26.433 -23.823 -13.915  1.00  0.00     0.171 C 
ENDROOT
BRANCH   1   2
ATOM      2  C   UNL     1     -25.158 -24.329 -13.209  1.00  0.00     0.237 C 
BRANCH   2   3
ATOM      3  N   UNL     1     -24.608 -25.492 -13.915  1.00  0.00    -0.350 N 
ATOM      4  H   UNL     1     -24.640 -26.344 -13.308  1.00  0.00     0.345 HD
ATOM      5  H   UNL     1     -23.614 -25.304 -14.186  1.00  0.00     0.345 HD
ATOM      6  H   UNL     1     -25.156 -25.670 -14.789  1.00  0.00     0.345 HD
ENDBRANCH   2   3
BRANCH   2   7
ATOM      7  C   UNL     1     -24.122 -23.238 -13.114  1.00  0.00     0.100 C 
ATOM      8  O   UNL     1     -23.964 -22.600 -12.040  1.00  0.00    -0.544 OA
ATOM      9  O   UNL     1     -23.325 -22.941 -14.212  1.00  0.00    -0.544 OA
ENDBRANCH   2   7
ENDBRANCH   1   2
BRANCH   1  10
ATOM     10  C   UNL     1     -26.434 -24.174 -15.374  1.00  0.00     0.223 C 
ATOM     11  O   UNL     1     -26.961 -25.251 -15.761  1.00  0.00    -0.275 OA
ATOM     12  N   UNL     1     -25.810 -23.311 -16.326  1.00  0.00    -0.369 N 
ATOM     13  H   UNL     1     -25.355 -22.423 -16.019  1.00  0.00     0.159 HD
ATOM     14  H   UNL     1     -25.799 -23.563 -17.339  1.00  0.00     0.159 HD
ENDBRANCH   1  10
TORSDOF 4
ENDMDL
MODEL 2
REMARK VINA RESULT:    -4.097      1.918      2.291
REMARK INTER + INTRA:          -5.431
REMARK INTER:                  -5.184
REMARK INTRA:                  -0.247
REMARK UNBOUND:                -0.496
REMARK SMILES NC(=O)C[C@@H]([NH3+])C(=O)[O-]
REMARK SMILES IDX 4 1 5 2 6 3 7 7 8 8 9 9 2 10 3 11 1 12
REMARK H PARENT 6 4 6 5 6 6 1 13 1 14
REMARK Flexibility Score: inf
ROOT
ATOM      1  C   UNL     1     -25.955 -24.149 -14.556  1.00  0.00     0.171 C 
ENDROOT
BRANCH   1   2
ATOM      2  C   UNL     1     -24.902 -23.087 -14.936  1.00  0.00     0.237 C 
BRANCH   2   3
ATOM      3  N   UNL     1     -25.112 -22.626 -16.314  1.00  0.00    -0.350 N 
ATOM      4  H   UNL     1     -24.343 -21.980 -16.609  1.00  0.00     0.345 HD
ATOM      5  H   UNL     1     -26.026 -22.122 -16.383  1.00  0.00     0.345 HD
ATOM      6  H   UNL     1     -25.141 -23.446 -16.962  1.00  0.00     0.345 HD
ENDBRANCH   2   3
BRANCH   2   7
ATOM      7  C   UNL     1     -24.943 -21.920 -13.983  1.00  0.00     0.100 C 
ATOM      8  O   UNL     1     -25.104 -22.108 -12.749  1.00  0.00    -0.544 OA
ATOM      9  O   UNL     1     -24.788 -20.626 -14.465  1.00  0.00    -0.544 OA
ENDBRANCH   2   7
ENDBRANCH   1   2
BRANCH   1  10
ATOM     10  C   UNL     1     -25.915 -25.325 -15.488  1.00  0.00     0.223 C 
ATOM     11  O   UNL     1     -24.807 -25.826 -15.820  1.00  0.00    -0.275 OA
ATOM     12  N   UNL     1     -27.123 -25.860 -16.028  1.00  0.00    -0.369 N 
ATOM     13  H   UNL     1     -28.047 -25.446 -15.775  1.00  0.00     0.159 HD
ATOM     14  H   UNL     1     -27.093 -26.670 -16.687  1.00  0.00     0.159 HD
ENDBRANCH   1  10
TORSDOF 4
ENDMDL
MODEL 3
REMARK VINA RESULT:    -4.071      2.085      2.183
REMARK INTER + INTRA:          -5.400
REMARK INTER:                  -4.907
REMARK INTRA:                  -0.493
REMARK UNBOUND:                -0.496
REMARK SMILES NC(=O)C[C@@H]([NH3+])C(=O)[O-]
REMARK SMILES IDX 4 1 5 2 6 3 7 7 8 8 9 9 2 10 3 11 1 12
REMARK H PARENT 6 4 6 5 6 6 1 13 1 14
REMARK Flexibility Score: inf
ROOT
ATOM      1  C   UNL     1     -25.404 -22.985 -14.018  1.00  0.00     0.171 C 
ENDROOT
BRANCH   1   2
ATOM      2  C   UNL     1     -24.096 -22.557 -13.321  1.00  0.00     0.237 C 
BRANCH   2   3
ATOM      3  N   UNL     1     -22.936 -22.880 -14.160  1.00  0.00    -0.350 N 
ATOM      4  H   UNL     1     -22.622 -23.864 -13.996  1.00  0.00     0.345 HD
ATOM      5  H   UNL     1     -22.147 -22.228 -13.939  1.00  0.00     0.345 HD
ATOM      6  H   UNL     1     -23.184 -22.760 -15.170  1.00  0.00     0.345 HD
ENDBRANCH   2   3
BRANCH   2   7
ATOM      7  C   UNL     1     -24.112 -21.085 -12.997  1.00  0.00     0.100 C 
ATOM      8  O   UNL     1     -23.880 -20.686 -11.825  1.00  0.00    -0.544 OA
ATOM      9  O   UNL     1     -24.370 -20.157 -13.998  1.00  0.00    -0.544 OA
ENDBRANCH   2   7
ENDBRANCH   1   2
BRANCH   1  10
ATOM     10  C   UNL     1     -25.223 -23.111 -15.503  1.00  0.00     0.223 C 
ATOM     11  O   UNL     1     -24.916 -24.225 -16.005  1.00  0.00    -0.275 OA
ATOM     12  N   UNL     1     -25.364 -21.969 -16.348  1.00  0.00    -0.369 N 
ATOM     13  H   UNL     1     -25.603 -21.036 -15.945  1.00  0.00     0.159 HD
ATOM     14  H   UNL     1     -25.224 -22.055 -17.379  1.00  0.00     0.159 HD
ENDBRANCH   1  10
TORSDOF 4
ENDMDL
MODEL 4
REMARK VINA RESULT:    -4.006      1.953      3.680
REMARK INTER + INTRA:          -5.322
REMARK INTER:                  -4.882
REMARK INTRA:                  -0.440
REMARK UNBOUND:                -0.496
REMARK SMILES NC(=O)C[C@@H]([NH3+])C(=O)[O-]
REMARK SMILES IDX 4 1 5 2 6 3 7 7 8 8 9 9 2 10 3 11 1 12
REMARK H PARENT 6 4 6 5 6 6 1 13 1 14
REMARK Flexibility Score: inf
ROOT
ATOM      1  C   UNL     1     -25.548 -22.865 -13.955  1.00  0.00     0.171 C 
ENDROOT
BRANCH   1   2
ATOM      2  C   UNL     1     -25.914 -23.491 -15.316  1.00  0.00     0.237 C 
BRANCH   2   3
ATOM      3  N   UNL     1     -25.261 -22.762 -16.409  1.00  0.00    -0.350 N 
ATOM      4  H   UNL     1     -25.970 -22.400 -17.089  1.00  0.00     0.345 HD
ATOM      5  H   UNL     1     -24.599 -23.397 -16.913  1.00  0.00     0.345 HD
ATOM      6  H   UNL     1     -24.713 -21.958 -16.023  1.00  0.00     0.345 HD
ENDBRANCH   2   3
BRANCH   2   7
ATOM      7  C   UNL     1     -25.534 -24.949 -15.361  1.00  0.00     0.100 C 
ATOM      8  O   UNL     1     -26.376 -25.819 -15.709  1.00  0.00    -0.544 OA
ATOM      9  O   UNL     1     -24.242 -25.339 -15.031  1.00  0.00    -0.544 OA
ENDBRANCH   2   7
ENDBRANCH   1   2
BRANCH   1  10
ATOM     10  C   UNL     1     -24.325 -22.002 -14.054  1.00  0.00     0.223 C 
ATOM     11  O   UNL     1     -24.445 -20.756 -14.202  1.00  0.00    -0.275 OA
ATOM     12  N   UNL     1     -23.022 -22.587 -14.016  1.00  0.00    -0.369 N 
ATOM     13  H   UNL     1     -22.906 -23.618 -13.909  1.00  0.00     0.159 HD
ATOM     14  H   UNL     1     -22.172 -21.986 -14.099  1.00  0.00     0.159 HD
ENDBRANCH   1  10
TORSDOF 4
ENDMDL
MODEL 5
REMARK VINA RESULT:    -3.973      2.105      2.459
REMARK INTER + INTRA:          -5.282
REMARK INTER:                  -4.982
REMARK INTRA:                  -0.300
REMARK UNBOUND:                -0.496
REMARK SMILES NC(=O)C[C@@H]([NH3+])C(=O)[O-]
REMARK SMILES IDX 4 1 5 2 6 3 7 7 8 8 9 9 2 10 3 11 1 12
REMARK H PARENT 6 4 6 5 6 6 1 13 1 14
REMARK Flexibility Score: inf
ROOT
ATOM      1  C   UNL     1     -23.939 -23.674 -14.411  1.00  0.00     0.171 C 
ENDROOT
BRANCH   1   2
ATOM      2  C   UNL     1     -23.528 -22.492 -13.509  1.00  0.00     0.237 C 
BRANCH   2   3
ATOM      3  N   UNL     1     -23.960 -21.220 -14.100  1.00  0.00    -0.350 N 
ATOM      4  H   UNL     1     -23.135 -20.655 -14.410  1.00  0.00     0.345 HD
ATOM      5  H   UNL     1     -24.505 -20.670 -13.396  1.00  0.00     0.345 HD
ATOM      6  H   UNL     1     -24.582 -21.403 -14.923  1.00  0.00     0.345 HD
ENDBRANCH   2   3
BRANCH   2   7
ATOM      7  C   UNL     1     -24.100 -22.644 -12.123  1.00  0.00     0.100 C 
ATOM      8  O   UNL     1     -24.514 -23.763 -11.721  1.00  0.00    -0.544 OA
ATOM      9  O   UNL     1     -24.160 -21.546 -11.274  1.00  0.00    -0.544 OA
ENDBRANCH   2   7
ENDBRANCH   1   2
BRANCH   1  10
ATOM     10  C   UNL     1     -25.145 -23.343 -15.241  1.00  0.00     0.223 C 
ATOM     11  O   UNL     1     -26.277 -23.248 -14.695  1.00  0.00    -0.275 OA
ATOM     12  N   UNL     1     -25.025 -23.170 -16.653  1.00  0.00    -0.369 N 
ATOM     13  H   UNL     1     -24.097 -23.260 -17.122  1.00  0.00     0.159 HD
ATOM     14  H   UNL     1     -25.867 -22.953 -17.231  1.00  0.00     0.159 HD
ENDBRANCH   1  10
TORSDOF 4
ENDMDL
MODEL 6
REMARK VINA RESULT:    -3.899      1.577      2.094
REMARK INTER + INTRA:          -5.193
REMARK INTER:                  -4.716
REMARK INTRA:                  -0.477
REMARK UNBOUND:                -0.496
REMARK SMILES NC(=O)C[C@@H]([NH3+])C(=O)[O-]
REMARK SMILES IDX 4 1 5 2 6 3 7 7 8 8 9 9 2 10 3 11 1 12
REMARK H PARENT 6 4 6 5 6 6 1 13 1 14
REMARK Flexibility Score: inf
ROOT
ATOM      1  C   UNL     1     -25.076 -23.558 -15.674  1.00  0.00     0.171 C 
ENDROOT
BRANCH   1   2
ATOM      2  C   UNL     1     -25.220 -22.752 -14.367  1.00  0.00     0.237 C 
BRANCH   2   3
ATOM      3  N   UNL     1     -26.096 -23.456 -13.423  1.00  0.00    -0.350 N 
ATOM      4  H   UNL     1     -25.567 -23.732 -12.562  1.00  0.00     0.345 HD
ATOM      5  H   UNL     1     -26.485 -24.316 -13.875  1.00  0.00     0.345 HD
ATOM      6  H   UNL     1     -26.896 -22.838 -13.152  1.00  0.00     0.345 HD
ENDBRANCH   2   3
BRANCH   2   7
ATOM      7  C   UNL     1     -23.875 -22.494 -13.739  1.00  0.00     0.100 C 
ATOM      8  O   UNL     1     -22.872 -23.178 -14.073  1.00  0.00    -0.544 OA
ATOM      9  O   UNL     1     -23.733 -21.486 -12.793  1.00  0.00    -0.544 OA
ENDBRANCH   2   7
ENDBRANCH   1   2
BRANCH   1  10
ATOM     10  C   UNL     1     -25.299 -25.025 -15.447  1.00  0.00     0.223 C 
ATOM     11  O   UNL     1     -26.458 -25.508 -15.548  1.00  0.00    -0.275 OA
ATOM     12  N   UNL     1     -24.209 -25.873 -15.082  1.00  0.00    -0.369 N 
ATOM     13  H   UNL     1     -23.246 -25.486 -14.978  1.00  0.00     0.159 HD
ATOM     14  H   UNL     1     -24.368 -26.891 -14.910  1.00  0.00     0.159 HD
ENDBRANCH   1  10
TORSDOF 4
ENDMDL
MODEL 7
REMARK VINA RESULT:    -3.835      2.579      3.684
REMARK INTER + INTRA:          -5.116
REMARK INTER:                  -4.643
REMARK INTRA:                  -0.473
REMARK UNBOUND:                -0.496
REMARK SMILES NC(=O)C[C@@H]([NH3+])C(=O)[O-]
REMARK SMILES IDX 4 1 5 2 6 3 7 7 8 8 9 9 2 10 3 11 1 12
REMARK H PARENT 6 4 6 5 6 6 1 13 1 14
REMARK Flexibility Score: inf
ROOT
ATOM      1  C   UNL     1     -25.210 -22.362 -13.772  1.00  0.00     0.171 C 
ENDROOT
BRANCH   1   2
ATOM      2  C   UNL     1     -24.162 -23.249 -14.476  1.00  0.00     0.237 C 
BRANCH   2   3
ATOM      3  N   UNL     1     -22.805 -22.826 -14.114  1.00  0.00    -0.350 N 
ATOM      4  H   UNL     1     -22.188 -22.792 -14.959  1.00  0.00     0.345 HD
ATOM      5  H   UNL     1     -22.398 -23.498 -13.422  1.00  0.00     0.345 HD
ATOM      6  H   UNL     1     -22.834 -21.878 -13.670  1.00  0.00     0.345 HD
ENDBRANCH   2   3
BRANCH   2   7
ATOM      7  C   UNL     1     -24.365 -24.703 -14.134  1.00  0.00     0.100 C 
ATOM      8  O   UNL     1     -24.867 -25.035 -13.027  1.00  0.00    -0.544 OA
ATOM      9  O   UNL     1     -24.009 -25.686 -15.047  1.00  0.00    -0.544 OA
ENDBRANCH   2   7
ENDBRANCH   1   2
BRANCH   1  10
ATOM     10  C   UNL     1     -24.647 -21.707 -12.545  1.00  0.00     0.223 C 
ATOM     11  O   UNL     1     -24.108 -20.572 -12.631  1.00  0.00    -0.275 OA
ATOM     12  N   UNL     1     -24.686 -22.379 -11.285  1.00  0.00    -0.369 N 
ATOM     13  H   UNL     1     -25.115 -23.327 -11.201  1.00  0.00     0.159 HD
ATOM     14  H   UNL     1     -24.281 -21.928 -10.435  1.00  0.00     0.159 HD
ENDBRANCH   1  10
TORSDOF 4
ENDMDL
MODEL 8
REMARK VINA RESULT:    -3.760      2.073      2.313
REMARK INTER + INTRA:          -5.026
REMARK INTER:                  -4.767
REMARK INTRA:                  -0.259
REMARK UNBOUND:                -0.496
REMARK SMILES NC(=O)C[C@@H]([NH3+])C(=O)[O-]
REMARK SMILES IDX 4 1 5 2 6 3 7 7 8 8 9 9 2 10 3 11 1 12
REMARK H PARENT 6 4 6 5 6 6 1 13 1 14
REMARK Flexibility Score: inf
ROOT
ATOM      1  C   UNL     1     -26.334 -24.282 -14.335  1.00  0.00     0.171 C 
ENDROOT
BRANCH   1   2
ATOM      2  C   UNL     1     -25.275 -24.438 -13.225  1.00  0.00     0.237 C 
BRANCH   2   3
ATOM      3  N   UNL     1     -24.064 -23.679 -13.559  1.00  0.00    -0.350 N 
ATOM      4  H   UNL     1     -24.262 -22.651 -13.571  1.00  0.00     0.345 HD
ATOM      5  H   UNL     1     -23.713 -23.970 -14.501  1.00  0.00     0.345 HD
ATOM      6  H   UNL     1     -23.315 -23.877 -12.855  1.00  0.00     0.345 HD
ENDBRANCH   2   3
BRANCH   2   7
ATOM      7  C   UNL     1     -25.818 -23.994 -11.891  1.00  0.00     0.100 C 
ATOM      8  O   UNL     1     -25.203 -24.269 -10.827  1.00  0.00    -0.544 OA
ATOM      9  O   UNL     1     -26.999 -23.264 -11.831  1.00  0.00    -0.544 OA
ENDBRANCH   2   7
ENDBRANCH   1   2
BRANCH   1  10
ATOM     10  C   UNL     1     -26.130 -25.278 -15.439  1.00  0.00     0.223 C 
ATOM     11  O   UNL     1     -24.963 -25.588 -15.797  1.00  0.00    -0.275 OA
ATOM     12  N   UNL     1     -27.252 -25.851 -16.112  1.00  0.00    -0.369 N 
ATOM     13  H   UNL     1     -28.225 -25.592 -15.838  1.00  0.00     0.159 HD
ATOM     14  H   UNL     1     -27.108 -26.533 -16.890  1.00  0.00     0.159 HD
ENDBRANCH   1  10
TORSDOF 4
ENDMDL
MODEL 9
REMARK VINA RESULT:    -3.739      2.415      2.844
REMARK INTER + INTRA:          -5.000
REMARK INTER:                  -4.564
REMARK INTRA:                  -0.436
REMARK UNBOUND:                -0.496
REMARK SMILES NC(=O)C[C@@H]([NH3+])C(=O)[O-]
REMARK SMILES IDX 4 1 5 2 6 3 7 7 8 8 9 9 2 10 3 11 1 12
REMARK H PARENT 6 4 6 5 6 6 1 13 1 14
REMARK Flexibility Score: inf
ROOT
ATOM      1  C   UNL     1     -24.357 -23.375 -12.025  1.00  0.00     0.171 C 
ENDROOT
BRANCH   1   2
ATOM      2  C   UNL     1     -23.657 -22.285 -12.862  1.00  0.00     0.237 C 
BRANCH   2   3
ATOM      3  N   UNL     1     -23.378 -22.776 -14.217  1.00  0.00    -0.350 N 
ATOM      4  H   UNL     1     -22.470 -22.395 -14.571  1.00  0.00     0.345 HD
ATOM      5  H   UNL     1     -24.146 -22.484 -14.864  1.00  0.00     0.345 HD
ATOM      6  H   UNL     1     -23.334 -23.822 -14.213  1.00  0.00     0.345 HD
ENDBRANCH   2   3
BRANCH   2   7
ATOM      7  C   UNL     1     -24.490 -21.030 -12.924  1.00  0.00     0.100 C 
ATOM      8  O   UNL     1     -25.435 -20.850 -12.111  1.00  0.00    -0.544 OA
ATOM      9  O   UNL     1     -24.209 -20.057 -13.874  1.00  0.00    -0.544 OA
ENDBRANCH   2   7
ENDBRANCH   1   2
BRANCH   1  10
ATOM     10  C   UNL     1     -25.340 -24.157 -12.846  1.00  0.00     0.223 C 
ATOM     11  O   UNL     1     -24.941 -25.115 -13.560  1.00  0.00    -0.275 OA
ATOM     12  N   UNL     1     -26.723 -23.800 -12.850  1.00  0.00    -0.369 N 
ATOM     13  H   UNL     1     -27.066 -22.999 -12.276  1.00  0.00     0.159 HD
ATOM     14  H   UNL     1     -27.404 -24.336 -13.433  1.00  0.00     0.159 HD
ENDBRANCH   1  10
TORSDOF 4
ENDMDL
