MODEL 1
REMARK VINA RESULT:    -4.212      0.000      0.000
REMARK INTER + INTRA:          -5.659
REMARK INTER:                  -5.197
REMARK INTRA:                  -0.462
REMARK UNBOUND:                -0.462
REMARK SMILES C=CC[C@H](C)C(=O)CC
REMARK SMILES IDX 4 1 5 2 6 3 7 4 8 5 9 6 3 7 2 8 1 9
REMARK H PARENT
REMARK Flexibility Score: inf
ROOT
ATOM      1  C   UNL     1       4.846 145.786  -8.346  1.00  0.00     0.057 C 
ATOM      2  C   UNL     1       5.206 147.060  -9.125  1.00  0.00     0.016 C 
ENDROOT
BRANCH   1   3
ATOM      3  C   UNL     1       4.482 146.143  -6.921  1.00  0.00     0.135 C 
ATOM      4  O   UNL     1       5.279 146.761  -6.229  1.00  0.00    -0.299 OA
BRANCH   3   5
ATOM      5  C   UNL     1       3.154 145.743  -6.331  1.00  0.00     0.072 C 
ATOM      6  C   UNL     1       2.022 146.011  -7.318  1.00  0.00     0.012 C 
ENDBRANCH   3   5
ENDBRANCH   1   3
BRANCH   1   7
ATOM      7  C   UNL     1       6.000 144.765  -8.356  1.00  0.00     0.038 C 
BRANCH   7   8
ATOM      8  C   UNL     1       5.487 143.350  -8.377  1.00  0.00    -0.034 C 
ATOM      9  C   UNL     1       4.345 143.020  -8.988  1.00  0.00     0.004 C 
ENDBRANCH   7   8
ENDBRANCH   1   7
TORSDOF 4
ENDMDL
MODEL 2
REMARK VINA RESULT:    -4.187      1.102      3.191
REMARK INTER + INTRA:          -5.628
REMARK INTER:                  -5.226
REMARK INTRA:                  -0.402
REMARK UNBOUND:                -0.462
REMARK SMILES C=CC[C@H](C)C(=O)CC
REMARK SMILES IDX 4 1 5 2 6 3 7 4 8 5 9 6 3 7 2 8 1 9
REMARK H PARENT
REMARK Flexibility Score: inf
ROOT
ATOM      1  C   UNL     1       5.186 146.368  -7.316  1.00  0.00     0.057 C 
ATOM      2  C   UNL     1       5.077 146.715  -8.809  1.00  0.00     0.016 C 
ENDROOT
BRANCH   1   3
ATOM      3  C   UNL     1       5.641 144.932  -7.157  1.00  0.00     0.135 C 
ATOM      4  O   UNL     1       5.940 144.511  -6.049  1.00  0.00    -0.299 OA
BRANCH   3   5
ATOM      5  C   UNL     1       5.741 144.009  -8.344  1.00  0.00     0.072 C 
ATOM      6  C   UNL     1       4.577 143.025  -8.364  1.00  0.00     0.012 C 
ENDBRANCH   3   5
ENDBRANCH   1   3
BRANCH   1   7
ATOM      7  C   UNL     1       3.850 146.583  -6.580  1.00  0.00     0.038 C 
BRANCH   7   8
ATOM      8  C   UNL     1       2.674 146.239  -7.456  1.00  0.00    -0.034 C 
ATOM      9  C   UNL     1       1.420 146.256  -6.996  1.00  0.00     0.004 C 
ENDBRANCH   7   8
ENDBRANCH   1   7
TORSDOF 4
ENDMDL
MODEL 3
REMARK VINA RESULT:    -4.122      1.295      3.586
REMARK INTER + INTRA:          -5.547
REMARK INTER:                  -5.094
REMARK INTRA:                  -0.453
REMARK UNBOUND:                -0.462
REMARK SMILES C=CC[C@H](C)C(=O)CC
REMARK SMILES IDX 4 1 5 2 6 3 7 4 8 5 9 6 3 7 2 8 1 9
REMARK H PARENT
REMARK Flexibility Score: inf
ROOT
ATOM      1  C   UNL     1       3.708 144.592  -7.563  1.00  0.00     0.057 C 
ATOM      2  C   UNL     1       4.073 143.103  -7.662  1.00  0.00     0.016 C 
ENDROOT
BRANCH   1   3
ATOM      3  C   UNL     1       4.892 145.375  -7.037  1.00  0.00     0.135 C 
ATOM      4  O   UNL     1       5.506 144.962  -6.063  1.00  0.00    -0.299 OA
BRANCH   3   5
ATOM      5  C   UNL     1       5.325 146.664  -7.686  1.00  0.00     0.072 C 
ATOM      6  C   UNL     1       4.823 146.741  -9.124  1.00  0.00     0.012 C 
ENDBRANCH   3   5
ENDBRANCH   1   3
BRANCH   1   7
ATOM      7  C   UNL     1       2.480 144.820  -6.660  1.00  0.00     0.038 C 
BRANCH   7   8
ATOM      8  C   UNL     1       1.701 146.037  -7.083  1.00  0.00    -0.034 C 
ATOM      9  C   UNL     1       1.559 147.099  -6.283  1.00  0.00     0.004 C 
ENDBRANCH   7   8
ENDBRANCH   1   7
TORSDOF 4
ENDMDL
MODEL 4
REMARK VINA RESULT:    -4.100      1.073      3.533
REMARK INTER + INTRA:          -5.521
REMARK INTER:                  -5.267
REMARK INTRA:                  -0.254
REMARK UNBOUND:                -0.462
REMARK SMILES C=CC[C@H](C)C(=O)CC
REMARK SMILES IDX 4 1 5 2 6 3 7 4 8 5 9 6 3 7 2 8 1 9
REMARK H PARENT
REMARK Flexibility Score: inf
ROOT
ATOM      1  C   UNL     1       3.962 146.115  -7.587  1.00  0.00     0.057 C 
ATOM      2  C   UNL     1       4.151 146.502  -9.061  1.00  0.00     0.016 C 
ENDROOT
BRANCH   1   3
ATOM      3  C   UNL     1       5.137 145.280  -7.123  1.00  0.00     0.135 C 
ATOM      4  O   UNL     1       5.410 145.229  -5.932  1.00  0.00    -0.299 OA
BRANCH   3   5
ATOM      5  C   UNL     1       5.985 144.514  -8.105  1.00  0.00     0.072 C 
ATOM      6  C   UNL     1       5.414 143.120  -8.341  1.00  0.00     0.012 C 
ENDBRANCH   3   5
ENDBRANCH   1   3
BRANCH   1   7
ATOM      7  C   UNL     1       2.646 145.345  -7.362  1.00  0.00     0.038 C 
BRANCH   7   8
ATOM      8  C   UNL     1       1.509 146.277  -7.034  1.00  0.00    -0.034 C 
ATOM      9  C   UNL     1       1.631 147.249  -6.125  1.00  0.00     0.004 C 
ENDBRANCH   7   8
ENDBRANCH   1   7
TORSDOF 4
ENDMDL
MODEL 5
REMARK VINA RESULT:    -3.998      1.073      1.234
REMARK INTER + INTRA:          -5.395
REMARK INTER:                  -5.139
REMARK INTRA:                  -0.255
REMARK UNBOUND:                -0.462
REMARK SMILES C=CC[C@H](C)C(=O)CC
REMARK SMILES IDX 4 1 5 2 6 3 7 4 8 5 9 6 3 7 2 8 1 9
REMARK H PARENT
REMARK Flexibility Score: inf
ROOT
ATOM      1  C   UNL     1       4.141 145.935  -7.498  1.00  0.00     0.057 C 
ATOM      2  C   UNL     1       4.468 146.768  -8.746  1.00  0.00     0.016 C 
ENDROOT
BRANCH   1   3
ATOM      3  C   UNL     1       3.587 146.834  -6.413  1.00  0.00     0.135 C 
ATOM      4  O   UNL     1       4.353 147.410  -5.653  1.00  0.00    -0.299 OA
BRANCH   3   5
ATOM      5  C   UNL     1       2.102 147.029  -6.244  1.00  0.00     0.072 C 
ATOM      6  C   UNL     1       1.325 146.026  -7.090  1.00  0.00     0.012 C 
ENDBRANCH   3   5
ENDBRANCH   1   3
BRANCH   1   7
ATOM      7  C   UNL     1       5.378 145.178  -6.975  1.00  0.00     0.038 C 
BRANCH   7   8
ATOM      8  C   UNL     1       5.255 143.695  -7.202  1.00  0.00    -0.034 C 
ATOM      9  C   UNL     1       5.295 143.160  -8.426  1.00  0.00     0.004 C 
ENDBRANCH   7   8
ENDBRANCH   1   7
TORSDOF 4
ENDMDL
MODEL 6
REMARK VINA RESULT:    -3.918      1.231      2.843
REMARK INTER + INTRA:          -5.296
REMARK INTER:                  -4.939
REMARK INTRA:                  -0.357
REMARK UNBOUND:                -0.462
REMARK SMILES C=CC[C@H](C)C(=O)CC
REMARK SMILES IDX 4 1 5 2 6 3 7 4 8 5 9 6 3 7 2 8 1 9
REMARK H PARENT
REMARK Flexibility Score: inf
ROOT
ATOM      1  C   UNL     1       3.005 145.587  -7.349  1.00  0.00     0.057 C 
ATOM      2  C   UNL     1       1.888 146.524  -6.864  1.00  0.00     0.016 C 
ENDROOT
BRANCH   1   3
ATOM      3  C   UNL     1       4.304 146.357  -7.467  1.00  0.00     0.135 C 
ATOM      4  O   UNL     1       4.907 146.686  -6.455  1.00  0.00    -0.299 OA
BRANCH   3   5
ATOM      5  C   UNL     1       4.866 146.735  -8.813  1.00  0.00     0.072 C 
ATOM      6  C   UNL     1       6.117 145.920  -9.125  1.00  0.00     0.012 C 
ENDBRANCH   3   5
ENDBRANCH   1   3
BRANCH   1   7
ATOM      7  C   UNL     1       2.655 144.932  -8.699  1.00  0.00     0.038 C 
BRANCH   7   8
ATOM      8  C   UNL     1       3.037 143.475  -8.722  1.00  0.00    -0.034 C 
ATOM      9  C   UNL     1       3.007 142.719  -7.620  1.00  0.00     0.004 C 
ENDBRANCH   7   8
ENDBRANCH   1   7
TORSDOF 4
ENDMDL
MODEL 7
REMARK VINA RESULT:    -3.822      1.697      3.312
REMARK INTER + INTRA:          -5.178
REMARK INTER:                  -4.787
REMARK INTRA:                  -0.391
REMARK UNBOUND:                -0.462
REMARK SMILES C=CC[C@H](C)C(=O)CC
REMARK SMILES IDX 4 1 5 2 6 3 7 4 8 5 9 6 3 7 2 8 1 9
REMARK H PARENT
REMARK Flexibility Score: inf
ROOT
ATOM      1  C   UNL     1       5.051 145.129  -8.184  1.00  0.00     0.057 C 
ATOM      2  C   UNL     1       6.251 145.476  -9.077  1.00  0.00     0.016 C 
ENDROOT
BRANCH   1   3
ATOM      3  C   UNL     1       4.886 143.626  -8.109  1.00  0.00     0.135 C 
ATOM      4  O   UNL     1       5.439 142.999  -7.216  1.00  0.00    -0.299 OA
BRANCH   3   5
ATOM      5  C   UNL     1       4.057 142.881  -9.124  1.00  0.00     0.072 C 
ATOM      6  C   UNL     1       2.827 142.262  -8.468  1.00  0.00     0.012 C 
ENDBRANCH   3   5
ENDBRANCH   1   3
BRANCH   1   7
ATOM      7  C   UNL     1       3.750 145.777  -8.696  1.00  0.00     0.038 C 
BRANCH   7   8
ATOM      8  C   UNL     1       2.924 146.329  -7.565  1.00  0.00    -0.034 C 
ATOM      9  C   UNL     1       1.977 145.604  -6.962  1.00  0.00     0.004 C 
ENDBRANCH   7   8
ENDBRANCH   1   7
TORSDOF 4
ENDMDL
MODEL 8
REMARK VINA RESULT:    -3.812      1.344      2.256
REMARK INTER + INTRA:          -5.165
REMARK INTER:                  -4.862
REMARK INTRA:                  -0.303
REMARK UNBOUND:                -0.462
REMARK SMILES C=CC[C@H](C)C(=O)CC
REMARK SMILES IDX 4 1 5 2 6 3 7 4 8 5 9 6 3 7 2 8 1 9
REMARK H PARENT
REMARK Flexibility Score: inf
ROOT
ATOM      1  C   UNL     1       3.709 143.971  -7.312  1.00  0.00     0.057 C 
ATOM      2  C   UNL     1       2.954 143.751  -8.631  1.00  0.00     0.016 C 
ENDROOT
BRANCH   1   3
ATOM      3  C   UNL     1       3.266 145.273  -6.679  1.00  0.00     0.135 C 
ATOM      4  O   UNL     1       3.849 145.695  -5.691  1.00  0.00    -0.299 OA
BRANCH   3   5
ATOM      5  C   UNL     1       2.109 146.058  -7.240  1.00  0.00     0.072 C 
ATOM      6  C   UNL     1       1.654 147.131  -6.255  1.00  0.00     0.012 C 
ENDBRANCH   3   5
ENDBRANCH   1   3
BRANCH   1   7
ATOM      7  C   UNL     1       5.235 143.979  -7.522  1.00  0.00     0.038 C 
BRANCH   7   8
ATOM      8  C   UNL     1       5.602 144.464  -8.899  1.00  0.00    -0.034 C 
ATOM      9  C   UNL     1       6.064 145.700  -9.114  1.00  0.00     0.004 C 
ENDBRANCH   7   8
ENDBRANCH   1   7
TORSDOF 4
ENDMDL
