MODEL 1
REMARK VINA RESULT:    -4.754      0.000      0.000
REMARK INTER + INTRA:          -9.325
REMARK INTER:                  -8.367
REMARK INTRA:                  -0.958
REMARK UNBOUND:                -0.958
REMARK SMILES CCCCCCCCCCCCCCC(=O)[O-]
REMARK SMILES IDX 9 1 10 2 11 3 12 4 13 5 14 6 15 7 16 8 17 9 8 10 7 11 6 12
REMARK SMILES IDX 5 13 4 14 3 15 2 16 1 17
REMARK H PARENT
REMARK Flexibility Score: inf
ROOT
ATOM      1  C   UNL     1      18.806  70.561  19.237  1.00  0.00     0.000 C 
ENDROOT
BRANCH   1   2
ATOM      2  C   UNL     1      18.034  69.463  18.489  1.00  0.00     0.000 C 
BRANCH   2   3
ATOM      3  C   UNL     1      17.446  69.952  17.156  1.00  0.00     0.000 C 
BRANCH   3   4
ATOM      4  C   UNL     1      16.270  69.071  16.719  1.00  0.00     0.000 C 
BRANCH   4   5
ATOM      5  C   UNL     1      15.348  68.753  17.905  1.00  0.00     0.006 C 
BRANCH   5   6
ATOM      6  C   UNL     1      14.002  68.169  17.456  1.00  0.00     0.053 C 
BRANCH   6   7
ATOM      7  C   UNL     1      13.546  67.063  18.358  1.00  0.00     0.041 C 
ATOM      8  O   UNL     1      13.951  67.012  19.549  1.00  0.00    -0.550 OA
ATOM      9  O   UNL     1      12.702  66.072  17.874  1.00  0.00    -0.550 OA
ENDBRANCH   6   7
ENDBRANCH   5   6
ENDBRANCH   4   5
ENDBRANCH   3   4
ENDBRANCH   2   3
ENDBRANCH   1   2
BRANCH   1  10
ATOM     10  C   UNL     1      18.233  70.835  20.639  1.00  0.00     0.000 C 
BRANCH  10  11
ATOM     11  C   UNL     1      16.702  70.699  20.688  1.00  0.00    -0.000 C 
BRANCH  11  12
ATOM     12  C   UNL     1      16.233  69.605  21.659  1.00  0.00    -0.000 C 
BRANCH  12  13
ATOM     13  C   UNL     1      17.300  69.327  22.727  1.00  0.00    -0.000 C 
BRANCH  13  14
ATOM     14  C   UNL     1      16.709  68.768  24.034  1.00  0.00    -0.000 C 
BRANCH  14  15
ATOM     15  C   UNL     1      17.191  67.353  24.415  1.00  0.00    -0.000 C 
BRANCH  15  16
ATOM     16  C   UNL     1      16.952  66.959  25.883  1.00  0.00    -0.003 C 
ATOM     17  C   UNL     1      16.474  65.516  26.042  1.00  0.00     0.004 C 
ENDBRANCH  15  16
ENDBRANCH  14  15
ENDBRANCH  13  14
ENDBRANCH  12  13
ENDBRANCH  11  12
ENDBRANCH  10  11
ENDBRANCH   1  10
TORSDOF 13
ENDMDL
MODEL 2
REMARK VINA RESULT:    -4.750      5.458      8.492
REMARK INTER + INTRA:          -9.318
REMARK INTER:                  -8.204
REMARK INTRA:                  -1.115
REMARK UNBOUND:                -0.958
REMARK SMILES CCCCCCCCCCCCCCC(=O)[O-]
REMARK SMILES IDX 9 1 10 2 11 3 12 4 13 5 14 6 15 7 16 8 17 9 8 10 7 11 6 12
REMARK SMILES IDX 5 13 4 14 3 15 2 16 1 17
REMARK H PARENT
REMARK Flexibility Score: inf
ROOT
ATOM      1  C   UNL     1      18.405  73.816  17.471  1.00  0.00     0.000 C 
ENDROOT
BRANCH   1   2
ATOM      2  C   UNL     1      17.999  72.363  17.759  1.00  0.00     0.000 C 
BRANCH   2   3
ATOM      3  C   UNL     1      18.985  71.645  18.695  1.00  0.00     0.000 C 
BRANCH   3   4
ATOM      4  C   UNL     1      18.668  70.147  18.780  1.00  0.00     0.000 C 
BRANCH   4   5
ATOM      5  C   UNL     1      17.220  69.864  18.354  1.00  0.00     0.006 C 
BRANCH   5   6
ATOM      6  C   UNL     1      16.399  69.215  19.476  1.00  0.00     0.053 C 
BRANCH   6   7
ATOM      7  C   UNL     1      16.431  70.031  20.731  1.00  0.00     0.041 C 
ATOM      8  O   UNL     1      15.932  71.188  20.746  1.00  0.00    -0.550 OA
ATOM      9  O   UNL     1      17.040  69.529  21.874  1.00  0.00    -0.550 OA
ENDBRANCH   6   7
ENDBRANCH   5   6
ENDBRANCH   4   5
ENDBRANCH   3   4
ENDBRANCH   2   3
ENDBRANCH   1   2
BRANCH   1  10
ATOM     10  C   UNL     1      19.920  74.046  17.615  1.00  0.00     0.000 C 
BRANCH  10  11
ATOM     11  C   UNL     1      20.253  75.185  18.593  1.00  0.00    -0.000 C 
BRANCH  11  12
ATOM     12  C   UNL     1      18.999  75.862  19.167  1.00  0.00    -0.000 C 
BRANCH  12  13
ATOM     13  C   UNL     1      18.982  77.360  18.829  1.00  0.00    -0.000 C 
BRANCH  13  14
ATOM     14  C   UNL     1      19.003  77.633  17.314  1.00  0.00    -0.000 C 
BRANCH  14  15
ATOM     15  C   UNL     1      20.254  78.378  16.803  1.00  0.00    -0.000 C 
BRANCH  15  16
ATOM     16  C   UNL     1      20.163  79.913  16.855  1.00  0.00    -0.003 C 
ATOM     17  C   UNL     1      20.666  80.495  18.175  1.00  0.00     0.004 C 
ENDBRANCH  15  16
ENDBRANCH  14  15
ENDBRANCH  13  14
ENDBRANCH  12  13
ENDBRANCH  11  12
ENDBRANCH  10  11
ENDBRANCH   1  10
TORSDOF 13
ENDMDL
MODEL 3
REMARK VINA RESULT:    -4.737      5.619      7.863
REMARK INTER + INTRA:          -9.294
REMARK INTER:                  -7.667
REMARK INTRA:                  -1.627
REMARK UNBOUND:                -0.958
REMARK SMILES CCCCCCCCCCCCCCC(=O)[O-]
REMARK SMILES IDX 9 1 10 2 11 3 12 4 13 5 14 6 15 7 16 8 17 9 8 10 7 11 6 12
REMARK SMILES IDX 5 13 4 14 3 15 2 16 1 17
REMARK H PARENT
REMARK Flexibility Score: inf
ROOT
ATOM      1  C   UNL     1      17.139  73.958  18.583  1.00  0.00     0.000 C 
ENDROOT
BRANCH   1   2
ATOM      2  C   UNL     1      18.652  74.181  18.435  1.00  0.00     0.000 C 
BRANCH   2   3
ATOM      3  C   UNL     1      19.388  74.177  19.784  1.00  0.00     0.000 C 
BRANCH   3   4
ATOM      4  C   UNL     1      20.208  75.459  19.965  1.00  0.00     0.000 C 
BRANCH   4   5
ATOM      5  C   UNL     1      19.622  76.611  19.136  1.00  0.00     0.006 C 
BRANCH   5   6
ATOM      6  C   UNL     1      20.711  77.458  18.464  1.00  0.00     0.053 C 
BRANCH   6   7
ATOM      7  C   UNL     1      20.908  77.072  17.030  1.00  0.00     0.041 C 
ATOM      8  O   UNL     1      20.649  77.894  16.112  1.00  0.00    -0.550 OA
ATOM      9  O   UNL     1      21.348  75.794  16.706  1.00  0.00    -0.550 OA
ENDBRANCH   6   7
ENDBRANCH   5   6
ENDBRANCH   4   5
ENDBRANCH   3   4
ENDBRANCH   2   3
ENDBRANCH   1   2
BRANCH   1  10
ATOM     10  C   UNL     1      16.630  72.779  17.734  1.00  0.00     0.000 C 
BRANCH  10  11
ATOM     11  C   UNL     1      17.773  71.888  17.218  1.00  0.00    -0.000 C 
BRANCH  11  12
ATOM     12  C   UNL     1      17.385  70.403  17.153  1.00  0.00    -0.000 C 
BRANCH  12  13
ATOM     13  C   UNL     1      18.057  69.611  18.285  1.00  0.00    -0.000 C 
BRANCH  13  14
ATOM     14  C   UNL     1      18.971  70.482  19.166  1.00  0.00    -0.000 C 
BRANCH  14  15
ATOM     15  C   UNL     1      18.459  70.719  20.602  1.00  0.00    -0.000 C 
BRANCH  15  16
ATOM     16  C   UNL     1      16.950  70.495  20.800  1.00  0.00    -0.003 C 
ATOM     17  C   UNL     1      16.639  69.427  21.848  1.00  0.00     0.004 C 
ENDBRANCH  15  16
ENDBRANCH  14  15
ENDBRANCH  13  14
ENDBRANCH  12  13
ENDBRANCH  11  12
ENDBRANCH  10  11
ENDBRANCH   1  10
TORSDOF 13
ENDMDL
MODEL 4
REMARK VINA RESULT:    -4.727      5.386      8.412
REMARK INTER + INTRA:          -9.278
REMARK INTER:                  -8.278
REMARK INTRA:                  -1.000
REMARK UNBOUND:                -0.958
REMARK SMILES CCCCCCCCCCCCCCC(=O)[O-]
REMARK SMILES IDX 9 1 10 2 11 3 12 4 13 5 14 6 15 7 16 8 17 9 8 10 7 11 6 12
REMARK SMILES IDX 5 13 4 14 3 15 2 16 1 17
REMARK H PARENT
REMARK Flexibility Score: inf
ROOT
ATOM      1  C   UNL     1      19.309  73.476  18.629  1.00  0.00     0.000 C 
ENDROOT
BRANCH   1   2
ATOM      2  C   UNL     1      18.241  73.255  17.546  1.00  0.00     0.000 C 
BRANCH   2   3
ATOM      3  C   UNL     1      17.674  71.827  17.553  1.00  0.00     0.000 C 
BRANCH   3   4
ATOM      4  C   UNL     1      18.693  70.835  18.127  1.00  0.00     0.000 C 
BRANCH   4   5
ATOM      5  C   UNL     1      17.992  69.601  18.714  1.00  0.00     0.006 C 
BRANCH   5   6
ATOM      6  C   UNL     1      16.498  69.845  18.965  1.00  0.00     0.053 C 
BRANCH   6   7
ATOM      7  C   UNL     1      15.641  68.881  18.203  1.00  0.00     0.041 C 
ATOM      8  O   UNL     1      14.783  68.184  18.806  1.00  0.00    -0.550 OA
ATOM      9  O   UNL     1      15.813  68.729  16.833  1.00  0.00    -0.550 OA
ENDBRANCH   6   7
ENDBRANCH   5   6
ENDBRANCH   4   5
ENDBRANCH   3   4
ENDBRANCH   2   3
ENDBRANCH   1   2
BRANCH   1  10
ATOM     10  C   UNL     1      19.156  74.832  19.341  1.00  0.00     0.000 C 
BRANCH  10  11
ATOM     11  C   UNL     1      20.511  75.459  19.710  1.00  0.00    -0.000 C 
BRANCH  11  12
ATOM     12  C   UNL     1      20.818  76.730  18.904  1.00  0.00    -0.000 C 
BRANCH  12  13
ATOM     13  C   UNL     1      21.273  76.379  17.480  1.00  0.00    -0.000 C 
BRANCH  13  14
ATOM     14  C   UNL     1      20.655  77.295  16.410  1.00  0.00    -0.000 C 
BRANCH  14  15
ATOM     15  C   UNL     1      19.698  78.377  16.951  1.00  0.00    -0.000 C 
BRANCH  15  16
ATOM     16  C   UNL     1      20.232  79.818  16.866  1.00  0.00    -0.003 C 
ATOM     17  C   UNL     1      20.541  80.420  18.237  1.00  0.00     0.004 C 
ENDBRANCH  15  16
ENDBRANCH  14  15
ENDBRANCH  13  14
ENDBRANCH  12  13
ENDBRANCH  11  12
ENDBRANCH  10  11
ENDBRANCH   1  10
TORSDOF 13
ENDMDL
MODEL 5
REMARK VINA RESULT:    -4.697      5.687      7.765
REMARK INTER + INTRA:          -9.225
REMARK INTER:                  -6.907
REMARK INTRA:                  -2.319
REMARK UNBOUND:                -0.958
REMARK SMILES CCCCCCCCCCCCCCC(=O)[O-]
REMARK SMILES IDX 9 1 10 2 11 3 12 4 13 5 14 6 15 7 16 8 17 9 8 10 7 11 6 12
REMARK SMILES IDX 5 13 4 14 3 15 2 16 1 17
REMARK H PARENT
REMARK Flexibility Score: inf
ROOT
ATOM      1  C   UNL     1      16.090  73.237  17.483  1.00  0.00     0.000 C 
ENDROOT
BRANCH   1   2
ATOM      2  C   UNL     1      17.393  73.395  16.685  1.00  0.00     0.000 C 
BRANCH   2   3
ATOM      3  C   UNL     1      18.191  74.644  17.094  1.00  0.00     0.000 C 
BRANCH   3   4
ATOM      4  C   UNL     1      19.621  74.271  17.505  1.00  0.00     0.000 C 
BRANCH   4   5
ATOM      5  C   UNL     1      19.840  74.500  19.007  1.00  0.00     0.006 C 
BRANCH   5   6
ATOM      6  C   UNL     1      19.608  75.962  19.413  1.00  0.00     0.053 C 
BRANCH   6   7
ATOM      7  C   UNL     1      20.663  76.868  18.855  1.00  0.00     0.041 C 
ATOM      8  O   UNL     1      20.368  77.710  17.967  1.00  0.00    -0.550 OA
ATOM      9  O   UNL     1      21.977  76.760  19.292  1.00  0.00    -0.550 OA
ENDBRANCH   6   7
ENDBRANCH   5   6
ENDBRANCH   4   5
ENDBRANCH   3   4
ENDBRANCH   2   3
ENDBRANCH   1   2
BRANCH   1  10
ATOM     10  C   UNL     1      16.073  74.091  18.763  1.00  0.00     0.000 C 
BRANCH  10  11
ATOM     11  C   UNL     1      16.377  73.267  20.026  1.00  0.00    -0.000 C 
BRANCH  11  12
ATOM     12  C   UNL     1      15.880  71.817  19.924  1.00  0.00    -0.000 C 
BRANCH  12  13
ATOM     13  C   UNL     1      16.861  70.853  20.607  1.00  0.00    -0.000 C 
BRANCH  13  14
ATOM     14  C   UNL     1      18.333  71.172  20.293  1.00  0.00    -0.000 C 
BRANCH  14  15
ATOM     15  C   UNL     1      18.814  70.727  18.897  1.00  0.00    -0.000 C 
BRANCH  15  16
ATOM     16  C   UNL     1      18.182  69.424  18.376  1.00  0.00    -0.003 C 
ATOM     17  C   UNL     1      17.325  69.635  17.129  1.00  0.00     0.004 C 
ENDBRANCH  15  16
ENDBRANCH  14  15
ENDBRANCH  13  14
ENDBRANCH  12  13
ENDBRANCH  11  12
ENDBRANCH  10  11
ENDBRANCH   1  10
TORSDOF 13
ENDMDL
MODEL 6
REMARK VINA RESULT:    -4.650      5.320      7.395
REMARK INTER + INTRA:          -9.142
REMARK INTER:                  -7.487
REMARK INTRA:                  -1.656
REMARK UNBOUND:                -0.958
REMARK SMILES CCCCCCCCCCCCCCC(=O)[O-]
REMARK SMILES IDX 9 1 10 2 11 3 12 4 13 5 14 6 15 7 16 8 17 9 8 10 7 11 6 12
REMARK SMILES IDX 5 13 4 14 3 15 2 16 1 17
REMARK H PARENT
REMARK Flexibility Score: inf
ROOT
ATOM      1  C   UNL     1      16.694  73.352  19.731  1.00  0.00     0.000 C 
ENDROOT
BRANCH   1   2
ATOM      2  C   UNL     1      16.294  74.180  18.499  1.00  0.00     0.000 C 
BRANCH   2   3
ATOM      3  C   UNL     1      16.893  75.595  18.515  1.00  0.00     0.000 C 
BRANCH   3   4
ATOM      4  C   UNL     1      17.640  75.889  17.208  1.00  0.00     0.000 C 
BRANCH   4   5
ATOM      5  C   UNL     1      19.025  76.492  17.488  1.00  0.00     0.006 C 
BRANCH   5   6
ATOM      6  C   UNL     1      19.254  76.756  18.982  1.00  0.00     0.053 C 
BRANCH   6   7
ATOM      7  C   UNL     1      20.556  76.186  19.454  1.00  0.00     0.041 C 
ATOM      8  O   UNL     1      20.582  75.394  20.433  1.00  0.00    -0.550 OA
ATOM      9  O   UNL     1      21.744  76.553  18.834  1.00  0.00    -0.550 OA
ENDBRANCH   6   7
ENDBRANCH   5   6
ENDBRANCH   4   5
ENDBRANCH   3   4
ENDBRANCH   2   3
ENDBRANCH   1   2
BRANCH   1  10
ATOM     10  C   UNL     1      18.171  72.920  19.697  1.00  0.00     0.000 C 
BRANCH  10  11
ATOM     11  C   UNL     1      18.507  72.067  18.462  1.00  0.00    -0.000 C 
BRANCH  11  12
ATOM     12  C   UNL     1      19.084  70.691  18.829  1.00  0.00    -0.000 C 
BRANCH  12  13
ATOM     13  C   UNL     1      18.213  69.562  18.258  1.00  0.00    -0.000 C 
BRANCH  13  14
ATOM     14  C   UNL     1      16.707  69.867  18.338  1.00  0.00    -0.000 C 
BRANCH  14  15
ATOM     15  C   UNL     1      15.885  68.876  19.188  1.00  0.00    -0.000 C 
BRANCH  15  16
ATOM     16  C   UNL     1      16.375  68.699  20.635  1.00  0.00    -0.003 C 
ATOM     17  C   UNL     1      16.401  70.011  21.420  1.00  0.00     0.004 C 
ENDBRANCH  15  16
ENDBRANCH  14  15
ENDBRANCH  13  14
ENDBRANCH  12  13
ENDBRANCH  11  12
ENDBRANCH  10  11
ENDBRANCH   1  10
TORSDOF 13
ENDMDL
MODEL 7
REMARK VINA RESULT:    -4.641      5.730      7.966
REMARK INTER + INTRA:          -9.127
REMARK INTER:                  -7.566
REMARK INTRA:                  -1.560
REMARK UNBOUND:                -0.958
REMARK SMILES CCCCCCCCCCCCCCC(=O)[O-]
REMARK SMILES IDX 9 1 10 2 11 3 12 4 13 5 14 6 15 7 16 8 17 9 8 10 7 11 6 12
REMARK SMILES IDX 5 13 4 14 3 15 2 16 1 17
REMARK H PARENT
REMARK Flexibility Score: inf
ROOT
ATOM      1  C   UNL     1      17.366  74.711  16.364  1.00  0.00     0.000 C 
ENDROOT
BRANCH   1   2
ATOM      2  C   UNL     1      17.546  76.116  16.959  1.00  0.00     0.000 C 
BRANCH   2   3
ATOM      3  C   UNL     1      18.314  77.064  16.025  1.00  0.00     0.000 C 
BRANCH   3   4
ATOM      4  C   UNL     1      19.304  77.929  16.814  1.00  0.00     0.000 C 
BRANCH   4   5
ATOM      5  C   UNL     1      19.288  77.564  18.306  1.00  0.00     0.006 C 
BRANCH   5   6
ATOM      6  C   UNL     1      20.649  77.050  18.793  1.00  0.00     0.053 C 
BRANCH   6   7
ATOM      7  C   UNL     1      20.544  75.680  19.391  1.00  0.00     0.041 C 
ATOM      8  O   UNL     1      20.575  75.531  20.641  1.00  0.00    -0.550 OA
ATOM      9  O   UNL     1      20.444  74.566  18.567  1.00  0.00    -0.550 OA
ENDBRANCH   6   7
ENDBRANCH   5   6
ENDBRANCH   4   5
ENDBRANCH   3   4
ENDBRANCH   2   3
ENDBRANCH   1   2
BRANCH   1  10
ATOM     10  C   UNL     1      17.262  73.620  17.445  1.00  0.00     0.000 C 
BRANCH  10  11
ATOM     11  C   UNL     1      17.006  74.201  18.845  1.00  0.00    -0.000 C 
BRANCH  11  12
ATOM     12  C   UNL     1      16.858  73.115  19.921  1.00  0.00    -0.000 C 
BRANCH  12  13
ATOM     13  C   UNL     1      18.232  72.590  20.362  1.00  0.00    -0.000 C 
BRANCH  13  14
ATOM     14  C   UNL     1      18.362  71.063  20.227  1.00  0.00    -0.000 C 
BRANCH  14  15
ATOM     15  C   UNL     1      18.983  70.576  18.901  1.00  0.00    -0.000 C 
BRANCH  15  16
ATOM     16  C   UNL     1      18.073  69.672  18.051  1.00  0.00    -0.003 C 
ATOM     17  C   UNL     1      16.772  69.299  18.762  1.00  0.00     0.004 C 
ENDBRANCH  15  16
ENDBRANCH  14  15
ENDBRANCH  13  14
ENDBRANCH  12  13
ENDBRANCH  11  12
ENDBRANCH  10  11
ENDBRANCH   1  10
TORSDOF 13
ENDMDL
MODEL 8
REMARK VINA RESULT:    -4.640      5.712      8.064
REMARK INTER + INTRA:          -9.124
REMARK INTER:                  -7.042
REMARK INTRA:                  -2.082
REMARK UNBOUND:                -0.958
REMARK SMILES CCCCCCCCCCCCCCC(=O)[O-]
REMARK SMILES IDX 9 1 10 2 11 3 12 4 13 5 14 6 15 7 16 8 17 9 8 10 7 11 6 12
REMARK SMILES IDX 5 13 4 14 3 15 2 16 1 17
REMARK H PARENT
REMARK Flexibility Score: inf
ROOT
ATOM      1  C   UNL     1      18.556  73.201  19.511  1.00  0.00     0.000 C 
ENDROOT
BRANCH   1   2
ATOM      2  C   UNL     1      19.167  73.367  18.111  1.00  0.00     0.000 C 
BRANCH   2   3
ATOM      3  C   UNL     1      18.363  74.329  17.222  1.00  0.00     0.000 C 
BRANCH   3   4
ATOM      4  C   UNL     1      17.629  75.375  18.070  1.00  0.00     0.000 C 
BRANCH   4   5
ATOM      5  C   UNL     1      18.329  76.740  17.989  1.00  0.00     0.006 C 
BRANCH   5   6
ATOM      6  C   UNL     1      19.092  77.080  19.276  1.00  0.00     0.053 C 
BRANCH   6   7
ATOM      7  C   UNL     1      20.456  76.461  19.293  1.00  0.00     0.041 C 
ATOM      8  O   UNL     1      20.854  75.833  20.310  1.00  0.00    -0.550 OA
ATOM      9  O   UNL     1      21.301  76.605  18.199  1.00  0.00    -0.550 OA
ENDBRANCH   6   7
ENDBRANCH   5   6
ENDBRANCH   4   5
ENDBRANCH   3   4
ENDBRANCH   2   3
ENDBRANCH   1   2
BRANCH   1  10
ATOM     10  C   UNL     1      18.442  71.726  19.935  1.00  0.00     0.000 C 
BRANCH  10  11
ATOM     11  C   UNL     1      18.859  70.758  18.815  1.00  0.00    -0.000 C 
BRANCH  11  12
ATOM     12  C   UNL     1      18.027  69.467  18.805  1.00  0.00    -0.000 C 
BRANCH  12  13
ATOM     13  C   UNL     1      17.170  69.378  17.533  1.00  0.00    -0.000 C 
BRANCH  13  14
ATOM     14  C   UNL     1      17.358  70.585  16.597  1.00  0.00    -0.000 C 
BRANCH  14  15
ATOM     15  C   UNL     1      16.100  71.455  16.394  1.00  0.00    -0.000 C 
BRANCH  15  16
ATOM     16  C   UNL     1      15.452  71.974  17.690  1.00  0.00    -0.003 C 
ATOM     17  C   UNL     1      14.078  71.359  17.956  1.00  0.00     0.004 C 
ENDBRANCH  15  16
ENDBRANCH  14  15
ENDBRANCH  13  14
ENDBRANCH  12  13
ENDBRANCH  11  12
ENDBRANCH  10  11
ENDBRANCH   1  10
TORSDOF 13
ENDMDL
MODEL 9
REMARK VINA RESULT:    -4.587      4.786      7.963
REMARK INTER + INTRA:          -9.030
REMARK INTER:                  -7.234
REMARK INTRA:                  -1.796
REMARK UNBOUND:                -0.958
REMARK SMILES CCCCCCCCCCCCCCC(=O)[O-]
REMARK SMILES IDX 9 1 10 2 11 3 12 4 13 5 14 6 15 7 16 8 17 9 8 10 7 11 6 12
REMARK SMILES IDX 5 13 4 14 3 15 2 16 1 17
REMARK H PARENT
REMARK Flexibility Score: inf
ROOT
ATOM      1  C   UNL     1      16.063  74.348  18.596  1.00  0.00     0.000 C 
ENDROOT
BRANCH   1   2
ATOM      2  C   UNL     1      16.367  72.900  19.012  1.00  0.00     0.000 C 
BRANCH   2   3
ATOM      3  C   UNL     1      17.217  72.815  20.290  1.00  0.00     0.000 C 
BRANCH   3   4
ATOM      4  C   UNL     1      18.392  71.847  20.104  1.00  0.00     0.000 C 
BRANCH   4   5
ATOM      5  C   UNL     1      18.418  71.280  18.677  1.00  0.00     0.006 C 
BRANCH   5   6
ATOM      6  C   UNL     1      18.301  69.750  18.656  1.00  0.00     0.053 C 
BRANCH   6   7
ATOM      7  C   UNL     1      16.901  69.297  18.937  1.00  0.00     0.041 C 
ATOM      8  O   UNL     1      16.037  69.307  18.020  1.00  0.00    -0.550 OA
ATOM      9  O   UNL     1      16.541  68.894  20.217  1.00  0.00    -0.550 OA
ENDBRANCH   6   7
ENDBRANCH   5   6
ENDBRANCH   4   5
ENDBRANCH   3   4
ENDBRANCH   2   3
ENDBRANCH   1   2
BRANCH   1  10
ATOM     10  C   UNL     1      17.335  75.204  18.465  1.00  0.00     0.000 C 
BRANCH  10  11
ATOM     11  C   UNL     1      18.233  74.751  17.302  1.00  0.00    -0.000 C 
BRANCH  11  12
ATOM     12  C   UNL     1      19.716  74.668  17.694  1.00  0.00    -0.000 C 
BRANCH  12  13
ATOM     13  C   UNL     1      19.933  75.172  19.128  1.00  0.00    -0.000 C 
BRANCH  13  14
ATOM     14  C   UNL     1      20.798  76.442  19.194  1.00  0.00    -0.000 C 
BRANCH  14  15
ATOM     15  C   UNL     1      20.832  77.275  17.896  1.00  0.00    -0.000 C 
BRANCH  15  16
ATOM     16  C   UNL     1      19.798  78.412  17.825  1.00  0.00    -0.003 C 
ATOM     17  C   UNL     1      20.417  79.794  18.029  1.00  0.00     0.004 C 
ENDBRANCH  15  16
ENDBRANCH  14  15
ENDBRANCH  13  14
ENDBRANCH  12  13
ENDBRANCH  11  12
ENDBRANCH  10  11
ENDBRANCH   1  10
TORSDOF 13
ENDMDL
