MODEL 1
REMARK VINA RESULT:    -2.358      0.000      0.000
REMARK INTER + INTRA:          -3.322
REMARK INTER:                  -3.048
REMARK INTRA:                  -0.275
REMARK UNBOUND:                -0.275
REMARK SMILES CCCCCCC(C)=O
REMARK SMILES IDX 4 1 3 2 2 3 1 4 5 5 6 6 7 7 9 8 8 9
REMARK H PARENT
REMARK Flexibility Score: inf
ROOT
ATOM      1  C   UNL     1     115.226 110.384 107.872  1.00  0.00     0.000 C 
ENDROOT
BRANCH   1   2
ATOM      2  C   UNL     1     114.994 109.034 108.571  1.00  0.00    -0.000 C 
BRANCH   2   3
ATOM      3  C   UNL     1     114.526 107.940 107.599  1.00  0.00    -0.003 C 
ATOM      4  C   UNL     1     114.740 106.528 108.148  1.00  0.00     0.004 C 
ENDBRANCH   2   3
ENDBRANCH   1   2
BRANCH   1   5
ATOM      5  C   UNL     1     116.685 110.858 107.974  1.00  0.00     0.008 C 
BRANCH   5   6
ATOM      6  C   UNL     1     117.628 109.767 108.500  1.00  0.00     0.075 C 
BRANCH   6   7
ATOM      7  C   UNL     1     118.634 110.349 109.455  1.00  0.00     0.129 C 
ATOM      8  O   UNL     1     119.504 109.636 109.928  1.00  0.00    -0.300 OA
ATOM      9  C   UNL     1     118.588 111.804 109.812  1.00  0.00     0.087 C 
ENDBRANCH   6   7
ENDBRANCH   5   6
ENDBRANCH   1   5
TORSDOF 5
ENDMDL
MODEL 2
REMARK VINA RESULT:    -2.341      8.400      9.794
REMARK INTER + INTRA:          -3.300
REMARK INTER:                  -3.013
REMARK INTRA:                  -0.287
REMARK UNBOUND:                -0.275
REMARK SMILES CCCCCCC(C)=O
REMARK SMILES IDX 4 1 3 2 2 3 1 4 5 5 6 6 7 7 9 8 8 9
REMARK H PARENT
REMARK Flexibility Score: inf
ROOT
ATOM      1  C   UNL     1     121.794 115.136 108.082  1.00  0.00     0.000 C 
ENDROOT
BRANCH   1   2
ATOM      2  C   UNL     1     123.191 114.926 108.692  1.00  0.00    -0.000 C 
BRANCH   2   3
ATOM      3  C   UNL     1     124.225 114.469 107.652  1.00  0.00    -0.003 C 
ATOM      4  C   UNL     1     125.657 114.849 108.033  1.00  0.00     0.004 C 
ENDBRANCH   2   3
ENDBRANCH   1   2
BRANCH   1   5
ATOM      5  C   UNL     1     121.405 116.621 107.999  1.00  0.00     0.008 C 
BRANCH   5   6
ATOM      6  C   UNL     1     122.399 117.537 108.725  1.00  0.00     0.075 C 
BRANCH   6   7
ATOM      7  C   UNL     1     121.672 118.611 109.489  1.00  0.00     0.129 C 
ATOM      8  O   UNL     1     122.281 119.595 109.879  1.00  0.00    -0.300 OA
ATOM      9  C   UNL     1     120.202 118.491 109.754  1.00  0.00     0.087 C 
ENDBRANCH   6   7
ENDBRANCH   5   6
ENDBRANCH   1   5
TORSDOF 5
ENDMDL
MODEL 3
REMARK VINA RESULT:    -2.324      8.547      9.897
REMARK INTER + INTRA:          -3.278
REMARK INTER:                  -3.015
REMARK INTRA:                  -0.263
REMARK UNBOUND:                -0.275
REMARK SMILES CCCCCCC(C)=O
REMARK SMILES IDX 4 1 3 2 2 3 1 4 5 5 6 6 7 7 9 8 8 9
REMARK H PARENT
REMARK Flexibility Score: inf
ROOT
ATOM      1  C   UNL     1     109.727 116.610 108.533  1.00  0.00     0.000 C 
ENDROOT
BRANCH   1   2
ATOM      2  C   UNL     1     108.665 117.149 107.559  1.00  0.00    -0.000 C 
BRANCH   2   3
ATOM      3  C   UNL     1     107.369 117.565 108.271  1.00  0.00    -0.003 C 
ATOM      4  C   UNL     1     106.201 116.623 107.972  1.00  0.00     0.004 C 
ENDBRANCH   2   3
ENDBRANCH   1   2
BRANCH   1   5
ATOM      5  C   UNL     1     110.405 115.331 108.018  1.00  0.00     0.008 C 
BRANCH   5   6
ATOM      6  C   UNL     1     109.545 114.077 108.227  1.00  0.00     0.075 C 
BRANCH   6   7
ATOM      7  C   UNL     1     110.115 113.219 109.324  1.00  0.00     0.129 C 
ATOM      8  O   UNL     1     109.382 112.469 109.950  1.00  0.00    -0.300 OA
ATOM      9  C   UNL     1     111.579 113.262 109.638  1.00  0.00     0.087 C 
ENDBRANCH   6   7
ENDBRANCH   5   6
ENDBRANCH   1   5
TORSDOF 5
ENDMDL
MODEL 4
REMARK VINA RESULT:    -2.295     13.368     14.600
REMARK INTER + INTRA:          -3.240
REMARK INTER:                  -2.981
REMARK INTRA:                  -0.260
REMARK UNBOUND:                -0.275
REMARK SMILES CCCCCCC(C)=O
REMARK SMILES IDX 4 1 3 2 2 3 1 4 5 5 6 6 7 7 9 8 8 9
REMARK H PARENT
REMARK Flexibility Score: inf
ROOT
ATOM      1  C   UNL     1     112.115 124.587 108.909  1.00  0.00     0.000 C 
ENDROOT
BRANCH   1   2
ATOM      2  C   UNL     1     111.263 124.783 110.174  1.00  0.00    -0.000 C 
BRANCH   2   3
ATOM      3  C   UNL     1     109.770 124.516 109.926  1.00  0.00    -0.003 C 
ATOM      4  C   UNL     1     109.220 125.294 108.730  1.00  0.00     0.004 C 
ENDBRANCH   2   3
ENDBRANCH   1   2
BRANCH   1   5
ATOM      5  C   UNL     1     112.306 123.105 108.550  1.00  0.00     0.008 C 
BRANCH   5   6
ATOM      6  C   UNL     1     112.538 122.220 109.783  1.00  0.00     0.075 C 
BRANCH   6   7
ATOM      7  C   UNL     1     113.720 121.313 109.572  1.00  0.00     0.129 C 
ATOM      8  O   UNL     1     113.669 120.154 109.951  1.00  0.00    -0.300 OA
ATOM      9  C   UNL     1     114.949 121.818 108.878  1.00  0.00     0.087 C 
ENDBRANCH   6   7
ENDBRANCH   5   6
ENDBRANCH   1   5
TORSDOF 5
ENDMDL
MODEL 5
REMARK VINA RESULT:    -2.295     12.121     14.089
REMARK INTER + INTRA:          -3.240
REMARK INTER:                  -2.958
REMARK INTRA:                  -0.283
REMARK UNBOUND:                -0.275
REMARK SMILES CCCCCCC(C)=O
REMARK SMILES IDX 4 1 3 2 2 3 1 4 5 5 6 6 7 7 9 8 8 9
REMARK H PARENT
REMARK Flexibility Score: inf
ROOT
ATOM      1  C   UNL     1     116.453 122.434 108.694  1.00  0.00     0.000 C 
ENDROOT
BRANCH   1   2
ATOM      2  C   UNL     1     117.278 123.268 107.700  1.00  0.00    -0.000 C 
BRANCH   2   3
ATOM      3  C   UNL     1     117.562 124.687 108.215  1.00  0.00    -0.003 C 
ATOM      4  C   UNL     1     116.422 125.663 107.923  1.00  0.00     0.004 C 
ENDBRANCH   2   3
ENDBRANCH   1   2
BRANCH   1   5
ATOM      5  C   UNL     1     115.294 121.685 108.017  1.00  0.00     0.008 C 
BRANCH   5   6
ATOM      6  C   UNL     1     113.949 122.408 108.170  1.00  0.00     0.075 C 
BRANCH   6   7
ATOM      7  C   UNL     1     113.145 121.803 109.288  1.00  0.00     0.129 C 
ATOM      8  O   UNL     1     112.308 122.478 109.868  1.00  0.00    -0.300 OA
ATOM      9  C   UNL     1     113.347 120.370 109.679  1.00  0.00     0.087 C 
ENDBRANCH   6   7
ENDBRANCH   5   6
ENDBRANCH   1   5
TORSDOF 5
ENDMDL
MODEL 6
REMARK VINA RESULT:    -2.282      9.284     10.721
REMARK INTER + INTRA:          -3.223
REMARK INTER:                  -2.944
REMARK INTRA:                  -0.279
REMARK UNBOUND:                -0.275
REMARK SMILES CCCCCCC(C)=O
REMARK SMILES IDX 4 1 3 2 2 3 1 4 5 5 6 6 7 7 9 8 8 9
REMARK H PARENT
REMARK Flexibility Score: inf
ROOT
ATOM      1  C   UNL     1     121.491 117.118 108.528  1.00  0.00     0.000 C 
ENDROOT
BRANCH   1   2
ATOM      2  C   UNL     1     122.573 116.280 107.827  1.00  0.00    -0.000 C 
BRANCH   2   3
ATOM      3  C   UNL     1     122.940 115.013 108.616  1.00  0.00    -0.003 C 
ATOM      4  C   UNL     1     124.347 114.505 108.300  1.00  0.00     0.004 C 
ENDBRANCH   2   3
ENDBRANCH   1   2
BRANCH   1   5
ATOM      5  C   UNL     1     121.708 118.630 108.350  1.00  0.00     0.008 C 
BRANCH   5   6
ATOM      6  C   UNL     1     122.152 119.322 109.646  1.00  0.00     0.075 C 
BRANCH   6   7
ATOM      7  C   UNL     1     123.449 120.057 109.439  1.00  0.00     0.129 C 
ATOM      8  O   UNL     1     123.592 121.177 109.903  1.00  0.00    -0.300 OA
ATOM      9  C   UNL     1     124.573 119.413 108.686  1.00  0.00     0.087 C 
ENDBRANCH   6   7
ENDBRANCH   5   6
ENDBRANCH   1   5
TORSDOF 5
ENDMDL
MODEL 7
REMARK VINA RESULT:    -2.215      1.204      2.039
REMARK INTER + INTRA:          -3.137
REMARK INTER:                  -2.732
REMARK INTRA:                  -0.406
REMARK UNBOUND:                -0.275
REMARK SMILES CCCCCCC(C)=O
REMARK SMILES IDX 4 1 3 2 2 3 1 4 5 5 6 6 7 7 9 8 8 9
REMARK H PARENT
REMARK Flexibility Score: inf
ROOT
ATOM      1  C   UNL     1     114.839 108.492 107.545  1.00  0.00     0.000 C 
ENDROOT
BRANCH   1   2
ATOM      2  C   UNL     1     114.377 107.213 108.264  1.00  0.00    -0.000 C 
BRANCH   2   3
ATOM      3  C   UNL     1     115.322 106.027 108.022  1.00  0.00    -0.003 C 
ATOM      4  C   UNL     1     116.409 106.336 106.991  1.00  0.00     0.004 C 
ENDBRANCH   2   3
ENDBRANCH   1   2
BRANCH   1   5
ATOM      5  C   UNL     1     115.174 109.630 108.523  1.00  0.00     0.008 C 
BRANCH   5   6
ATOM      6  C   UNL     1     116.424 110.419 108.109  1.00  0.00     0.075 C 
BRANCH   6   7
ATOM      7  C   UNL     1     117.611 110.006 108.936  1.00  0.00     0.129 C 
ATOM      8  O   UNL     1     117.772 110.484 110.048  1.00  0.00    -0.300 OA
ATOM      9  C   UNL     1     118.585 108.994 108.413  1.00  0.00     0.087 C 
ENDBRANCH   6   7
ENDBRANCH   5   6
ENDBRANCH   1   5
TORSDOF 5
ENDMDL
MODEL 8
REMARK VINA RESULT:    -2.206      3.150      5.010
REMARK INTER + INTRA:          -3.125
REMARK INTER:                  -2.812
REMARK INTRA:                  -0.314
REMARK UNBOUND:                -0.275
REMARK SMILES CCCCCCC(C)=O
REMARK SMILES IDX 4 1 3 2 2 3 1 4 5 5 6 6 7 7 9 8 8 9
REMARK H PARENT
REMARK Flexibility Score: inf
ROOT
ATOM      1  C   UNL     1     120.221 107.598 108.524  1.00  0.00     0.000 C 
ENDROOT
BRANCH   1   2
ATOM      2  C   UNL     1     120.463 107.289 110.011  1.00  0.00    -0.000 C 
BRANCH   2   3
ATOM      3  C   UNL     1     121.941 107.006 110.320  1.00  0.00    -0.003 C 
ATOM      4  C   UNL     1     122.778 106.779 109.061  1.00  0.00     0.004 C 
ENDBRANCH   2   3
ENDBRANCH   1   2
BRANCH   1   5
ATOM      5  C   UNL     1     119.597 108.986 108.304  1.00  0.00     0.008 C 
BRANCH   5   6
ATOM      6  C   UNL     1     119.476 109.795 109.603  1.00  0.00     0.075 C 
BRANCH   6   7
ATOM      7  C   UNL     1     118.275 110.699 109.555  1.00  0.00     0.129 C 
ATOM      8  O   UNL     1     118.349 111.830 110.009  1.00  0.00    -0.300 OA
ATOM      9  C   UNL     1     116.995 110.229 108.934  1.00  0.00     0.087 C 
ENDBRANCH   6   7
ENDBRANCH   5   6
ENDBRANCH   1   5
TORSDOF 5
ENDMDL
MODEL 9
REMARK VINA RESULT:    -2.198      8.751     10.037
REMARK INTER + INTRA:          -3.115
REMARK INTER:                  -2.746
REMARK INTRA:                  -0.369
REMARK UNBOUND:                -0.275
REMARK SMILES CCCCCCC(C)=O
REMARK SMILES IDX 4 1 3 2 2 3 1 4 5 5 6 6 7 7 9 8 8 9
REMARK H PARENT
REMARK Flexibility Score: inf
ROOT
ATOM      1  C   UNL     1     108.314 113.195 108.217  1.00  0.00     0.000 C 
ENDROOT
BRANCH   1   2
ATOM      2  C   UNL     1     109.411 112.597 109.114  1.00  0.00    -0.000 C 
BRANCH   2   3
ATOM      3  C   UNL     1     110.306 113.674 109.746  1.00  0.00    -0.003 C 
ATOM      4  C   UNL     1     111.787 113.292 109.742  1.00  0.00     0.004 C 
ENDBRANCH   2   3
ENDBRANCH   1   2
BRANCH   1   5
ATOM      5  C   UNL     1     108.749 114.510 107.549  1.00  0.00     0.008 C 
BRANCH   5   6
ATOM      6  C   UNL     1     107.630 115.560 107.520  1.00  0.00     0.075 C 
BRANCH   6   7
ATOM      7  C   UNL     1     108.101 116.855 108.123  1.00  0.00     0.129 C 
ATOM      8  O   UNL     1     107.305 117.761 108.312  1.00  0.00    -0.300 OA
ATOM      9  C   UNL     1     109.537 117.032 108.513  1.00  0.00     0.087 C 
ENDBRANCH   6   7
ENDBRANCH   5   6
ENDBRANCH   1   5
TORSDOF 5
ENDMDL
