MODEL 1
REMARK VINA RESULT:    -3.414      0.000      0.000
REMARK INTER + INTRA:          -5.097
REMARK INTER:                  -4.811
REMARK INTRA:                  -0.286
REMARK UNBOUND:                -0.286
REMARK SMILES C=CCCCCCCC(=O)[O-]
REMARK SMILES IDX 6 1 7 2 8 3 9 4 10 5 11 6 5 7 4 8 3 9 2 10 1 11
REMARK H PARENT
REMARK Flexibility Score: inf
ROOT
ATOM      1  C   UNL     1      17.614   1.422  25.445  1.00  0.00     0.000 C 
ENDROOT
BRANCH   1   2
ATOM      2  C   UNL     1      16.985   2.749  24.981  1.00  0.00     0.006 C 
BRANCH   2   3
ATOM      3  C   UNL     1      15.717   3.149  25.751  1.00  0.00     0.053 C 
BRANCH   3   4
ATOM      4  C   UNL     1      14.469   2.769  25.013  1.00  0.00     0.041 C 
ATOM      5  O   UNL     1      13.620   2.012  25.554  1.00  0.00    -0.550 OA
ATOM      6  O   UNL     1      14.263   3.220  23.716  1.00  0.00    -0.550 OA
ENDBRANCH   3   4
ENDBRANCH   2   3
ENDBRANCH   1   2
BRANCH   1   7
ATOM      7  C   UNL     1      19.001   1.612  26.084  1.00  0.00     0.000 C 
BRANCH   7   8
ATOM      8  C   UNL     1      18.942   2.421  27.390  1.00  0.00     0.004 C 
BRANCH   8   9
ATOM      9  C   UNL     1      19.395   1.603  28.609  1.00  0.00     0.027 C 
BRANCH   9  10
ATOM     10  C   UNL     1      19.419   2.449  29.852  1.00  0.00    -0.035 C 
ATOM     11  C   UNL     1      18.775   3.617  29.921  1.00  0.00     0.004 C 
ENDBRANCH   9  10
ENDBRANCH   8   9
ENDBRANCH   7   8
ENDBRANCH   1   7
TORSDOF 7
ENDMDL
MODEL 2
REMARK VINA RESULT:    -2.753      1.078      1.544
REMARK INTER + INTRA:          -4.166
REMARK INTER:                  -3.919
REMARK INTRA:                  -0.247
REMARK UNBOUND:                -0.286
REMARK SMILES C=CCCCCCCC(=O)[O-]
REMARK SMILES IDX 6 1 7 2 8 3 9 4 10 5 11 6 5 7 4 8 3 9 2 10 1 11
REMARK H PARENT
REMARK Flexibility Score: inf
ROOT
ATOM      1  C   UNL     1      19.062   1.556  25.763  1.00  0.00     0.000 C 
ENDROOT
BRANCH   1   2
ATOM      2  C   UNL     1      17.566   1.472  25.410  1.00  0.00     0.006 C 
BRANCH   2   3
ATOM      3  C   UNL     1      16.947   2.805  24.961  1.00  0.00     0.053 C 
BRANCH   3   4
ATOM      4  C   UNL     1      15.598   3.032  25.571  1.00  0.00     0.041 C 
ATOM      5  O   UNL     1      15.425   3.966  26.398  1.00  0.00    -0.550 OA
ATOM      6  O   UNL     1      14.540   2.189  25.254  1.00  0.00    -0.550 OA
ENDBRANCH   3   4
ENDBRANCH   2   3
ENDBRANCH   1   2
BRANCH   1   7
ATOM      7  C   UNL     1      19.336   1.304  27.256  1.00  0.00     0.000 C 
BRANCH   7   8
ATOM      8  C   UNL     1      19.003   2.522  28.132  1.00  0.00     0.004 C 
BRANCH   8   9
ATOM      9  C   UNL     1      19.365   2.301  29.609  1.00  0.00     0.027 C 
BRANCH   9  10
ATOM     10  C   UNL     1      19.136   3.549  30.417  1.00  0.00    -0.035 C 
ATOM     11  C   UNL     1      17.914   4.058  30.595  1.00  0.00     0.004 C 
ENDBRANCH   9  10
ENDBRANCH   8   9
ENDBRANCH   7   8
ENDBRANCH   1   7
TORSDOF 7
ENDMDL
MODEL 3
REMARK VINA RESULT:    -2.685      3.319      5.534
REMARK INTER + INTRA:          -4.069
REMARK INTER:                  -3.721
REMARK INTRA:                  -0.349
REMARK UNBOUND:                -0.286
REMARK SMILES C=CCCCCCCC(=O)[O-]
REMARK SMILES IDX 6 1 7 2 8 3 9 4 10 5 11 6 5 7 4 8 3 9 2 10 1 11
REMARK H PARENT
REMARK Flexibility Score: inf
ROOT
ATOM      1  C   UNL     1      19.019   1.601  25.814  1.00  0.00     0.000 C 
ENDROOT
BRANCH   1   2
ATOM      2  C   UNL     1      19.140   1.500  27.346  1.00  0.00     0.006 C 
BRANCH   2   3
ATOM      3  C   UNL     1      18.719   2.774  28.096  1.00  0.00     0.053 C 
BRANCH   3   4
ATOM      4  C   UNL     1      19.243   2.797  29.500  1.00  0.00     0.041 C 
ATOM      5  O   UNL     1      20.158   2.004  29.847  1.00  0.00    -0.550 OA
ATOM      6  O   UNL     1      18.696   3.668  30.433  1.00  0.00    -0.550 OA
ENDBRANCH   3   4
ENDBRANCH   2   3
ENDBRANCH   1   2
BRANCH   1   7
ATOM      7  C   UNL     1      17.569   1.452  25.321  1.00  0.00     0.000 C 
BRANCH   7   8
ATOM      8  C   UNL     1      16.937   2.798  24.931  1.00  0.00     0.004 C 
BRANCH   8   9
ATOM      9  C   UNL     1      15.738   3.164  25.820  1.00  0.00     0.027 C 
BRANCH   9  10
ATOM     10  C   UNL     1      14.459   2.599  25.267  1.00  0.00    -0.035 C 
ATOM     11  C   UNL     1      13.851   3.139  24.208  1.00  0.00     0.004 C 
ENDBRANCH   9  10
ENDBRANCH   8   9
ENDBRANCH   7   8
ENDBRANCH   1   7
TORSDOF 7
ENDMDL
MODEL 4
REMARK VINA RESULT:    -2.589     14.938     16.110
REMARK INTER + INTRA:          -3.934
REMARK INTER:                  -3.602
REMARK INTRA:                  -0.333
REMARK UNBOUND:                -0.286
REMARK SMILES C=CCCCCCCC(=O)[O-]
REMARK SMILES IDX 6 1 7 2 8 3 9 4 10 5 11 6 5 7 4 8 3 9 2 10 1 11
REMARK H PARENT
REMARK Flexibility Score: inf
ROOT
ATOM      1  C   UNL     1      12.581  17.771  22.315  1.00  0.00     0.000 C 
ENDROOT
BRANCH   1   2
ATOM      2  C   UNL     1      12.656  18.093  20.811  1.00  0.00     0.006 C 
BRANCH   2   3
ATOM      3  C   UNL     1      12.967  16.880  19.920  1.00  0.00     0.053 C 
BRANCH   3   4
ATOM      4  C   UNL     1      11.770  15.998  19.736  1.00  0.00     0.041 C 
ATOM      5  O   UNL     1      10.875  16.310  18.907  1.00  0.00    -0.550 OA
ATOM      6  O   UNL     1      11.626  14.850  20.505  1.00  0.00    -0.550 OA
ENDBRANCH   3   4
ENDBRANCH   2   3
ENDBRANCH   1   2
BRANCH   1   7
ATOM      7  C   UNL     1      11.167  17.957  22.892  1.00  0.00     0.000 C 
BRANCH   7   8
ATOM      8  C   UNL     1      10.941  17.142  24.176  1.00  0.00     0.004 C 
BRANCH   8   9
ATOM      9  C   UNL     1      12.181  17.118  25.084  1.00  0.00     0.027 C 
BRANCH   9  10
ATOM     10  C   UNL     1      11.937  16.289  26.314  1.00  0.00    -0.035 C 
ATOM     11  C   UNL     1      11.020  16.631  27.223  1.00  0.00     0.004 C 
ENDBRANCH   9  10
ENDBRANCH   8   9
ENDBRANCH   7   8
ENDBRANCH   1   7
TORSDOF 7
ENDMDL
MODEL 5
REMARK VINA RESULT:    -2.529      3.307      5.991
REMARK INTER + INTRA:          -3.850
REMARK INTER:                  -3.565
REMARK INTRA:                  -0.284
REMARK UNBOUND:                -0.286
REMARK SMILES C=CCCCCCCC(=O)[O-]
REMARK SMILES IDX 6 1 7 2 8 3 9 4 10 5 11 6 5 7 4 8 3 9 2 10 1 11
REMARK H PARENT
REMARK Flexibility Score: inf
ROOT
ATOM      1  C   UNL     1      16.513   3.120  26.101  1.00  0.00     0.000 C 
ENDROOT
BRANCH   1   2
ATOM      2  C   UNL     1      17.594   2.662  25.104  1.00  0.00     0.006 C 
BRANCH   2   3
ATOM      3  C   UNL     1      18.137   1.249  25.368  1.00  0.00     0.053 C 
BRANCH   3   4
ATOM      4  C   UNL     1      19.336   1.266  26.266  1.00  0.00     0.041 C 
ATOM      5  O   UNL     1      19.210   1.559  27.485  1.00  0.00    -0.550 OA
ATOM      6  O   UNL     1      20.597   0.995  25.750  1.00  0.00    -0.550 OA
ENDBRANCH   3   4
ENDBRANCH   2   3
ENDBRANCH   1   2
BRANCH   1   7
ATOM      7  C   UNL     1      15.199   3.522  25.409  1.00  0.00     0.000 C 
BRANCH   7   8
ATOM      8  C   UNL     1      14.176   2.374  25.371  1.00  0.00     0.004 C 
BRANCH   8   9
ATOM      9  C   UNL     1      13.127   2.558  24.264  1.00  0.00     0.027 C 
BRANCH   9  10
ATOM     10  C   UNL     1      13.667   3.396  23.138  1.00  0.00    -0.035 C 
ATOM     11  C   UNL     1      13.065   4.523  22.748  1.00  0.00     0.004 C 
ENDBRANCH   9  10
ENDBRANCH   8   9
ENDBRANCH   7   8
ENDBRANCH   1   7
TORSDOF 7
ENDMDL
MODEL 6
REMARK VINA RESULT:    -2.127      1.325      2.422
REMARK INTER + INTRA:          -3.283
REMARK INTER:                  -2.944
REMARK INTRA:                  -0.339
REMARK UNBOUND:                -0.286
REMARK SMILES C=CCCCCCCC(=O)[O-]
REMARK SMILES IDX 6 1 7 2 8 3 9 4 10 5 11 6 5 7 4 8 3 9 2 10 1 11
REMARK H PARENT
REMARK Flexibility Score: inf
ROOT
ATOM      1  C   UNL     1      15.845   3.139  25.752  1.00  0.00     0.000 C 
ENDROOT
BRANCH   1   2
ATOM      2  C   UNL     1      14.720   2.212  25.254  1.00  0.00     0.006 C 
BRANCH   2   3
ATOM      3  C   UNL     1      13.430   2.945  24.853  1.00  0.00     0.053 C 
BRANCH   3   4
ATOM      4  C   UNL     1      13.503   3.487  23.458  1.00  0.00     0.041 C 
ATOM      5  O   UNL     1      13.146   4.671  23.220  1.00  0.00    -0.550 OA
ATOM      6  O   UNL     1      13.929   2.673  22.416  1.00  0.00    -0.550 OA
ENDBRANCH   3   4
ENDBRANCH   2   3
ENDBRANCH   1   2
BRANCH   1   7
ATOM      7  C   UNL     1      17.205   2.822  25.108  1.00  0.00     0.000 C 
BRANCH   7   8
ATOM      8  C   UNL     1      17.710   1.413  25.457  1.00  0.00     0.004 C 
BRANCH   8   9
ATOM      9  C   UNL     1      19.017   1.439  26.265  1.00  0.00     0.027 C 
BRANCH   9  10
ATOM     10  C   UNL     1      18.909   2.368  27.442  1.00  0.00    -0.035 C 
ATOM     11  C   UNL     1      19.226   1.977  28.679  1.00  0.00     0.004 C 
ENDBRANCH   9  10
ENDBRANCH   8   9
ENDBRANCH   7   8
ENDBRANCH   1   7
TORSDOF 7
ENDMDL
