MODEL 1
REMARK VINA RESULT:    -4.938      0.000      0.000
REMARK INTER + INTRA:          -5.296
REMARK INTER:                  -5.227
REMARK INTRA:                  -0.068
REMARK UNBOUND:                -0.068
REMARK SMILES CC(=O)c1cccc(C)c1
REMARK SMILES IDX 9 1 8 2 10 3 4 4 5 5 6 6 7 7 2 8 3 9 1 10
REMARK H PARENT
REMARK Flexibility Score: inf
ROOT
ATOM      1  C   UNL     1      19.524  15.650  20.660  1.00  0.00     0.044 C 
ATOM      2  C   UNL     1      19.946  14.328  20.089  1.00  0.00    -0.050 A 
ATOM      3  C   UNL     1      21.102  14.239  19.297  1.00  0.00     0.015 A 
ATOM      4  C   UNL     1      21.490  13.009  18.726  1.00  0.00     0.017 A 
ATOM      5  C   UNL     1      20.688  11.875  18.954  1.00  0.00     0.012 A 
ATOM      6  C   UNL     1      19.528  11.968  19.727  1.00  0.00     0.001 A 
ATOM      7  C   UNL     1      19.154  13.189  20.288  1.00  0.00     0.003 A 
ENDROOT
BRANCH   4   8
ATOM      8  C   UNL     1      22.717  12.895  17.891  1.00  0.00     0.159 C 
ATOM      9  O   UNL     1      23.852  13.021  18.427  1.00  0.00    -0.295 OA
ATOM     10  C   UNL     1      22.651  12.633  16.416  1.00  0.00     0.093 C 
ENDBRANCH   4   8
TORSDOF 1
ENDMDL
MODEL 2
REMARK VINA RESULT:    -4.612      2.060      4.236
REMARK INTER + INTRA:          -4.950
REMARK INTER:                  -4.875
REMARK INTRA:                  -0.074
REMARK UNBOUND:                -0.068
REMARK SMILES CC(=O)c1cccc(C)c1
REMARK SMILES IDX 9 1 8 2 10 3 4 4 5 5 6 6 7 7 2 8 3 9 1 10
REMARK H PARENT
REMARK Flexibility Score: inf
ROOT
ATOM      1  C   UNL     1      22.876  12.605  16.294  1.00  0.00     0.044 C 
ATOM      2  C   UNL     1      22.854  12.854  17.774  1.00  0.00    -0.050 A 
ATOM      3  C   UNL     1      21.754  13.498  18.364  1.00  0.00     0.015 A 
ATOM      4  C   UNL     1      21.737  13.770  19.748  1.00  0.00     0.017 A 
ATOM      5  C   UNL     1      22.850  13.395  20.524  1.00  0.00     0.012 A 
ATOM      6  C   UNL     1      23.951  12.771  19.933  1.00  0.00     0.001 A 
ATOM      7  C   UNL     1      23.957  12.507  18.564  1.00  0.00     0.003 A 
ENDROOT
BRANCH   4   8
ATOM      8  C   UNL     1      20.576  14.443  20.391  1.00  0.00     0.159 C 
ATOM      9  O   UNL     1      20.295  14.192  21.595  1.00  0.00    -0.295 OA
ATOM     10  C   UNL     1      19.716  15.422  19.648  1.00  0.00     0.093 C 
ENDBRANCH   4   8
TORSDOF 1
ENDMDL
MODEL 3
REMARK VINA RESULT:    -4.552      1.479      1.899
REMARK INTER + INTRA:          -4.886
REMARK INTER:                  -4.810
REMARK INTRA:                  -0.077
REMARK UNBOUND:                -0.068
REMARK SMILES CC(=O)c1cccc(C)c1
REMARK SMILES IDX 9 1 8 2 10 3 4 4 5 5 6 6 7 7 2 8 3 9 1 10
REMARK H PARENT
REMARK Flexibility Score: inf
ROOT
ATOM      1  C   UNL     1      19.512  15.193  19.891  1.00  0.00     0.044 C 
ATOM      2  C   UNL     1      20.813  14.460  20.038  1.00  0.00    -0.050 A 
ATOM      3  C   UNL     1      21.470  13.955  18.904  1.00  0.00     0.015 A 
ATOM      4  C   UNL     1      22.675  13.233  19.032  1.00  0.00     0.017 A 
ATOM      5  C   UNL     1      23.199  13.017  20.320  1.00  0.00     0.012 A 
ATOM      6  C   UNL     1      22.536  13.504  21.449  1.00  0.00     0.001 A 
ATOM      7  C   UNL     1      21.345  14.216  21.311  1.00  0.00     0.003 A 
ENDROOT
BRANCH   4   8
ATOM      8  C   UNL     1      23.388  12.699  17.840  1.00  0.00     0.159 C 
ATOM      9  O   UNL     1      24.568  12.269  17.958  1.00  0.00    -0.295 OA
ATOM     10  C   UNL     1      22.746  12.655  16.485  1.00  0.00     0.093 C 
ENDBRANCH   4   8
TORSDOF 1
ENDMDL
MODEL 4
REMARK VINA RESULT:    -4.396      3.589      5.774
REMARK INTER + INTRA:          -4.721
REMARK INTER:                  -4.650
REMARK INTRA:                  -0.071
REMARK UNBOUND:                -0.068
REMARK SMILES CC(=O)c1cccc(C)c1
REMARK SMILES IDX 9 1 8 2 10 3 4 4 5 5 6 6 7 7 2 8 3 9 1 10
REMARK H PARENT
REMARK Flexibility Score: inf
ROOT
ATOM      1  C   UNL     1      19.693  11.880  19.360  1.00  0.00     0.044 C 
ATOM      2  C   UNL     1      19.439  13.004  20.321  1.00  0.00    -0.050 A 
ATOM      3  C   UNL     1      18.500  12.850  21.354  1.00  0.00     0.015 A 
ATOM      4  C   UNL     1      18.226  13.911  22.242  1.00  0.00     0.017 A 
ATOM      5  C   UNL     1      18.903  15.133  22.064  1.00  0.00     0.012 A 
ATOM      6  C   UNL     1      19.823  15.291  21.024  1.00  0.00     0.001 A 
ATOM      7  C   UNL     1      20.086  14.235  20.152  1.00  0.00     0.003 A 
ENDROOT
BRANCH   4   8
ATOM      8  C   UNL     1      17.242  13.762  23.347  1.00  0.00     0.159 C 
ATOM      9  O   UNL     1      16.081  13.336  23.098  1.00  0.00    -0.295 OA
ATOM     10  C   UNL     1      17.585  14.105  24.767  1.00  0.00     0.093 C 
ENDBRANCH   4   8
TORSDOF 1
ENDMDL
MODEL 5
REMARK VINA RESULT:    -4.355      4.013      5.605
REMARK INTER + INTRA:          -4.678
REMARK INTER:                  -4.603
REMARK INTRA:                  -0.075
REMARK UNBOUND:                -0.068
REMARK SMILES CC(=O)c1cccc(C)c1
REMARK SMILES IDX 9 1 8 2 10 3 4 4 5 5 6 6 7 7 2 8 3 9 1 10
REMARK H PARENT
REMARK Flexibility Score: inf
ROOT
ATOM      1  C   UNL     1      19.851  15.584  19.597  1.00  0.00     0.044 C 
ATOM      2  C   UNL     1      19.087  14.712  20.549  1.00  0.00    -0.050 A 
ATOM      3  C   UNL     1      18.988  15.065  21.905  1.00  0.00     0.015 A 
ATOM      4  C   UNL     1      18.302  14.235  22.816  1.00  0.00     0.017 A 
ATOM      5  C   UNL     1      17.730  13.040  22.343  1.00  0.00     0.012 A 
ATOM      6  C   UNL     1      17.843  12.680  20.998  1.00  0.00     0.001 A 
ATOM      7  C   UNL     1      18.524  13.508  20.105  1.00  0.00     0.003 A 
ENDROOT
BRANCH   4   8
ATOM      8  C   UNL     1      18.181  14.599  24.254  1.00  0.00     0.159 C 
ATOM      9  O   UNL     1      17.222  14.145  24.936  1.00  0.00    -0.295 OA
ATOM     10  C   UNL     1      19.172  15.499  24.931  1.00  0.00     0.093 C 
ENDBRANCH   4   8
TORSDOF 1
ENDMDL
MODEL 6
REMARK VINA RESULT:    -4.326      1.660      2.162
REMARK INTER + INTRA:          -4.648
REMARK INTER:                  -4.571
REMARK INTRA:                  -0.077
REMARK UNBOUND:                -0.068
REMARK SMILES CC(=O)c1cccc(C)c1
REMARK SMILES IDX 9 1 8 2 10 3 4 4 5 5 6 6 7 7 2 8 3 9 1 10
REMARK H PARENT
REMARK Flexibility Score: inf
ROOT
ATOM      1  C   UNL     1      19.491  15.313  23.037  1.00  0.00     0.044 C 
ATOM      2  C   UNL     1      19.331  14.291  21.951  1.00  0.00    -0.050 A 
ATOM      3  C   UNL     1      20.358  14.090  21.015  1.00  0.00     0.015 A 
ATOM      4  C   UNL     1      20.206  13.157  19.968  1.00  0.00     0.017 A 
ATOM      5  C   UNL     1      18.998  12.441  19.872  1.00  0.00     0.012 A 
ATOM      6  C   UNL     1      17.969  12.654  20.792  1.00  0.00     0.001 A 
ATOM      7  C   UNL     1      18.131  13.579  21.824  1.00  0.00     0.003 A 
ENDROOT
BRANCH   4   8
ATOM      8  C   UNL     1      21.289  12.925  18.974  1.00  0.00     0.159 C 
ATOM      9  O   UNL     1      21.229  11.927  18.205  1.00  0.00    -0.295 OA
ATOM     10  C   UNL     1      22.465  13.848  18.852  1.00  0.00     0.093 C 
ENDBRANCH   4   8
TORSDOF 1
ENDMDL
MODEL 7
REMARK VINA RESULT:    -4.295      2.296      4.359
REMARK INTER + INTRA:          -4.615
REMARK INTER:                  -4.540
REMARK INTRA:                  -0.074
REMARK UNBOUND:                -0.068
REMARK SMILES CC(=O)c1cccc(C)c1
REMARK SMILES IDX 9 1 8 2 10 3 4 4 5 5 6 6 7 7 2 8 3 9 1 10
REMARK H PARENT
REMARK Flexibility Score: inf
ROOT
ATOM      1  C   UNL     1      22.510  12.258  16.571  1.00  0.00     0.044 C 
ATOM      2  C   UNL     1      22.284  12.626  18.008  1.00  0.00    -0.050 A 
ATOM      3  C   UNL     1      21.081  12.281  18.644  1.00  0.00     0.015 A 
ATOM      4  C   UNL     1      20.842  12.652  19.984  1.00  0.00     0.017 A 
ATOM      5  C   UNL     1      21.829  13.388  20.667  1.00  0.00     0.012 A 
ATOM      6  C   UNL     1      23.018  13.747  20.028  1.00  0.00     0.001 A 
ATOM      7  C   UNL     1      23.244  13.374  18.703  1.00  0.00     0.003 A 
ENDROOT
BRANCH   4   8
ATOM      8  C   UNL     1      19.576  12.286  20.676  1.00  0.00     0.159 C 
ATOM      9  O   UNL     1      18.486  12.318  20.043  1.00  0.00    -0.295 OA
ATOM     10  C   UNL     1      19.551  11.875  22.118  1.00  0.00     0.093 C 
ENDBRANCH   4   8
TORSDOF 1
ENDMDL
MODEL 8
REMARK VINA RESULT:    -4.241      2.628      4.446
REMARK INTER + INTRA:          -4.557
REMARK INTER:                  -4.478
REMARK INTRA:                  -0.079
REMARK UNBOUND:                -0.068
REMARK SMILES CC(=O)c1cccc(C)c1
REMARK SMILES IDX 9 1 8 2 10 3 4 4 5 5 6 6 7 7 2 8 3 9 1 10
REMARK H PARENT
REMARK Flexibility Score: inf
ROOT
ATOM      1  C   UNL     1      22.787  13.811  19.444  1.00  0.00     0.044 C 
ATOM      2  C   UNL     1      21.385  13.390  19.775  1.00  0.00    -0.050 A 
ATOM      3  C   UNL     1      20.668  14.055  20.783  1.00  0.00     0.015 A 
ATOM      4  C   UNL     1      19.363  13.646  21.127  1.00  0.00     0.017 A 
ATOM      5  C   UNL     1      18.798  12.549  20.451  1.00  0.00     0.012 A 
ATOM      6  C   UNL     1      19.519  11.875  19.461  1.00  0.00     0.001 A 
ATOM      7  C   UNL     1      20.809  12.289  19.128  1.00  0.00     0.003 A 
ENDROOT
BRANCH   4   8
ATOM      8  C   UNL     1      18.586  14.346  22.186  1.00  0.00     0.159 C 
ATOM      9  O   UNL     1      18.982  15.463  22.618  1.00  0.00    -0.295 OA
ATOM     10  C   UNL     1      17.332  13.762  22.767  1.00  0.00     0.093 C 
ENDBRANCH   4   8
TORSDOF 1
ENDMDL
MODEL 9
REMARK VINA RESULT:    -4.225      2.945      3.996
REMARK INTER + INTRA:          -4.541
REMARK INTER:                  -4.474
REMARK INTRA:                  -0.067
REMARK UNBOUND:                -0.068
REMARK SMILES CC(=O)c1cccc(C)c1
REMARK SMILES IDX 9 1 8 2 10 3 4 4 5 5 6 6 7 7 2 8 3 9 1 10
REMARK H PARENT
REMARK Flexibility Score: inf
ROOT
ATOM      1  C   UNL     1      18.788  15.224  24.943  1.00  0.00     0.044 C 
ATOM      2  C   UNL     1      18.554  14.546  23.625  1.00  0.00    -0.050 A 
ATOM      3  C   UNL     1      19.269  14.952  22.486  1.00  0.00     0.015 A 
ATOM      4  C   UNL     1      19.033  14.346  21.234  1.00  0.00     0.017 A 
ATOM      5  C   UNL     1      18.057  13.336  21.145  1.00  0.00     0.012 A 
ATOM      6  C   UNL     1      17.334  12.944  22.275  1.00  0.00     0.001 A 
ATOM      7  C   UNL     1      17.576  13.550  23.508  1.00  0.00     0.003 A 
ENDROOT
BRANCH   4   8
ATOM      8  C   UNL     1      19.787  14.759  20.020  1.00  0.00     0.159 C 
ATOM      9  O   UNL     1      19.447  15.800  19.394  1.00  0.00    -0.295 OA
ATOM     10  C   UNL     1      20.954  13.969  19.505  1.00  0.00     0.093 C 
ENDBRANCH   4   8
TORSDOF 1
ENDMDL
