MODEL 1
REMARK VINA RESULT:    11.890      0.000      0.000
REMARK INTER + INTRA:          25.573
REMARK INTER:                  25.792
REMARK INTRA:                  -0.219
REMARK UNBOUND:                -0.219
REMARK SMILES CCCCCCCCCCCCCCCCCCCCCC(=O)[O-]
REMARK SMILES IDX 12 1 11 2 10 3 9 4 8 5 7 6 6 7 5 8 4 9 3 10 2 11 1 12 13 13
REMARK SMILES IDX 14 14 15 15 16 16 17 17 18 18 19 19 20 20 21 21 22 22 23 23
REMARK SMILES IDX 24 24
REMARK H PARENT
REMARK Flexibility Score: inf
ROOT
ATOM      1  C   UNL     1      -7.537  29.003 -12.496  1.00  0.00     0.000 C 
ENDROOT
BRANCH   1   2
ATOM      2  C   UNL     1      -8.348  30.014 -13.322  1.00  0.00     0.000 C 
BRANCH   2   3
ATOM      3  C   UNL     1      -8.251  29.756 -14.836  1.00  0.00     0.000 C 
BRANCH   3   4
ATOM      4  C   UNL     1      -9.415  30.381 -15.628  1.00  0.00    -0.000 C 
BRANCH   4   5
ATOM      5  C   UNL     1      -9.065  30.859 -17.051  1.00  0.00    -0.000 C 
BRANCH   5   6
ATOM      6  C   UNL     1      -8.790  29.699 -18.022  1.00  0.00    -0.000 C 
BRANCH   6   7
ATOM      7  C   UNL     1      -7.655  28.774 -17.546  1.00  0.00    -0.000 C 
BRANCH   7   8
ATOM      8  C   UNL     1      -6.381  28.787 -18.416  1.00  0.00    -0.000 C 
BRANCH   8   9
ATOM      9  C   UNL     1      -6.482  28.009 -19.740  1.00  0.00    -0.000 C 
BRANCH   9  10
ATOM     10  C   UNL     1      -6.307  28.906 -20.975  1.00  0.00    -0.000 C 
BRANCH  10  11
ATOM     11  C   UNL     1      -5.441  28.214 -22.034  1.00  0.00    -0.003 C 
ATOM     12  C   UNL     1      -6.303  27.583 -23.125  1.00  0.00     0.004 C 
ENDBRANCH  10  11
ENDBRANCH   9  10
ENDBRANCH   8   9
ENDBRANCH   7   8
ENDBRANCH   6   7
ENDBRANCH   5   6
ENDBRANCH   4   5
ENDBRANCH   3   4
ENDBRANCH   2   3
ENDBRANCH   1   2
BRANCH   1  13
ATOM     13  C   UNL     1      -7.865  29.059 -10.995  1.00  0.00     0.000 C 
BRANCH  13  14
ATOM     14  C   UNL     1      -7.591  27.706 -10.322  1.00  0.00     0.000 C 
BRANCH  14  15
ATOM     15  C   UNL     1      -8.862  27.033  -9.769  1.00  0.00     0.000 C 
BRANCH  15  16
ATOM     16  C   UNL     1      -8.642  25.715  -8.997  1.00  0.00     0.000 C 
BRANCH  16  17
ATOM     17  C   UNL     1      -8.351  25.870  -7.488  1.00  0.00     0.000 C 
BRANCH  17  18
ATOM     18  C   UNL     1      -7.994  24.552  -6.776  1.00  0.00     0.000 C 
BRANCH  18  19
ATOM     19  C   UNL     1      -8.599  24.421  -5.362  1.00  0.00     0.000 C 
BRANCH  19  20
ATOM     20  C   UNL     1      -9.057  25.773  -4.778  1.00  0.00     0.006 C 
BRANCH  20  21
ATOM     21  C   UNL     1     -10.586  25.932  -4.743  1.00  0.00     0.053 C 
BRANCH  21  22
ATOM     22  C   UNL     1     -10.991  27.370  -4.622  1.00  0.00     0.041 C 
ATOM     23  O   UNL     1     -12.204  27.679  -4.496  1.00  0.00    -0.550 OA
ATOM     24  O   UNL     1     -10.023  28.366  -4.616  1.00  0.00    -0.550 OA
ENDBRANCH  21  22
ENDBRANCH  20  21
ENDBRANCH  19  20
ENDBRANCH  18  19
ENDBRANCH  17  18
ENDBRANCH  16  17
ENDBRANCH  15  16
ENDBRANCH  14  15
ENDBRANCH  13  14
ENDBRANCH   1  13
TORSDOF 20
ENDMDL
MODEL 2
REMARK VINA RESULT:    12.538      0.637      1.642
REMARK INTER + INTRA:          26.979
REMARK INTER:                  27.502
REMARK INTRA:                  -0.523
REMARK UNBOUND:                -0.219
REMARK SMILES CCCCCCCCCCCCCCCCCCCCCC(=O)[O-]
REMARK SMILES IDX 12 1 11 2 10 3 9 4 8 5 7 6 6 7 5 8 4 9 3 10 2 11 1 12 13 13
REMARK SMILES IDX 14 14 15 15 16 16 17 17 18 18 19 19 20 20 21 21 22 22 23 23
REMARK SMILES IDX 24 24
REMARK H PARENT
REMARK Flexibility Score: inf
ROOT
ATOM      1  C   UNL     1      -8.533  29.934 -13.603  1.00  0.00     0.000 C 
ENDROOT
BRANCH   1   2
ATOM      2  C   UNL     1      -8.300  29.740 -15.111  1.00  0.00     0.000 C 
BRANCH   2   3
ATOM      3  C   UNL     1      -9.314  30.514 -15.972  1.00  0.00     0.000 C 
BRANCH   3   4
ATOM      4  C   UNL     1      -9.020  30.416 -17.481  1.00  0.00    -0.000 C 
BRANCH   4   5
ATOM      5  C   UNL     1      -8.493  29.051 -17.964  1.00  0.00    -0.000 C 
BRANCH   5   6
ATOM      6  C   UNL     1      -6.968  28.912 -17.825  1.00  0.00    -0.000 C 
BRANCH   6   7
ATOM      7  C   UNL     1      -6.319  28.192 -19.020  1.00  0.00    -0.000 C 
BRANCH   7   8
ATOM      8  C   UNL     1      -6.911  28.537 -20.403  1.00  0.00    -0.000 C 
BRANCH   8   9
ATOM      9  C   UNL     1      -6.027  29.433 -21.289  1.00  0.00    -0.000 C 
BRANCH   9  10
ATOM     10  C   UNL     1      -5.326  28.656 -22.413  1.00  0.00    -0.000 C 
BRANCH  10  11
ATOM     11  C   UNL     1      -6.119  27.396 -22.783  1.00  0.00    -0.003 C 
ATOM     12  C   UNL     1      -5.185  26.237 -23.121  1.00  0.00     0.004 C 
ENDBRANCH  10  11
ENDBRANCH   9  10
ENDBRANCH   8   9
ENDBRANCH   7   8
ENDBRANCH   6   7
ENDBRANCH   5   6
ENDBRANCH   4   5
ENDBRANCH   3   4
ENDBRANCH   2   3
ENDBRANCH   1   2
BRANCH   1  13
ATOM     13  C   UNL     1      -7.550  29.129 -12.739  1.00  0.00     0.000 C 
BRANCH  13  14
ATOM     14  C   UNL     1      -7.891  29.265 -11.248  1.00  0.00     0.000 C 
BRANCH  14  15
ATOM     15  C   UNL     1      -7.607  27.984 -10.440  1.00  0.00     0.000 C 
BRANCH  15  16
ATOM     16  C   UNL     1      -8.849  27.197  -9.971  1.00  0.00     0.000 C 
BRANCH  16  17
ATOM     17  C   UNL     1      -8.571  26.044  -8.982  1.00  0.00     0.000 C 
BRANCH  17  18
ATOM     18  C   UNL     1      -9.005  26.336  -7.533  1.00  0.00     0.000 C 
BRANCH  18  19
ATOM     19  C   UNL     1      -8.521  25.284  -6.512  1.00  0.00     0.000 C 
BRANCH  19  20
ATOM     20  C   UNL     1      -8.830  25.677  -5.054  1.00  0.00     0.006 C 
BRANCH  20  21
ATOM     21  C   UNL     1     -10.336  25.767  -4.755  1.00  0.00     0.053 C 
BRANCH  21  22
ATOM     22  C   UNL     1     -10.782  27.187  -4.573  1.00  0.00     0.041 C 
ATOM     23  O   UNL     1     -12.007  27.462  -4.494  1.00  0.00    -0.550 OA
ATOM     24  O   UNL     1      -9.839  28.200  -4.456  1.00  0.00    -0.550 OA
ENDBRANCH  21  22
ENDBRANCH  20  21
ENDBRANCH  19  20
ENDBRANCH  18  19
ENDBRANCH  17  18
ENDBRANCH  16  17
ENDBRANCH  15  16
ENDBRANCH  14  15
ENDBRANCH  13  14
ENDBRANCH   1  13
TORSDOF 20
ENDMDL
MODEL 3
REMARK VINA RESULT:    13.096      5.337     12.883
REMARK INTER + INTRA:          28.189
REMARK INTER:                  28.264
REMARK INTRA:                  -0.075
REMARK UNBOUND:                -0.219
REMARK SMILES CCCCCCCCCCCCCCCCCCCCCC(=O)[O-]
REMARK SMILES IDX 12 1 11 2 10 3 9 4 8 5 7 6 6 7 5 8 4 9 3 10 2 11 1 12 13 13
REMARK SMILES IDX 14 14 15 15 16 16 17 17 18 18 19 19 20 20 21 21 22 22 23 23
REMARK SMILES IDX 24 24
REMARK H PARENT
REMARK Flexibility Score: inf
ROOT
ATOM      1  C   UNL     1      -8.650  29.687 -12.613  1.00  0.00     0.000 C 
ENDROOT
BRANCH   1   2
ATOM      2  C   UNL     1      -7.464  29.214 -11.756  1.00  0.00     0.000 C 
BRANCH   2   3
ATOM      3  C   UNL     1      -7.893  28.762 -10.349  1.00  0.00     0.000 C 
BRANCH   3   4
ATOM      4  C   UNL     1      -7.888  27.231 -10.182  1.00  0.00    -0.000 C 
BRANCH   4   5
ATOM      5  C   UNL     1      -9.099  26.644  -9.430  1.00  0.00    -0.000 C 
BRANCH   5   6
ATOM      6  C   UNL     1      -8.696  25.686  -8.297  1.00  0.00    -0.000 C 
BRANCH   6   7
ATOM      7  C   UNL     1      -8.958  26.269  -6.897  1.00  0.00    -0.000 C 
BRANCH   7   8
ATOM      8  C   UNL     1      -8.932  25.249  -5.739  1.00  0.00    -0.000 C 
BRANCH   8   9
ATOM      9  C   UNL     1      -9.741  25.651  -4.493  1.00  0.00    -0.000 C 
BRANCH   9  10
ATOM     10  C   UNL     1     -10.404  27.030  -4.631  1.00  0.00    -0.000 C 
BRANCH  10  11
ATOM     11  C   UNL     1     -11.881  26.889  -5.019  1.00  0.00    -0.003 C 
ATOM     12  C   UNL     1     -12.722  28.006  -4.405  1.00  0.00     0.004 C 
ENDBRANCH  10  11
ENDBRANCH   9  10
ENDBRANCH   8   9
ENDBRANCH   7   8
ENDBRANCH   6   7
ENDBRANCH   5   6
ENDBRANCH   4   5
ENDBRANCH   3   4
ENDBRANCH   2   3
ENDBRANCH   1   2
BRANCH   1  13
ATOM     13  C   UNL     1      -8.208  30.442 -13.876  1.00  0.00     0.000 C 
BRANCH  13  14
ATOM     14  C   UNL     1      -9.002  29.971 -15.104  1.00  0.00     0.000 C 
BRANCH  14  15
ATOM     15  C   UNL     1      -9.171  31.065 -16.176  1.00  0.00     0.000 C 
BRANCH  15  16
ATOM     16  C   UNL     1      -9.495  30.564 -17.599  1.00  0.00     0.000 C 
BRANCH  16  17
ATOM     17  C   UNL     1      -8.672  29.348 -18.080  1.00  0.00     0.000 C 
BRANCH  17  18
ATOM     18  C   UNL     1      -7.434  29.043 -17.217  1.00  0.00     0.000 C 
BRANCH  18  19
ATOM     19  C   UNL     1      -6.164  28.725 -18.035  1.00  0.00     0.000 C 
BRANCH  19  20
ATOM     20  C   UNL     1      -6.477  28.094 -19.406  1.00  0.00     0.006 C 
BRANCH  20  21
ATOM     21  C   UNL     1      -6.062  28.980 -20.592  1.00  0.00     0.053 C 
BRANCH  21  22
ATOM     22  C   UNL     1      -5.993  28.200 -21.870  1.00  0.00     0.041 C 
ATOM     23  O   UNL     1      -4.921  28.152 -22.527  1.00  0.00    -0.550 OA
ATOM     24  O   UNL     1      -7.107  27.500 -22.317  1.00  0.00    -0.550 OA
ENDBRANCH  21  22
ENDBRANCH  20  21
ENDBRANCH  19  20
ENDBRANCH  18  19
ENDBRANCH  17  18
ENDBRANCH  16  17
ENDBRANCH  15  16
ENDBRANCH  14  15
ENDBRANCH  13  14
ENDBRANCH   1  13
TORSDOF 20
ENDMDL
MODEL 4
REMARK VINA RESULT:    13.183      0.939      2.055
REMARK INTER + INTRA:          28.377
REMARK INTER:                  29.490
REMARK INTRA:                  -1.113
REMARK UNBOUND:                -0.219
REMARK SMILES CCCCCCCCCCCCCCCCCCCCCC(=O)[O-]
REMARK SMILES IDX 12 1 11 2 10 3 9 4 8 5 7 6 6 7 5 8 4 9 3 10 2 11 1 12 13 13
REMARK SMILES IDX 14 14 15 15 16 16 17 17 18 18 19 19 20 20 21 21 22 22 23 23
REMARK SMILES IDX 24 24
REMARK H PARENT
REMARK Flexibility Score: inf
ROOT
ATOM      1  C   UNL     1      -9.295  30.424 -14.378  1.00  0.00     0.000 C 
ENDROOT
BRANCH   1   2
ATOM      2  C   UNL     1      -8.873  31.698 -15.129  1.00  0.00     0.000 C 
BRANCH   2   3
ATOM      3  C   UNL     1      -9.008  31.557 -16.656  1.00  0.00     0.000 C 
BRANCH   3   4
ATOM      4  C   UNL     1      -9.535  30.176 -17.088  1.00  0.00    -0.000 C 
BRANCH   4   5
ATOM      5  C   UNL     1      -8.583  29.356 -17.980  1.00  0.00    -0.000 C 
BRANCH   5   6
ATOM      6  C   UNL     1      -7.267  28.988 -17.275  1.00  0.00    -0.000 C 
BRANCH   6   7
ATOM      7  C   UNL     1      -6.272  28.265 -18.201  1.00  0.00    -0.000 C 
BRANCH   7   8
ATOM      8  C   UNL     1      -6.061  28.916 -19.584  1.00  0.00    -0.000 C 
BRANCH   8   9
ATOM      9  C   UNL     1      -6.346  28.002 -20.789  1.00  0.00    -0.000 C 
BRANCH   9  10
ATOM     10  C   UNL     1      -6.219  28.731 -22.135  1.00  0.00    -0.000 C 
BRANCH  10  11
ATOM     11  C   UNL     1      -5.112  28.108 -22.992  1.00  0.00    -0.003 C 
ATOM     12  C   UNL     1      -5.059  26.593 -22.809  1.00  0.00     0.004 C 
ENDBRANCH  10  11
ENDBRANCH   9  10
ENDBRANCH   8   9
ENDBRANCH   7   8
ENDBRANCH   6   7
ENDBRANCH   5   6
ENDBRANCH   4   5
ENDBRANCH   3   4
ENDBRANCH   2   3
ENDBRANCH   1   2
BRANCH   1  13
ATOM     13  C   UNL     1      -8.191  29.884 -13.455  1.00  0.00     0.000 C 
BRANCH  13  14
ATOM     14  C   UNL     1      -8.775  29.427 -12.110  1.00  0.00     0.000 C 
BRANCH  14  15
ATOM     15  C   UNL     1      -7.740  28.733 -11.203  1.00  0.00     0.000 C 
BRANCH  15  16
ATOM     16  C   UNL     1      -8.202  28.445  -9.758  1.00  0.00     0.000 C 
BRANCH  16  17
ATOM     17  C   UNL     1      -8.642  26.991  -9.478  1.00  0.00     0.000 C 
BRANCH  17  18
ATOM     18  C   UNL     1      -9.332  26.791  -8.116  1.00  0.00     0.000 C 
BRANCH  18  19
ATOM     19  C   UNL     1      -8.576  25.838  -7.166  1.00  0.00     0.000 C 
BRANCH  19  20
ATOM     20  C   UNL     1      -8.975  26.024  -5.688  1.00  0.00     0.006 C 
BRANCH  20  21
ATOM     21  C   UNL     1     -10.492  26.161  -5.481  1.00  0.00     0.053 C 
BRANCH  21  22
ATOM     22  C   UNL     1     -10.843  27.442  -4.786  1.00  0.00     0.041 C 
ATOM     23  O   UNL     1      -9.956  28.306  -4.561  1.00  0.00    -0.550 OA
ATOM     24  O   UNL     1     -12.159  27.693  -4.418  1.00  0.00    -0.550 OA
ENDBRANCH  21  22
ENDBRANCH  20  21
ENDBRANCH  19  20
ENDBRANCH  18  19
ENDBRANCH  17  18
ENDBRANCH  16  17
ENDBRANCH  15  16
ENDBRANCH  14  15
ENDBRANCH  13  14
ENDBRANCH   1  13
TORSDOF 20
ENDMDL
MODEL 5
REMARK VINA RESULT:    13.183      5.252     12.823
REMARK INTER + INTRA:          28.378
REMARK INTER:                  29.220
REMARK INTRA:                  -0.842
REMARK UNBOUND:                -0.219
REMARK SMILES CCCCCCCCCCCCCCCCCCCCCC(=O)[O-]
REMARK SMILES IDX 12 1 11 2 10 3 9 4 8 5 7 6 6 7 5 8 4 9 3 10 2 11 1 12 13 13
REMARK SMILES IDX 14 14 15 15 16 16 17 17 18 18 19 19 20 20 21 21 22 22 23 23
REMARK SMILES IDX 24 24
REMARK H PARENT
REMARK Flexibility Score: inf
ROOT
ATOM      1  C   UNL     1      -8.763  29.568 -11.944  1.00  0.00     0.000 C 
ENDROOT
BRANCH   1   2
ATOM      2  C   UNL     1      -7.926  29.044 -10.765  1.00  0.00     0.000 C 
BRANCH   2   3
ATOM      3  C   UNL     1      -7.897  27.507 -10.695  1.00  0.00     0.000 C 
BRANCH   3   4
ATOM      4  C   UNL     1      -8.768  26.940  -9.559  1.00  0.00    -0.000 C 
BRANCH   4   5
ATOM      5  C   UNL     1      -8.261  25.629  -8.928  1.00  0.00    -0.000 C 
BRANCH   5   6
ATOM      6  C   UNL     1      -8.847  25.369  -7.530  1.00  0.00    -0.000 C 
BRANCH   6   7
ATOM      7  C   UNL     1      -7.830  24.743  -6.559  1.00  0.00    -0.000 C 
BRANCH   7   8
ATOM      8  C   UNL     1      -8.170  24.885  -5.061  1.00  0.00    -0.000 C 
BRANCH   8   9
ATOM      9  C   UNL     1      -9.564  25.464  -4.757  1.00  0.00    -0.000 C 
BRANCH   9  10
ATOM     10  C   UNL     1      -9.588  27.000  -4.771  1.00  0.00    -0.000 C 
BRANCH  10  11
ATOM     11  C   UNL     1     -10.945  27.529  -4.292  1.00  0.00    -0.003 C 
ATOM     12  C   UNL     1     -12.095  26.842  -5.026  1.00  0.00     0.004 C 
ENDBRANCH  10  11
ENDBRANCH   9  10
ENDBRANCH   8   9
ENDBRANCH   7   8
ENDBRANCH   6   7
ENDBRANCH   5   6
ENDBRANCH   4   5
ENDBRANCH   3   4
ENDBRANCH   2   3
ENDBRANCH   1   2
BRANCH   1  13
ATOM     13  C   UNL     1      -7.903  29.992 -13.144  1.00  0.00     0.000 C 
BRANCH  13  14
ATOM     14  C   UNL     1      -8.647  29.753 -14.466  1.00  0.00     0.000 C 
BRANCH  14  15
ATOM     15  C   UNL     1      -9.247  31.039 -15.067  1.00  0.00     0.000 C 
BRANCH  15  16
ATOM     16  C   UNL     1      -9.211  31.140 -16.607  1.00  0.00     0.000 C 
BRANCH  16  17
ATOM     17  C   UNL     1      -9.528  29.833 -17.366  1.00  0.00     0.000 C 
BRANCH  17  18
ATOM     18  C   UNL     1      -8.530  29.498 -18.490  1.00  0.00     0.000 C 
BRANCH  18  19
ATOM     19  C   UNL     1      -7.260  28.768 -18.002  1.00  0.00     0.000 C 
BRANCH  19  20
ATOM     20  C   UNL     1      -6.128  28.770 -19.048  1.00  0.00     0.006 C 
BRANCH  20  21
ATOM     21  C   UNL     1      -6.350  27.760 -20.186  1.00  0.00     0.053 C 
BRANCH  21  22
ATOM     22  C   UNL     1      -6.100  28.375 -21.530  1.00  0.00     0.041 C 
ATOM     23  O   UNL     1      -6.666  29.452 -21.850  1.00  0.00    -0.550 OA
ATOM     24  O   UNL     1      -5.215  27.772 -22.415  1.00  0.00    -0.550 OA
ENDBRANCH  21  22
ENDBRANCH  20  21
ENDBRANCH  19  20
ENDBRANCH  18  19
ENDBRANCH  17  18
ENDBRANCH  16  17
ENDBRANCH  15  16
ENDBRANCH  14  15
ENDBRANCH  13  14
ENDBRANCH   1  13
TORSDOF 20
ENDMDL
MODEL 6
REMARK VINA RESULT:    13.204      2.218      2.834
REMARK INTER + INTRA:          28.423
REMARK INTER:                  29.415
REMARK INTRA:                  -0.992
REMARK UNBOUND:                -0.219
REMARK SMILES CCCCCCCCCCCCCCCCCCCCCC(=O)[O-]
REMARK SMILES IDX 12 1 11 2 10 3 9 4 8 5 7 6 6 7 5 8 4 9 3 10 2 11 1 12 13 13
REMARK SMILES IDX 14 14 15 15 16 16 17 17 18 18 19 19 20 20 21 21 22 22 23 23
REMARK SMILES IDX 24 24
REMARK H PARENT
REMARK Flexibility Score: inf
ROOT
ATOM      1  C   UNL     1      -8.655  30.132 -13.328  1.00  0.00     0.000 C 
ENDROOT
BRANCH   1   2
ATOM      2  C   UNL     1      -8.897  30.020 -14.842  1.00  0.00     0.000 C 
BRANCH   2   3
ATOM      3  C   UNL     1      -9.026  31.393 -15.525  1.00  0.00     0.000 C 
BRANCH   3   4
ATOM      4  C   UNL     1      -9.404  31.291 -17.014  1.00  0.00    -0.000 C 
BRANCH   4   5
ATOM      5  C   UNL     1      -9.567  29.858 -17.558  1.00  0.00    -0.000 C 
BRANCH   5   6
ATOM      6  C   UNL     1      -8.419  29.435 -18.490  1.00  0.00    -0.000 C 
BRANCH   6   7
ATOM      7  C   UNL     1      -7.251  28.771 -17.739  1.00  0.00    -0.000 C 
BRANCH   7   8
ATOM      8  C   UNL     1      -5.971  28.546 -18.571  1.00  0.00    -0.000 C 
BRANCH   8   9
ATOM      9  C   UNL     1      -6.073  28.950 -20.053  1.00  0.00    -0.000 C 
BRANCH   9  10
ATOM     10  C   UNL     1      -6.214  27.742 -20.993  1.00  0.00    -0.000 C 
BRANCH  10  11
ATOM     11  C   UNL     1      -6.232  28.190 -22.459  1.00  0.00    -0.003 C 
ATOM     12  C   UNL     1      -4.877  27.960 -23.123  1.00  0.00     0.004 C 
ENDBRANCH  10  11
ENDBRANCH   9  10
ENDBRANCH   8   9
ENDBRANCH   7   8
ENDBRANCH   6   7
ENDBRANCH   5   6
ENDBRANCH   4   5
ENDBRANCH   3   4
ENDBRANCH   2   3
ENDBRANCH   1   2
BRANCH   1  13
ATOM     13  C   UNL     1      -7.721  29.036 -12.791  1.00  0.00     0.000 C 
BRANCH  13  14
ATOM     14  C   UNL     1      -7.585  29.129 -11.264  1.00  0.00     0.000 C 
BRANCH  14  15
ATOM     15  C   UNL     1      -7.485  27.754 -10.577  1.00  0.00     0.000 C 
BRANCH  15  16
ATOM     16  C   UNL     1      -8.607  27.424  -9.570  1.00  0.00     0.000 C 
BRANCH  16  17
ATOM     17  C   UNL     1      -8.841  25.921  -9.304  1.00  0.00     0.000 C 
BRANCH  17  18
ATOM     18  C   UNL     1      -8.167  25.393  -8.023  1.00  0.00     0.000 C 
BRANCH  18  19
ATOM     19  C   UNL     1      -8.948  25.709  -6.730  1.00  0.00     0.000 C 
BRANCH  19  20
ATOM     20  C   UNL     1      -8.312  25.076  -5.476  1.00  0.00     0.006 C 
BRANCH  20  21
ATOM     21  C   UNL     1      -7.352  23.920  -5.799  1.00  0.00     0.053 C 
BRANCH  21  22
ATOM     22  C   UNL     1      -5.966  24.193  -5.298  1.00  0.00     0.041 C 
ATOM     23  O   UNL     1      -5.417  23.405  -4.485  1.00  0.00    -0.550 OA
ATOM     24  O   UNL     1      -5.269  25.303  -5.758  1.00  0.00    -0.550 OA
ENDBRANCH  21  22
ENDBRANCH  20  21
ENDBRANCH  19  20
ENDBRANCH  18  19
ENDBRANCH  17  18
ENDBRANCH  16  17
ENDBRANCH  15  16
ENDBRANCH  14  15
ENDBRANCH  13  14
ENDBRANCH   1  13
TORSDOF 20
ENDMDL
MODEL 7
REMARK VINA RESULT:    14.806      4.028     11.985
REMARK INTER + INTRA:          31.898
REMARK INTER:                  32.674
REMARK INTRA:                  -0.776
REMARK UNBOUND:                -0.219
REMARK SMILES CCCCCCCCCCCCCCCCCCCCCC(=O)[O-]
REMARK SMILES IDX 12 1 11 2 10 3 9 4 8 5 7 6 6 7 5 8 4 9 3 10 2 11 1 12 13 13
REMARK SMILES IDX 14 14 15 15 16 16 17 17 18 18 19 19 20 20 21 21 22 22 23 23
REMARK SMILES IDX 24 24
REMARK H PARENT
REMARK Flexibility Score: inf
ROOT
ATOM      1  C   UNL     1      -9.109  23.890 -11.249  1.00  0.00     0.000 C 
ENDROOT
BRANCH   1   2
ATOM      2  C   UNL     1      -9.806  22.606 -10.772  1.00  0.00     0.000 C 
BRANCH   2   3
ATOM      3  C   UNL     1      -9.112  21.972  -9.553  1.00  0.00     0.000 C 
BRANCH   3   4
ATOM      4  C   UNL     1      -9.116  22.889  -8.316  1.00  0.00    -0.000 C 
BRANCH   4   5
ATOM      5  C   UNL     1      -8.972  22.170  -6.960  1.00  0.00    -0.000 C 
BRANCH   5   6
ATOM      6  C   UNL     1      -7.757  22.653  -6.150  1.00  0.00    -0.000 C 
BRANCH   6   7
ATOM      7  C   UNL     1      -7.599  24.184  -6.161  1.00  0.00    -0.000 C 
BRANCH   7   8
ATOM      8  C   UNL     1      -8.241  24.926  -4.971  1.00  0.00    -0.000 C 
BRANCH   8   9
ATOM      9  C   UNL     1      -9.348  25.929  -5.343  1.00  0.00    -0.000 C 
BRANCH   9  10
ATOM     10  C   UNL     1      -9.918  26.669  -4.123  1.00  0.00    -0.000 C 
BRANCH  10  11
ATOM     11  C   UNL     1     -11.013  27.655  -4.544  1.00  0.00    -0.003 C 
ATOM     12  C   UNL     1     -12.264  26.920  -5.020  1.00  0.00     0.004 C 
ENDBRANCH  10  11
ENDBRANCH   9  10
ENDBRANCH   8   9
ENDBRANCH   7   8
ENDBRANCH   6   7
ENDBRANCH   5   6
ENDBRANCH   4   5
ENDBRANCH   3   4
ENDBRANCH   2   3
ENDBRANCH   1   2
BRANCH   1  13
ATOM     13  C   UNL     1      -8.531  23.763 -12.668  1.00  0.00     0.000 C 
BRANCH  13  14
ATOM     14  C   UNL     1      -7.722  25.012 -13.046  1.00  0.00     0.000 C 
BRANCH  14  15
ATOM     15  C   UNL     1      -7.810  25.364 -14.544  1.00  0.00     0.000 C 
BRANCH  15  16
ATOM     16  C   UNL     1      -6.817  26.436 -15.040  1.00  0.00     0.000 C 
BRANCH  16  17
ATOM     17  C   UNL     1      -7.442  27.797 -15.417  1.00  0.00     0.000 C 
BRANCH  17  18
ATOM     18  C   UNL     1      -6.691  28.549 -16.532  1.00  0.00     0.000 C 
BRANCH  18  19
ATOM     19  C   UNL     1      -7.587  28.959 -17.721  1.00  0.00     0.000 C 
BRANCH  19  20
ATOM     20  C   UNL     1      -8.995  29.410 -17.285  1.00  0.00     0.006 C 
BRANCH  20  21
ATOM     21  C   UNL     1      -9.109  30.929 -17.078  1.00  0.00     0.053 C 
BRANCH  21  22
ATOM     22  C   UNL     1      -9.025  31.301 -15.629  1.00  0.00     0.041 C 
ATOM     23  O   UNL     1      -8.938  32.508 -15.287  1.00  0.00    -0.550 OA
ATOM     24  O   UNL     1      -9.078  30.311 -14.655  1.00  0.00    -0.550 OA
ENDBRANCH  21  22
ENDBRANCH  20  21
ENDBRANCH  19  20
ENDBRANCH  18  19
ENDBRANCH  17  18
ENDBRANCH  16  17
ENDBRANCH  15  16
ENDBRANCH  14  15
ENDBRANCH  13  14
ENDBRANCH   1  13
TORSDOF 20
ENDMDL
