MODEL 1
REMARK VINA RESULT:    -5.188      0.000      0.000
REMARK INTER + INTRA:         -11.557
REMARK INTER:                  -9.737
REMARK INTRA:                  -1.820
REMARK UNBOUND:                -1.820
REMARK SMILES O=C([O-])CCCCCCCCCCCCCCC(=O)[O-]
REMARK SMILES IDX 10 1 9 2 8 3 7 4 6 5 5 6 4 7 2 8 1 9 3 10 11 11 12 12 13 13
REMARK SMILES IDX 14 14 15 15 16 16 17 17 18 18 19 19 20 20
REMARK H PARENT
REMARK Flexibility Score: inf
ROOT
ATOM      1  C   UNL     1     -22.001  -6.137  17.090  1.00  0.00     0.000 C 
ENDROOT
BRANCH   1   2
ATOM      2  C   UNL     1     -21.575  -6.404  15.638  1.00  0.00     0.000 C 
BRANCH   2   3
ATOM      3  C   UNL     1     -20.319  -5.616  15.226  1.00  0.00     0.000 C 
BRANCH   3   4
ATOM      4  C   UNL     1     -19.103  -6.480  14.847  1.00  0.00     0.000 C 
BRANCH   4   5
ATOM      5  C   UNL     1     -19.255  -7.947  15.274  1.00  0.00     0.000 C 
BRANCH   5   6
ATOM      6  C   UNL     1     -18.234  -8.313  16.361  1.00  0.00     0.006 C 
BRANCH   6   7
ATOM      7  C   UNL     1     -18.870  -9.100  17.514  1.00  0.00     0.053 C 
BRANCH   7   8
ATOM      8  C   UNL     1     -17.837  -9.790  18.351  1.00  0.00     0.041 C 
ATOM      9  O   UNL     1     -18.039 -10.959  18.774  1.00  0.00    -0.550 OA
ATOM     10  O   UNL     1     -16.635  -9.154  18.635  1.00  0.00    -0.550 OA
ENDBRANCH   7   8
ENDBRANCH   6   7
ENDBRANCH   5   6
ENDBRANCH   4   5
ENDBRANCH   3   4
ENDBRANCH   2   3
ENDBRANCH   1   2
BRANCH   1  11
ATOM     11  C   UNL     1     -22.151  -7.452  17.869  1.00  0.00     0.000 C 
BRANCH  11  12
ATOM     12  C   UNL     1     -22.360  -8.671  16.953  1.00  0.00     0.000 C 
BRANCH  12  13
ATOM     13  C   UNL     1     -23.804  -9.204  16.900  1.00  0.00     0.000 C 
BRANCH  13  14
ATOM     14  C   UNL     1     -24.714  -8.575  17.966  1.00  0.00     0.000 C 
BRANCH  14  15
ATOM     15  C   UNL     1     -25.871  -7.804  17.313  1.00  0.00     0.000 C 
BRANCH  15  16
ATOM     16  C   UNL     1     -25.972  -6.354  17.813  1.00  0.00     0.006 C 
BRANCH  16  17
ATOM     17  C   UNL     1     -25.313  -6.155  19.183  1.00  0.00     0.053 C 
BRANCH  17  18
ATOM     18  C   UNL     1     -26.171  -5.292  20.055  1.00  0.00     0.041 C 
ATOM     19  O   UNL     1     -26.096  -5.383  21.308  1.00  0.00    -0.550 OA
ATOM     20  O   UNL     1     -27.089  -4.421  19.482  1.00  0.00    -0.550 OA
ENDBRANCH  17  18
ENDBRANCH  16  17
ENDBRANCH  15  16
ENDBRANCH  14  15
ENDBRANCH  13  14
ENDBRANCH  12  13
ENDBRANCH  11  12
ENDBRANCH   1  11
TORSDOF 15
ENDMDL
MODEL 2
REMARK VINA RESULT:    -5.186      1.342      2.368
REMARK INTER + INTRA:         -11.554
REMARK INTER:                  -9.296
REMARK INTRA:                  -2.258
REMARK UNBOUND:                -1.820
REMARK SMILES O=C([O-])CCCCCCCCCCCCCCC(=O)[O-]
REMARK SMILES IDX 10 1 9 2 8 3 7 4 6 5 5 6 4 7 2 8 1 9 3 10 11 11 12 12 13 13
REMARK SMILES IDX 14 14 15 15 16 16 17 17 18 18 19 19 20 20
REMARK H PARENT
REMARK Flexibility Score: inf
ROOT
ATOM      1  C   UNL     1     -20.997  -5.187  16.087  1.00  0.00     0.000 C 
ENDROOT
BRANCH   1   2
ATOM      2  C   UNL     1     -20.264  -5.262  14.738  1.00  0.00     0.000 C 
BRANCH   2   3
ATOM      3  C   UNL     1     -18.782  -5.651  14.880  1.00  0.00     0.000 C 
BRANCH   3   4
ATOM      4  C   UNL     1     -18.392  -6.984  14.216  1.00  0.00     0.000 C 
BRANCH   4   5
ATOM      5  C   UNL     1     -18.827  -8.209  15.033  1.00  0.00     0.000 C 
BRANCH   5   6
ATOM      6  C   UNL     1     -18.399  -8.071  16.502  1.00  0.00     0.006 C 
BRANCH   6   7
ATOM      7  C   UNL     1     -18.912  -9.229  17.368  1.00  0.00     0.053 C 
BRANCH   7   8
ATOM      8  C   UNL     1     -17.847  -9.751  18.283  1.00  0.00     0.041 C 
ATOM      9  O   UNL     1     -16.794  -9.088  18.476  1.00  0.00    -0.550 OA
ATOM     10  O   UNL     1     -18.034 -10.956  18.950  1.00  0.00    -0.550 OA
ENDBRANCH   7   8
ENDBRANCH   6   7
ENDBRANCH   5   6
ENDBRANCH   4   5
ENDBRANCH   3   4
ENDBRANCH   2   3
ENDBRANCH   1   2
BRANCH   1  11
ATOM     11  C   UNL     1     -21.902  -6.411  16.288  1.00  0.00     0.000 C 
BRANCH  11  12
ATOM     12  C   UNL     1     -22.322  -7.071  14.962  1.00  0.00     0.000 C 
BRANCH  12  13
ATOM     13  C   UNL     1     -22.553  -8.591  15.036  1.00  0.00     0.000 C 
BRANCH  13  14
ATOM     14  C   UNL     1     -22.519  -9.132  16.473  1.00  0.00     0.000 C 
BRANCH  14  15
ATOM     15  C   UNL     1     -23.681 -10.107  16.718  1.00  0.00     0.000 C 
BRANCH  15  16
ATOM     16  C   UNL     1     -24.850  -9.457  17.476  1.00  0.00     0.006 C 
BRANCH  16  17
ATOM     17  C   UNL     1     -24.468  -8.112  18.108  1.00  0.00     0.053 C 
BRANCH  17  18
ATOM     18  C   UNL     1     -25.409  -7.039  17.657  1.00  0.00     0.041 C 
ATOM     19  O   UNL     1     -25.778  -6.982  16.456  1.00  0.00    -0.550 OA
ATOM     20  O   UNL     1     -25.843  -6.073  18.557  1.00  0.00    -0.550 OA
ENDBRANCH  17  18
ENDBRANCH  16  17
ENDBRANCH  15  16
ENDBRANCH  14  15
ENDBRANCH  13  14
ENDBRANCH  12  13
ENDBRANCH  11  12
ENDBRANCH   1  11
TORSDOF 15
ENDMDL
MODEL 3
REMARK VINA RESULT:    -4.952      1.222      7.253
REMARK INTER + INTRA:         -11.114
REMARK INTER:                  -9.224
REMARK INTRA:                  -1.891
REMARK UNBOUND:                -1.820
REMARK SMILES O=C([O-])CCCCCCCCCCCCCCC(=O)[O-]
REMARK SMILES IDX 10 1 9 2 8 3 7 4 6 5 5 6 4 7 2 8 1 9 3 10 11 11 12 12 13 13
REMARK SMILES IDX 14 14 15 15 16 16 17 17 18 18 19 19 20 20
REMARK H PARENT
REMARK Flexibility Score: inf
ROOT
ATOM      1  C   UNL     1     -21.067  -5.235  17.113  1.00  0.00     0.000 C 
ENDROOT
BRANCH   1   2
ATOM      2  C   UNL     1     -22.250  -5.979  17.752  1.00  0.00     0.000 C 
BRANCH   2   3
ATOM      3  C   UNL     1     -22.072  -7.507  17.749  1.00  0.00     0.000 C 
BRANCH   3   4
ATOM      4  C   UNL     1     -22.689  -8.232  16.538  1.00  0.00     0.000 C 
BRANCH   4   5
ATOM      5  C   UNL     1     -23.660  -9.351  16.942  1.00  0.00     0.000 C 
BRANCH   5   6
ATOM      6  C   UNL     1     -24.714  -8.835  17.932  1.00  0.00     0.006 C 
BRANCH   6   7
ATOM      7  C   UNL     1     -25.884  -8.138  17.224  1.00  0.00     0.053 C 
BRANCH   7   8
ATOM      8  C   UNL     1     -26.033  -6.715  17.667  1.00  0.00     0.041 C 
ATOM      9  O   UNL     1     -26.652  -5.887  16.948  1.00  0.00    -0.550 OA
ATOM     10  O   UNL     1     -25.518  -6.313  18.893  1.00  0.00    -0.550 OA
ENDBRANCH   7   8
ENDBRANCH   6   7
ENDBRANCH   5   6
ENDBRANCH   4   5
ENDBRANCH   3   4
ENDBRANCH   2   3
ENDBRANCH   1   2
BRANCH   1  11
ATOM     11  C   UNL     1     -21.382  -4.850  15.660  1.00  0.00     0.000 C 
BRANCH  11  12
ATOM     12  C   UNL     1     -20.618  -5.705  14.633  1.00  0.00     0.000 C 
BRANCH  12  13
ATOM     13  C   UNL     1     -19.086  -5.694  14.791  1.00  0.00     0.000 C 
BRANCH  13  14
ATOM     14  C   UNL     1     -18.446  -7.062  14.506  1.00  0.00     0.000 C 
BRANCH  14  15
ATOM     15  C   UNL     1     -19.014  -8.138  15.444  1.00  0.00     0.000 C 
BRANCH  15  16
ATOM     16  C   UNL     1     -18.172  -8.319  16.717  1.00  0.00     0.006 C 
BRANCH  16  17
ATOM     17  C   UNL     1     -18.847  -9.236  17.745  1.00  0.00     0.053 C 
BRANCH  17  18
ATOM     18  C   UNL     1     -17.820 -10.036  18.483  1.00  0.00     0.041 C 
ATOM     19  O   UNL     1     -18.017 -11.256  18.721  1.00  0.00    -0.550 OA
ATOM     20  O   UNL     1     -16.664  -9.422  18.950  1.00  0.00    -0.550 OA
ENDBRANCH  17  18
ENDBRANCH  16  17
ENDBRANCH  15  16
ENDBRANCH  14  15
ENDBRANCH  13  14
ENDBRANCH  12  13
ENDBRANCH  11  12
ENDBRANCH   1  11
TORSDOF 15
ENDMDL
MODEL 4
REMARK VINA RESULT:    -4.916      2.302      2.846
REMARK INTER + INTRA:         -11.046
REMARK INTER:                  -9.674
REMARK INTRA:                  -1.372
REMARK UNBOUND:                -1.820
REMARK SMILES O=C([O-])CCCCCCCCCCCCCCC(=O)[O-]
REMARK SMILES IDX 10 1 9 2 8 3 7 4 6 5 5 6 4 7 2 8 1 9 3 10 11 11 12 12 13 13
REMARK SMILES IDX 14 14 15 15 16 16 17 17 18 18 19 19 20 20
REMARK H PARENT
REMARK Flexibility Score: inf
ROOT
ATOM      1  C   UNL     1     -21.760  -5.851  17.331  1.00  0.00     0.000 C 
ENDROOT
BRANCH   1   2
ATOM      2  C   UNL     1     -21.519  -6.231  15.862  1.00  0.00     0.000 C 
BRANCH   2   3
ATOM      3  C   UNL     1     -20.239  -5.604  15.282  1.00  0.00     0.000 C 
BRANCH   3   4
ATOM      4  C   UNL     1     -19.175  -6.613  14.812  1.00  0.00     0.000 C 
BRANCH   4   5
ATOM      5  C   UNL     1     -19.385  -8.019  15.393  1.00  0.00     0.000 C 
BRANCH   5   6
ATOM      6  C   UNL     1     -18.308  -8.350  16.438  1.00  0.00     0.006 C 
BRANCH   6   7
ATOM      7  C   UNL     1     -18.877  -9.125  17.633  1.00  0.00     0.053 C 
BRANCH   7   8
ATOM      8  C   UNL     1     -17.799  -9.820  18.407  1.00  0.00     0.041 C 
ATOM      9  O   UNL     1     -17.967 -11.000  18.811  1.00  0.00    -0.550 OA
ATOM     10  O   UNL     1     -16.593  -9.173  18.652  1.00  0.00    -0.550 OA
ENDBRANCH   7   8
ENDBRANCH   6   7
ENDBRANCH   5   6
ENDBRANCH   4   5
ENDBRANCH   3   4
ENDBRANCH   2   3
ENDBRANCH   1   2
BRANCH   1  11
ATOM     11  C   UNL     1     -22.258  -7.061  18.136  1.00  0.00     0.000 C 
BRANCH  11  12
ATOM     12  C   UNL     1     -22.427  -8.326  17.275  1.00  0.00     0.000 C 
BRANCH  12  13
ATOM     13  C   UNL     1     -23.881  -8.667  16.899  1.00  0.00     0.000 C 
BRANCH  13  14
ATOM     14  C   UNL     1     -24.885  -8.303  18.003  1.00  0.00     0.000 C 
BRANCH  14  15
ATOM     15  C   UNL     1     -25.751  -7.106  17.582  1.00  0.00     0.000 C 
BRANCH  15  16
ATOM     16  C   UNL     1     -26.654  -7.422  16.379  1.00  0.00     0.006 C 
BRANCH  16  17
ATOM     17  C   UNL     1     -26.135  -6.806  15.073  1.00  0.00     0.053 C 
BRANCH  17  18
ATOM     18  C   UNL     1     -27.268  -6.555  14.128  1.00  0.00     0.041 C 
ATOM     19  O   UNL     1     -27.815  -7.515  13.525  1.00  0.00    -0.550 OA
ATOM     20  O   UNL     1     -27.690  -5.255  13.878  1.00  0.00    -0.550 OA
ENDBRANCH  17  18
ENDBRANCH  16  17
ENDBRANCH  15  16
ENDBRANCH  14  15
ENDBRANCH  13  14
ENDBRANCH  12  13
ENDBRANCH  11  12
ENDBRANCH   1  11
TORSDOF 15
ENDMDL
MODEL 5
REMARK VINA RESULT:    -4.852      2.072      7.175
REMARK INTER + INTRA:         -10.926
REMARK INTER:                  -9.059
REMARK INTRA:                  -1.868
REMARK UNBOUND:                -1.820
REMARK SMILES O=C([O-])CCCCCCCCCCCCCCC(=O)[O-]
REMARK SMILES IDX 10 1 9 2 8 3 7 4 6 5 5 6 4 7 2 8 1 9 3 10 11 11 12 12 13 13
REMARK SMILES IDX 14 14 15 15 16 16 17 17 18 18 19 19 20 20
REMARK H PARENT
REMARK Flexibility Score: inf
ROOT
ATOM      1  C   UNL     1     -23.429  -8.371  14.983  1.00  0.00     0.000 C 
ENDROOT
BRANCH   1   2
ATOM      2  C   UNL     1     -24.386  -7.253  15.423  1.00  0.00     0.000 C 
BRANCH   2   3
ATOM      3  C   UNL     1     -25.662  -7.183  14.565  1.00  0.00     0.000 C 
BRANCH   3   4
ATOM      4  C   UNL     1     -26.863  -6.494  15.239  1.00  0.00     0.000 C 
BRANCH   4   5
ATOM      5  C   UNL     1     -27.058  -6.925  16.700  1.00  0.00     0.000 C 
BRANCH   5   6
ATOM      6  C   UNL     1     -26.812  -5.750  17.658  1.00  0.00     0.006 C 
BRANCH   6   7
ATOM      7  C   UNL     1     -25.796  -6.097  18.754  1.00  0.00     0.053 C 
BRANCH   7   8
ATOM      8  C   UNL     1     -26.113  -5.404  20.044  1.00  0.00     0.041 C 
ATOM      9  O   UNL     1     -27.080  -4.599  20.112  1.00  0.00    -0.550 OA
ATOM     10  O   UNL     1     -25.361  -5.673  21.181  1.00  0.00    -0.550 OA
ENDBRANCH   7   8
ENDBRANCH   6   7
ENDBRANCH   5   6
ENDBRANCH   4   5
ENDBRANCH   3   4
ENDBRANCH   2   3
ENDBRANCH   1   2
BRANCH   1  11
ATOM     11  C   UNL     1     -22.811  -9.074  16.200  1.00  0.00     0.000 C 
BRANCH  11  12
ATOM     12  C   UNL     1     -22.963  -8.267  17.501  1.00  0.00     0.000 C 
BRANCH  12  13
ATOM     13  C   UNL     1     -21.802  -7.305  17.810  1.00  0.00     0.000 C 
BRANCH  13  14
ATOM     14  C   UNL     1     -22.207  -5.826  17.713  1.00  0.00     0.000 C 
BRANCH  14  15
ATOM     15  C   UNL     1     -21.203  -5.038  16.857  1.00  0.00     0.000 C 
BRANCH  15  16
ATOM     16  C   UNL     1     -21.099  -5.575  15.421  1.00  0.00     0.006 C 
BRANCH  16  17
ATOM     17  C   UNL     1     -19.669  -5.983  15.045  1.00  0.00     0.053 C 
BRANCH  17  18
ATOM     18  C   UNL     1     -19.569  -7.470  14.907  1.00  0.00     0.041 C 
ATOM     19  O   UNL     1     -20.122  -8.055  13.940  1.00  0.00    -0.550 OA
ATOM     20  O   UNL     1     -18.903  -8.214  15.872  1.00  0.00    -0.550 OA
ENDBRANCH  17  18
ENDBRANCH  16  17
ENDBRANCH  15  16
ENDBRANCH  14  15
ENDBRANCH  13  14
ENDBRANCH  12  13
ENDBRANCH  11  12
ENDBRANCH   1  11
TORSDOF 15
ENDMDL
MODEL 6
REMARK VINA RESULT:    -4.833      0.732      7.506
REMARK INTER + INTRA:         -10.891
REMARK INTER:                  -9.168
REMARK INTRA:                  -1.723
REMARK UNBOUND:                -1.820
REMARK SMILES O=C([O-])CCCCCCCCCCCCCCC(=O)[O-]
REMARK SMILES IDX 10 1 9 2 8 3 7 4 6 5 5 6 4 7 2 8 1 9 3 10 11 11 12 12 13 13
REMARK SMILES IDX 14 14 15 15 16 16 17 17 18 18 19 19 20 20
REMARK H PARENT
REMARK Flexibility Score: inf
ROOT
ATOM      1  C   UNL     1     -22.083  -5.659  17.664  1.00  0.00     0.000 C 
ENDROOT
BRANCH   1   2
ATOM      2  C   UNL     1     -21.741  -7.120  17.994  1.00  0.00     0.000 C 
BRANCH   2   3
ATOM      3  C   UNL     1     -22.863  -8.101  17.613  1.00  0.00     0.000 C 
BRANCH   3   4
ATOM      4  C   UNL     1     -23.983  -7.503  16.741  1.00  0.00     0.000 C 
BRANCH   4   5
ATOM      5  C   UNL     1     -25.389  -7.871  17.237  1.00  0.00     0.000 C 
BRANCH   5   6
ATOM      6  C   UNL     1     -26.070  -6.666  17.904  1.00  0.00     0.006 C 
BRANCH   6   7
ATOM      7  C   UNL     1     -25.351  -6.228  19.186  1.00  0.00     0.053 C 
BRANCH   7   8
ATOM      8  C   UNL     1     -26.212  -5.338  20.029  1.00  0.00     0.041 C 
ATOM      9  O   UNL     1     -27.213  -4.761  19.527  1.00  0.00    -0.550 OA
ATOM     10  O   UNL     1     -25.928  -5.173  21.379  1.00  0.00    -0.550 OA
ENDBRANCH   7   8
ENDBRANCH   6   7
ENDBRANCH   5   6
ENDBRANCH   4   5
ENDBRANCH   3   4
ENDBRANCH   2   3
ENDBRANCH   1   2
BRANCH   1  11
ATOM     11  C   UNL     1     -21.012  -5.036  16.757  1.00  0.00     0.000 C 
BRANCH  11  12
ATOM     12  C   UNL     1     -21.372  -5.114  15.263  1.00  0.00     0.000 C 
BRANCH  12  13
ATOM     13  C   UNL     1     -20.815  -6.345  14.524  1.00  0.00     0.000 C 
BRANCH  13  14
ATOM     14  C   UNL     1     -19.378  -6.693  14.939  1.00  0.00     0.000 C 
BRANCH  14  15
ATOM     15  C   UNL     1     -19.287  -8.144  15.435  1.00  0.00     0.000 C 
BRANCH  15  16
ATOM     16  C   UNL     1     -18.317  -8.307  16.616  1.00  0.00     0.006 C 
BRANCH  16  17
ATOM     17  C   UNL     1     -18.876  -9.217  17.717  1.00  0.00     0.053 C 
BRANCH  17  18
ATOM     18  C   UNL     1     -17.761  -9.901  18.445  1.00  0.00     0.041 C 
ATOM     19  O   UNL     1     -17.909 -11.076  18.871  1.00  0.00    -0.550 OA
ATOM     20  O   UNL     1     -16.575  -9.222  18.693  1.00  0.00    -0.550 OA
ENDBRANCH  17  18
ENDBRANCH  16  17
ENDBRANCH  15  16
ENDBRANCH  14  15
ENDBRANCH  13  14
ENDBRANCH  12  13
ENDBRANCH  11  12
ENDBRANCH   1  11
TORSDOF 15
ENDMDL
MODEL 7
REMARK VINA RESULT:    -4.800      2.814      8.088
REMARK INTER + INTRA:         -10.829
REMARK INTER:                  -9.470
REMARK INTRA:                  -1.359
REMARK UNBOUND:                -1.820
REMARK SMILES O=C([O-])CCCCCCCCCCCCCCC(=O)[O-]
REMARK SMILES IDX 10 1 9 2 8 3 7 4 6 5 5 6 4 7 2 8 1 9 3 10 11 11 12 12 13 13
REMARK SMILES IDX 14 14 15 15 16 16 17 17 18 18 19 19 20 20
REMARK H PARENT
REMARK Flexibility Score: inf
ROOT
ATOM      1  C   UNL     1     -22.263  -7.506  17.915  1.00  0.00     0.000 C 
ENDROOT
BRANCH   1   2
ATOM      2  C   UNL     1     -23.309  -8.358  17.179  1.00  0.00     0.000 C 
BRANCH   2   3
ATOM      3  C   UNL     1     -24.649  -8.445  17.931  1.00  0.00     0.000 C 
BRANCH   3   4
ATOM      4  C   UNL     1     -25.864  -7.896  17.163  1.00  0.00     0.000 C 
BRANCH   4   5
ATOM      5  C   UNL     1     -25.478  -7.201  15.849  1.00  0.00     0.000 C 
BRANCH   5   6
ATOM      6  C   UNL     1     -26.660  -6.402  15.280  1.00  0.00     0.006 C 
BRANCH   6   7
ATOM      7  C   UNL     1     -27.405  -7.171  14.181  1.00  0.00     0.053 C 
BRANCH   7   8
ATOM      8  C   UNL     1     -27.568  -6.347  12.941  1.00  0.00     0.041 C 
ATOM      9  O   UNL     1     -27.531  -6.892  11.806  1.00  0.00    -0.550 OA
ATOM     10  O   UNL     1     -27.795  -4.980  13.040  1.00  0.00    -0.550 OA
ENDBRANCH   7   8
ENDBRANCH   6   7
ENDBRANCH   5   6
ENDBRANCH   4   5
ENDBRANCH   3   4
ENDBRANCH   2   3
ENDBRANCH   1   2
BRANCH   1  11
ATOM     11  C   UNL     1     -22.504  -6.009  17.671  1.00  0.00     0.000 C 
BRANCH  11  12
ATOM     12  C   UNL     1     -21.377  -5.344  16.860  1.00  0.00     0.000 C 
BRANCH  12  13
ATOM     13  C   UNL     1     -21.218  -5.865  15.420  1.00  0.00     0.000 C 
BRANCH  13  14
ATOM     14  C   UNL     1     -19.800  -6.377  15.122  1.00  0.00     0.000 C 
BRANCH  14  15
ATOM     15  C   UNL     1     -19.737  -7.908  15.234  1.00  0.00     0.000 C 
BRANCH  15  16
ATOM     16  C   UNL     1     -18.621  -8.386  16.177  1.00  0.00     0.006 C 
BRANCH  16  17
ATOM     17  C   UNL     1     -19.167  -9.024  17.461  1.00  0.00     0.053 C 
BRANCH  17  18
ATOM     18  C   UNL     1     -18.107  -9.843  18.128  1.00  0.00     0.041 C 
ATOM     19  O   UNL     1     -18.290 -11.071  18.334  1.00  0.00    -0.550 OA
ATOM     20  O   UNL     1     -16.935  -9.239  18.565  1.00  0.00    -0.550 OA
ENDBRANCH  17  18
ENDBRANCH  16  17
ENDBRANCH  15  16
ENDBRANCH  14  15
ENDBRANCH  13  14
ENDBRANCH  12  13
ENDBRANCH  11  12
ENDBRANCH   1  11
TORSDOF 15
ENDMDL
MODEL 8
REMARK VINA RESULT:    -4.587      3.587      5.809
REMARK INTER + INTRA:         -10.429
REMARK INTER:                  -8.472
REMARK INTRA:                  -1.957
REMARK UNBOUND:                -1.820
REMARK SMILES O=C([O-])CCCCCCCCCCCCCCC(=O)[O-]
REMARK SMILES IDX 10 1 9 2 8 3 7 4 6 5 5 6 4 7 2 8 1 9 3 10 11 11 12 12 13 13
REMARK SMILES IDX 14 14 15 15 16 16 17 17 18 18 19 19 20 20
REMARK H PARENT
REMARK Flexibility Score: inf
ROOT
ATOM      1  C   UNL     1     -23.832  -7.300  18.640  1.00  0.00     0.000 C 
ENDROOT
BRANCH   1   2
ATOM      2  C   UNL     1     -23.365  -6.056  17.869  1.00  0.00     0.000 C 
BRANCH   2   3
ATOM      3  C   UNL     1     -21.833  -5.918  17.823  1.00  0.00     0.000 C 
BRANCH   3   4
ATOM      4  C   UNL     1     -21.299  -4.914  16.785  1.00  0.00     0.000 C 
BRANCH   4   5
ATOM      5  C   UNL     1     -21.426  -5.422  15.341  1.00  0.00     0.000 C 
BRANCH   5   6
ATOM      6  C   UNL     1     -20.147  -6.149  14.900  1.00  0.00     0.006 C 
BRANCH   6   7
ATOM      7  C   UNL     1     -18.924  -5.223  14.896  1.00  0.00     0.053 C 
BRANCH   7   8
ATOM      8  C   UNL     1     -17.753  -5.853  14.206  1.00  0.00     0.041 C 
ATOM      9  O   UNL     1     -17.648  -7.107  14.149  1.00  0.00    -0.550 OA
ATOM     10  O   UNL     1     -16.794  -5.054  13.596  1.00  0.00    -0.550 OA
ENDBRANCH   7   8
ENDBRANCH   6   7
ENDBRANCH   5   6
ENDBRANCH   4   5
ENDBRANCH   3   4
ENDBRANCH   2   3
ENDBRANCH   1   2
BRANCH   1  11
ATOM     11  C   UNL     1     -24.402  -8.357  17.683  1.00  0.00     0.000 C 
BRANCH  11  12
ATOM     12  C   UNL     1     -24.213  -7.988  16.201  1.00  0.00     0.000 C 
BRANCH  12  13
ATOM     13  C   UNL     1     -23.079  -8.742  15.482  1.00  0.00     0.000 C 
BRANCH  13  14
ATOM     14  C   UNL     1     -22.130  -9.462  16.452  1.00  0.00     0.000 C 
BRANCH  14  15
ATOM     15  C   UNL     1     -20.678  -9.010  16.235  1.00  0.00     0.000 C 
BRANCH  15  16
ATOM     16  C   UNL     1     -19.905  -8.845  17.553  1.00  0.00     0.006 C 
BRANCH  16  17
ATOM     17  C   UNL     1     -18.386  -8.818  17.347  1.00  0.00     0.053 C 
BRANCH  17  18
ATOM     18  C   UNL     1     -17.713  -9.758  18.297  1.00  0.00     0.041 C 
ATOM     19  O   UNL     1     -18.259 -10.851  18.601  1.00  0.00    -0.550 OA
ATOM     20  O   UNL     1     -16.504  -9.406  18.884  1.00  0.00    -0.550 OA
ENDBRANCH  17  18
ENDBRANCH  16  17
ENDBRANCH  15  16
ENDBRANCH  14  15
ENDBRANCH  13  14
ENDBRANCH  12  13
ENDBRANCH  11  12
ENDBRANCH   1  11
TORSDOF 15
ENDMDL
MODEL 9
REMARK VINA RESULT:    -4.458      2.189      7.671
REMARK INTER + INTRA:         -10.186
REMARK INTER:                  -8.458
REMARK INTRA:                  -1.729
REMARK UNBOUND:                -1.820
REMARK SMILES O=C([O-])CCCCCCCCCCCCCCC(=O)[O-]
REMARK SMILES IDX 10 1 9 2 8 3 7 4 6 5 5 6 4 7 2 8 1 9 3 10 11 11 12 12 13 13
REMARK SMILES IDX 14 14 15 15 16 16 17 17 18 18 19 19 20 20
REMARK H PARENT
REMARK Flexibility Score: inf
ROOT
ATOM      1  C   UNL     1     -24.293  -7.906  18.239  1.00  0.00     0.000 C 
ENDROOT
BRANCH   1   2
ATOM      2  C   UNL     1     -24.963  -6.620  17.732  1.00  0.00     0.000 C 
BRANCH   2   3
ATOM      3  C   UNL     1     -26.326  -6.876  17.063  1.00  0.00     0.000 C 
BRANCH   3   4
ATOM      4  C   UNL     1     -27.518  -6.155  17.719  1.00  0.00     0.000 C 
BRANCH   4   5
ATOM      5  C   UNL     1     -27.343  -4.631  17.768  1.00  0.00     0.000 C 
BRANCH   5   6
ATOM      6  C   UNL     1     -27.639  -4.088  19.174  1.00  0.00     0.006 C 
BRANCH   6   7
ATOM      7  C   UNL     1     -27.582  -5.186  20.244  1.00  0.00     0.053 C 
BRANCH   7   8
ATOM      8  C   UNL     1     -26.401  -5.017  21.151  1.00  0.00     0.041 C 
ATOM      9  O   UNL     1     -26.399  -4.115  22.029  1.00  0.00    -0.550 OA
ATOM     10  O   UNL     1     -25.317  -5.880  21.047  1.00  0.00    -0.550 OA
ENDBRANCH   7   8
ENDBRANCH   6   7
ENDBRANCH   5   6
ENDBRANCH   4   5
ENDBRANCH   3   4
ENDBRANCH   2   3
ENDBRANCH   1   2
BRANCH   1  11
ATOM     11  C   UNL     1     -24.827  -9.135  17.489  1.00  0.00     0.000 C 
BRANCH  11  12
ATOM     12  C   UNL     1     -23.709  -9.992  16.869  1.00  0.00     0.000 C 
BRANCH  12  13
ATOM     13  C   UNL     1     -22.524  -9.197  16.291  1.00  0.00     0.000 C 
BRANCH  13  14
ATOM     14  C   UNL     1     -22.842  -8.553  14.933  1.00  0.00     0.000 C 
BRANCH  14  15
ATOM     15  C   UNL     1     -22.394  -7.083  14.905  1.00  0.00     0.000 C 
BRANCH  15  16
ATOM     16  C   UNL     1     -21.212  -6.807  15.848  1.00  0.00     0.006 C 
BRANCH  16  17
ATOM     17  C   UNL     1     -20.040  -6.116  15.138  1.00  0.00     0.053 C 
BRANCH  17  18
ATOM     18  C   UNL     1     -18.908  -7.076  14.945  1.00  0.00     0.041 C 
ATOM     19  O   UNL     1     -18.954  -8.223  15.461  1.00  0.00    -0.550 OA
ATOM     20  O   UNL     1     -17.780  -6.686  14.234  1.00  0.00    -0.550 OA
ENDBRANCH  17  18
ENDBRANCH  16  17
ENDBRANCH  15  16
ENDBRANCH  14  15
ENDBRANCH  13  14
ENDBRANCH  12  13
ENDBRANCH  11  12
ENDBRANCH   1  11
TORSDOF 15
ENDMDL
