MODEL 1
REMARK VINA RESULT:    -3.586      0.000      0.000
REMARK INTER + INTRA:          -3.815
REMARK INTER:                  -3.796
REMARK INTRA:                  -0.019
REMARK UNBOUND:                -0.019
REMARK SMILES O=C([O-])c1cccnc1
REMARK SMILES IDX 4 1 5 2 9 3 6 4 8 5 7 6 2 7 1 8 3 9
REMARK H PARENT
REMARK Flexibility Score: inf
ROOT
ATOM      1  C   UNL     1     -21.457  -7.034   6.093  1.00  0.00     0.016 A 
ATOM      2  C   UNL     1     -22.096  -7.242   4.860  1.00  0.00     0.013 A 
ATOM      3  C   UNL     1     -20.408  -6.100   6.152  1.00  0.00     0.120 A 
ATOM      4  C   UNL     1     -21.689  -6.531   3.729  1.00  0.00     0.021 A 
ATOM      5  N   UNL     1     -20.031  -5.420   5.036  1.00  0.00    -0.264 NA
ATOM      6  C   UNL     1     -20.643  -5.614   3.839  1.00  0.00     0.111 A 
ENDROOT
BRANCH   1   7
ATOM      7  C   UNL     1     -21.880  -7.782   7.297  1.00  0.00     0.073 C 
ATOM      8  O   UNL     1     -22.046  -7.187   8.395  1.00  0.00    -0.545 OA
ATOM      9  O   UNL     1     -22.100  -9.154   7.233  1.00  0.00    -0.545 OA
ENDBRANCH   1   7
TORSDOF 1
ENDMDL
MODEL 2
REMARK VINA RESULT:    -3.506      2.964      4.036
REMARK INTER + INTRA:          -3.731
REMARK INTER:                  -3.714
REMARK INTRA:                  -0.017
REMARK UNBOUND:                -0.019
REMARK SMILES O=C([O-])c1cccnc1
REMARK SMILES IDX 4 1 5 2 9 3 6 4 8 5 7 6 2 7 1 8 3 9
REMARK H PARENT
REMARK Flexibility Score: inf
ROOT
ATOM      1  C   UNL     1     -21.672  -7.929   5.825  1.00  0.00     0.016 A 
ATOM      2  C   UNL     1     -22.091  -7.047   6.834  1.00  0.00     0.013 A 
ATOM      3  C   UNL     1     -21.585  -9.299   6.129  1.00  0.00     0.120 A 
ATOM      4  C   UNL     1     -22.411  -7.534   8.103  1.00  0.00     0.021 A 
ATOM      5  N   UNL     1     -21.904  -9.747   7.372  1.00  0.00    -0.264 NA
ATOM      6  C   UNL     1     -22.311  -8.902   8.355  1.00  0.00     0.111 A 
ENDROOT
BRANCH   1   7
ATOM      7  C   UNL     1     -21.329  -7.425   4.477  1.00  0.00     0.073 C 
ATOM      8  O   UNL     1     -22.222  -6.957   3.722  1.00  0.00    -0.545 OA
ATOM      9  O   UNL     1     -20.014  -7.461   4.025  1.00  0.00    -0.545 OA
ENDBRANCH   1   7
TORSDOF 1
ENDMDL
MODEL 3
REMARK VINA RESULT:    -3.498      2.505      3.166
REMARK INTER + INTRA:          -3.722
REMARK INTER:                  -3.705
REMARK INTRA:                  -0.017
REMARK UNBOUND:                -0.019
REMARK SMILES O=C([O-])c1cccnc1
REMARK SMILES IDX 4 1 5 2 9 3 6 4 8 5 7 6 2 7 1 8 3 9
REMARK H PARENT
REMARK Flexibility Score: inf
ROOT
ATOM      1  C   UNL     1     -20.438  -5.571   4.298  1.00  0.00     0.016 A 
ATOM      2  C   UNL     1     -20.679  -4.706   3.218  1.00  0.00     0.013 A 
ATOM      3  C   UNL     1     -19.854  -5.040   5.461  1.00  0.00     0.120 A 
ATOM      4  C   UNL     1     -20.341  -3.354   3.312  1.00  0.00     0.021 A 
ATOM      5  N   UNL     1     -19.535  -3.720   5.528  1.00  0.00    -0.264 NA
ATOM      6  C   UNL     1     -19.764  -2.875   4.489  1.00  0.00     0.111 A 
ENDROOT
BRANCH   1   7
ATOM      7  C   UNL     1     -20.792  -7.004   4.209  1.00  0.00     0.073 C 
ATOM      8  O   UNL     1     -19.899  -7.890   4.277  1.00  0.00    -0.545 OA
ATOM      9  O   UNL     1     -22.117  -7.394   4.049  1.00  0.00    -0.545 OA
ENDBRANCH   1   7
TORSDOF 1
ENDMDL
MODEL 4
REMARK VINA RESULT:    -3.498     15.345     16.157
REMARK INTER + INTRA:          -3.722
REMARK INTER:                  -3.704
REMARK INTRA:                  -0.018
REMARK UNBOUND:                -0.019
REMARK SMILES O=C([O-])c1cccnc1
REMARK SMILES IDX 4 1 5 2 9 3 6 4 8 5 7 6 2 7 1 8 3 9
REMARK H PARENT
REMARK Flexibility Score: inf
ROOT
ATOM      1  C   UNL     1     -15.532 -16.426  -5.521  1.00  0.00     0.016 A 
ATOM      2  C   UNL     1     -15.859 -16.858  -4.225  1.00  0.00     0.013 A 
ATOM      3  C   UNL     1     -14.266 -15.852  -5.734  1.00  0.00     0.120 A 
ATOM      4  C   UNL     1     -14.940 -16.714  -3.184  1.00  0.00     0.021 A 
ATOM      5  N   UNL     1     -13.389 -15.725  -4.703  1.00  0.00    -0.264 NA
ATOM      6  C   UNL     1     -13.696 -16.140  -3.446  1.00  0.00     0.111 A 
ENDROOT
BRANCH   1   7
ATOM      7  C   UNL     1     -16.498 -16.572  -6.631  1.00  0.00     0.073 C 
ATOM      8  O   UNL     1     -16.215 -17.274  -7.638  1.00  0.00    -0.545 OA
ATOM      9  O   UNL     1     -17.733 -15.935  -6.578  1.00  0.00    -0.545 OA
ENDBRANCH   1   7
TORSDOF 1
ENDMDL
MODEL 5
REMARK VINA RESULT:    -3.495      3.355      4.032
REMARK INTER + INTRA:          -3.719
REMARK INTER:                  -3.699
REMARK INTRA:                  -0.020
REMARK UNBOUND:                -0.019
REMARK SMILES O=C([O-])c1cccnc1
REMARK SMILES IDX 4 1 5 2 9 3 6 4 8 5 7 6 2 7 1 8 3 9
REMARK H PARENT
REMARK Flexibility Score: inf
ROOT
ATOM      1  C   UNL     1     -20.470  -5.522   4.429  1.00  0.00     0.016 A 
ATOM      2  C   UNL     1     -21.482  -6.309   3.856  1.00  0.00     0.013 A 
ATOM      3  C   UNL     1     -20.067  -5.807   5.746  1.00  0.00     0.120 A 
ATOM      4  C   UNL     1     -22.064  -7.346   4.589  1.00  0.00     0.021 A 
ATOM      5  N   UNL     1     -20.650  -6.822   6.437  1.00  0.00    -0.264 NA
ATOM      6  C   UNL     1     -21.629  -7.590   5.892  1.00  0.00     0.111 A 
ENDROOT
BRANCH   1   7
ATOM      7  C   UNL     1     -19.846  -4.421   3.663  1.00  0.00     0.073 C 
ATOM      8  O   UNL     1     -20.555  -3.634   2.981  1.00  0.00    -0.545 OA
ATOM      9  O   UNL     1     -18.467  -4.240   3.686  1.00  0.00    -0.545 OA
ENDBRANCH   1   7
TORSDOF 1
ENDMDL
MODEL 6
REMARK VINA RESULT:    -3.487     17.125     18.034
REMARK INTER + INTRA:          -3.711
REMARK INTER:                  -3.695
REMARK INTRA:                  -0.016
REMARK UNBOUND:                -0.019
REMARK SMILES O=C([O-])c1cccnc1
REMARK SMILES IDX 4 1 5 2 9 3 6 4 8 5 7 6 2 7 1 8 3 9
REMARK H PARENT
REMARK Flexibility Score: inf
ROOT
ATOM      1  C   UNL     1     -22.803 -16.310  -9.252  1.00  0.00     0.016 A 
ATOM      2  C   UNL     1     -22.460 -16.036  -7.918  1.00  0.00     0.013 A 
ATOM      3  C   UNL     1     -21.795 -16.761 -10.122  1.00  0.00     0.120 A 
ATOM      4  C   UNL     1     -21.146 -16.212  -7.481  1.00  0.00     0.021 A 
ATOM      5  N   UNL     1     -20.523 -16.925  -9.671  1.00  0.00    -0.264 NA
ATOM      6  C   UNL     1     -20.181 -16.663  -8.382  1.00  0.00     0.111 A 
ENDROOT
BRANCH   1   7
ATOM      7  C   UNL     1     -24.192 -16.126  -9.726  1.00  0.00     0.073 C 
ATOM      8  O   UNL     1     -24.987 -17.102  -9.774  1.00  0.00    -0.545 OA
ATOM      9  O   UNL     1     -24.640 -14.872 -10.125  1.00  0.00    -0.545 OA
ENDBRANCH   1   7
TORSDOF 1
ENDMDL
MODEL 7
REMARK VINA RESULT:    -3.471     15.124     15.657
REMARK INTER + INTRA:          -3.693
REMARK INTER:                  -3.677
REMARK INTRA:                  -0.016
REMARK UNBOUND:                -0.019
REMARK SMILES O=C([O-])c1cccnc1
REMARK SMILES IDX 4 1 5 2 9 3 6 4 8 5 7 6 2 7 1 8 3 9
REMARK H PARENT
REMARK Flexibility Score: inf
ROOT
ATOM      1  C   UNL     1     -13.548 -16.246  -3.662  1.00  0.00     0.016 A 
ATOM      2  C   UNL     1     -14.746 -16.780  -3.160  1.00  0.00     0.013 A 
ATOM      3  C   UNL     1     -13.539 -15.745  -4.976  1.00  0.00     0.120 A 
ATOM      4  C   UNL     1     -15.892 -16.806  -3.957  1.00  0.00     0.021 A 
ATOM      5  N   UNL     1     -14.669 -15.782  -5.731  1.00  0.00    -0.264 NA
ATOM      6  C   UNL     1     -15.833 -16.296  -5.255  1.00  0.00     0.111 A 
ENDROOT
BRANCH   1   7
ATOM      7  C   UNL     1     -12.328 -16.213  -2.826  1.00  0.00     0.073 C 
ATOM      8  O   UNL     1     -12.160 -15.301  -1.974  1.00  0.00    -0.545 OA
ATOM      9  O   UNL     1     -11.350 -17.191  -2.970  1.00  0.00    -0.545 OA
ENDBRANCH   1   7
TORSDOF 1
ENDMDL
MODEL 8
REMARK VINA RESULT:    -3.390     15.020     15.840
REMARK INTER + INTRA:          -3.607
REMARK INTER:                  -3.590
REMARK INTRA:                  -0.017
REMARK UNBOUND:                -0.019
REMARK SMILES O=C([O-])c1cccnc1
REMARK SMILES IDX 4 1 5 2 9 3 6 4 8 5 7 6 2 7 1 8 3 9
REMARK H PARENT
REMARK Flexibility Score: inf
ROOT
ATOM      1  C   UNL     1     -16.474 -16.244  -5.503  1.00  0.00     0.016 A 
ATOM      2  C   UNL     1     -15.841 -17.016  -6.492  1.00  0.00     0.013 A 
ATOM      3  C   UNL     1     -17.706 -15.643  -5.812  1.00  0.00     0.120 A 
ATOM      4  C   UNL     1     -16.435 -17.172  -7.746  1.00  0.00     0.021 A 
ATOM      5  N   UNL     1     -18.263 -15.812  -7.040  1.00  0.00    -0.264 NA
ATOM      6  C   UNL     1     -17.660 -16.556  -8.004  1.00  0.00     0.111 A 
ENDROOT
BRANCH   1   7
ATOM      7  C   UNL     1     -15.854 -16.071  -4.171  1.00  0.00     0.073 C 
ATOM      8  O   UNL     1     -15.760 -17.044  -3.377  1.00  0.00    -0.545 OA
ATOM      9  O   UNL     1     -15.365 -14.830  -3.778  1.00  0.00    -0.545 OA
ENDBRANCH   1   7
TORSDOF 1
ENDMDL
MODEL 9
REMARK VINA RESULT:    -3.360     16.822     17.845
REMARK INTER + INTRA:          -3.576
REMARK INTER:                  -3.554
REMARK INTRA:                  -0.022
REMARK UNBOUND:                -0.019
REMARK SMILES O=C([O-])c1cccnc1
REMARK SMILES IDX 4 1 5 2 9 3 6 4 8 5 7 6 2 7 1 8 3 9
REMARK H PARENT
REMARK Flexibility Score: inf
ROOT
ATOM      1  C   UNL     1     -20.283 -16.924  -8.634  1.00  0.00     0.016 A 
ATOM      2  C   UNL     1     -20.881 -16.494  -7.439  1.00  0.00     0.013 A 
ATOM      3  C   UNL     1     -21.035 -16.858  -9.820  1.00  0.00     0.120 A 
ATOM      4  C   UNL     1     -22.192 -16.014  -7.444  1.00  0.00     0.021 A 
ATOM      5  N   UNL     1     -22.310 -16.385  -9.797  1.00  0.00    -0.264 NA
ATOM      6  C   UNL     1     -22.898 -15.966  -8.646  1.00  0.00     0.111 A 
ENDROOT
BRANCH   1   7
ATOM      7  C   UNL     1     -18.894 -17.435  -8.641  1.00  0.00     0.073 C 
ATOM      8  O   UNL     1     -18.044 -16.988  -7.827  1.00  0.00    -0.545 OA
ATOM      9  O   UNL     1     -18.510 -18.416  -9.549  1.00  0.00    -0.545 OA
ENDBRANCH   1   7
TORSDOF 1
ENDMDL
