MODEL 1
REMARK VINA RESULT:    10.679      0.000      0.000
REMARK INTER + INTRA:          15.358
REMARK INTER:                  13.800
REMARK INTRA:                   1.558
REMARK UNBOUND:                 1.558
REMARK SMILES CCO[C@@H]1O[C@@H](CO)[C@H](O)[C@@H](O)[C@@H]1O
REMARK SMILES IDX 4 1 13 2 11 3 9 4 6 5 5 6 3 7 2 8 1 9 14 10 12 12 7 14 8 15
REMARK SMILES IDX 10 17
REMARK H PARENT 14 11 12 13 8 16 10 18
REMARK Flexibility Score: inf
ROOT
ATOM      1  C   UNL     1      84.752 107.196 104.764  1.00  0.00     0.281 C 
ATOM      2  C   UNL     1      84.074 108.550 105.052  1.00  0.00     0.202 C 
ATOM      3  C   UNL     1      83.077 108.917 103.912  1.00  0.00     0.179 C 
ATOM      4  C   UNL     1      82.806 107.728 102.969  1.00  0.00     0.177 C 
ATOM      5  C   UNL     1      84.167 107.139 102.475  1.00  0.00     0.178 C 
ATOM      6  O   UNL     1      85.225 107.203 103.431  1.00  0.00    -0.341 OA
ENDROOT
BRANCH   1   7
ATOM      7  O   UNL     1      85.833 107.014 105.661  1.00  0.00    -0.350 OA
BRANCH   7   8
ATOM      8  C   UNL     1      85.938 108.098 106.565  1.00  0.00     0.160 C 
ATOM      9  C   UNL     1      87.399 108.500 106.715  1.00  0.00     0.035 C 
ENDBRANCH   7   8
ENDBRANCH   1   7
BRANCH   2  10
ATOM     10  O   UNL     1      85.074 109.546 105.155  1.00  0.00    -0.385 OA
ATOM     11  H   UNL     1      84.882 110.218 104.445  1.00  0.00     0.211 HD
ENDBRANCH   2  10
BRANCH   3  12
ATOM     12  O   UNL     1      81.876 109.420 104.438  1.00  0.00    -0.387 OA
ATOM     13  H   UNL     1      82.097 109.920 105.265  1.00  0.00     0.211 HD
ENDBRANCH   3  12
BRANCH   5  14
ATOM     14  C   UNL     1      84.011 105.694 101.972  1.00  0.00     0.191 C 
BRANCH  14  15
ATOM     15  O   UNL     1      82.667 105.300 102.011  1.00  0.00    -0.394 OA
ATOM     16  H   UNL     1      82.136 106.112 102.239  1.00  0.00     0.210 HD
ENDBRANCH  14  15
ENDBRANCH   5  14
BRANCH   4  17
ATOM     17  O   UNL     1      82.036 108.167 101.876  1.00  0.00    -0.387 OA
ATOM     18  H   UNL     1      81.369 108.810 102.234  1.00  0.00     0.211 HD
ENDBRANCH   4  17
TORSDOF 7
ENDMDL
MODEL 2
REMARK VINA RESULT:    11.782      1.295      1.379
REMARK INTER + INTRA:          16.784
REMARK INTER:                  15.356
REMARK INTRA:                   1.428
REMARK UNBOUND:                 1.558
REMARK SMILES CCO[C@@H]1O[C@@H](CO)[C@H](O)[C@@H](O)[C@@H]1O
REMARK SMILES IDX 4 1 13 2 11 3 9 4 6 5 5 6 3 7 2 8 1 9 14 10 12 12 7 14 8 15
REMARK SMILES IDX 10 17
REMARK H PARENT 14 11 12 13 8 16 10 18
REMARK Flexibility Score: inf
ROOT
ATOM      1  C   UNL     1      85.440 107.268 105.073  1.00  0.00     0.281 C 
ATOM      2  C   UNL     1      84.300 107.703 106.013  1.00  0.00     0.202 C 
ATOM      3  C   UNL     1      83.000 107.989 105.203  1.00  0.00     0.179 C 
ATOM      4  C   UNL     1      83.098 107.488 103.748  1.00  0.00     0.177 C 
ATOM      5  C   UNL     1      84.405 108.045 103.096  1.00  0.00     0.178 C 
ATOM      6  O   UNL     1      85.507 108.179 103.993  1.00  0.00    -0.341 OA
ENDROOT
BRANCH   1   7
ATOM      7  O   UNL     1      86.664 107.273 105.787  1.00  0.00    -0.350 OA
BRANCH   7   8
ATOM      8  C   UNL     1      86.773 108.421 106.609  1.00  0.00     0.160 C 
ATOM      9  C   UNL     1      88.205 108.561 107.106  1.00  0.00     0.035 C 
ENDBRANCH   7   8
ENDBRANCH   1   7
BRANCH   2  10
ATOM     10  O   UNL     1      84.701 108.869 106.706  1.00  0.00    -0.385 OA
ATOM     11  H   UNL     1      85.276 108.569 107.462  1.00  0.00     0.211 HD
ENDBRANCH   2  10
BRANCH   3  12
ATOM     12  O   UNL     1      81.877 107.441 105.844  1.00  0.00    -0.387 OA
ATOM     13  H   UNL     1      81.621 108.057 106.578  1.00  0.00     0.211 HD
ENDBRANCH   3  12
BRANCH   5  14
ATOM     14  C   UNL     1      84.830 107.211 101.875  1.00  0.00     0.191 C 
BRANCH  14  15
ATOM     15  O   UNL     1      84.208 105.956 101.894  1.00  0.00    -0.394 OA
ATOM     16  H   UNL     1      83.461 105.995 101.235  1.00  0.00     0.210 HD
ENDBRANCH  14  15
ENDBRANCH   5  14
BRANCH   4  17
ATOM     17  O   UNL     1      81.968 107.921 103.029  1.00  0.00    -0.387 OA
ATOM     18  H   UNL     1      81.611 107.126 102.550  1.00  0.00     0.211 HD
ENDBRANCH   4  17
TORSDOF 7
ENDMDL
MODEL 3
REMARK VINA RESULT:    11.958      1.563      2.910
REMARK INTER + INTRA:          17.011
REMARK INTER:                  17.201
REMARK INTRA:                  -0.189
REMARK UNBOUND:                 1.558
REMARK SMILES CCO[C@@H]1O[C@@H](CO)[C@H](O)[C@@H](O)[C@@H]1O
REMARK SMILES IDX 4 1 13 2 11 3 9 4 6 5 5 6 3 7 2 8 1 9 14 10 12 12 7 14 8 15
REMARK SMILES IDX 10 17
REMARK H PARENT 14 11 12 13 8 16 10 18
REMARK Flexibility Score: inf
ROOT
ATOM      1  C   UNL     1      84.801 107.998 104.612  1.00  0.00     0.281 C 
ATOM      2  C   UNL     1      83.636 106.992 104.668  1.00  0.00     0.202 C 
ATOM      3  C   UNL     1      82.526 107.381 103.646  1.00  0.00     0.179 C 
ATOM      4  C   UNL     1      82.998 108.466 102.657  1.00  0.00     0.177 C 
ATOM      5  C   UNL     1      83.594 109.669 103.456  1.00  0.00     0.178 C 
ATOM      6  O   UNL     1      84.269 109.308 104.660  1.00  0.00    -0.341 OA
ENDROOT
BRANCH   1   7
ATOM      7  O   UNL     1      85.660 107.782 105.717  1.00  0.00    -0.350 OA
BRANCH   7   8
ATOM      8  C   UNL     1      85.966 108.998 106.373  1.00  0.00     0.160 C 
ATOM      9  C   UNL     1      87.283 108.859 107.123  1.00  0.00     0.035 C 
ENDBRANCH   7   8
ENDBRANCH   1   7
BRANCH   2  10
ATOM     10  O   UNL     1      83.102 106.987 105.978  1.00  0.00    -0.385 OA
ATOM     11  H   UNL     1      83.271 107.892 106.359  1.00  0.00     0.211 HD
ENDBRANCH   2  10
BRANCH   3  12
ATOM     12  O   UNL     1      82.056 106.249 102.958  1.00  0.00    -0.387 OA
ATOM     13  H   UNL     1      82.074 106.460 101.990  1.00  0.00     0.211 HD
ENDBRANCH   3  12
BRANCH   5  14
ATOM     14  C   UNL     1      84.523 110.527 102.580  1.00  0.00     0.191 C 
BRANCH  14  15
ATOM     15  O   UNL     1      84.494 111.866 102.993  1.00  0.00    -0.394 OA
ATOM     16  H   UNL     1      85.218 112.336 102.495  1.00  0.00     0.210 HD
ENDBRANCH  14  15
ENDBRANCH   5  14
BRANCH   4  17
ATOM     17  O   UNL     1      81.907 108.889 101.875  1.00  0.00    -0.387 OA
ATOM     18  H   UNL     1      81.117 108.368 102.179  1.00  0.00     0.211 HD
ENDBRANCH   4  17
TORSDOF 7
ENDMDL
