MODEL 1
REMARK VINA RESULT:    -5.454      0.000      0.000
REMARK INTER + INTRA:          -6.471
REMARK INTER:                  -6.411
REMARK INTRA:                  -0.060
REMARK UNBOUND:                -0.060
REMARK SMILES COc1ccc(C=CC(=O)[O-])cc1
REMARK SMILES IDX 6 1 5 2 12 3 4 4 13 5 3 6 7 7 8 8 9 9 10 10 11 11 2 12 1 13
REMARK H PARENT
REMARK Flexibility Score: inf
ROOT
ATOM      1  C   UNL     1      13.400  16.802  27.725  1.00  0.00    -0.025 A 
ATOM      2  C   UNL     1      12.678  15.942  28.566  1.00  0.00     0.012 A 
ATOM      3  C   UNL     1      14.804  16.772  27.756  1.00  0.00     0.012 A 
ATOM      4  C   UNL     1      13.348  15.029  29.386  1.00  0.00     0.047 A 
ATOM      5  C   UNL     1      15.474  15.860  28.576  1.00  0.00     0.047 A 
ATOM      6  C   UNL     1      14.747  14.977  29.397  1.00  0.00     0.118 A 
ENDROOT
BRANCH   1   7
ATOM      7  C   UNL     1      12.671  17.792  26.907  1.00  0.00     0.010 C 
ATOM      8  C   UNL     1      12.344  17.641  25.614  1.00  0.00     0.025 C 
BRANCH   8   9
ATOM      9  C   UNL     1      12.479  16.395  24.838  1.00  0.00     0.064 C 
ATOM     10  O   UNL     1      13.607  15.841  24.754  1.00  0.00    -0.545 OA
ATOM     11  O   UNL     1      11.407  15.854  24.137  1.00  0.00    -0.545 OA
ENDBRANCH   8   9
ENDBRANCH   1   7
BRANCH   6  12
ATOM     12  O   UNL     1      15.372  14.042  30.236  1.00  0.00    -0.497 OA
ATOM     13  C   UNL     1      14.839  13.593  31.478  1.00  0.00     0.278 C 
ENDBRANCH   6  12
TORSDOF 3
ENDMDL
MODEL 2
REMARK VINA RESULT:    -5.310      1.637      5.521
REMARK INTER + INTRA:          -6.301
REMARK INTER:                  -6.153
REMARK INTRA:                  -0.148
REMARK UNBOUND:                -0.060
REMARK SMILES COc1ccc(C=CC(=O)[O-])cc1
REMARK SMILES IDX 6 1 5 2 12 3 4 4 13 5 3 6 7 7 8 8 9 9 10 10 11 11 2 12 1 13
REMARK H PARENT
REMARK Flexibility Score: inf
ROOT
ATOM      1  C   UNL     1      14.263  17.118  26.781  1.00  0.00    -0.025 A 
ATOM      2  C   UNL     1      14.555  16.919  25.424  1.00  0.00     0.012 A 
ATOM      3  C   UNL     1      12.978  17.549  27.150  1.00  0.00     0.012 A 
ATOM      4  C   UNL     1      13.563  17.096  24.455  1.00  0.00     0.047 A 
ATOM      5  C   UNL     1      11.986  17.727  26.182  1.00  0.00     0.047 A 
ATOM      6  C   UNL     1      12.273  17.497  24.823  1.00  0.00     0.118 A 
ENDROOT
BRANCH   1   7
ATOM      7  C   UNL     1      15.341  16.975  27.781  1.00  0.00     0.010 C 
ATOM      8  C   UNL     1      15.389  16.040  28.742  1.00  0.00     0.025 C 
BRANCH   8   9
ATOM      9  C   UNL     1      14.484  14.880  28.854  1.00  0.00     0.064 C 
ATOM     10  O   UNL     1      13.341  15.038  29.356  1.00  0.00    -0.545 OA
ATOM     11  O   UNL     1      14.890  13.604  28.482  1.00  0.00    -0.545 OA
ENDBRANCH   8   9
ENDBRANCH   1   7
BRANCH   6  12
ATOM     12  O   UNL     1      11.312  17.659  23.813  1.00  0.00    -0.497 OA
ATOM     13  C   UNL     1      11.614  17.996  22.462  1.00  0.00     0.278 C 
ENDBRANCH   6  12
TORSDOF 3
ENDMDL
MODEL 3
REMARK VINA RESULT:    -5.295      2.220      3.014
REMARK INTER + INTRA:          -6.283
REMARK INTER:                  -6.374
REMARK INTRA:                   0.091
REMARK UNBOUND:                -0.060
REMARK SMILES COc1ccc(C=CC(=O)[O-])cc1
REMARK SMILES IDX 6 1 5 2 12 3 4 4 13 5 3 6 7 7 8 8 9 9 10 10 11 11 2 12 1 13
REMARK H PARENT
REMARK Flexibility Score: inf
ROOT
ATOM      1  C   UNL     1      13.087  17.562  26.477  1.00  0.00    -0.025 A 
ATOM      2  C   UNL     1      13.460  17.076  27.738  1.00  0.00     0.012 A 
ATOM      3  C   UNL     1      14.071  17.736  25.490  1.00  0.00     0.012 A 
ATOM      4  C   UNL     1      14.788  16.718  27.992  1.00  0.00     0.047 A 
ATOM      5  C   UNL     1      15.398  17.379  25.745  1.00  0.00     0.047 A 
ATOM      6  C   UNL     1      15.766  16.861  27.001  1.00  0.00     0.118 A 
ENDROOT
BRANCH   1   7
ATOM      7  C   UNL     1      11.689  17.982  26.249  1.00  0.00     0.010 C 
ATOM      8  C   UNL     1      10.994  17.787  25.118  1.00  0.00     0.025 C 
BRANCH   8   9
ATOM      9  C   UNL     1      11.430  16.957  23.979  1.00  0.00     0.064 C 
ATOM     10  O   UNL     1      11.471  15.705  24.110  1.00  0.00    -0.545 OA
ATOM     11  O   UNL     1      11.865  17.527  22.788  1.00  0.00    -0.545 OA
ENDBRANCH   8   9
ENDBRANCH   1   7
BRANCH   6  12
ATOM     12  O   UNL     1      17.083  16.486  27.305  1.00  0.00    -0.497 OA
ATOM     13  C   UNL     1      18.192  16.667  26.431  1.00  0.00     0.278 C 
ENDBRANCH   6  12
TORSDOF 3
ENDMDL
MODEL 4
REMARK VINA RESULT:    -5.164      1.364      1.962
REMARK INTER + INTRA:          -6.129
REMARK INTER:                  -5.942
REMARK INTRA:                  -0.187
REMARK UNBOUND:                -0.060
REMARK SMILES COc1ccc(C=CC(=O)[O-])cc1
REMARK SMILES IDX 6 1 5 2 12 3 4 4 13 5 3 6 7 7 8 8 9 9 10 10 11 11 2 12 1 13
REMARK H PARENT
REMARK Flexibility Score: inf
ROOT
ATOM      1  C   UNL     1      13.896  17.013  26.428  1.00  0.00    -0.025 A 
ATOM      2  C   UNL     1      14.693  15.873  26.609  1.00  0.00     0.012 A 
ATOM      3  C   UNL     1      12.973  17.370  27.424  1.00  0.00     0.012 A 
ATOM      4  C   UNL     1      14.606  15.132  27.791  1.00  0.00     0.047 A 
ATOM      5  C   UNL     1      12.885  16.628  28.605  1.00  0.00     0.047 A 
ATOM      6  C   UNL     1      13.707  15.502  28.798  1.00  0.00     0.118 A 
ENDROOT
BRANCH   1   7
ATOM      7  C   UNL     1      13.969  17.750  25.150  1.00  0.00     0.010 C 
ATOM      8  C   UNL     1      13.039  17.722  24.183  1.00  0.00     0.025 C 
BRANCH   8   9
ATOM      9  C   UNL     1      11.702  17.111  24.300  1.00  0.00     0.064 C 
ATOM     10  O   UNL     1      11.541  15.911  23.955  1.00  0.00    -0.545 OA
ATOM     11  O   UNL     1      10.599  17.849  24.716  1.00  0.00    -0.545 OA
ENDBRANCH   8   9
ENDBRANCH   1   7
BRANCH   6  12
ATOM     12  O   UNL     1      13.659  14.725  29.966  1.00  0.00    -0.497 OA
ATOM     13  C   UNL     1      14.761  13.989  30.488  1.00  0.00     0.278 C 
ENDBRANCH   6  12
TORSDOF 3
ENDMDL
MODEL 5
REMARK VINA RESULT:    -5.104      1.534      5.406
REMARK INTER + INTRA:          -6.059
REMARK INTER:                  -6.043
REMARK INTRA:                  -0.016
REMARK UNBOUND:                -0.060
REMARK SMILES COc1ccc(C=CC(=O)[O-])cc1
REMARK SMILES IDX 6 1 5 2 12 3 4 4 13 5 3 6 7 7 8 8 9 9 10 10 11 11 2 12 1 13
REMARK H PARENT
REMARK Flexibility Score: inf
ROOT
ATOM      1  C   UNL     1      14.064  15.354  29.469  1.00  0.00    -0.025 A 
ATOM      2  C   UNL     1      15.307  15.783  28.982  1.00  0.00     0.012 A 
ATOM      3  C   UNL     1      12.937  15.430  28.634  1.00  0.00     0.012 A 
ATOM      4  C   UNL     1      15.432  16.231  27.664  1.00  0.00     0.047 A 
ATOM      5  C   UNL     1      13.062  15.879  27.316  1.00  0.00     0.047 A 
ATOM      6  C   UNL     1      14.317  16.280  26.820  1.00  0.00     0.118 A 
ENDROOT
BRANCH   1   7
ATOM      7  C   UNL     1      13.946  14.934  30.880  1.00  0.00     0.010 C 
ATOM      8  C   UNL     1      14.400  13.777  31.386  1.00  0.00     0.025 C 
BRANCH   8   9
ATOM      9  C   UNL     1      15.259  12.811  30.676  1.00  0.00     0.064 C 
ATOM     10  O   UNL     1      16.361  12.478  31.185  1.00  0.00    -0.545 OA
ATOM     11  O   UNL     1      14.914  12.315  29.424  1.00  0.00    -0.545 OA
ENDBRANCH   8   9
ENDBRANCH   1   7
BRANCH   6  12
ATOM     12  O   UNL     1      14.496  16.736  25.504  1.00  0.00    -0.497 OA
ATOM     13  C   UNL     1      13.481  16.725  24.505  1.00  0.00     0.278 C 
ENDBRANCH   6  12
TORSDOF 3
ENDMDL
MODEL 6
REMARK VINA RESULT:    -4.627      2.142      5.763
REMARK INTER + INTRA:          -5.498
REMARK INTER:                  -5.327
REMARK INTRA:                  -0.171
REMARK UNBOUND:                -0.060
REMARK SMILES COc1ccc(C=CC(=O)[O-])cc1
REMARK SMILES IDX 6 1 5 2 12 3 4 4 13 5 3 6 7 7 8 8 9 9 10 10 11 11 2 12 1 13
REMARK H PARENT
REMARK Flexibility Score: inf
ROOT
ATOM      1  C   UNL     1      12.323  16.202  26.418  1.00  0.00    -0.025 A 
ATOM      2  C   UNL     1      11.711  17.464  26.449  1.00  0.00     0.012 A 
ATOM      3  C   UNL     1      12.489  15.551  25.185  1.00  0.00     0.012 A 
ATOM      4  C   UNL     1      11.320  18.089  25.261  1.00  0.00     0.047 A 
ATOM      5  C   UNL     1      12.097  16.175  23.997  1.00  0.00     0.047 A 
ATOM      6  C   UNL     1      11.512  17.455  24.028  1.00  0.00     0.118 A 
ENDROOT
BRANCH   1   7
ATOM      7  C   UNL     1      12.680  15.541  27.690  1.00  0.00     0.010 C 
ATOM      8  C   UNL     1      13.888  15.580  28.273  1.00  0.00     0.025 C 
BRANCH   8   9
ATOM      9  C   UNL     1      15.011  16.441  27.856  1.00  0.00     0.064 C 
ATOM     10  O   UNL     1      14.849  17.689  27.816  1.00  0.00    -0.545 OA
ATOM     11  O   UNL     1      16.223  15.902  27.438  1.00  0.00    -0.545 OA
ENDBRANCH   8   9
ENDBRANCH   1   7
BRANCH   6  12
ATOM     12  O   UNL     1      11.104  18.125  22.864  1.00  0.00    -0.497 OA
ATOM     13  C   UNL     1      11.798  18.073  21.622  1.00  0.00     0.278 C 
ENDBRANCH   6  12
TORSDOF 3
ENDMDL
MODEL 7
REMARK VINA RESULT:    -4.604      2.988      4.340
REMARK INTER + INTRA:          -5.472
REMARK INTER:                  -5.533
REMARK INTRA:                   0.061
REMARK UNBOUND:                -0.060
REMARK SMILES COc1ccc(C=CC(=O)[O-])cc1
REMARK SMILES IDX 6 1 5 2 12 3 4 4 13 5 3 6 7 7 8 8 9 9 10 10 11 11 2 12 1 13
REMARK H PARENT
REMARK Flexibility Score: inf
ROOT
ATOM      1  C   UNL     1      15.104  17.233  26.685  1.00  0.00    -0.025 A 
ATOM      2  C   UNL     1      16.146  16.653  27.422  1.00  0.00     0.012 A 
ATOM      3  C   UNL     1      15.397  17.869  25.468  1.00  0.00     0.012 A 
ATOM      4  C   UNL     1      17.453  16.661  26.925  1.00  0.00     0.047 A 
ATOM      5  C   UNL     1      16.704  17.879  24.971  1.00  0.00     0.047 A 
ATOM      6  C   UNL     1      17.743  17.269  25.698  1.00  0.00     0.118 A 
ENDROOT
BRANCH   1   7
ATOM      7  C   UNL     1      13.742  17.257  27.254  1.00  0.00     0.010 C 
ATOM      8  C   UNL     1      12.645  16.752  26.667  1.00  0.00     0.025 C 
BRANCH   8   9
ATOM      9  C   UNL     1      12.634  15.921  25.449  1.00  0.00     0.064 C 
ATOM     10  O   UNL     1      13.449  14.967  25.347  1.00  0.00    -0.545 OA
ATOM     11  O   UNL     1      11.793  16.209  24.380  1.00  0.00    -0.545 OA
ENDBRANCH   8   9
ENDBRANCH   1   7
BRANCH   6  12
ATOM     12  O   UNL     1      19.070  17.249  25.242  1.00  0.00    -0.497 OA
ATOM     13  C   UNL     1      19.454  17.393  23.878  1.00  0.00     0.278 C 
ENDBRANCH   6  12
TORSDOF 3
ENDMDL
MODEL 8
REMARK VINA RESULT:    -4.407      2.529      4.974
REMARK INTER + INTRA:          -5.240
REMARK INTER:                  -5.758
REMARK INTRA:                   0.517
REMARK UNBOUND:                -0.060
REMARK SMILES COc1ccc(C=CC(=O)[O-])cc1
REMARK SMILES IDX 6 1 5 2 12 3 4 4 13 5 3 6 7 7 8 8 9 9 10 10 11 11 2 12 1 13
REMARK H PARENT
REMARK Flexibility Score: inf
ROOT
ATOM      1  C   UNL     1      14.609  16.870  27.254  1.00  0.00    -0.025 A 
ATOM      2  C   UNL     1      14.451  17.385  25.959  1.00  0.00     0.012 A 
ATOM      3  C   UNL     1      15.903  16.601  27.731  1.00  0.00     0.012 A 
ATOM      4  C   UNL     1      15.569  17.677  25.173  1.00  0.00     0.047 A 
ATOM      5  C   UNL     1      17.021  16.892  26.945  1.00  0.00     0.047 A 
ATOM      6  C   UNL     1      16.861  17.438  25.657  1.00  0.00     0.118 A 
ENDROOT
BRANCH   1   7
ATOM      7  C   UNL     1      13.412  16.522  28.045  1.00  0.00     0.010 C 
ATOM      8  C   UNL     1      13.307  15.470  28.873  1.00  0.00     0.025 C 
BRANCH   8   9
ATOM      9  C   UNL     1      14.418  14.594  29.287  1.00  0.00     0.064 C 
ATOM     10  O   UNL     1      14.841  13.717  28.488  1.00  0.00    -0.545 OA
ATOM     11  O   UNL     1      14.963  14.665  30.564  1.00  0.00    -0.545 OA
ENDBRANCH   8   9
ENDBRANCH   1   7
BRANCH   6  12
ATOM     12  O   UNL     1      17.951  17.750  24.831  1.00  0.00    -0.497 OA
ATOM     13  C   UNL     1      19.300  17.390  25.110  1.00  0.00     0.278 C 
ENDBRANCH   6  12
TORSDOF 3
ENDMDL
MODEL 9
REMARK VINA RESULT:    -3.857      2.774      3.792
REMARK INTER + INTRA:          -4.593
REMARK INTER:                  -5.042
REMARK INTRA:                   0.448
REMARK UNBOUND:                -0.060
REMARK SMILES COc1ccc(C=CC(=O)[O-])cc1
REMARK SMILES IDX 6 1 5 2 12 3 4 4 13 5 3 6 7 7 8 8 9 9 10 10 11 11 2 12 1 13
REMARK H PARENT
REMARK Flexibility Score: inf
ROOT
ATOM      1  C   UNL     1      13.821  16.403  25.258  1.00  0.00    -0.025 A 
ATOM      2  C   UNL     1      14.794  17.317  24.828  1.00  0.00     0.012 A 
ATOM      3  C   UNL     1      14.056  15.644  26.416  1.00  0.00     0.012 A 
ATOM      4  C   UNL     1      15.961  17.508  25.573  1.00  0.00     0.047 A 
ATOM      5  C   UNL     1      15.224  15.834  27.161  1.00  0.00     0.047 A 
ATOM      6  C   UNL     1      16.186  16.774  26.744  1.00  0.00     0.118 A 
ENDROOT
BRANCH   1   7
ATOM      7  C   UNL     1      12.620  16.182  24.427  1.00  0.00     0.010 C 
ATOM      8  C   UNL     1      11.383  16.617  24.717  1.00  0.00     0.025 C 
BRANCH   8   9
ATOM      9  C   UNL     1      11.039  17.548  25.807  1.00  0.00     0.064 C 
ATOM     10  O   UNL     1       9.919  18.125  25.793  1.00  0.00    -0.545 OA
ATOM     11  O   UNL     1      11.947  17.860  26.812  1.00  0.00    -0.545 OA
ENDBRANCH   8   9
ENDBRANCH   1   7
BRANCH   6  12
ATOM     12  O   UNL     1      17.373  17.004  27.457  1.00  0.00    -0.497 OA
ATOM     13  C   UNL     1      18.677  16.928  26.892  1.00  0.00     0.278 C 
ENDBRANCH   6  12
TORSDOF 3
ENDMDL
