MODEL 1
REMARK VINA RESULT:    -6.677      0.000      0.000
REMARK INTER + INTRA:         -11.741
REMARK INTER:                  -9.215
REMARK INTRA:                  -2.526
REMARK UNBOUND:                -2.526
REMARK SMILES CC[C@H](CC[C@H](C)[C@@H]1CC[C@H]2[C@@H]3CC=C4C[C@@H](O)CC[C@@]4(C)[C@@H]3CC[C@]21C)C(C)C
REMARK SMILES IDX 5 1 4 2 3 3 2 4 1 5 28 6 29 7 30 8 6 9 7 10 8 11 9 12 26 13
REMARK SMILES IDX 10 14 11 15 25 16 27 17 12 18 24 19 23 20 13 21 21 22 14 23
REMARK SMILES IDX 15 24 20 25 22 26 16 27 19 28 17 29 18 30
REMARK H PARENT 18 31
REMARK Flexibility Score: inf
ROOT
ATOM      1  C   UNL     1     114.005 115.704 125.728  1.00  0.00     0.004 C 
ENDROOT
BRANCH   1   2
ATOM      2  C   UNL     1     112.614 116.108 126.275  1.00  0.00     0.004 C 
BRANCH   2   3
ATOM      3  C   UNL     1     112.703 117.266 127.311  1.00  0.00    -0.009 C 
BRANCH   3   4
ATOM      4  C   UNL     1     111.270 117.704 127.754  1.00  0.00     0.000 C 
ATOM      5  C   UNL     1     110.974 119.162 127.397  1.00  0.00     0.004 C 
ENDBRANCH   3   4
BRANCH   3   6
ATOM      6  C   UNL     1     113.587 116.905 128.556  1.00  0.00    -0.014 C 
ATOM      7  C   UNL     1     112.838 115.940 129.497  1.00  0.00     0.007 C 
ATOM      8  C   UNL     1     114.024 118.139 129.369  1.00  0.00     0.007 C 
ENDBRANCH   3   6
ENDBRANCH   2   3
ENDBRANCH   1   2
BRANCH   1   9
ATOM      9  C   UNL     1     114.450 116.479 124.449  1.00  0.00    -0.011 C 
ATOM     10  C   UNL     1     114.997 115.474 123.406  1.00  0.00     0.008 C 
BRANCH   9  11
ATOM     11  C   UNL     1     115.458 117.654 124.754  1.00  0.00    -0.002 C 
ATOM     12  C   UNL     1     116.199 117.424 126.087  1.00  0.00     0.005 C 
ATOM     13  C   UNL     1     114.923 119.150 124.825  1.00  0.00    -0.026 C 
ATOM     14  C   UNL     1     116.452 118.793 126.677  1.00  0.00     0.005 C 
ATOM     15  C   UNL     1     115.226 119.601 126.281  1.00  0.00    -0.001 C 
ATOM     16  C   UNL     1     115.744 120.007 123.817  1.00  0.00     0.007 C 
ATOM     17  C   UNL     1     113.409 119.316 124.538  1.00  0.00     0.012 C 
ATOM     18  C   UNL     1     115.425 121.129 126.560  1.00  0.00     0.000 C 
ATOM     19  C   UNL     1     115.595 121.512 124.039  1.00  0.00     0.005 C 
ATOM     20  C   UNL     1     116.119 121.942 125.431  1.00  0.00     0.003 C 
ATOM     21  C   UNL     1     114.140 121.851 127.008  1.00  0.00     0.031 C 
ATOM     22  C   UNL     1     116.082 123.532 125.684  1.00  0.00    -0.008 C 
ATOM     23  C   UNL     1     114.552 123.149 127.636  1.00  0.00    -0.027 C 
ATOM     24  C   UNL     1     115.535 123.887 127.079  1.00  0.00    -0.065 C 
ATOM     25  C   UNL     1     117.536 124.078 125.583  1.00  0.00     0.014 C 
ATOM     26  C   UNL     1     115.183 124.275 124.652  1.00  0.00     0.016 C 
ATOM     27  C   UNL     1     116.188 124.980 127.902  1.00  0.00     0.063 C 
ATOM     28  C   UNL     1     117.686 125.581 125.898  1.00  0.00     0.033 C 
ATOM     29  C   UNL     1     116.754 126.102 127.022  1.00  0.00     0.118 C 
BRANCH  29  30
ATOM     30  O   UNL     1     117.449 127.011 127.835  1.00  0.00    -0.393 OA
ATOM     31  H   UNL     1     116.820 127.748 128.044  1.00  0.00     0.210 HD
ENDBRANCH  29  30
ENDBRANCH   9  11
ENDBRANCH   1   9
TORSDOF 7
ENDMDL
MODEL 2
REMARK VINA RESULT:    -6.626      3.437      9.391
REMARK INTER + INTRA:         -11.670
REMARK INTER:                 -10.737
REMARK INTRA:                  -0.933
REMARK UNBOUND:                -2.526
REMARK SMILES CC[C@H](CC[C@H](C)[C@@H]1CC[C@H]2[C@@H]3CC=C4C[C@@H](O)CC[C@@]4(C)[C@@H]3CC[C@]21C)C(C)C
REMARK SMILES IDX 5 1 4 2 3 3 2 4 1 5 28 6 29 7 30 8 6 9 7 10 8 11 9 12 26 13
REMARK SMILES IDX 10 14 11 15 25 16 27 17 12 18 24 19 23 20 13 21 21 22 14 23
REMARK SMILES IDX 15 24 20 25 22 26 16 27 19 28 17 29 18 30
REMARK H PARENT 18 31
REMARK Flexibility Score: inf
ROOT
ATOM      1  C   UNL     1     118.382 126.681 125.498  1.00  0.00     0.004 C 
ENDROOT
BRANCH   1   2
ATOM      2  C   UNL     1     119.125 127.879 126.140  1.00  0.00     0.004 C 
BRANCH   2   3
ATOM      3  C   UNL     1     118.813 129.221 125.417  1.00  0.00    -0.009 C 
BRANCH   3   4
ATOM      4  C   UNL     1     117.515 129.861 126.006  1.00  0.00     0.000 C 
ATOM      5  C   UNL     1     116.799 130.754 124.992  1.00  0.00     0.004 C 
ENDBRANCH   3   4
BRANCH   3   6
ATOM      6  C   UNL     1     120.010 130.234 125.467  1.00  0.00    -0.014 C 
ATOM      7  C   UNL     1     121.357 129.496 125.332  1.00  0.00     0.007 C 
ATOM      8  C   UNL     1     120.040 131.074 126.758  1.00  0.00     0.007 C 
ENDBRANCH   3   6
ENDBRANCH   2   3
ENDBRANCH   1   2
BRANCH   1   9
ATOM      9  C   UNL     1     117.284 126.039 126.402  1.00  0.00    -0.011 C 
ATOM     10  C   UNL     1     117.487 126.506 127.864  1.00  0.00     0.008 C 
BRANCH   9  11
ATOM     11  C   UNL     1     117.207 124.470 126.266  1.00  0.00    -0.002 C 
ATOM     12  C   UNL     1     117.682 124.003 124.875  1.00  0.00     0.005 C 
ATOM     13  C   UNL     1     115.821 123.727 126.505  1.00  0.00    -0.026 C 
ATOM     14  C   UNL     1     116.874 122.771 124.538  1.00  0.00     0.005 C 
ATOM     15  C   UNL     1     115.507 123.045 125.144  1.00  0.00    -0.001 C 
ATOM     16  C   UNL     1     116.031 122.649 127.609  1.00  0.00     0.007 C 
ATOM     17  C   UNL     1     114.644 124.654 126.901  1.00  0.00     0.012 C 
ATOM     18  C   UNL     1     114.606 121.764 125.145  1.00  0.00     0.000 C 
ATOM     19  C   UNL     1     114.899 121.624 127.680  1.00  0.00     0.005 C 
ATOM     20  C   UNL     1     114.773 120.815 126.366  1.00  0.00     0.003 C 
ATOM     21  C   UNL     1     113.111 122.055 124.911  1.00  0.00     0.031 C 
ATOM     22  C   UNL     1     113.662 119.651 126.416  1.00  0.00    -0.008 C 
ATOM     23  C   UNL     1     112.461 120.763 124.515  1.00  0.00    -0.027 C 
ATOM     24  C   UNL     1     112.795 119.618 125.145  1.00  0.00    -0.065 C 
ATOM     25  C   UNL     1     114.393 118.282 126.537  1.00  0.00     0.014 C 
ATOM     26  C   UNL     1     112.685 119.816 127.617  1.00  0.00     0.016 C 
ATOM     27  C   UNL     1     112.423 118.294 124.505  1.00  0.00     0.063 C 
ATOM     28  C   UNL     1     113.467 117.048 126.500  1.00  0.00     0.033 C 
ATOM     29  C   UNL     1     112.252 117.181 125.547  1.00  0.00     0.118 C 
BRANCH  29  30
ATOM     30  O   UNL     1     112.034 115.964 124.880  1.00  0.00    -0.393 OA
ATOM     31  H   UNL     1     111.053 115.827 124.848  1.00  0.00     0.210 HD
ENDBRANCH  29  30
ENDBRANCH   9  11
ENDBRANCH   1   9
TORSDOF 7
ENDMDL
MODEL 3
REMARK VINA RESULT:    -6.430      1.415      2.409
REMARK INTER + INTRA:         -11.400
REMARK INTER:                  -8.788
REMARK INTRA:                  -2.611
REMARK UNBOUND:                -2.526
REMARK SMILES CC[C@H](CC[C@H](C)[C@@H]1CC[C@H]2[C@@H]3CC=C4C[C@@H](O)CC[C@@]4(C)[C@@H]3CC[C@]21C)C(C)C
REMARK SMILES IDX 5 1 4 2 3 3 2 4 1 5 28 6 29 7 30 8 6 9 7 10 8 11 9 12 26 13
REMARK SMILES IDX 10 14 11 15 25 16 27 17 12 18 24 19 23 20 13 21 21 22 14 23
REMARK SMILES IDX 15 24 20 25 22 26 16 27 19 28 17 29 18 30
REMARK H PARENT 18 31
REMARK Flexibility Score: inf
ROOT
ATOM      1  C   UNL     1     113.817 116.215 126.844  1.00  0.00     0.004 C 
ENDROOT
BRANCH   1   2
ATOM      2  C   UNL     1     112.352 116.357 126.362  1.00  0.00     0.004 C 
BRANCH   2   3
ATOM      3  C   UNL     1     112.193 117.462 125.278  1.00  0.00    -0.009 C 
BRANCH   3   4
ATOM      4  C   UNL     1     111.637 116.843 123.955  1.00  0.00     0.000 C 
ATOM      5  C   UNL     1     112.723 116.682 122.891  1.00  0.00     0.004 C 
ENDBRANCH   3   4
BRANCH   3   6
ATOM      6  C   UNL     1     111.299 118.660 125.755  1.00  0.00    -0.014 C 
ATOM      7  C   UNL     1     111.391 119.838 124.764  1.00  0.00     0.007 C 
ATOM      8  C   UNL     1     111.669 119.173 127.160  1.00  0.00     0.007 C 
ENDBRANCH   3   6
ENDBRANCH   2   3
ENDBRANCH   1   2
BRANCH   1   9
ATOM      9  C   UNL     1     114.884 116.771 125.849  1.00  0.00    -0.011 C 
ATOM     10  C   UNL     1     115.784 115.609 125.362  1.00  0.00     0.008 C 
BRANCH   9  11
ATOM     11  C   UNL     1     115.709 117.980 126.435  1.00  0.00    -0.002 C 
ATOM     12  C   UNL     1     115.267 118.315 127.874  1.00  0.00     0.005 C 
ATOM     13  C   UNL     1     115.718 119.372 125.665  1.00  0.00    -0.026 C 
ATOM     14  C   UNL     1     115.438 119.808 128.037  1.00  0.00     0.005 C 
ATOM     15  C   UNL     1     115.085 120.374 126.670  1.00  0.00    -0.001 C 
ATOM     16  C   UNL     1     117.200 119.760 125.382  1.00  0.00     0.007 C 
ATOM     17  C   UNL     1     114.913 119.391 124.342  1.00  0.00     0.012 C 
ATOM     18  C   UNL     1     115.471 121.887 126.553  1.00  0.00     0.000 C 
ATOM     19  C   UNL     1     117.377 121.226 124.984  1.00  0.00     0.005 C 
ATOM     20  C   UNL     1     116.933 122.185 126.115  1.00  0.00     0.003 C 
ATOM     21  C   UNL     1     114.492 122.714 125.698  1.00  0.00     0.031 C 
ATOM     22  C   UNL     1     117.190 123.742 125.794  1.00  0.00    -0.008 C 
ATOM     23  C   UNL     1     114.727 124.160 126.021  1.00  0.00    -0.027 C 
ATOM     24  C   UNL     1     115.986 124.622 126.172  1.00  0.00    -0.065 C 
ATOM     25  C   UNL     1     118.415 124.218 126.627  1.00  0.00     0.014 C 
ATOM     26  C   UNL     1     117.470 123.996 124.283  1.00  0.00     0.016 C 
ATOM     27  C   UNL     1     116.198 125.962 126.850  1.00  0.00     0.063 C 
ATOM     28  C   UNL     1     118.737 125.723 126.505  1.00  0.00     0.033 C 
ATOM     29  C   UNL     1     117.493 126.641 126.387  1.00  0.00     0.118 C 
BRANCH  29  30
ATOM     30  O   UNL     1     117.689 127.808 127.142  1.00  0.00    -0.393 OA
ATOM     31  H   UNL     1     117.591 127.553 128.095  1.00  0.00     0.210 HD
ENDBRANCH  29  30
ENDBRANCH   9  11
ENDBRANCH   1   9
TORSDOF 7
ENDMDL
MODEL 4
REMARK VINA RESULT:    -6.421      1.505      3.044
REMARK INTER + INTRA:         -11.386
REMARK INTER:                  -9.875
REMARK INTRA:                  -1.511
REMARK UNBOUND:                -2.526
REMARK SMILES CC[C@H](CC[C@H](C)[C@@H]1CC[C@H]2[C@@H]3CC=C4C[C@@H](O)CC[C@@]4(C)[C@@H]3CC[C@]21C)C(C)C
REMARK SMILES IDX 5 1 4 2 3 3 2 4 1 5 28 6 29 7 30 8 6 9 7 10 8 11 9 12 26 13
REMARK SMILES IDX 10 14 11 15 25 16 27 17 12 18 24 19 23 20 13 21 21 22 14 23
REMARK SMILES IDX 15 24 20 25 22 26 16 27 19 28 17 29 18 30
REMARK H PARENT 18 31
REMARK Flexibility Score: inf
ROOT
ATOM      1  C   UNL     1     112.727 116.002 126.278  1.00  0.00     0.004 C 
ENDROOT
BRANCH   1   2
ATOM      2  C   UNL     1     112.047 115.994 127.669  1.00  0.00     0.004 C 
BRANCH   2   3
ATOM      3  C   UNL     1     113.070 116.186 128.826  1.00  0.00    -0.009 C 
BRANCH   3   4
ATOM      4  C   UNL     1     114.529 116.167 128.263  1.00  0.00     0.000 C 
ATOM      5  C   UNL     1     115.494 116.974 129.133  1.00  0.00     0.004 C 
ENDBRANCH   3   4
BRANCH   3   6
ATOM      6  C   UNL     1     112.810 117.489 129.661  1.00  0.00    -0.014 C 
ATOM      7  C   UNL     1     112.359 117.138 131.093  1.00  0.00     0.007 C 
ATOM      8  C   UNL     1     111.754 118.415 129.029  1.00  0.00     0.007 C 
ENDBRANCH   3   6
ENDBRANCH   2   3
ENDBRANCH   1   2
BRANCH   1   9
ATOM      9  C   UNL     1     112.082 116.980 125.246  1.00  0.00    -0.011 C 
ATOM     10  C   UNL     1     112.481 116.547 123.814  1.00  0.00     0.008 C 
BRANCH   9  11
ATOM     11  C   UNL     1     112.405 118.495 125.540  1.00  0.00    -0.002 C 
ATOM     12  C   UNL     1     111.682 119.426 124.547  1.00  0.00     0.005 C 
ATOM     13  C   UNL     1     113.918 118.989 125.551  1.00  0.00    -0.026 C 
ATOM     14  C   UNL     1     112.585 120.620 124.343  1.00  0.00     0.005 C 
ATOM     15  C   UNL     1     113.989 120.039 124.408  1.00  0.00    -0.001 C 
ATOM     16  C   UNL     1     114.197 119.669 126.923  1.00  0.00     0.007 C 
ATOM     17  C   UNL     1     114.968 117.878 125.297  1.00  0.00     0.012 C 
ATOM     18  C   UNL     1     115.077 121.162 124.498  1.00  0.00     0.000 C 
ATOM     19  C   UNL     1     115.476 120.506 126.936  1.00  0.00     0.005 C 
ATOM     20  C   UNL     1     115.405 121.679 125.928  1.00  0.00     0.003 C 
ATOM     21  C   UNL     1     116.383 120.823 123.754  1.00  0.00     0.031 C 
ATOM     22  C   UNL     1     116.684 122.656 125.967  1.00  0.00    -0.008 C 
ATOM     23  C   UNL     1     117.133 122.108 123.560  1.00  0.00    -0.027 C 
ATOM     24  C   UNL     1     117.186 123.016 124.557  1.00  0.00    -0.065 C 
ATOM     25  C   UNL     1     116.270 123.976 126.681  1.00  0.00     0.014 C 
ATOM     26  C   UNL     1     117.890 122.024 126.721  1.00  0.00     0.016 C 
ATOM     27  C   UNL     1     117.615 124.434 124.234  1.00  0.00     0.063 C 
ATOM     28  C   UNL     1     117.363 125.064 126.716  1.00  0.00     0.033 C 
ATOM     29  C   UNL     1     118.247 125.132 125.445  1.00  0.00     0.118 C 
BRANCH  29  30
ATOM     30  O   UNL     1     118.504 126.473 125.114  1.00  0.00    -0.393 OA
ATOM     31  H   UNL     1     118.150 126.614 124.199  1.00  0.00     0.210 HD
ENDBRANCH  29  30
ENDBRANCH   9  11
ENDBRANCH   1   9
TORSDOF 7
ENDMDL
MODEL 5
REMARK VINA RESULT:    -6.347      2.085      4.744
REMARK INTER + INTRA:         -11.285
REMARK INTER:                 -10.102
REMARK INTRA:                  -1.182
REMARK UNBOUND:                -2.526
REMARK SMILES CC[C@H](CC[C@H](C)[C@@H]1CC[C@H]2[C@@H]3CC=C4C[C@@H](O)CC[C@@]4(C)[C@@H]3CC[C@]21C)C(C)C
REMARK SMILES IDX 5 1 4 2 3 3 2 4 1 5 28 6 29 7 30 8 6 9 7 10 8 11 9 12 26 13
REMARK SMILES IDX 10 14 11 15 25 16 27 17 12 18 24 19 23 20 13 21 21 22 14 23
REMARK SMILES IDX 15 24 20 25 22 26 16 27 19 28 17 29 18 30
REMARK H PARENT 18 31
REMARK Flexibility Score: inf
ROOT
ATOM      1  C   UNL     1     113.543 119.856 125.696  1.00  0.00     0.004 C 
ENDROOT
BRANCH   1   2
ATOM      2  C   UNL     1     112.019 119.583 125.659  1.00  0.00     0.004 C 
BRANCH   2   3
ATOM      3  C   UNL     1     111.695 118.100 125.313  1.00  0.00    -0.009 C 
BRANCH   3   4
ATOM      4  C   UNL     1     111.956 117.833 123.795  1.00  0.00     0.000 C 
ATOM      5  C   UNL     1     111.332 118.907 122.903  1.00  0.00     0.004 C 
ENDBRANCH   3   4
BRANCH   3   6
ATOM      6  C   UNL     1     112.484 117.078 126.205  1.00  0.00    -0.014 C 
ATOM      7  C   UNL     1     112.520 115.687 125.541  1.00  0.00     0.007 C 
ATOM      8  C   UNL     1     111.897 116.929 127.621  1.00  0.00     0.007 C 
ENDBRANCH   3   6
ENDBRANCH   2   3
ENDBRANCH   1   2
BRANCH   1   9
ATOM      9  C   UNL     1     114.017 120.725 126.902  1.00  0.00    -0.011 C 
ATOM     10  C   UNL     1     113.121 120.428 128.129  1.00  0.00     0.008 C 
BRANCH   9  11
ATOM     11  C   UNL     1     114.102 122.263 126.564  1.00  0.00    -0.002 C 
ATOM     12  C   UNL     1     113.943 122.515 125.051  1.00  0.00     0.005 C 
ATOM     13  C   UNL     1     115.391 123.092 126.992  1.00  0.00    -0.026 C 
ATOM     14  C   UNL     1     114.790 123.724 124.726  1.00  0.00     0.005 C 
ATOM     15  C   UNL     1     115.991 123.595 125.650  1.00  0.00    -0.001 C 
ATOM     16  C   UNL     1     114.926 124.300 127.858  1.00  0.00     0.007 C 
ATOM     17  C   UNL     1     116.462 122.280 127.764  1.00  0.00     0.012 C 
ATOM     18  C   UNL     1     116.852 124.903 125.665  1.00  0.00     0.000 C 
ATOM     19  C   UNL     1     116.000 125.374 128.029  1.00  0.00     0.005 C 
ATOM     20  C   UNL     1     116.406 126.001 126.672  1.00  0.00     0.003 C 
ATOM     21  C   UNL     1     118.366 124.649 125.808  1.00  0.00     0.031 C 
ATOM     22  C   UNL     1     117.463 127.209 126.798  1.00  0.00    -0.008 C 
ATOM     23  C   UNL     1     119.071 125.902 125.383  1.00  0.00    -0.027 C 
ATOM     24  C   UNL     1     118.591 127.107 125.755  1.00  0.00    -0.065 C 
ATOM     25  C   UNL     1     116.706 128.548 126.559  1.00  0.00     0.014 C 
ATOM     26  C   UNL     1     118.151 127.252 128.194  1.00  0.00     0.016 C 
ATOM     27  C   UNL     1     119.079 128.346 125.030  1.00  0.00     0.063 C 
ATOM     28  C   UNL     1     117.601 129.805 126.550  1.00  0.00     0.033 C 
ATOM     29  C   UNL     1     119.000 129.597 125.914  1.00  0.00     0.118 C 
BRANCH  29  30
ATOM     30  O   UNL     1     119.345 130.720 125.145  1.00  0.00    -0.393 OA
ATOM     31  H   UNL     1     119.538 130.392 124.230  1.00  0.00     0.210 HD
ENDBRANCH  29  30
ENDBRANCH   9  11
ENDBRANCH   1   9
TORSDOF 7
ENDMDL
MODEL 6
REMARK VINA RESULT:    -6.154      1.624      3.897
REMARK INTER + INTRA:         -11.018
REMARK INTER:                  -8.670
REMARK INTRA:                  -2.348
REMARK UNBOUND:                -2.526
REMARK SMILES CC[C@H](CC[C@H](C)[C@@H]1CC[C@H]2[C@@H]3CC=C4C[C@@H](O)CC[C@@]4(C)[C@@H]3CC[C@]21C)C(C)C
REMARK SMILES IDX 5 1 4 2 3 3 2 4 1 5 28 6 29 7 30 8 6 9 7 10 8 11 9 12 26 13
REMARK SMILES IDX 10 14 11 15 25 16 27 17 12 18 24 19 23 20 13 21 21 22 14 23
REMARK SMILES IDX 15 24 20 25 22 26 16 27 19 28 17 29 18 30
REMARK H PARENT 18 31
REMARK Flexibility Score: inf
ROOT
ATOM      1  C   UNL     1     112.054 116.321 127.058  1.00  0.00     0.004 C 
ENDROOT
BRANCH   1   2
ATOM      2  C   UNL     1     112.382 115.676 125.689  1.00  0.00     0.004 C 
BRANCH   2   3
ATOM      3  C   UNL     1     112.973 116.703 124.680  1.00  0.00    -0.009 C 
BRANCH   3   4
ATOM      4  C   UNL     1     113.982 115.995 123.718  1.00  0.00     0.000 C 
ATOM      5  C   UNL     1     114.282 114.559 124.151  1.00  0.00     0.004 C 
ENDBRANCH   3   4
BRANCH   3   6
ATOM      6  C   UNL     1     111.868 117.466 123.868  1.00  0.00    -0.014 C 
ATOM      7  C   UNL     1     111.639 116.798 122.497  1.00  0.00     0.007 C 
ATOM      8  C   UNL     1     112.202 118.952 123.637  1.00  0.00     0.007 C 
ENDBRANCH   3   6
ENDBRANCH   2   3
ENDBRANCH   1   2
BRANCH   1   9
ATOM      9  C   UNL     1     113.295 116.578 127.968  1.00  0.00    -0.011 C 
ATOM     10  C   UNL     1     113.073 115.895 129.340  1.00  0.00     0.008 C 
BRANCH   9  11
ATOM     11  C   UNL     1     113.665 118.106 128.097  1.00  0.00    -0.002 C 
ATOM     12  C   UNL     1     112.500 119.005 127.640  1.00  0.00     0.005 C 
ATOM     13  C   UNL     1     114.949 118.670 127.347  1.00  0.00    -0.026 C 
ATOM     14  C   UNL     1     113.125 120.242 127.036  1.00  0.00     0.005 C 
ATOM     15  C   UNL     1     114.385 119.728 126.357  1.00  0.00    -0.001 C 
ATOM     16  C   UNL     1     115.866 119.358 128.401  1.00  0.00     0.007 C 
ATOM     17  C   UNL     1     115.763 117.612 126.560  1.00  0.00     0.012 C 
ATOM     18  C   UNL     1     115.321 120.900 125.910  1.00  0.00     0.000 C 
ATOM     19  C   UNL     1     116.937 120.254 127.781  1.00  0.00     0.005 C 
ATOM     20  C   UNL     1     116.315 121.427 126.984  1.00  0.00     0.003 C 
ATOM     21  C   UNL     1     116.073 120.627 124.593  1.00  0.00     0.031 C 
ATOM     22  C   UNL     1     117.394 122.463 126.391  1.00  0.00    -0.008 C 
ATOM     23  C   UNL     1     116.568 121.946 124.079  1.00  0.00    -0.027 C 
ATOM     24  C   UNL     1     117.089 122.852 124.933  1.00  0.00    -0.065 C 
ATOM     25  C   UNL     1     117.354 123.758 127.253  1.00  0.00     0.014 C 
ATOM     26  C   UNL     1     118.840 121.885 126.403  1.00  0.00     0.016 C 
ATOM     27  C   UNL     1     117.237 124.290 124.476  1.00  0.00     0.063 C 
ATOM     28  C   UNL     1     118.269 124.897 126.754  1.00  0.00     0.033 C 
ATOM     29  C   UNL     1     118.374 125.012 125.212  1.00  0.00     0.118 C 
BRANCH  29  30
ATOM     30  O   UNL     1     118.372 126.364 124.833  1.00  0.00    -0.393 OA
ATOM     31  H   UNL     1     119.298 126.585 124.558  1.00  0.00     0.210 HD
ENDBRANCH  29  30
ENDBRANCH   9  11
ENDBRANCH   1   9
TORSDOF 7
ENDMDL
MODEL 7
REMARK VINA RESULT:    -6.066      1.539      3.317
REMARK INTER + INTRA:         -10.897
REMARK INTER:                  -9.591
REMARK INTRA:                  -1.306
REMARK UNBOUND:                -2.526
REMARK SMILES CC[C@H](CC[C@H](C)[C@@H]1CC[C@H]2[C@@H]3CC=C4C[C@@H](O)CC[C@@]4(C)[C@@H]3CC[C@]21C)C(C)C
REMARK SMILES IDX 5 1 4 2 3 3 2 4 1 5 28 6 29 7 30 8 6 9 7 10 8 11 9 12 26 13
REMARK SMILES IDX 10 14 11 15 25 16 27 17 12 18 24 19 23 20 13 21 21 22 14 23
REMARK SMILES IDX 15 24 20 25 22 26 16 27 19 28 17 29 18 30
REMARK H PARENT 18 31
REMARK Flexibility Score: inf
ROOT
ATOM      1  C   UNL     1     112.115 116.487 126.837  1.00  0.00     0.004 C 
ENDROOT
BRANCH   1   2
ATOM      2  C   UNL     1     112.392 115.650 125.563  1.00  0.00     0.004 C 
BRANCH   2   3
ATOM      3  C   UNL     1     112.888 116.528 124.378  1.00  0.00    -0.009 C 
BRANCH   3   4
ATOM      4  C   UNL     1     113.868 115.711 123.475  1.00  0.00     0.000 C 
ATOM      5  C   UNL     1     115.238 115.525 124.130  1.00  0.00     0.004 C 
ENDBRANCH   3   4
BRANCH   3   6
ATOM      6  C   UNL     1     111.712 117.127 123.528  1.00  0.00    -0.014 C 
ATOM      7  C   UNL     1     111.656 116.469 122.134  1.00  0.00     0.007 C 
ATOM      8  C   UNL     1     111.812 118.653 123.345  1.00  0.00     0.007 C 
ENDBRANCH   3   6
ENDBRANCH   2   3
ENDBRANCH   1   2
BRANCH   1   9
ATOM      9  C   UNL     1     113.296 116.528 127.856  1.00  0.00    -0.011 C 
ATOM     10  C   UNL     1     112.758 116.948 129.245  1.00  0.00     0.008 C 
BRANCH   9  11
ATOM     11  C   UNL     1     114.503 117.421 127.372  1.00  0.00    -0.002 C 
ATOM     12  C   UNL     1     115.583 117.545 128.465  1.00  0.00     0.005 C 
ATOM     13  C   UNL     1     114.233 118.909 126.880  1.00  0.00    -0.026 C 
ATOM     14  C   UNL     1     116.197 118.917 128.307  1.00  0.00     0.005 C 
ATOM     15  C   UNL     1     115.034 119.796 127.873  1.00  0.00    -0.001 C 
ATOM     16  C   UNL     1     114.810 119.058 125.441  1.00  0.00     0.007 C 
ATOM     17  C   UNL     1     112.744 119.339 126.891  1.00  0.00     0.012 C 
ATOM     18  C   UNL     1     115.522 121.202 127.385  1.00  0.00     0.000 C 
ATOM     19  C   UNL     1     114.951 120.512 124.991  1.00  0.00     0.005 C 
ATOM     20  C   UNL     1     115.938 121.298 125.890  1.00  0.00     0.003 C 
ATOM     21  C   UNL     1     114.556 122.350 127.733  1.00  0.00     0.031 C 
ATOM     22  C   UNL     1     116.204 122.810 125.405  1.00  0.00    -0.008 C 
ATOM     23  C   UNL     1     115.321 123.634 127.604  1.00  0.00    -0.027 C 
ATOM     24  C   UNL     1     116.175 123.810 126.574  1.00  0.00    -0.065 C 
ATOM     25  C   UNL     1     117.616 122.873 124.752  1.00  0.00     0.014 C 
ATOM     26  C   UNL     1     115.143 123.298 124.375  1.00  0.00     0.016 C 
ATOM     27  C   UNL     1     117.199 124.927 126.653  1.00  0.00     0.063 C 
ATOM     28  C   UNL     1     118.066 124.283 124.318  1.00  0.00     0.033 C 
ATOM     29  C   UNL     1     117.613 125.425 125.263  1.00  0.00     0.118 C 
BRANCH  29  30
ATOM     30  O   UNL     1     118.648 126.363 125.407  1.00  0.00    -0.393 OA
ATOM     31  H   UNL     1     118.220 127.255 125.472  1.00  0.00     0.210 HD
ENDBRANCH  29  30
ENDBRANCH   9  11
ENDBRANCH   1   9
TORSDOF 7
ENDMDL
MODEL 8
REMARK VINA RESULT:    -5.819      3.422      9.519
REMARK INTER + INTRA:         -10.556
REMARK INTER:                  -9.756
REMARK INTRA:                  -0.800
REMARK UNBOUND:                -2.526
REMARK SMILES CC[C@H](CC[C@H](C)[C@@H]1CC[C@H]2[C@@H]3CC=C4C[C@@H](O)CC[C@@]4(C)[C@@H]3CC[C@]21C)C(C)C
REMARK SMILES IDX 5 1 4 2 3 3 2 4 1 5 28 6 29 7 30 8 6 9 7 10 8 11 9 12 26 13
REMARK SMILES IDX 10 14 11 15 25 16 27 17 12 18 24 19 23 20 13 21 21 22 14 23
REMARK SMILES IDX 15 24 20 25 22 26 16 27 19 28 17 29 18 30
REMARK H PARENT 18 31
REMARK Flexibility Score: inf
ROOT
ATOM      1  C   UNL     1     117.897 127.917 127.246  1.00  0.00     0.004 C 
ENDROOT
BRANCH   1   2
ATOM      2  C   UNL     1     117.356 128.905 126.183  1.00  0.00     0.004 C 
BRANCH   2   3
ATOM      3  C   UNL     1     118.112 130.265 126.206  1.00  0.00    -0.009 C 
BRANCH   3   4
ATOM      4  C   UNL     1     119.427 130.165 125.366  1.00  0.00     0.000 C 
ATOM      5  C   UNL     1     120.674 130.431 126.210  1.00  0.00     0.004 C 
ENDBRANCH   3   4
BRANCH   3   6
ATOM      6  C   UNL     1     117.226 131.465 125.716  1.00  0.00    -0.014 C 
ATOM      7  C   UNL     1     115.958 131.596 126.583  1.00  0.00     0.007 C 
ATOM      8  C   UNL     1     116.800 131.342 124.241  1.00  0.00     0.007 C 
ENDBRANCH   3   6
ENDBRANCH   2   3
ENDBRANCH   1   2
BRANCH   1   9
ATOM      9  C   UNL     1     118.218 126.490 126.701  1.00  0.00    -0.011 C 
ATOM     10  C   UNL     1     119.211 126.606 125.519  1.00  0.00     0.008 C 
BRANCH   9  11
ATOM     11  C   UNL     1     116.927 125.659 126.337  1.00  0.00    -0.002 C 
ATOM     12  C   UNL     1     115.815 125.864 127.385  1.00  0.00     0.005 C 
ATOM     13  C   UNL     1     117.035 124.084 126.143  1.00  0.00    -0.026 C 
ATOM     14  C   UNL     1     115.050 124.562 127.458  1.00  0.00     0.005 C 
ATOM     15  C   UNL     1     116.113 123.495 127.247  1.00  0.00    -0.001 C 
ATOM     16  C   UNL     1     116.479 123.729 124.733  1.00  0.00     0.007 C 
ATOM     17  C   UNL     1     118.463 123.504 126.301  1.00  0.00     0.012 C 
ATOM     18  C   UNL     1     115.477 122.084 127.008  1.00  0.00     0.000 C 
ATOM     19  C   UNL     1     116.181 122.240 124.555  1.00  0.00     0.005 C 
ATOM     20  C   UNL     1     115.088 121.752 125.538  1.00  0.00     0.003 C 
ATOM     21  C   UNL     1     116.295 120.924 127.606  1.00  0.00     0.031 C 
ATOM     22  C   UNL     1     114.660 120.214 125.332  1.00  0.00    -0.008 C 
ATOM     23  C   UNL     1     115.389 119.731 127.683  1.00  0.00    -0.027 C 
ATOM     24  C   UNL     1     114.545 119.456 126.666  1.00  0.00    -0.065 C 
ATOM     25  C   UNL     1     113.266 120.183 124.639  1.00  0.00     0.014 C 
ATOM     26  C   UNL     1     115.682 119.426 124.460  1.00  0.00     0.016 C 
ATOM     27  C   UNL     1     113.398 118.494 126.906  1.00  0.00     0.063 C 
ATOM     28  C   UNL     1     112.666 118.774 124.455  1.00  0.00     0.033 C 
ATOM     29  C   UNL     1     112.961 117.789 125.615  1.00  0.00     0.118 C 
BRANCH  29  30
ATOM     30  O   UNL     1     111.821 117.014 125.884  1.00  0.00    -0.393 OA
ATOM     31  H   UNL     1     112.007 116.103 125.542  1.00  0.00     0.210 HD
ENDBRANCH  29  30
ENDBRANCH   9  11
ENDBRANCH   1   9
TORSDOF 7
ENDMDL
MODEL 9
REMARK VINA RESULT:    -5.728      1.753      4.183
REMARK INTER + INTRA:         -10.430
REMARK INTER:                  -9.797
REMARK INTRA:                  -0.633
REMARK UNBOUND:                -2.526
REMARK SMILES CC[C@H](CC[C@H](C)[C@@H]1CC[C@H]2[C@@H]3CC=C4C[C@@H](O)CC[C@@]4(C)[C@@H]3CC[C@]21C)C(C)C
REMARK SMILES IDX 5 1 4 2 3 3 2 4 1 5 28 6 29 7 30 8 6 9 7 10 8 11 9 12 26 13
REMARK SMILES IDX 10 14 11 15 25 16 27 17 12 18 24 19 23 20 13 21 21 22 14 23
REMARK SMILES IDX 15 24 20 25 22 26 16 27 19 28 17 29 18 30
REMARK H PARENT 18 31
REMARK Flexibility Score: inf
ROOT
ATOM      1  C   UNL     1     113.173 115.618 124.973  1.00  0.00     0.004 C 
ENDROOT
BRANCH   1   2
ATOM      2  C   UNL     1     113.173 114.185 124.385  1.00  0.00     0.004 C 
BRANCH   2   3
ATOM      3  C   UNL     1     114.602 113.707 123.998  1.00  0.00    -0.009 C 
BRANCH   3   4
ATOM      4  C   UNL     1     114.640 113.282 122.494  1.00  0.00     0.000 C 
ATOM      5  C   UNL     1     115.295 111.914 122.296  1.00  0.00     0.004 C 
ENDBRANCH   3   4
BRANCH   3   6
ATOM      6  C   UNL     1     115.708 114.778 124.304  1.00  0.00    -0.014 C 
ATOM      7  C   UNL     1     116.308 115.332 122.997  1.00  0.00     0.007 C 
ATOM      8  C   UNL     1     116.855 114.233 125.177  1.00  0.00     0.007 C 
ENDBRANCH   3   6
ENDBRANCH   2   3
ENDBRANCH   1   2
BRANCH   1   9
ATOM      9  C   UNL     1     112.135 116.585 124.324  1.00  0.00    -0.011 C 
ATOM     10  C   UNL     1     112.395 116.667 122.800  1.00  0.00     0.008 C 
BRANCH   9  11
ATOM     11  C   UNL     1     112.090 118.002 125.014  1.00  0.00    -0.002 C 
ATOM     12  C   UNL     1     111.265 119.005 124.183  1.00  0.00     0.005 C 
ATOM     13  C   UNL     1     113.450 118.756 125.351  1.00  0.00    -0.026 C 
ATOM     14  C   UNL     1     111.897 120.361 124.398  1.00  0.00     0.005 C 
ATOM     15  C   UNL     1     113.384 120.064 124.514  1.00  0.00    -0.001 C 
ATOM     16  C   UNL     1     113.455 119.091 126.872  1.00  0.00     0.007 C 
ATOM     17  C   UNL     1     114.736 117.974 124.986  1.00  0.00     0.012 C 
ATOM     18  C   UNL     1     114.186 121.310 125.020  1.00  0.00     0.000 C 
ATOM     19  C   UNL     1     114.512 120.125 127.261  1.00  0.00     0.005 C 
ATOM     20  C   UNL     1     114.270 121.486 126.563  1.00  0.00     0.003 C 
ATOM     21  C   UNL     1     115.592 121.437 124.404  1.00  0.00     0.031 C 
ATOM     22  C   UNL     1     115.294 122.644 127.012  1.00  0.00    -0.008 C 
ATOM     23  C   UNL     1     116.055 122.846 124.629  1.00  0.00    -0.027 C 
ATOM     24  C   UNL     1     115.822 123.452 125.812  1.00  0.00    -0.065 C 
ATOM     25  C   UNL     1     114.540 123.624 127.957  1.00  0.00     0.014 C 
ATOM     26  C   UNL     1     116.542 122.079 127.750  1.00  0.00     0.016 C 
ATOM     27  C   UNL     1     115.953 124.960 125.901  1.00  0.00     0.063 C 
ATOM     28  C   UNL     1     115.360 124.853 128.403  1.00  0.00     0.033 C 
ATOM     29  C   UNL     1     116.312 125.422 127.319  1.00  0.00     0.118 C 
BRANCH  29  30
ATOM     30  O   UNL     1     116.293 126.826 127.358  1.00  0.00    -0.393 OA
ATOM     31  H   UNL     1     117.227 127.128 127.226  1.00  0.00     0.210 HD
ENDBRANCH  29  30
ENDBRANCH   9  11
ENDBRANCH   1   9
TORSDOF 7
ENDMDL
