MODEL 1
REMARK VINA RESULT:    -4.656      0.000      0.000
REMARK INTER + INTRA:          -5.314
REMARK INTER:                  -5.064
REMARK INTRA:                  -0.250
REMARK UNBOUND:                -0.250
REMARK SMILES O=C([O-])c1ccccc1O
REMARK SMILES IDX 4 1 9 2 5 3 8 4 6 5 7 6 2 7 1 8 3 9 10 10
REMARK H PARENT 10 11
REMARK Flexibility Score: inf
ROOT
ATOM      1  C   UNL     1      28.574   0.432  30.491  1.00  0.00     0.039 A 
ATOM      2  C   UNL     1      28.203   1.243  29.392  1.00  0.00     0.124 A 
ATOM      3  C   UNL     1      27.628  -0.468  31.021  1.00  0.00     0.014 A 
ATOM      4  C   UNL     1      26.912   1.140  28.852  1.00  0.00     0.047 A 
ATOM      5  C   UNL     1      26.346  -0.560  30.472  1.00  0.00     0.001 A 
ATOM      6  C   UNL     1      25.989   0.243  29.390  1.00  0.00     0.004 A 
ENDROOT
BRANCH   1   7
ATOM      7  C   UNL     1      29.930   0.507  31.095  1.00  0.00     0.075 C 
ATOM      8  O   UNL     1      30.066   0.690  32.335  1.00  0.00    -0.545 OA
ATOM      9  O   UNL     1      31.072   0.378  30.313  1.00  0.00    -0.545 OA
ENDBRANCH   1   7
BRANCH   2  10
ATOM     10  O   UNL     1      29.107   2.148  28.836  1.00  0.00    -0.507 OA
ATOM     11  H   UNL     1      29.383   2.993  29.324  1.00  0.00     0.293 HD
ENDBRANCH   2  10
TORSDOF 2
ENDMDL
MODEL 2
REMARK VINA RESULT:    -4.652      0.969      2.185
REMARK INTER + INTRA:          -5.310
REMARK INTER:                  -5.059
REMARK INTRA:                  -0.251
REMARK UNBOUND:                -0.250
REMARK SMILES O=C([O-])c1ccccc1O
REMARK SMILES IDX 4 1 9 2 5 3 8 4 6 5 7 6 2 7 1 8 3 9 10 10
REMARK H PARENT 10 11
REMARK Flexibility Score: inf
ROOT
ATOM      1  C   UNL     1      28.558   0.369  30.482  1.00  0.00     0.039 A 
ATOM      2  C   UNL     1      27.554  -0.471  31.019  1.00  0.00     0.124 A 
ATOM      3  C   UNL     1      28.263   1.132  29.334  1.00  0.00     0.014 A 
ATOM      4  C   UNL     1      26.293  -0.532  30.408  1.00  0.00     0.047 A 
ATOM      5  C   UNL     1      27.001   1.061  28.736  1.00  0.00     0.001 A 
ATOM      6  C   UNL     1      26.019   0.231  29.272  1.00  0.00     0.004 A 
ENDROOT
BRANCH   1   7
ATOM      7  C   UNL     1      29.908   0.465  31.096  1.00  0.00     0.075 C 
ATOM      8  O   UNL     1      30.031   0.669  32.334  1.00  0.00    -0.545 OA
ATOM      9  O   UNL     1      31.057   0.336  30.326  1.00  0.00    -0.545 OA
ENDBRANCH   1   7
BRANCH   2  10
ATOM     10  O   UNL     1      27.802  -1.245  32.153  1.00  0.00    -0.507 OA
ATOM     11  H   UNL     1      28.564  -1.911  32.187  1.00  0.00     0.293 HD
ENDBRANCH   2  10
TORSDOF 2
ENDMDL
MODEL 3
REMARK VINA RESULT:    -4.642      2.311      3.800
REMARK INTER + INTRA:          -5.298
REMARK INTER:                  -5.048
REMARK INTRA:                  -0.251
REMARK UNBOUND:                -0.250
REMARK SMILES O=C([O-])c1ccccc1O
REMARK SMILES IDX 4 1 9 2 5 3 8 4 6 5 7 6 2 7 1 8 3 9 10 10
REMARK H PARENT 10 11
REMARK Flexibility Score: inf
ROOT
ATOM      1  C   UNL     1      27.679   0.433  30.076  1.00  0.00     0.039 A 
ATOM      2  C   UNL     1      27.930   1.198  31.240  1.00  0.00     0.124 A 
ATOM      3  C   UNL     1      28.753  -0.244  29.464  1.00  0.00     0.014 A 
ATOM      4  C   UNL     1      29.231   1.270  31.762  1.00  0.00     0.047 A 
ATOM      5  C   UNL     1      30.043  -0.164  29.995  1.00  0.00     0.001 A 
ATOM      6  C   UNL     1      30.281   0.592  31.142  1.00  0.00     0.004 A 
ENDROOT
BRANCH   1   7
ATOM      7  C   UNL     1      26.318   0.328  29.488  1.00  0.00     0.075 C 
ATOM      8  O   UNL     1      25.332   0.030  30.214  1.00  0.00    -0.545 OA
ATOM      9  O   UNL     1      26.102   0.553  28.134  1.00  0.00    -0.545 OA
ENDBRANCH   1   7
BRANCH   2  10
ATOM     10  O   UNL     1      26.898   1.885  31.879  1.00  0.00    -0.507 OA
ATOM     11  H   UNL     1      26.478   2.713  31.472  1.00  0.00     0.293 HD
ENDBRANCH   2  10
TORSDOF 2
ENDMDL
MODEL 4
REMARK VINA RESULT:    -4.631      2.250      3.822
REMARK INTER + INTRA:          -5.286
REMARK INTER:                  -5.036
REMARK INTRA:                  -0.250
REMARK UNBOUND:                -0.250
REMARK SMILES O=C([O-])c1ccccc1O
REMARK SMILES IDX 4 1 9 2 5 3 8 4 6 5 7 6 2 7 1 8 3 9 10 10
REMARK H PARENT 10 11
REMARK Flexibility Score: inf
ROOT
ATOM      1  C   UNL     1      27.758   0.317  30.155  1.00  0.00     0.039 A 
ATOM      2  C   UNL     1      28.866  -0.341  29.572  1.00  0.00     0.124 A 
ATOM      3  C   UNL     1      27.949   1.039  31.351  1.00  0.00     0.014 A 
ATOM      4  C   UNL     1      30.126  -0.268  30.186  1.00  0.00     0.047 A 
ATOM      5  C   UNL     1      29.209   1.104  31.951  1.00  0.00     0.001 A 
ATOM      6  C   UNL     1      30.295   0.451  31.370  1.00  0.00     0.004 A 
ENDROOT
BRANCH   1   7
ATOM      7  C   UNL     1      26.407   0.266  29.540  1.00  0.00     0.075 C 
ATOM      8  O   UNL     1      26.259   0.484  28.306  1.00  0.00    -0.545 OA
ATOM      9  O   UNL     1      25.281  -0.018  30.303  1.00  0.00    -0.545 OA
ENDBRANCH   1   7
BRANCH   2  10
ATOM     10  O   UNL     1      28.724  -1.068  28.390  1.00  0.00    -0.507 OA
ATOM     11  H   UNL     1      29.265  -1.906  28.211  1.00  0.00     0.293 HD
ENDBRANCH   2  10
TORSDOF 2
ENDMDL
MODEL 5
REMARK VINA RESULT:    -4.417      2.421      3.216
REMARK INTER + INTRA:          -5.054
REMARK INTER:                  -4.822
REMARK INTRA:                  -0.232
REMARK UNBOUND:                -0.250
REMARK SMILES O=C([O-])c1ccccc1O
REMARK SMILES IDX 4 1 9 2 5 3 8 4 6 5 7 6 2 7 1 8 3 9 10 10
REMARK H PARENT 10 11
REMARK Flexibility Score: inf
ROOT
ATOM      1  C   UNL     1      28.561  -1.220  30.041  1.00  0.00     0.039 A 
ATOM      2  C   UNL     1      27.757  -0.903  31.162  1.00  0.00     0.124 A 
ATOM      3  C   UNL     1      28.581  -0.331  28.947  1.00  0.00     0.014 A 
ATOM      4  C   UNL     1      27.000   0.278  31.168  1.00  0.00     0.047 A 
ATOM      5  C   UNL     1      27.822   0.843  28.968  1.00  0.00     0.001 A 
ATOM      6  C   UNL     1      27.033   1.146  30.076  1.00  0.00     0.004 A 
ENDROOT
BRANCH   1   7
ATOM      7  C   UNL     1      29.379  -2.459  29.991  1.00  0.00     0.075 C 
ATOM      8  O   UNL     1      28.824  -3.591  30.032  1.00  0.00    -0.545 OA
ATOM      9  O   UNL     1      30.764  -2.402  29.899  1.00  0.00    -0.545 OA
ENDBRANCH   1   7
BRANCH   2  10
ATOM     10  O   UNL     1      27.706  -1.754  32.266  1.00  0.00    -0.507 OA
ATOM     11  H   UNL     1      28.120  -1.498  33.155  1.00  0.00     0.293 HD
ENDBRANCH   2  10
TORSDOF 2
ENDMDL
MODEL 6
REMARK VINA RESULT:    -4.377      2.097      2.684
REMARK INTER + INTRA:          -5.010
REMARK INTER:                  -4.757
REMARK INTRA:                  -0.253
REMARK UNBOUND:                -0.250
REMARK SMILES O=C([O-])c1ccccc1O
REMARK SMILES IDX 4 1 9 2 5 3 8 4 6 5 7 6 2 7 1 8 3 9 10 10
REMARK H PARENT 10 11
REMARK Flexibility Score: inf
ROOT
ATOM      1  C   UNL     1      28.109   1.900  30.665  1.00  0.00     0.039 A 
ATOM      2  C   UNL     1      28.656   1.324  29.495  1.00  0.00     0.124 A 
ATOM      3  C   UNL     1      27.613   1.049  31.674  1.00  0.00     0.014 A 
ATOM      4  C   UNL     1      28.695  -0.072  29.355  1.00  0.00     0.047 A 
ATOM      5  C   UNL     1      27.659  -0.340  31.521  1.00  0.00     0.001 A 
ATOM      6  C   UNL     1      28.199  -0.898  30.364  1.00  0.00     0.004 A 
ENDROOT
BRANCH   1   7
ATOM      7  C   UNL     1      28.047   3.372  30.856  1.00  0.00     0.075 C 
ATOM      8  O   UNL     1      28.332   3.883  31.973  1.00  0.00    -0.545 OA
ATOM      9  O   UNL     1      27.674   4.216  29.816  1.00  0.00    -0.545 OA
ENDBRANCH   1   7
BRANCH   2  10
ATOM     10  O   UNL     1      29.158   2.127  28.471  1.00  0.00    -0.507 OA
ATOM     11  H   UNL     1      29.586   3.026  28.661  1.00  0.00     0.293 HD
ENDBRANCH   2  10
TORSDOF 2
ENDMDL
MODEL 7
REMARK VINA RESULT:    -4.358      2.614      2.994
REMARK INTER + INTRA:          -4.990
REMARK INTER:                  -4.737
REMARK INTRA:                  -0.253
REMARK UNBOUND:                -0.250
REMARK SMILES O=C([O-])c1ccccc1O
REMARK SMILES IDX 4 1 9 2 5 3 8 4 6 5 7 6 2 7 1 8 3 9 10 10
REMARK H PARENT 10 11
REMARK Flexibility Score: inf
ROOT
ATOM      1  C   UNL     1      27.979  -1.184  30.469  1.00  0.00     0.039 A 
ATOM      2  C   UNL     1      28.398  -0.454  29.332  1.00  0.00     0.124 A 
ATOM      3  C   UNL     1      27.504  -0.477  31.592  1.00  0.00     0.014 A 
ATOM      4  C   UNL     1      28.336   0.948  29.338  1.00  0.00     0.047 A 
ATOM      5  C   UNL     1      27.447   0.920  31.584  1.00  0.00     0.001 A 
ATOM      6  C   UNL     1      27.862   1.630  30.459  1.00  0.00     0.004 A 
ENDROOT
BRANCH   1   7
ATOM      7  C   UNL     1      28.027  -2.668  30.507  1.00  0.00     0.075 C 
ATOM      8  O   UNL     1      27.076  -3.324  31.011  1.00  0.00    -0.545 OA
ATOM      9  O   UNL     1      29.115  -3.364  29.992  1.00  0.00    -0.545 OA
ENDBRANCH   1   7
BRANCH   2  10
ATOM     10  O   UNL     1      28.876  -1.112  28.198  1.00  0.00    -0.507 OA
ATOM     11  H   UNL     1      29.218  -0.602  27.391  1.00  0.00     0.293 HD
ENDBRANCH   2  10
TORSDOF 2
ENDMDL
MODEL 8
REMARK VINA RESULT:    -4.358      2.437      3.515
REMARK INTER + INTRA:          -4.989
REMARK INTER:                  -4.735
REMARK INTRA:                  -0.254
REMARK UNBOUND:                -0.250
REMARK SMILES O=C([O-])c1ccccc1O
REMARK SMILES IDX 4 1 9 2 5 3 8 4 6 5 7 6 2 7 1 8 3 9 10 10
REMARK H PARENT 10 11
REMARK Flexibility Score: inf
ROOT
ATOM      1  C   UNL     1      27.861   1.729  29.887  1.00  0.00     0.039 A 
ATOM      2  C   UNL     1      27.505   1.112  31.109  1.00  0.00     0.124 A 
ATOM      3  C   UNL     1      28.480   0.949  28.888  1.00  0.00     0.014 A 
ATOM      4  C   UNL     1      27.770  -0.252  31.308  1.00  0.00     0.047 A 
ATOM      5  C   UNL     1      28.738  -0.408  29.100  1.00  0.00     0.001 A 
ATOM      6  C   UNL     1      28.383  -1.007  30.307  1.00  0.00     0.004 A 
ENDROOT
BRANCH   1   7
ATOM      7  C   UNL     1      27.600   3.169  29.633  1.00  0.00     0.075 C 
ATOM      8  O   UNL     1      27.036   3.536  28.567  1.00  0.00    -0.545 OA
ATOM      9  O   UNL     1      27.969   4.139  30.557  1.00  0.00    -0.545 OA
ENDBRANCH   1   7
BRANCH   2  10
ATOM     10  O   UNL     1      26.891   1.843  32.126  1.00  0.00    -0.507 OA
ATOM     11  H   UNL     1      26.005   2.314  31.983  1.00  0.00     0.293 HD
ENDBRANCH   2  10
TORSDOF 2
ENDMDL
MODEL 9
REMARK VINA RESULT:    -4.347      3.032      3.872
REMARK INTER + INTRA:          -4.978
REMARK INTER:                  -4.724
REMARK INTRA:                  -0.254
REMARK UNBOUND:                -0.250
REMARK SMILES O=C([O-])c1ccccc1O
REMARK SMILES IDX 4 1 9 2 5 3 8 4 6 5 7 6 2 7 1 8 3 9 10 10
REMARK H PARENT 10 11
REMARK Flexibility Score: inf
ROOT
ATOM      1  C   UNL     1      28.002  -1.682  30.790  1.00  0.00     0.039 A 
ATOM      2  C   UNL     1      29.097  -1.432  29.930  1.00  0.00     0.124 A 
ATOM      3  C   UNL     1      27.626  -0.688  31.717  1.00  0.00     0.014 A 
ATOM      4  C   UNL     1      29.786  -0.212  30.012  1.00  0.00     0.047 A 
ATOM      5  C   UNL     1      28.321   0.522  31.787  1.00  0.00     0.001 A 
ATOM      6  C   UNL     1      29.399   0.759  30.936  1.00  0.00     0.004 A 
ENDROOT
BRANCH   1   7
ATOM      7  C   UNL     1      27.243  -2.958  30.739  1.00  0.00     0.075 C 
ATOM      8  O   UNL     1      25.984  -2.950  30.688  1.00  0.00    -0.545 OA
ATOM      9  O   UNL     1      27.899  -4.183  30.748  1.00  0.00    -0.545 OA
ENDBRANCH   1   7
BRANCH   2  10
ATOM     10  O   UNL     1      29.506  -2.386  28.998  1.00  0.00    -0.507 OA
ATOM     11  H   UNL     1      29.560  -2.174  28.009  1.00  0.00     0.293 HD
ENDBRANCH   2  10
TORSDOF 2
ENDMDL
