MODEL 1
REMARK VINA RESULT:    -4.216      0.000      0.000
REMARK INTER + INTRA:         -10.802
REMARK INTER:                  -8.160
REMARK INTRA:                  -2.642
REMARK UNBOUND:                -2.642
REMARK SMILES CCCCCCCCCCCCCCCCCC(=O)[O-]
REMARK SMILES IDX 10 1 11 2 12 3 13 4 14 5 15 6 16 7 17 8 18 9 19 10 20 11
REMARK SMILES IDX 9 12 8 13 7 14 6 15 5 16 4 17 3 18 2 19 1 20
REMARK H PARENT
REMARK Flexibility Score: inf
ROOT
ATOM      1  C   UNL     1       9.726 -14.831  24.149  1.00  0.00     0.000 C 
ENDROOT
BRANCH   1   2
ATOM      2  C   UNL     1      10.343 -16.001  24.930  1.00  0.00     0.000 C 
BRANCH   2   3
ATOM      3  C   UNL     1       9.686 -16.209  26.303  1.00  0.00     0.000 C 
BRANCH   3   4
ATOM      4  C   UNL     1       9.954 -17.606  26.883  1.00  0.00     0.000 C 
BRANCH   4   5
ATOM      5  C   UNL     1      11.099 -18.301  26.133  1.00  0.00     0.000 C 
BRANCH   5   6
ATOM      6  C   UNL     1      11.766 -19.418  26.955  1.00  0.00     0.000 C 
BRANCH   6   7
ATOM      7  C   UNL     1      11.268 -19.543  28.410  1.00  0.00     0.006 C 
BRANCH   7   8
ATOM      8  C   UNL     1      11.289 -20.972  28.972  1.00  0.00     0.053 C 
BRANCH   8   9
ATOM      9  C   UNL     1      12.589 -21.293  29.641  1.00  0.00     0.041 C 
ATOM     10  O   UNL     1      13.140 -22.409  29.452  1.00  0.00    -0.550 OA
ATOM     11  O   UNL     1      13.209 -20.346  30.447  1.00  0.00    -0.550 OA
ENDBRANCH   8   9
ENDBRANCH   7   8
ENDBRANCH   6   7
ENDBRANCH   5   6
ENDBRANCH   4   5
ENDBRANCH   3   4
ENDBRANCH   2   3
ENDBRANCH   1   2
BRANCH   1  12
ATOM     12  C   UNL     1       8.387 -14.405  24.766  1.00  0.00     0.000 C 
BRANCH  12  13
ATOM     13  C   UNL     1       7.220 -14.733  23.827  1.00  0.00    -0.000 C 
BRANCH  13  14
ATOM     14  C   UNL     1       6.467 -15.982  24.301  1.00  0.00    -0.000 C 
BRANCH  14  15
ATOM     15  C   UNL     1       6.950 -17.233  23.551  1.00  0.00    -0.000 C 
BRANCH  15  16
ATOM     16  C   UNL     1       7.274 -18.401  24.498  1.00  0.00    -0.000 C 
BRANCH  16  17
ATOM     17  C   UNL     1       8.346 -19.344  23.925  1.00  0.00    -0.000 C 
BRANCH  17  18
ATOM     18  C   UNL     1       8.444 -20.666  24.703  1.00  0.00    -0.000 C 
BRANCH  18  19
ATOM     19  C   UNL     1       7.361 -20.798  25.782  1.00  0.00    -0.003 C 
ATOM     20  C   UNL     1       7.976 -20.835  27.178  1.00  0.00     0.004 C 
ENDBRANCH  18  19
ENDBRANCH  17  18
ENDBRANCH  16  17
ENDBRANCH  15  16
ENDBRANCH  14  15
ENDBRANCH  13  14
ENDBRANCH  12  13
ENDBRANCH   1  12
TORSDOF 16
ENDMDL
MODEL 2
REMARK VINA RESULT:    -4.204      4.093      6.263
REMARK INTER + INTRA:         -10.779
REMARK INTER:                  -8.180
REMARK INTRA:                  -2.599
REMARK UNBOUND:                -2.642
REMARK SMILES CCCCCCCCCCCCCCCCCC(=O)[O-]
REMARK SMILES IDX 10 1 11 2 12 3 13 4 14 5 15 6 16 7 17 8 18 9 19 10 20 11
REMARK SMILES IDX 9 12 8 13 7 14 6 15 5 16 4 17 3 18 2 19 1 20
REMARK H PARENT
REMARK Flexibility Score: inf
ROOT
ATOM      1  C   UNL     1       7.689 -17.704  22.960  1.00  0.00     0.000 C 
ENDROOT
BRANCH   1   2
ATOM      2  C   UNL     1       8.762 -18.802  23.015  1.00  0.00     0.000 C 
BRANCH   2   3
ATOM      3  C   UNL     1       8.406 -19.930  23.996  1.00  0.00     0.000 C 
BRANCH   3   4
ATOM      4  C   UNL     1       9.598 -20.851  24.298  1.00  0.00     0.000 C 
BRANCH   4   5
ATOM      5  C   UNL     1       9.366 -22.256  23.724  1.00  0.00     0.000 C 
BRANCH   5   6
ATOM      6  C   UNL     1       9.946 -22.431  22.309  1.00  0.00     0.000 C 
BRANCH   6   7
ATOM      7  C   UNL     1       8.941 -22.925  21.248  1.00  0.00     0.006 C 
BRANCH   7   8
ATOM      8  C   UNL     1       7.888 -21.886  20.833  1.00  0.00     0.053 C 
BRANCH   8   9
ATOM      9  C   UNL     1       8.465 -20.827  19.947  1.00  0.00     0.041 C 
ATOM     10  O   UNL     1       7.841 -19.749  19.760  1.00  0.00    -0.550 OA
ATOM     11  O   UNL     1       9.707 -21.015  19.354  1.00  0.00    -0.550 OA
ENDBRANCH   8   9
ENDBRANCH   7   8
ENDBRANCH   6   7
ENDBRANCH   5   6
ENDBRANCH   4   5
ENDBRANCH   3   4
ENDBRANCH   2   3
ENDBRANCH   1   2
BRANCH   1  12
ATOM     12  C   UNL     1       6.855 -17.688  24.247  1.00  0.00     0.000 C 
BRANCH  12  13
ATOM     13  C   UNL     1       6.274 -16.293  24.508  1.00  0.00    -0.000 C 
BRANCH  13  14
ATOM     14  C   UNL     1       6.482 -15.375  23.298  1.00  0.00    -0.000 C 
BRANCH  14  15
ATOM     15  C   UNL     1       7.244 -14.102  23.698  1.00  0.00    -0.000 C 
BRANCH  15  16
ATOM     16  C   UNL     1       8.320 -14.367  24.764  1.00  0.00    -0.000 C 
BRANCH  16  17
ATOM     17  C   UNL     1       9.686 -14.716  24.149  1.00  0.00    -0.000 C 
BRANCH  17  18
ATOM     18  C   UNL     1      10.409 -15.836  24.914  1.00  0.00    -0.000 C 
BRANCH  18  19
ATOM     19  C   UNL     1       9.685 -16.227  26.210  1.00  0.00    -0.003 C 
ATOM     20  C   UNL     1       9.990 -17.671  26.597  1.00  0.00     0.004 C 
ENDBRANCH  18  19
ENDBRANCH  17  18
ENDBRANCH  16  17
ENDBRANCH  15  16
ENDBRANCH  14  15
ENDBRANCH  13  14
ENDBRANCH  12  13
ENDBRANCH   1  12
TORSDOF 16
ENDMDL
MODEL 3
REMARK VINA RESULT:    -4.203      3.642      6.425
REMARK INTER + INTRA:         -10.777
REMARK INTER:                  -7.434
REMARK INTRA:                  -3.343
REMARK UNBOUND:                -2.642
REMARK SMILES CCCCCCCCCCCCCCCCCC(=O)[O-]
REMARK SMILES IDX 10 1 11 2 12 3 13 4 14 5 15 6 16 7 17 8 18 9 19 10 20 11
REMARK SMILES IDX 9 12 8 13 7 14 6 15 5 16 4 17 3 18 2 19 1 20
REMARK H PARENT
REMARK Flexibility Score: inf
ROOT
ATOM      1  C   UNL     1       7.401 -20.621  24.790  1.00  0.00     0.000 C 
ENDROOT
BRANCH   1   2
ATOM      2  C   UNL     1       8.615 -21.464  24.374  1.00  0.00     0.000 C 
BRANCH   2   3
ATOM      3  C   UNL     1       9.084 -21.162  22.942  1.00  0.00     0.000 C 
BRANCH   3   4
ATOM      4  C   UNL     1       8.484 -19.863  22.383  1.00  0.00     0.000 C 
BRANCH   4   5
ATOM      5  C   UNL     1       9.591 -18.892  21.945  1.00  0.00     0.000 C 
BRANCH   5   6
ATOM      6  C   UNL     1       9.140 -17.420  21.963  1.00  0.00     0.000 C 
BRANCH   6   7
ATOM      7  C   UNL     1       7.685 -17.189  22.421  1.00  0.00     0.006 C 
BRANCH   7   8
ATOM      8  C   UNL     1       7.230 -15.722  22.387  1.00  0.00     0.053 C 
BRANCH   8   9
ATOM      9  C   UNL     1       6.736 -15.257  23.721  1.00  0.00     0.041 C 
ATOM     10  O   UNL     1       5.566 -15.534  24.095  1.00  0.00    -0.550 OA
ATOM     11  O   UNL     1       7.579 -14.547  24.567  1.00  0.00    -0.550 OA
ENDBRANCH   8   9
ENDBRANCH   7   8
ENDBRANCH   6   7
ENDBRANCH   5   6
ENDBRANCH   4   5
ENDBRANCH   3   4
ENDBRANCH   2   3
ENDBRANCH   1   2
BRANCH   1  12
ATOM     12  C   UNL     1       7.138 -20.743  26.296  1.00  0.00     0.000 C 
BRANCH  12  13
ATOM     13  C   UNL     1       7.056 -19.361  26.955  1.00  0.00    -0.000 C 
BRANCH  13  14
ATOM     14  C   UNL     1       7.367 -18.251  25.944  1.00  0.00    -0.000 C 
BRANCH  14  15
ATOM     15  C   UNL     1       8.580 -17.422  26.393  1.00  0.00    -0.000 C 
BRANCH  15  16
ATOM     16  C   UNL     1       9.803 -17.622  25.483  1.00  0.00    -0.000 C 
BRANCH  16  17
ATOM     17  C   UNL     1      10.669 -18.819  25.912  1.00  0.00    -0.000 C 
BRANCH  17  18
ATOM     18  C   UNL     1      10.789 -18.942  27.439  1.00  0.00    -0.000 C 
BRANCH  18  19
ATOM     19  C   UNL     1      10.414 -20.340  27.950  1.00  0.00    -0.003 C 
ATOM     20  C   UNL     1      11.112 -21.428  27.140  1.00  0.00     0.004 C 
ENDBRANCH  18  19
ENDBRANCH  17  18
ENDBRANCH  16  17
ENDBRANCH  15  16
ENDBRANCH  14  15
ENDBRANCH  13  14
ENDBRANCH  12  13
ENDBRANCH   1  12
TORSDOF 16
ENDMDL
MODEL 4
REMARK VINA RESULT:    -4.187      4.084      5.817
REMARK INTER + INTRA:         -10.745
REMARK INTER:                  -8.150
REMARK INTRA:                  -2.595
REMARK UNBOUND:                -2.642
REMARK SMILES CCCCCCCCCCCCCCCCCC(=O)[O-]
REMARK SMILES IDX 10 1 11 2 12 3 13 4 14 5 15 6 16 7 17 8 18 9 19 10 20 11
REMARK SMILES IDX 9 12 8 13 7 14 6 15 5 16 4 17 3 18 2 19 1 20
REMARK H PARENT
REMARK Flexibility Score: inf
ROOT
ATOM      1  C   UNL     1       6.583 -16.334  24.593  1.00  0.00     0.000 C 
ENDROOT
BRANCH   1   2
ATOM      2  C   UNL     1       7.070 -16.609  26.023  1.00  0.00     0.000 C 
BRANCH   2   3
ATOM      3  C   UNL     1       7.416 -18.088  26.257  1.00  0.00     0.000 C 
BRANCH   3   4
ATOM      4  C   UNL     1       7.384 -18.916  24.964  1.00  0.00     0.000 C 
BRANCH   4   5
ATOM      5  C   UNL     1       7.614 -20.405  25.261  1.00  0.00     0.000 C 
BRANCH   5   6
ATOM      6  C   UNL     1       8.882 -20.963  24.588  1.00  0.00     0.000 C 
BRANCH   6   7
ATOM      7  C   UNL     1       8.625 -21.941  23.423  1.00  0.00     0.006 C 
BRANCH   7   8
ATOM      8  C   UNL     1       8.237 -21.267  22.098  1.00  0.00     0.053 C 
BRANCH   8   9
ATOM      9  C   UNL     1       8.620 -22.097  20.913  1.00  0.00     0.041 C 
ATOM     10  O   UNL     1       8.985 -23.293  21.068  1.00  0.00    -0.550 OA
ATOM     11  O   UNL     1       8.540 -21.563  19.633  1.00  0.00    -0.550 OA
ENDBRANCH   8   9
ENDBRANCH   7   8
ENDBRANCH   6   7
ENDBRANCH   5   6
ENDBRANCH   4   5
ENDBRANCH   3   4
ENDBRANCH   2   3
ENDBRANCH   1   2
BRANCH   1  12
ATOM     12  C   UNL     1       7.069 -14.964  24.102  1.00  0.00     0.000 C 
BRANCH  12  13
ATOM     13  C   UNL     1       8.263 -14.474  24.930  1.00  0.00    -0.000 C 
BRANCH  13  14
ATOM     14  C   UNL     1       9.562 -14.549  24.119  1.00  0.00    -0.000 C 
BRANCH  14  15
ATOM     15  C   UNL     1      10.479 -15.662  24.650  1.00  0.00    -0.000 C 
BRANCH  15  16
ATOM     16  C   UNL     1      10.316 -16.981  23.877  1.00  0.00    -0.000 C 
BRANCH  16  17
ATOM     17  C   UNL     1      10.036 -16.757  22.381  1.00  0.00    -0.000 C 
BRANCH  17  18
ATOM     18  C   UNL     1       8.808 -17.539  21.888  1.00  0.00    -0.000 C 
BRANCH  18  19
ATOM     19  C   UNL     1       7.863 -16.679  21.037  1.00  0.00    -0.003 C 
ATOM     20  C   UNL     1       7.592 -17.332  19.685  1.00  0.00     0.004 C 
ENDBRANCH  18  19
ENDBRANCH  17  18
ENDBRANCH  16  17
ENDBRANCH  15  16
ENDBRANCH  14  15
ENDBRANCH  13  14
ENDBRANCH  12  13
ENDBRANCH   1  12
TORSDOF 16
ENDMDL
MODEL 5
REMARK VINA RESULT:    -4.177      4.006      6.041
REMARK INTER + INTRA:         -10.725
REMARK INTER:                  -7.824
REMARK INTRA:                  -2.901
REMARK UNBOUND:                -2.642
REMARK SMILES CCCCCCCCCCCCCCCCCC(=O)[O-]
REMARK SMILES IDX 10 1 11 2 12 3 13 4 14 5 15 6 16 7 17 8 18 9 19 10 20 11
REMARK SMILES IDX 9 12 8 13 7 14 6 15 5 16 4 17 3 18 2 19 1 20
REMARK H PARENT
REMARK Flexibility Score: inf
ROOT
ATOM      1  C   UNL     1       6.787 -18.393  23.554  1.00  0.00     0.000 C 
ENDROOT
BRANCH   1   2
ATOM      2  C   UNL     1       7.411 -19.743  23.170  1.00  0.00     0.000 C 
BRANCH   2   3
ATOM      3  C   UNL     1       7.440 -20.738  24.341  1.00  0.00     0.000 C 
BRANCH   3   4
ATOM      4  C   UNL     1       8.826 -21.364  24.554  1.00  0.00     0.000 C 
BRANCH   4   5
ATOM      5  C   UNL     1       9.939 -20.371  24.187  1.00  0.00     0.000 C 
BRANCH   5   6
ATOM      6  C   UNL     1      10.940 -20.941  23.166  1.00  0.00     0.000 C 
BRANCH   6   7
ATOM      7  C   UNL     1      10.709 -20.495  21.707  1.00  0.00     0.006 C 
BRANCH   7   8
ATOM      8  C   UNL     1      10.508 -21.648  20.712  1.00  0.00     0.053 C 
BRANCH   8   9
ATOM      9  C   UNL     1       9.077 -22.080  20.635  1.00  0.00     0.041 C 
ATOM     10  O   UNL     1       8.309 -21.578  19.773  1.00  0.00    -0.550 OA
ATOM     11  O   UNL     1       8.599 -23.063  21.493  1.00  0.00    -0.550 OA
ENDBRANCH   8   9
ENDBRANCH   7   8
ENDBRANCH   6   7
ENDBRANCH   5   6
ENDBRANCH   4   5
ENDBRANCH   3   4
ENDBRANCH   2   3
ENDBRANCH   1   2
BRANCH   1  12
ATOM     12  C   UNL     1       7.160 -18.005  24.990  1.00  0.00     0.000 C 
BRANCH  12  13
ATOM     13  C   UNL     1       6.752 -16.558  25.292  1.00  0.00    -0.000 C 
BRANCH  13  14
ATOM     14  C   UNL     1       6.388 -15.809  24.005  1.00  0.00    -0.000 C 
BRANCH  14  15
ATOM     15  C   UNL     1       7.193 -14.506  23.880  1.00  0.00    -0.000 C 
BRANCH  15  16
ATOM     16  C   UNL     1       8.354 -14.430  24.886  1.00  0.00    -0.000 C 
BRANCH  16  17
ATOM     17  C   UNL     1       9.722 -14.683  24.228  1.00  0.00    -0.000 C 
BRANCH  17  18
ATOM     18  C   UNL     1      10.375 -15.988  24.709  1.00  0.00    -0.000 C 
BRANCH  18  19
ATOM     19  C   UNL     1      10.771 -16.912  23.549  1.00  0.00    -0.003 C 
ATOM     20  C   UNL     1       9.822 -16.747  22.365  1.00  0.00     0.004 C 
ENDBRANCH  18  19
ENDBRANCH  17  18
ENDBRANCH  16  17
ENDBRANCH  15  16
ENDBRANCH  14  15
ENDBRANCH  13  14
ENDBRANCH  12  13
ENDBRANCH   1  12
TORSDOF 16
ENDMDL
MODEL 6
REMARK VINA RESULT:    -4.160      3.762      5.861
REMARK INTER + INTRA:         -10.692
REMARK INTER:                  -7.636
REMARK INTRA:                  -3.056
REMARK UNBOUND:                -2.642
REMARK SMILES CCCCCCCCCCCCCCCCCC(=O)[O-]
REMARK SMILES IDX 10 1 11 2 12 3 13 4 14 5 15 6 16 7 17 8 18 9 19 10 20 11
REMARK SMILES IDX 9 12 8 13 7 14 6 15 5 16 4 17 3 18 2 19 1 20
REMARK H PARENT
REMARK Flexibility Score: inf
ROOT
ATOM      1  C   UNL     1       7.200 -20.804  26.004  1.00  0.00     0.000 C 
ENDROOT
BRANCH   1   2
ATOM      2  C   UNL     1       8.381 -20.729  26.984  1.00  0.00     0.000 C 
BRANCH   2   3
ATOM      3  C   UNL     1       9.723 -21.078  26.322  1.00  0.00     0.000 C 
BRANCH   3   4
ATOM      4  C   UNL     1      10.749 -19.940  26.427  1.00  0.00     0.000 C 
BRANCH   4   5
ATOM      5  C   UNL     1      10.151 -18.727  27.154  1.00  0.00     0.000 C 
BRANCH   5   6
ATOM      6  C   UNL     1      10.255 -17.425  26.339  1.00  0.00     0.000 C 
BRANCH   6   7
ATOM      7  C   UNL     1       9.013 -16.512  26.407  1.00  0.00     0.006 C 
BRANCH   7   8
ATOM      8  C   UNL     1       8.174 -16.479  25.120  1.00  0.00     0.053 C 
BRANCH   8   9
ATOM      9  C   UNL     1       8.172 -15.123  24.487  1.00  0.00     0.041 C 
ATOM     10  O   UNL     1       7.104 -14.640  24.026  1.00  0.00    -0.550 OA
ATOM     11  O   UNL     1       9.342 -14.376  24.436  1.00  0.00    -0.550 OA
ENDBRANCH   8   9
ENDBRANCH   7   8
ENDBRANCH   6   7
ENDBRANCH   5   6
ENDBRANCH   4   5
ENDBRANCH   3   4
ENDBRANCH   2   3
ENDBRANCH   1   2
BRANCH   1  12
ATOM     12  C   UNL     1       7.694 -20.951  24.559  1.00  0.00     0.000 C 
BRANCH  12  13
ATOM     13  C   UNL     1       7.189 -19.797  23.686  1.00  0.00    -0.000 C 
BRANCH  13  14
ATOM     14  C   UNL     1       8.144 -19.534  22.515  1.00  0.00    -0.000 C 
BRANCH  14  15
ATOM     15  C   UNL     1       9.580 -19.313  23.015  1.00  0.00    -0.000 C 
BRANCH  15  16
ATOM     16  C   UNL     1      10.619 -20.095  22.195  1.00  0.00    -0.000 C 
BRANCH  16  17
ATOM     17  C   UNL     1      11.238 -21.261  22.986  1.00  0.00    -0.000 C 
BRANCH  17  18
ATOM     18  C   UNL     1      10.491 -22.586  22.766  1.00  0.00    -0.000 C 
BRANCH  18  19
ATOM     19  C   UNL     1       9.944 -22.725  21.339  1.00  0.00    -0.003 C 
ATOM     20  C   UNL     1       8.452 -23.043  21.350  1.00  0.00     0.004 C 
ENDBRANCH  18  19
ENDBRANCH  17  18
ENDBRANCH  16  17
ENDBRANCH  15  16
ENDBRANCH  14  15
ENDBRANCH  13  14
ENDBRANCH  12  13
ENDBRANCH   1  12
TORSDOF 16
ENDMDL
MODEL 7
REMARK VINA RESULT:    -4.143      3.603      5.452
REMARK INTER + INTRA:         -10.661
REMARK INTER:                  -7.945
REMARK INTRA:                  -2.716
REMARK UNBOUND:                -2.642
REMARK SMILES CCCCCCCCCCCCCCCCCC(=O)[O-]
REMARK SMILES IDX 10 1 11 2 12 3 13 4 14 5 15 6 16 7 17 8 18 9 19 10 20 11
REMARK SMILES IDX 9 12 8 13 7 14 6 15 5 16 4 17 3 18 2 19 1 20
REMARK H PARENT
REMARK Flexibility Score: inf
ROOT
ATOM      1  C   UNL     1       7.530 -20.830  24.462  1.00  0.00     0.000 C 
ENDROOT
BRANCH   1   2
ATOM      2  C   UNL     1       7.123 -20.739  25.940  1.00  0.00     0.000 C 
BRANCH   2   3
ATOM      3  C   UNL     1       8.329 -20.772  26.891  1.00  0.00     0.000 C 
BRANCH   3   4
ATOM      4  C   UNL     1       9.653 -21.044  26.161  1.00  0.00     0.000 C 
BRANCH   4   5
ATOM      5  C   UNL     1      10.612 -19.854  26.304  1.00  0.00     0.000 C 
BRANCH   5   6
ATOM      6  C   UNL     1      10.715 -19.007  25.022  1.00  0.00     0.000 C 
BRANCH   6   7
ATOM      7  C   UNL     1      10.104 -17.594  25.122  1.00  0.00     0.006 C 
BRANCH   7   8
ATOM      8  C   UNL     1       9.434 -17.282  26.469  1.00  0.00     0.053 C 
BRANCH   8   9
ATOM      9  C   UNL     1       8.148 -16.536  26.297  1.00  0.00     0.041 C 
ATOM     10  O   UNL     1       7.048 -17.148  26.353  1.00  0.00    -0.550 OA
ATOM     11  O   UNL     1       8.161 -15.160  26.109  1.00  0.00    -0.550 OA
ENDBRANCH   8   9
ENDBRANCH   7   8
ENDBRANCH   6   7
ENDBRANCH   5   6
ENDBRANCH   4   5
ENDBRANCH   3   4
ENDBRANCH   2   3
ENDBRANCH   1   2
BRANCH   1  12
ATOM     12  C   UNL     1       7.104 -19.571  23.696  1.00  0.00     0.000 C 
BRANCH  12  13
ATOM     13  C   UNL     1       7.648 -19.588  22.263  1.00  0.00    -0.000 C 
BRANCH  13  14
ATOM     14  C   UNL     1       7.048 -20.748  21.460  1.00  0.00    -0.000 C 
BRANCH  14  15
ATOM     15  C   UNL     1       8.084 -21.342  20.494  1.00  0.00    -0.000 C 
BRANCH  15  16
ATOM     16  C   UNL     1       8.766 -22.599  21.059  1.00  0.00    -0.000 C 
BRANCH  16  17
ATOM     17  C   UNL     1      10.128 -22.292  21.706  1.00  0.00    -0.000 C 
BRANCH  17  18
ATOM     18  C   UNL     1      10.231 -22.823  23.144  1.00  0.00    -0.000 C 
BRANCH  18  19
ATOM     19  C   UNL     1      11.685 -22.976  23.613  1.00  0.00    -0.003 C 
ATOM     20  C   UNL     1      12.515 -21.750  23.243  1.00  0.00     0.004 C 
ENDBRANCH  18  19
ENDBRANCH  17  18
ENDBRANCH  16  17
ENDBRANCH  15  16
ENDBRANCH  14  15
ENDBRANCH  13  14
ENDBRANCH  12  13
ENDBRANCH   1  12
TORSDOF 16
ENDMDL
MODEL 8
REMARK VINA RESULT:    -4.138      2.976      4.781
REMARK INTER + INTRA:         -10.651
REMARK INTER:                  -8.153
REMARK INTRA:                  -2.498
REMARK UNBOUND:                -2.642
REMARK SMILES CCCCCCCCCCCCCCCCCC(=O)[O-]
REMARK SMILES IDX 10 1 11 2 12 3 13 4 14 5 15 6 16 7 17 8 18 9 19 10 20 11
REMARK SMILES IDX 9 12 8 13 7 14 6 15 5 16 4 17 3 18 2 19 1 20
REMARK H PARENT
REMARK Flexibility Score: inf
ROOT
ATOM      1  C   UNL     1       8.739 -16.763  21.000  1.00  0.00     0.000 C 
ENDROOT
BRANCH   1   2
ATOM      2  C   UNL     1       8.339 -16.339  22.422  1.00  0.00     0.000 C 
BRANCH   2   3
ATOM      3  C   UNL     1       7.171 -15.340  22.436  1.00  0.00     0.000 C 
BRANCH   3   4
ATOM      4  C   UNL     1       6.548 -15.176  23.830  1.00  0.00     0.000 C 
BRANCH   4   5
ATOM      5  C   UNL     1       6.157 -16.539  24.420  1.00  0.00     0.000 C 
BRANCH   5   6
ATOM      6  C   UNL     1       6.742 -16.776  25.824  1.00  0.00     0.000 C 
BRANCH   6   7
ATOM      7  C   UNL     1       8.013 -15.963  26.147  1.00  0.00     0.006 C 
BRANCH   7   8
ATOM      8  C   UNL     1       9.217 -16.810  26.589  1.00  0.00     0.053 C 
BRANCH   8   9
ATOM      9  C   UNL     1      10.230 -16.958  25.497  1.00  0.00     0.041 C 
ATOM     10  O   UNL     1      10.804 -15.942  25.023  1.00  0.00    -0.550 OA
ATOM     11  O   UNL     1      10.566 -18.221  25.026  1.00  0.00    -0.550 OA
ENDBRANCH   8   9
ENDBRANCH   7   8
ENDBRANCH   6   7
ENDBRANCH   5   6
ENDBRANCH   4   5
ENDBRANCH   3   4
ENDBRANCH   2   3
ENDBRANCH   1   2
BRANCH   1  12
ATOM     12  C   UNL     1       7.499 -17.054  20.145  1.00  0.00     0.000 C 
BRANCH  12  13
ATOM     13  C   UNL     1       7.478 -18.517  19.687  1.00  0.00    -0.000 C 
BRANCH  13  14
ATOM     14  C   UNL     1       8.255 -19.410  20.662  1.00  0.00    -0.000 C 
BRANCH  14  15
ATOM     15  C   UNL     1       7.338 -20.471  21.287  1.00  0.00    -0.000 C 
BRANCH  15  16
ATOM     16  C   UNL     1       6.638 -19.971  22.561  1.00  0.00    -0.000 C 
BRANCH  16  17
ATOM     17  C   UNL     1       7.602 -19.847  23.754  1.00  0.00    -0.000 C 
BRANCH  17  18
ATOM     18  C   UNL     1       7.355 -20.919  24.827  1.00  0.00    -0.000 C 
BRANCH  18  19
ATOM     19  C   UNL     1       7.340 -20.340  26.248  1.00  0.00    -0.003 C 
ATOM     20  C   UNL     1       8.607 -20.718  27.010  1.00  0.00     0.004 C 
ENDBRANCH  18  19
ENDBRANCH  17  18
ENDBRANCH  16  17
ENDBRANCH  15  16
ENDBRANCH  14  15
ENDBRANCH  13  14
ENDBRANCH  12  13
ENDBRANCH   1  12
TORSDOF 16
ENDMDL
MODEL 9
REMARK VINA RESULT:    -4.119      5.035      7.699
REMARK INTER + INTRA:         -10.613
REMARK INTER:                  -7.735
REMARK INTRA:                  -2.878
REMARK UNBOUND:                -2.642
REMARK SMILES CCCCCCCCCCCCCCCCCC(=O)[O-]
REMARK SMILES IDX 10 1 11 2 12 3 13 4 14 5 15 6 16 7 17 8 18 9 19 10 20 11
REMARK SMILES IDX 9 12 8 13 7 14 6 15 5 16 4 17 3 18 2 19 1 20
REMARK H PARENT
REMARK Flexibility Score: inf
ROOT
ATOM      1  C   UNL     1       7.518 -20.244  23.589  1.00  0.00     0.000 C 
ENDROOT
BRANCH   1   2
ATOM      2  C   UNL     1       6.717 -20.031  22.296  1.00  0.00     0.000 C 
BRANCH   2   3
ATOM      3  C   UNL     1       7.523 -20.379  21.035  1.00  0.00     0.000 C 
BRANCH   3   4
ATOM      4  C   UNL     1       9.022 -20.082  21.189  1.00  0.00     0.000 C 
BRANCH   4   5
ATOM      5  C   UNL     1       9.403 -18.785  20.460  1.00  0.00     0.000 C 
BRANCH   5   6
ATOM      6  C   UNL     1       9.502 -17.572  21.402  1.00  0.00     0.000 C 
BRANCH   6   7
ATOM      7  C   UNL     1       8.471 -16.455  21.138  1.00  0.00     0.006 C 
BRANCH   7   8
ATOM      8  C   UNL     1       8.113 -16.254  19.657  1.00  0.00     0.053 C 
BRANCH   8   9
ATOM      9  C   UNL     1       7.121 -15.150  19.465  1.00  0.00     0.041 C 
ATOM     10  O   UNL     1       6.417 -14.756  20.432  1.00  0.00    -0.550 OA
ATOM     11  O   UNL     1       6.998 -14.532  18.227  1.00  0.00    -0.550 OA
ENDBRANCH   8   9
ENDBRANCH   7   8
ENDBRANCH   6   7
ENDBRANCH   5   6
ENDBRANCH   4   5
ENDBRANCH   3   4
ENDBRANCH   2   3
ENDBRANCH   1   2
BRANCH   1  12
ATOM     12  C   UNL     1       7.563 -18.959  24.425  1.00  0.00     0.000 C 
BRANCH  12  13
ATOM     13  C   UNL     1       6.667 -17.874  23.816  1.00  0.00    -0.000 C 
BRANCH  13  14
ATOM     14  C   UNL     1       6.560 -16.661  24.748  1.00  0.00    -0.000 C 
BRANCH  14  15
ATOM     15  C   UNL     1       6.292 -15.376  23.950  1.00  0.00    -0.000 C 
BRANCH  15  16
ATOM     16  C   UNL     1       7.450 -14.369  24.044  1.00  0.00    -0.000 C 
BRANCH  16  17
ATOM     17  C   UNL     1       8.687 -14.956  24.744  1.00  0.00    -0.000 C 
BRANCH  17  18
ATOM     18  C   UNL     1       9.998 -14.589  24.031  1.00  0.00    -0.000 C 
BRANCH  18  19
ATOM     19  C   UNL     1      11.114 -15.613  24.282  1.00  0.00    -0.003 C 
ATOM     20  C   UNL     1      10.572 -16.858  24.977  1.00  0.00     0.004 C 
ENDBRANCH  18  19
ENDBRANCH  17  18
ENDBRANCH  16  17
ENDBRANCH  15  16
ENDBRANCH  14  15
ENDBRANCH  13  14
ENDBRANCH  12  13
ENDBRANCH   1  12
TORSDOF 16
ENDMDL
