MODEL 1
REMARK VINA RESULT:    -4.556      0.000      0.000
REMARK INTER + INTRA:          -8.059
REMARK INTER:                  -6.954
REMARK INTRA:                  -1.106
REMARK UNBOUND:                -1.106
REMARK SMILES CCCCCCCCCC=CC(=O)[O-]
REMARK SMILES IDX 7 1 8 2 9 3 10 4 11 5 12 6 13 7 14 8 6 9 5 10 4 11 3 12 2 13
REMARK SMILES IDX 1 14
REMARK H PARENT
REMARK Flexibility Score: inf
ROOT
ATOM      1  C   UNL     1      43.349  53.789  33.627  1.00  0.00     0.000 C 
ENDROOT
BRANCH   1   2
ATOM      2  C   UNL     1      44.371  52.787  34.185  1.00  0.00     0.004 C 
BRANCH   2   3
ATOM      3  C   UNL     1      43.722  51.714  35.071  1.00  0.00     0.027 C 
BRANCH   3   4
ATOM      4  C   UNL     1      42.224  51.821  35.042  1.00  0.00    -0.025 C 
ATOM      5  C   UNL     1      41.508  51.905  36.169  1.00  0.00     0.020 C 
BRANCH   5   6
ATOM      6  C   UNL     1      40.042  52.025  36.165  1.00  0.00     0.064 C 
ATOM      7  O   UNL     1      39.382  51.914  35.097  1.00  0.00    -0.545 OA
ATOM      8  O   UNL     1      39.373  52.263  37.358  1.00  0.00    -0.545 OA
ENDBRANCH   5   6
ENDBRANCH   3   4
ENDBRANCH   2   3
ENDBRANCH   1   2
BRANCH   1   9
ATOM      9  C   UNL     1      43.583  55.220  34.146  1.00  0.00     0.000 C 
BRANCH   9  10
ATOM     10  C   UNL     1      42.609  55.608  35.269  1.00  0.00     0.000 C 
BRANCH  10  11
ATOM     11  C   UNL     1      43.102  55.170  36.657  1.00  0.00    -0.000 C 
BRANCH  11  12
ATOM     12  C   UNL     1      44.589  55.511  36.842  1.00  0.00    -0.000 C 
BRANCH  12  13
ATOM     13  C   UNL     1      45.063  55.314  38.290  1.00  0.00    -0.003 C 
ATOM     14  C   UNL     1      44.462  56.337  39.254  1.00  0.00     0.004 C 
ENDBRANCH  12  13
ENDBRANCH  11  12
ENDBRANCH  10  11
ENDBRANCH   9  10
ENDBRANCH   1   9
TORSDOF 9
ENDMDL
MODEL 2
REMARK VINA RESULT:    -4.549      7.370      9.216
REMARK INTER + INTRA:          -8.048
REMARK INTER:                  -7.073
REMARK INTRA:                  -0.975
REMARK UNBOUND:                -1.106
REMARK SMILES CCCCCCCCCC=CC(=O)[O-]
REMARK SMILES IDX 7 1 8 2 9 3 10 4 11 5 12 6 13 7 14 8 6 9 5 10 4 11 3 12 2 13
REMARK SMILES IDX 1 14
REMARK H PARENT
REMARK Flexibility Score: inf
ROOT
ATOM      1  C   UNL     1      45.598  47.920  35.490  1.00  0.00     0.000 C 
ENDROOT
BRANCH   1   2
ATOM      2  C   UNL     1      45.585  46.428  35.125  1.00  0.00     0.004 C 
BRANCH   2   3
ATOM      3  C   UNL     1      46.982  45.895  34.775  1.00  0.00     0.027 C 
BRANCH   3   4
ATOM      4  C   UNL     1      46.937  45.011  33.561  1.00  0.00    -0.025 C 
ATOM      5  C   UNL     1      45.860  44.272  33.275  1.00  0.00     0.020 C 
BRANCH   5   6
ATOM      6  C   UNL     1      45.789  43.410  32.085  1.00  0.00     0.064 C 
ATOM      7  O   UNL     1      46.130  42.198  32.135  1.00  0.00    -0.545 OA
ATOM      8  O   UNL     1      45.338  43.942  30.884  1.00  0.00    -0.545 OA
ENDBRANCH   5   6
ENDBRANCH   3   4
ENDBRANCH   2   3
ENDBRANCH   1   2
BRANCH   1   9
ATOM      9  C   UNL     1      47.016  48.519  35.478  1.00  0.00     0.000 C 
BRANCH   9  10
ATOM     10  C   UNL     1      47.047  49.952  34.924  1.00  0.00     0.000 C 
BRANCH  10  11
ATOM     11  C   UNL     1      48.424  50.341  34.366  1.00  0.00    -0.000 C 
BRANCH  11  12
ATOM     12  C   UNL     1      49.313  49.100  34.186  1.00  0.00    -0.000 C 
BRANCH  12  13
ATOM     13  C   UNL     1      49.718  48.872  32.722  1.00  0.00    -0.003 C 
ATOM     14  C   UNL     1      49.289  47.502  32.197  1.00  0.00     0.004 C 
ENDBRANCH  12  13
ENDBRANCH  11  12
ENDBRANCH  10  11
ENDBRANCH   9  10
ENDBRANCH   1   9
TORSDOF 9
ENDMDL
MODEL 3
REMARK VINA RESULT:    -4.527      5.375      8.259
REMARK INTER + INTRA:          -8.014
REMARK INTER:                  -7.365
REMARK INTRA:                  -0.649
REMARK UNBOUND:                -1.106
REMARK SMILES CCCCCCCCCC=CC(=O)[O-]
REMARK SMILES IDX 7 1 8 2 9 3 10 4 11 5 12 6 13 7 14 8 6 9 5 10 4 11 3 12 2 13
REMARK SMILES IDX 1 14
REMARK H PARENT
REMARK Flexibility Score: inf
ROOT
ATOM      1  C   UNL     1      39.791  50.788  31.391  1.00  0.00     0.000 C 
ENDROOT
BRANCH   1   2
ATOM      2  C   UNL     1      39.669  51.897  32.447  1.00  0.00     0.004 C 
BRANCH   2   3
ATOM      3  C   UNL     1      40.233  51.477  33.812  1.00  0.00     0.027 C 
BRANCH   3   4
ATOM      4  C   UNL     1      41.390  52.347  34.212  1.00  0.00    -0.025 C 
ATOM      5  C   UNL     1      42.565  51.822  34.579  1.00  0.00     0.020 C 
BRANCH   5   6
ATOM      6  C   UNL     1      43.716  52.655  34.961  1.00  0.00     0.064 C 
ATOM      7  O   UNL     1      43.603  53.569  35.822  1.00  0.00    -0.545 OA
ATOM      8  O   UNL     1      44.949  52.431  34.363  1.00  0.00    -0.545 OA
ENDBRANCH   5   6
ENDBRANCH   3   4
ENDBRANCH   2   3
ENDBRANCH   1   2
BRANCH   1   9
ATOM      9  C   UNL     1      40.151  49.424  32.008  1.00  0.00     0.000 C 
BRANCH   9  10
ATOM     10  C   UNL     1      38.941  48.481  32.103  1.00  0.00     0.000 C 
BRANCH  10  11
ATOM     11  C   UNL     1      37.726  48.997  31.318  1.00  0.00    -0.000 C 
BRANCH  11  12
ATOM     12  C   UNL     1      37.622  48.305  29.950  1.00  0.00    -0.000 C 
BRANCH  12  13
ATOM     13  C   UNL     1      37.409  49.300  28.799  1.00  0.00    -0.003 C 
ATOM     14  C   UNL     1      36.875  48.633  27.532  1.00  0.00     0.004 C 
ENDBRANCH  12  13
ENDBRANCH  11  12
ENDBRANCH  10  11
ENDBRANCH   9  10
ENDBRANCH   1   9
TORSDOF 9
ENDMDL
MODEL 4
REMARK VINA RESULT:    -4.527      2.661      3.295
REMARK INTER + INTRA:          -8.014
REMARK INTER:                  -7.549
REMARK INTRA:                  -0.465
REMARK UNBOUND:                -1.106
REMARK SMILES CCCCCCCCCC=CC(=O)[O-]
REMARK SMILES IDX 7 1 8 2 9 3 10 4 11 5 12 6 13 7 14 8 6 9 5 10 4 11 3 12 2 13
REMARK SMILES IDX 1 14
REMARK H PARENT
REMARK Flexibility Score: inf
ROOT
ATOM      1  C   UNL     1      43.681  52.305  34.892  1.00  0.00     0.000 C 
ENDROOT
BRANCH   1   2
ATOM      2  C   UNL     1      42.343  51.552  34.839  1.00  0.00     0.004 C 
BRANCH   2   3
ATOM      3  C   UNL     1      41.490  51.949  33.626  1.00  0.00     0.027 C 
BRANCH   3   4
ATOM      4  C   UNL     1      40.479  50.887  33.303  1.00  0.00    -0.025 C 
ATOM      5  C   UNL     1      40.307  50.442  32.053  1.00  0.00     0.020 C 
BRANCH   5   6
ATOM      6  C   UNL     1      39.332  49.393  31.716  1.00  0.00     0.064 C 
ATOM      7  O   UNL     1      39.113  48.430  32.500  1.00  0.00    -0.545 OA
ATOM      8  O   UNL     1      38.641  49.464  30.514  1.00  0.00    -0.545 OA
ENDBRANCH   5   6
ENDBRANCH   3   4
ENDBRANCH   2   3
ENDBRANCH   1   2
BRANCH   1   9
ATOM      9  C   UNL     1      43.659  53.606  34.070  1.00  0.00     0.000 C 
BRANCH   9  10
ATOM     10  C   UNL     1      43.624  54.862  34.954  1.00  0.00     0.000 C 
BRANCH  10  11
ATOM     11  C   UNL     1      43.864  54.548  36.438  1.00  0.00    -0.000 C 
BRANCH  11  12
ATOM     12  C   UNL     1      44.878  55.528  37.049  1.00  0.00    -0.000 C 
BRANCH  12  13
ATOM     13  C   UNL     1      44.894  55.481  38.584  1.00  0.00    -0.003 C 
ATOM     14  C   UNL     1      44.804  56.868  39.220  1.00  0.00     0.004 C 
ENDBRANCH  12  13
ENDBRANCH  11  12
ENDBRANCH  10  11
ENDBRANCH   9  10
ENDBRANCH   1   9
TORSDOF 9
ENDMDL
MODEL 5
REMARK VINA RESULT:    -4.516      7.991     10.070
REMARK INTER + INTRA:          -7.997
REMARK INTER:                  -7.519
REMARK INTRA:                  -0.478
REMARK UNBOUND:                -1.106
REMARK SMILES CCCCCCCCCC=CC(=O)[O-]
REMARK SMILES IDX 7 1 8 2 9 3 10 4 11 5 12 6 13 7 14 8 6 9 5 10 4 11 3 12 2 13
REMARK SMILES IDX 1 14
REMARK H PARENT
REMARK Flexibility Score: inf
ROOT
ATOM      1  C   UNL     1      50.812  49.404  36.505  1.00  0.00     0.000 C 
ENDROOT
BRANCH   1   2
ATOM      2  C   UNL     1      51.243  50.829  36.885  1.00  0.00     0.004 C 
BRANCH   2   3
ATOM      3  C   UNL     1      52.313  50.848  37.987  1.00  0.00     0.027 C 
BRANCH   3   4
ATOM      4  C   UNL     1      51.693  51.042  39.341  1.00  0.00    -0.025 C 
ATOM      5  C   UNL     1      52.377  51.591  40.351  1.00  0.00     0.020 C 
BRANCH   5   6
ATOM      6  C   UNL     1      51.786  51.802  41.681  1.00  0.00     0.064 C 
ATOM      7  O   UNL     1      51.042  50.933  42.210  1.00  0.00    -0.545 OA
ATOM      8  O   UNL     1      52.052  52.980  42.367  1.00  0.00    -0.545 OA
ENDBRANCH   5   6
ENDBRANCH   3   4
ENDBRANCH   2   3
ENDBRANCH   1   2
BRANCH   1   9
ATOM      9  C   UNL     1      49.971  49.366  35.216  1.00  0.00     0.000 C 
BRANCH   9  10
ATOM     10  C   UNL     1      49.204  50.674  34.973  1.00  0.00     0.000 C 
BRANCH  10  11
ATOM     11  C   UNL     1      47.743  50.436  34.562  1.00  0.00    -0.000 C 
BRANCH  11  12
ATOM     12  C   UNL     1      47.425  48.933  34.514  1.00  0.00    -0.000 C 
BRANCH  12  13
ATOM     13  C   UNL     1      46.170  48.569  35.321  1.00  0.00    -0.003 C 
ATOM     14  C   UNL     1      45.865  47.071  35.298  1.00  0.00     0.004 C 
ENDBRANCH  12  13
ENDBRANCH  11  12
ENDBRANCH  10  11
ENDBRANCH   9  10
ENDBRANCH   1   9
TORSDOF 9
ENDMDL
MODEL 6
REMARK VINA RESULT:    -4.482      7.646      9.870
REMARK INTER + INTRA:          -7.945
REMARK INTER:                  -7.026
REMARK INTRA:                  -0.919
REMARK UNBOUND:                -1.106
REMARK SMILES CCCCCCCCCC=CC(=O)[O-]
REMARK SMILES IDX 7 1 8 2 9 3 10 4 11 5 12 6 13 7 14 8 6 9 5 10 4 11 3 12 2 13
REMARK SMILES IDX 1 14
REMARK H PARENT
REMARK Flexibility Score: inf
ROOT
ATOM      1  C   UNL     1      47.170  48.720  35.508  1.00  0.00     0.000 C 
ENDROOT
BRANCH   1   2
ATOM      2  C   UNL     1      47.300  49.974  34.629  1.00  0.00     0.004 C 
BRANCH   2   3
ATOM      3  C   UNL     1      48.702  50.597  34.696  1.00  0.00     0.027 C 
BRANCH   3   4
ATOM      4  C   UNL     1      49.629  49.759  35.529  1.00  0.00    -0.025 C 
ATOM      5  C   UNL     1      50.726  50.279  36.092  1.00  0.00     0.020 C 
BRANCH   5   6
ATOM      6  C   UNL     1      51.640  49.480  36.923  1.00  0.00     0.064 C 
ATOM      7  O   UNL     1      52.676  48.955  36.434  1.00  0.00    -0.545 OA
ATOM      8  O   UNL     1      51.357  49.302  38.271  1.00  0.00    -0.545 OA
ENDBRANCH   5   6
ENDBRANCH   3   4
ENDBRANCH   2   3
ENDBRANCH   1   2
BRANCH   1   9
ATOM      9  C   UNL     1      45.717  48.219  35.609  1.00  0.00     0.000 C 
BRANCH   9  10
ATOM     10  C   UNL     1      45.573  46.742  35.212  1.00  0.00     0.000 C 
BRANCH  10  11
ATOM     11  C   UNL     1      46.928  46.063  34.956  1.00  0.00    -0.000 C 
BRANCH  11  12
ATOM     12  C   UNL     1      46.902  45.267  33.642  1.00  0.00    -0.000 C 
BRANCH  12  13
ATOM     13  C   UNL     1      48.168  45.479  32.799  1.00  0.00    -0.003 C 
ATOM     14  C   UNL     1      48.702  46.909  32.883  1.00  0.00     0.004 C 
ENDBRANCH  12  13
ENDBRANCH  11  12
ENDBRANCH  10  11
ENDBRANCH   9  10
ENDBRANCH   1   9
TORSDOF 9
ENDMDL
MODEL 7
REMARK VINA RESULT:    -4.478      8.059      9.665
REMARK INTER + INTRA:          -7.940
REMARK INTER:                  -7.382
REMARK INTRA:                  -0.558
REMARK UNBOUND:                -1.106
REMARK SMILES CCCCCCCCCC=CC(=O)[O-]
REMARK SMILES IDX 7 1 8 2 9 3 10 4 11 5 12 6 13 7 14 8 6 9 5 10 4 11 3 12 2 13
REMARK SMILES IDX 1 14
REMARK H PARENT
REMARK Flexibility Score: inf
ROOT
ATOM      1  C   UNL     1      47.178  46.150  34.234  1.00  0.00     0.000 C 
ENDROOT
BRANCH   1   2
ATOM      2  C   UNL     1      47.088  44.957  33.270  1.00  0.00     0.004 C 
BRANCH   2   3
ATOM      3  C   UNL     1      45.783  44.164  33.434  1.00  0.00     0.027 C 
BRANCH   3   4
ATOM      4  C   UNL     1      45.540  43.271  32.251  1.00  0.00    -0.025 C 
ATOM      5  C   UNL     1      45.519  43.754  31.004  1.00  0.00     0.020 C 
BRANCH   5   6
ATOM      6  C   UNL     1      45.296  42.896  29.830  1.00  0.00     0.064 C 
ATOM      7  O   UNL     1      45.258  43.379  28.666  1.00  0.00    -0.545 OA
ATOM      8  O   UNL     1      45.126  41.529  30.005  1.00  0.00    -0.545 OA
ENDBRANCH   5   6
ENDBRANCH   3   4
ENDBRANCH   2   3
ENDBRANCH   1   2
BRANCH   1   9
ATOM      9  C   UNL     1      45.878  46.366  35.029  1.00  0.00     0.000 C 
BRANCH   9  10
ATOM     10  C   UNL     1      45.846  47.721  35.753  1.00  0.00     0.000 C 
BRANCH  10  11
ATOM     11  C   UNL     1      47.206  48.436  35.730  1.00  0.00    -0.000 C 
BRANCH  11  12
ATOM     12  C   UNL     1      47.117  49.756  34.947  1.00  0.00    -0.000 C 
BRANCH  12  13
ATOM     13  C   UNL     1      48.471  50.190  34.368  1.00  0.00    -0.003 C 
ATOM     14  C   UNL     1      49.614  50.066  35.376  1.00  0.00     0.004 C 
ENDBRANCH  12  13
ENDBRANCH  11  12
ENDBRANCH  10  11
ENDBRANCH   9  10
ENDBRANCH   1   9
TORSDOF 9
ENDMDL
MODEL 8
REMARK VINA RESULT:    -4.454      3.786      6.535
REMARK INTER + INTRA:          -7.902
REMARK INTER:                  -7.387
REMARK INTRA:                  -0.515
REMARK UNBOUND:                -1.106
REMARK SMILES CCCCCCCCCC=CC(=O)[O-]
REMARK SMILES IDX 7 1 8 2 9 3 10 4 11 5 12 6 13 7 14 8 6 9 5 10 4 11 3 12 2 13
REMARK SMILES IDX 1 14
REMARK H PARENT
REMARK Flexibility Score: inf
ROOT
ATOM      1  C   UNL     1      43.427  51.985  34.644  1.00  0.00     0.000 C 
ENDROOT
BRANCH   1   2
ATOM      2  C   UNL     1      44.031  53.380  34.868  1.00  0.00     0.004 C 
BRANCH   2   3
ATOM      3  C   UNL     1      43.527  54.041  36.159  1.00  0.00     0.027 C 
BRANCH   3   4
ATOM      4  C   UNL     1      44.349  55.250  36.506  1.00  0.00    -0.025 C 
ATOM      5  C   UNL     1      44.722  55.503  37.765  1.00  0.00     0.020 C 
BRANCH   5   6
ATOM      6  C   UNL     1      45.538  56.673  38.125  1.00  0.00     0.064 C 
ATOM      7  O   UNL     1      45.419  57.230  39.250  1.00  0.00    -0.545 OA
ATOM      8  O   UNL     1      46.456  57.173  37.211  1.00  0.00    -0.545 OA
ENDBRANCH   5   6
ENDBRANCH   3   4
ENDBRANCH   2   3
ENDBRANCH   1   2
BRANCH   1   9
ATOM      9  C   UNL     1      42.244  51.697  35.586  1.00  0.00     0.000 C 
BRANCH   9  10
ATOM     10  C   UNL     1      40.885  52.015  34.943  1.00  0.00     0.000 C 
BRANCH  10  11
ATOM     11  C   UNL     1      40.965  52.117  33.412  1.00  0.00    -0.000 C 
BRANCH  11  12
ATOM     12  C   UNL     1      39.909  51.219  32.747  1.00  0.00    -0.000 C 
BRANCH  12  13
ATOM     13  C   UNL     1      40.534  50.076  31.934  1.00  0.00    -0.003 C 
ATOM     14  C   UNL     1      39.915  48.715  32.254  1.00  0.00     0.004 C 
ENDBRANCH  12  13
ENDBRANCH  11  12
ENDBRANCH  10  11
ENDBRANCH   9  10
ENDBRANCH   1   9
TORSDOF 9
ENDMDL
MODEL 9
REMARK VINA RESULT:    -4.448      7.376      8.762
REMARK INTER + INTRA:          -7.894
REMARK INTER:                  -6.688
REMARK INTRA:                  -1.206
REMARK UNBOUND:                -1.106
REMARK SMILES CCCCCCCCCC=CC(=O)[O-]
REMARK SMILES IDX 7 1 8 2 9 3 10 4 11 5 12 6 13 7 14 8 6 9 5 10 4 11 3 12 2 13
REMARK SMILES IDX 1 14
REMARK H PARENT
REMARK Flexibility Score: inf
ROOT
ATOM      1  C   UNL     1      47.413  48.941  34.421  1.00  0.00     0.000 C 
ENDROOT
BRANCH   1   2
ATOM      2  C   UNL     1      46.218  48.726  35.363  1.00  0.00     0.004 C 
BRANCH   2   3
ATOM      3  C   UNL     1      45.939  47.240  35.631  1.00  0.00     0.027 C 
BRANCH   3   4
ATOM      4  C   UNL     1      46.530  46.374  34.555  1.00  0.00    -0.025 C 
ATOM      5  C   UNL     1      46.008  45.179  34.255  1.00  0.00     0.020 C 
BRANCH   5   6
ATOM      6  C   UNL     1      46.562  44.321  33.196  1.00  0.00     0.064 C 
ATOM      7  O   UNL     1      46.260  43.100  33.121  1.00  0.00    -0.545 OA
ATOM      8  O   UNL     1      47.432  44.867  32.261  1.00  0.00    -0.545 OA
ENDBRANCH   5   6
ENDBRANCH   3   4
ENDBRANCH   2   3
ENDBRANCH   1   2
BRANCH   1   9
ATOM      9  C   UNL     1      48.041  50.339  34.575  1.00  0.00     0.000 C 
BRANCH   9  10
ATOM     10  C   UNL     1      49.393  50.301  35.303  1.00  0.00     0.000 C 
BRANCH  10  11
ATOM     11  C   UNL     1      49.986  48.886  35.379  1.00  0.00    -0.000 C 
BRANCH  11  12
ATOM     12  C   UNL     1      50.034  48.389  36.832  1.00  0.00    -0.000 C 
BRANCH  12  13
ATOM     13  C   UNL     1      49.441  46.982  36.994  1.00  0.00    -0.003 C 
ATOM     14  C   UNL     1      48.542  46.856  38.224  1.00  0.00     0.004 C 
ENDBRANCH  12  13
ENDBRANCH  11  12
ENDBRANCH  10  11
ENDBRANCH   9  10
ENDBRANCH   1   9
TORSDOF 9
ENDMDL
