MODEL 1
REMARK VINA RESULT:    -2.764      0.000      0.000
REMARK INTER + INTRA:          -3.553
REMARK INTER:                  -3.330
REMARK INTRA:                  -0.223
REMARK UNBOUND:                -0.223
REMARK SMILES OCC(O)CO
REMARK SMILES IDX 3 1 5 2 6 3 2 5 1 6 4 8
REMARK H PARENT 6 4 1 7 4 9
REMARK Flexibility Score: inf
ROOT
ATOM      1  C   UNL     1      -9.209  10.674 -35.125  1.00  0.00     0.165 C 
ENDROOT
BRANCH   1   2
ATOM      2  C   UNL     1     -10.090   9.882 -34.148  1.00  0.00     0.190 C 
BRANCH   2   3
ATOM      3  O   UNL     1     -11.135  10.696 -33.690  1.00  0.00    -0.394 OA
ATOM      4  H   UNL     1     -11.503  10.244 -32.887  1.00  0.00     0.210 HD
ENDBRANCH   2   3
ENDBRANCH   1   2
BRANCH   1   5
ATOM      5  C   UNL     1      -9.820  12.052 -35.433  1.00  0.00     0.190 C 
BRANCH   5   6
ATOM      6  O   UNL     1     -10.854  11.930 -36.372  1.00  0.00    -0.394 OA
ATOM      7  H   UNL     1     -11.035  10.958 -36.470  1.00  0.00     0.210 HD
ENDBRANCH   5   6
ENDBRANCH   1   5
BRANCH   1   8
ATOM      8  O   UNL     1      -9.001   9.946 -36.309  1.00  0.00    -0.388 OA
ATOM      9  H   UNL     1      -8.825  10.599 -37.038  1.00  0.00     0.211 HD
ENDBRANCH   1   8
TORSDOF 5
ENDMDL
MODEL 2
REMARK VINA RESULT:    -2.615      1.393      2.520
REMARK INTER + INTRA:          -3.373
REMARK INTER:                  -3.155
REMARK INTRA:                  -0.218
REMARK UNBOUND:                -0.223
REMARK SMILES OCC(O)CO
REMARK SMILES IDX 3 1 5 2 6 3 2 5 1 6 4 8
REMARK H PARENT 6 4 1 7 4 9
REMARK Flexibility Score: inf
ROOT
ATOM      1  C   UNL     1     -10.130   9.932 -33.988  1.00  0.00     0.165 C 
ENDROOT
BRANCH   1   2
ATOM      2  C   UNL     1      -9.672  10.417 -35.371  1.00  0.00     0.190 C 
BRANCH   2   3
ATOM      3  O   UNL     1     -10.542  11.414 -35.833  1.00  0.00    -0.394 OA
ATOM      4  H   UNL     1     -11.407  10.962 -36.011  1.00  0.00     0.210 HD
ENDBRANCH   2   3
ENDBRANCH   1   2
BRANCH   1   5
ATOM      5  C   UNL     1     -10.534  11.114 -33.090  1.00  0.00     0.190 C 
BRANCH   5   6
ATOM      6  O   UNL     1     -11.918  11.325 -33.150  1.00  0.00    -0.394 OA
ATOM      7  H   UNL     1     -12.314  10.501 -33.539  1.00  0.00     0.210 HD
ENDBRANCH   5   6
ENDBRANCH   1   5
BRANCH   1   8
ATOM      8  O   UNL     1      -9.128   9.161 -33.374  1.00  0.00    -0.388 OA
ATOM      9  H   UNL     1      -8.320   9.202 -33.952  1.00  0.00     0.211 HD
ENDBRANCH   1   8
TORSDOF 5
ENDMDL
MODEL 3
REMARK VINA RESULT:    -2.566      1.388      1.924
REMARK INTER + INTRA:          -3.315
REMARK INTER:                  -3.092
REMARK INTRA:                  -0.222
REMARK UNBOUND:                -0.223
REMARK SMILES OCC(O)CO
REMARK SMILES IDX 3 1 5 2 6 3 2 5 1 6 4 8
REMARK H PARENT 6 4 1 7 4 9
REMARK Flexibility Score: inf
ROOT
ATOM      1  C   UNL     1      -9.928  11.544 -35.233  1.00  0.00     0.165 C 
ENDROOT
BRANCH   1   2
ATOM      2  C   UNL     1      -9.747  10.021 -35.162  1.00  0.00     0.190 C 
BRANCH   2   3
ATOM      3  O   UNL     1     -10.276   9.539 -33.957  1.00  0.00    -0.394 OA
ATOM      4  H   UNL     1      -9.512   9.146 -33.460  1.00  0.00     0.210 HD
ENDBRANCH   2   3
ENDBRANCH   1   2
BRANCH   1   5
ATOM      5  C   UNL     1     -10.363  12.116 -33.872  1.00  0.00     0.190 C 
BRANCH   5   6
ATOM      6  O   UNL     1     -11.761  12.109 -33.762  1.00  0.00    -0.394 OA
ATOM      7  H   UNL     1     -12.016  11.207 -33.435  1.00  0.00     0.210 HD
ENDBRANCH   5   6
ENDBRANCH   1   5
BRANCH   1   8
ATOM      8  O   UNL     1     -10.852  11.888 -36.235  1.00  0.00    -0.388 OA
ATOM      9  H   UNL     1     -10.967  11.096 -36.824  1.00  0.00     0.211 HD
ENDBRANCH   1   8
TORSDOF 5
ENDMDL
MODEL 4
REMARK VINA RESULT:    -2.553      1.465      2.911
REMARK INTER + INTRA:          -3.298
REMARK INTER:                  -3.288
REMARK INTRA:                  -0.010
REMARK UNBOUND:                -0.223
REMARK SMILES OCC(O)CO
REMARK SMILES IDX 3 1 5 2 6 3 2 5 1 6 4 8
REMARK H PARENT 6 4 1 7 4 9
REMARK Flexibility Score: inf
ROOT
ATOM      1  C   UNL     1     -10.420  11.262 -33.864  1.00  0.00     0.165 C 
ENDROOT
BRANCH   1   2
ATOM      2  C   UNL     1      -9.979   9.927 -34.482  1.00  0.00     0.190 C 
BRANCH   2   3
ATOM      3  O   UNL     1      -9.586  10.130 -35.812  1.00  0.00    -0.394 OA
ATOM      4  H   UNL     1     -10.057  10.949 -36.115  1.00  0.00     0.210 HD
ENDBRANCH   2   3
ENDBRANCH   1   2
BRANCH   1   5
ATOM      5  C   UNL     1     -11.269  11.035 -32.600  1.00  0.00     0.190 C 
BRANCH   5   6
ATOM      6  O   UNL     1     -12.277  10.094 -32.850  1.00  0.00    -0.394 OA
ATOM      7  H   UNL     1     -13.110  10.456 -32.449  1.00  0.00     0.210 HD
ENDBRANCH   5   6
ENDBRANCH   1   5
BRANCH   1   8
ATOM      8  O   UNL     1     -11.123  12.036 -34.803  1.00  0.00    -0.388 OA
ATOM      9  H   UNL     1     -10.552  12.120 -35.613  1.00  0.00     0.211 HD
ENDBRANCH   1   8
TORSDOF 5
ENDMDL
MODEL 5
REMARK VINA RESULT:    -2.526      1.333      1.820
REMARK INTER + INTRA:          -3.266
REMARK INTER:                  -3.043
REMARK INTRA:                  -0.223
REMARK UNBOUND:                -0.223
REMARK SMILES OCC(O)CO
REMARK SMILES IDX 3 1 5 2 6 3 2 5 1 6 4 8
REMARK H PARENT 6 4 1 7 4 9
REMARK Flexibility Score: inf
ROOT
ATOM      1  C   UNL     1      -9.927  10.658 -33.996  1.00  0.00     0.165 C 
ENDROOT
BRANCH   1   2
ATOM      2  C   UNL     1     -10.584  11.887 -33.351  1.00  0.00     0.190 C 
BRANCH   2   3
ATOM      3  O   UNL     1     -11.974  11.712 -33.311  1.00  0.00    -0.394 OA
ATOM      4  H   UNL     1     -12.260  11.986 -32.401  1.00  0.00     0.210 HD
ENDBRANCH   2   3
ENDBRANCH   1   2
BRANCH   1   5
ATOM      5  C   UNL     1      -9.756  10.852 -35.513  1.00  0.00     0.190 C 
BRANCH   5   6
ATOM      6  O   UNL     1     -10.761  11.692 -36.015  1.00  0.00    -0.394 OA
ATOM      7  H   UNL     1     -10.784  11.550 -36.998  1.00  0.00     0.210 HD
ENDBRANCH   5   6
ENDBRANCH   1   5
BRANCH   1   8
ATOM      8  O   UNL     1     -10.670   9.497 -33.724  1.00  0.00    -0.388 OA
ATOM      9  H   UNL     1     -10.484   9.233 -32.784  1.00  0.00     0.211 HD
ENDBRANCH   1   8
TORSDOF 5
ENDMDL
MODEL 6
REMARK VINA RESULT:    -2.484      1.457      3.240
REMARK INTER + INTRA:          -3.215
REMARK INTER:                  -2.991
REMARK INTRA:                  -0.224
REMARK UNBOUND:                -0.223
REMARK SMILES OCC(O)CO
REMARK SMILES IDX 3 1 5 2 6 3 2 5 1 6 4 8
REMARK H PARENT 6 4 1 7 4 9
REMARK Flexibility Score: inf
ROOT
ATOM      1  C   UNL     1     -10.630  11.293 -33.641  1.00  0.00     0.165 C 
ENDROOT
BRANCH   1   2
ATOM      2  C   UNL     1     -10.251  11.886 -35.006  1.00  0.00     0.190 C 
BRANCH   2   3
ATOM      3  O   UNL     1      -9.977  10.851 -35.910  1.00  0.00    -0.394 OA
ATOM      4  H   UNL     1     -10.479  11.070 -36.738  1.00  0.00     0.210 HD
ENDBRANCH   2   3
ENDBRANCH   1   2
BRANCH   1   5
ATOM      5  C   UNL     1     -10.516   9.759 -33.651  1.00  0.00     0.190 C 
BRANCH   5   6
ATOM      6  O   UNL     1      -9.177   9.367 -33.519  1.00  0.00    -0.394 OA
ATOM      7  H   UNL     1      -8.640  10.004 -34.060  1.00  0.00     0.210 HD
ENDBRANCH   5   6
ENDBRANCH   1   5
BRANCH   1   8
ATOM      8  O   UNL     1     -11.925  11.693 -33.268  1.00  0.00    -0.388 OA
ATOM      9  H   UNL     1     -11.857  12.604 -32.875  1.00  0.00     0.211 HD
ENDBRANCH   1   8
TORSDOF 5
ENDMDL
MODEL 7
REMARK VINA RESULT:    -2.449      1.485      2.771
REMARK INTER + INTRA:          -3.173
REMARK INTER:                  -3.167
REMARK INTRA:                  -0.007
REMARK UNBOUND:                -0.223
REMARK SMILES OCC(O)CO
REMARK SMILES IDX 3 1 5 2 6 3 2 5 1 6 4 8
REMARK H PARENT 6 4 1 7 4 9
REMARK Flexibility Score: inf
ROOT
ATOM      1  C   UNL     1     -10.412  10.874 -34.116  1.00  0.00     0.165 C 
ENDROOT
BRANCH   1   2
ATOM      2  C   UNL     1      -9.830  11.485 -35.399  1.00  0.00     0.190 C 
BRANCH   2   3
ATOM      3  O   UNL     1     -10.872  11.925 -36.227  1.00  0.00    -0.394 OA
ATOM      4  H   UNL     1     -10.997  12.888 -36.021  1.00  0.00     0.210 HD
ENDBRANCH   2   3
ENDBRANCH   1   2
BRANCH   1   5
ATOM      5  C   UNL     1      -9.925  11.633 -32.869  1.00  0.00     0.190 C 
BRANCH   5   6
ATOM      6  O   UNL     1     -11.015  12.125 -32.138  1.00  0.00    -0.394 OA
ATOM      7  H   UNL     1     -10.663  12.844 -31.552  1.00  0.00     0.210 HD
ENDBRANCH   5   6
ENDBRANCH   1   5
BRANCH   1   8
ATOM      8  O   UNL     1     -10.091   9.509 -34.025  1.00  0.00    -0.388 OA
ATOM      9  H   UNL     1      -9.128   9.410 -34.251  1.00  0.00     0.211 HD
ENDBRANCH   1   8
TORSDOF 5
ENDMDL
MODEL 8
REMARK VINA RESULT:    -2.309      1.232      2.342
REMARK INTER + INTRA:          -3.005
REMARK INTER:                  -2.781
REMARK INTRA:                  -0.224
REMARK UNBOUND:                -0.223
REMARK SMILES OCC(O)CO
REMARK SMILES IDX 3 1 5 2 6 3 2 5 1 6 4 8
REMARK H PARENT 6 4 1 7 4 9
REMARK Flexibility Score: inf
ROOT
ATOM      1  C   UNL     1     -10.008  10.894 -35.063  1.00  0.00     0.165 C 
ENDROOT
BRANCH   1   2
ATOM      2  C   UNL     1      -9.185  12.106 -34.605  1.00  0.00     0.190 C 
BRANCH   2   3
ATOM      3  O   UNL     1      -9.039  12.078 -33.212  1.00  0.00    -0.394 OA
ATOM      4  H   UNL     1      -9.694  12.732 -32.854  1.00  0.00     0.210 HD
ENDBRANCH   2   3
ENDBRANCH   1   2
BRANCH   1   5
ATOM      5  C   UNL     1     -10.377   9.991 -33.873  1.00  0.00     0.190 C 
BRANCH   5   6
ATOM      6  O   UNL     1     -11.497  10.500 -33.201  1.00  0.00    -0.394 OA
ATOM      7  H   UNL     1     -11.299  10.436 -32.230  1.00  0.00     0.210 HD
ENDBRANCH   5   6
ENDBRANCH   1   5
BRANCH   1   8
ATOM      8  O   UNL     1      -9.315  10.164 -36.044  1.00  0.00    -0.388 OA
ATOM      9  H   UNL     1      -9.948   9.503 -36.432  1.00  0.00     0.211 HD
ENDBRANCH   1   8
TORSDOF 5
ENDMDL
MODEL 9
REMARK VINA RESULT:    -2.107      1.872      2.794
REMARK INTER + INTRA:          -2.761
REMARK INTER:                  -2.612
REMARK INTRA:                  -0.149
REMARK UNBOUND:                -0.223
REMARK SMILES OCC(O)CO
REMARK SMILES IDX 3 1 5 2 6 3 2 5 1 6 4 8
REMARK H PARENT 6 4 1 7 4 9
REMARK Flexibility Score: inf
ROOT
ATOM      1  C   UNL     1     -10.552  10.739 -34.110  1.00  0.00     0.165 C 
ENDROOT
BRANCH   1   2
ATOM      2  C   UNL     1     -11.397  11.241 -32.930  1.00  0.00     0.190 C 
BRANCH   2   3
ATOM      3  O   UNL     1     -10.638  12.122 -32.148  1.00  0.00    -0.394 OA
ATOM      4  H   UNL     1     -11.260  12.841 -31.864  1.00  0.00     0.210 HD
ENDBRANCH   2   3
ENDBRANCH   1   2
BRANCH   1   5
ATOM      5  C   UNL     1      -9.069  10.616 -33.718  1.00  0.00     0.190 C 
BRANCH   5   6
ATOM      6  O   UNL     1      -8.875   9.514 -32.875  1.00  0.00    -0.394 OA
ATOM      7  H   UNL     1      -8.441   8.809 -33.423  1.00  0.00     0.210 HD
ENDBRANCH   5   6
ENDBRANCH   1   5
BRANCH   1   8
ATOM      8  O   UNL     1     -10.704  11.581 -35.225  1.00  0.00    -0.388 OA
ATOM      9  H   UNL     1     -10.600  11.023 -36.041  1.00  0.00     0.211 HD
ENDBRANCH   1   8
TORSDOF 5
ENDMDL
