MODEL 1
REMARK VINA RESULT:    -6.702      0.000      0.000
REMARK INTER + INTRA:          -7.130
REMARK INTER:                  -7.093
REMARK INTRA:                  -0.037
REMARK UNBOUND:                -0.037
REMARK SMILES CC1=C[C@@H]2C(=C(C)CC[C@@H]2C(C)C)CC1
REMARK SMILES IDX 1 1 2 2 3 3 4 4 10 5 9 6 8 7 6 8 5 9 14 10 15 11 7 12 11 13
REMARK SMILES IDX 12 14 13 15
REMARK H PARENT
REMARK Flexibility Score: inf
ROOT
ATOM      1  C   UNL     1      -2.847  15.310   4.024  1.00  0.00     0.039 C 
ATOM      2  C   UNL     1      -1.662  14.448   4.363  1.00  0.00    -0.076 C 
ATOM      3  C   UNL     1      -0.735  14.184   3.428  1.00  0.00    -0.020 C 
ATOM      4  C   UNL     1       0.481  13.339   3.755  1.00  0.00     0.041 C 
ATOM      5  C   UNL     1       1.614  13.501   2.707  1.00  0.00     0.003 C 
ATOM      6  C   UNL     1       2.785  12.594   3.133  1.00  0.00     0.009 C 
ATOM      7  C   UNL     1       3.324  12.926   4.526  1.00  0.00     0.031 C 
ATOM      8  C   UNL     1       2.264  13.330   5.540  1.00  0.00    -0.073 C 
ATOM      9  C   UNL     1       0.963  13.560   5.190  1.00  0.00    -0.064 C 
ATOM     10  C   UNL     1      -0.057  13.997   6.237  1.00  0.00     0.036 C 
ATOM     11  C   UNL     1      -1.502  13.860   5.743  1.00  0.00     0.035 C 
ATOM     12  C   UNL     1       2.745  13.558   6.954  1.00  0.00     0.039 C 
ENDROOT
BRANCH   5  13
ATOM     13  C   UNL     1       1.993  14.981   2.323  1.00  0.00    -0.013 C 
ATOM     14  C   UNL     1       1.456  15.387   0.942  1.00  0.00     0.007 C 
ATOM     15  C   UNL     1       3.482  15.351   2.437  1.00  0.00     0.007 C 
ENDBRANCH   5  13
TORSDOF 1
ENDMDL
MODEL 2
REMARK VINA RESULT:    -6.372      1.244      2.173
REMARK INTER + INTRA:          -6.781
REMARK INTER:                  -6.904
REMARK INTRA:                   0.122
REMARK UNBOUND:                -0.037
REMARK SMILES CC1=C[C@@H]2C(=C(C)CC[C@@H]2C(C)C)CC1
REMARK SMILES IDX 1 1 2 2 3 3 4 4 10 5 9 6 8 7 6 8 5 9 14 10 15 11 7 12 11 13
REMARK SMILES IDX 12 14 13 15
REMARK H PARENT
REMARK Flexibility Score: inf
ROOT
ATOM      1  C   UNL     1      -0.960  15.958   0.687  1.00  0.00     0.039 C 
ATOM      2  C   UNL     1      -0.365  14.974   1.656  1.00  0.00    -0.076 C 
ATOM      3  C   UNL     1       0.952  14.716   1.627  1.00  0.00    -0.020 C 
ATOM      4  C   UNL     1       1.577  13.747   2.612  1.00  0.00     0.041 C 
ATOM      5  C   UNL     1       3.118  13.905   2.700  1.00  0.00     0.003 C 
ATOM      6  C   UNL     1       3.642  12.869   3.715  1.00  0.00     0.009 C 
ATOM      7  C   UNL     1       3.028  13.032   5.107  1.00  0.00     0.031 C 
ATOM      8  C   UNL     1       1.562  13.434   5.115  1.00  0.00    -0.073 C 
ATOM      9  C   UNL     1       0.895  13.801   3.980  1.00  0.00    -0.064 C 
ATOM     10  C   UNL     1      -0.568  14.228   4.042  1.00  0.00     0.036 C 
ATOM     11  C   UNL     1      -1.233  14.257   2.661  1.00  0.00     0.035 C 
ATOM     12  C   UNL     1       0.893  13.497   6.468  1.00  0.00     0.039 C 
ENDROOT
BRANCH   5  13
ATOM     13  C   UNL     1       3.653  15.376   2.879  1.00  0.00    -0.013 C 
ATOM     14  C   UNL     1       3.626  16.175   1.567  1.00  0.00     0.007 C 
ATOM     15  C   UNL     1       5.027  15.521   3.554  1.00  0.00     0.007 C 
ENDBRANCH   5  13
TORSDOF 1
ENDMDL
MODEL 3
REMARK VINA RESULT:    -6.085      1.401      3.980
REMARK INTER + INTRA:          -6.478
REMARK INTER:                  -6.444
REMARK INTRA:                  -0.034
REMARK UNBOUND:                -0.037
REMARK SMILES CC1=C[C@@H]2C(=C(C)CC[C@@H]2C(C)C)CC1
REMARK SMILES IDX 1 1 2 2 3 3 4 4 10 5 9 6 8 7 6 8 5 9 14 10 15 11 7 12 11 13
REMARK SMILES IDX 12 14 13 15
REMARK H PARENT
REMARK Flexibility Score: inf
ROOT
ATOM      1  C   UNL     1      -2.063  14.632   1.090  1.00  0.00     0.039 C 
ATOM      2  C   UNL     1      -0.875  14.521   2.006  1.00  0.00    -0.076 C 
ATOM      3  C   UNL     1      -1.052  14.510   3.336  1.00  0.00    -0.020 C 
ATOM      4  C   UNL     1       0.129  14.372   4.278  1.00  0.00     0.041 C 
ATOM      5  C   UNL     1      -0.300  13.958   5.710  1.00  0.00     0.003 C 
ATOM      6  C   UNL     1       0.972  13.859   6.575  1.00  0.00     0.009 C 
ATOM      7  C   UNL     1       1.988  12.852   6.033  1.00  0.00     0.031 C 
ATOM      8  C   UNL     1       2.091  12.803   4.516  1.00  0.00    -0.073 C 
ATOM      9  C   UNL     1       1.219  13.466   3.699  1.00  0.00    -0.064 C 
ATOM     10  C   UNL     1       1.342  13.360   2.182  1.00  0.00     0.036 C 
ATOM     11  C   UNL     1       0.525  14.431   1.449  1.00  0.00     0.035 C 
ATOM     12  C   UNL     1       3.161  11.900   3.948  1.00  0.00     0.039 C 
ENDROOT
BRANCH   5  13
ATOM     13  C   UNL     1      -1.296  12.741   5.808  1.00  0.00    -0.013 C 
ATOM     14  C   UNL     1      -2.716  13.174   6.207  1.00  0.00     0.007 C 
ATOM     15  C   UNL     1      -0.841  11.561   6.684  1.00  0.00     0.007 C 
ENDBRANCH   5  13
TORSDOF 1
ENDMDL
MODEL 4
REMARK VINA RESULT:    -5.581      1.500      4.614
REMARK INTER + INTRA:          -5.945
REMARK INTER:                  -6.075
REMARK INTRA:                   0.130
REMARK UNBOUND:                -0.037
REMARK SMILES CC1=C[C@@H]2C(=C(C)CC[C@@H]2C(C)C)CC1
REMARK SMILES IDX 1 1 2 2 3 3 4 4 10 5 9 6 8 7 6 8 5 9 14 10 15 11 7 12 11 13
REMARK SMILES IDX 12 14 13 15
REMARK H PARENT
REMARK Flexibility Score: inf
ROOT
ATOM      1  C   UNL     1       1.959  13.080   5.763  1.00  0.00     0.039 C 
ATOM      2  C   UNL     1       2.209  13.427   4.321  1.00  0.00    -0.076 C 
ATOM      3  C   UNL     1       1.192  13.425   3.444  1.00  0.00    -0.020 C 
ATOM      4  C   UNL     1       1.417  13.796   1.991  1.00  0.00     0.041 C 
ATOM      5  C   UNL     1       0.096  14.145   1.258  1.00  0.00     0.003 C 
ATOM      6  C   UNL     1       0.443  14.493  -0.203  1.00  0.00     0.009 C 
ATOM      7  C   UNL     1       1.421  15.664  -0.323  1.00  0.00     0.031 C 
ATOM      8  C   UNL     1       2.499  15.707   0.748  1.00  0.00    -0.073 C 
ATOM      9  C   UNL     1       2.487  14.880   1.836  1.00  0.00    -0.064 C 
ATOM     10  C   UNL     1       3.572  14.983   2.903  1.00  0.00     0.036 C 
ATOM     11  C   UNL     1       3.597  13.767   3.837  1.00  0.00     0.035 C 
ATOM     12  C   UNL     1       3.548  16.784   0.599  1.00  0.00     0.039 C 
ENDROOT
BRANCH   5  13
ATOM     13  C   UNL     1      -0.859  15.157   1.998  1.00  0.00    -0.013 C 
ATOM     14  C   UNL     1      -1.632  14.498   3.152  1.00  0.00     0.007 C 
ATOM     15  C   UNL     1      -1.825  15.955   1.106  1.00  0.00     0.007 C 
ENDBRANCH   5  13
TORSDOF 1
ENDMDL
MODEL 5
REMARK VINA RESULT:    -5.575      2.010      4.582
REMARK INTER + INTRA:          -5.938
REMARK INTER:                  -5.926
REMARK INTRA:                  -0.013
REMARK UNBOUND:                -0.037
REMARK SMILES CC1=C[C@@H]2C(=C(C)CC[C@@H]2C(C)C)CC1
REMARK SMILES IDX 1 1 2 2 3 3 4 4 10 5 9 6 8 7 6 8 5 9 14 10 15 11 7 12 11 13
REMARK SMILES IDX 12 14 13 15
REMARK H PARENT
REMARK Flexibility Score: inf
ROOT
ATOM      1  C   UNL     1       3.090  11.852   3.519  1.00  0.00     0.039 C 
ATOM      2  C   UNL     1       2.090  12.966   3.377  1.00  0.00    -0.076 C 
ATOM      3  C   UNL     1       1.771  13.429   2.157  1.00  0.00    -0.020 C 
ATOM      4  C   UNL     1       0.745  14.534   1.989  1.00  0.00     0.041 C 
ATOM      5  C   UNL     1       0.212  14.630   0.536  1.00  0.00     0.003 C 
ATOM      6  C   UNL     1      -0.808  15.785   0.482  1.00  0.00     0.009 C 
ATOM      7  C   UNL     1      -1.979  15.596   1.447  1.00  0.00     0.031 C 
ATOM      8  C   UNL     1      -1.611  14.965   2.781  1.00  0.00    -0.073 C 
ATOM      9  C   UNL     1      -0.374  14.440   3.028  1.00  0.00    -0.064 C 
ATOM     10  C   UNL     1      -0.061  13.787   4.371  1.00  0.00     0.036 C 
ATOM     11  C   UNL     1       1.443  13.584   4.591  1.00  0.00     0.035 C 
ATOM     12  C   UNL     1      -2.721  14.863   3.801  1.00  0.00     0.039 C 
ENDROOT
BRANCH   5  13
ATOM     13  C   UNL     1      -0.249  13.274  -0.122  1.00  0.00    -0.013 C 
ATOM     14  C   UNL     1       0.614  12.886  -1.333  1.00  0.00     0.007 C 
ATOM     15  C   UNL     1      -1.740  13.167  -0.483  1.00  0.00     0.007 C 
ENDBRANCH   5  13
TORSDOF 1
ENDMDL
MODEL 6
REMARK VINA RESULT:    -5.460      1.609      5.411
REMARK INTER + INTRA:          -5.817
REMARK INTER:                  -5.779
REMARK INTRA:                  -0.037
REMARK UNBOUND:                -0.037
REMARK SMILES CC1=C[C@@H]2C(=C(C)CC[C@@H]2C(C)C)CC1
REMARK SMILES IDX 1 1 2 2 3 3 4 4 10 5 9 6 8 7 6 8 5 9 14 10 15 11 7 12 11 13
REMARK SMILES IDX 12 14 13 15
REMARK H PARENT
REMARK Flexibility Score: inf
ROOT
ATOM      1  C   UNL     1       5.886  16.558   5.065  1.00  0.00     0.039 C 
ATOM      2  C   UNL     1       5.119  16.045   3.877  1.00  0.00    -0.076 C 
ATOM      3  C   UNL     1       4.407  14.911   3.977  1.00  0.00    -0.020 C 
ATOM      4  C   UNL     1       3.606  14.390   2.799  1.00  0.00     0.041 C 
ATOM      5  C   UNL     1       2.543  13.342   3.224  1.00  0.00     0.003 C 
ATOM      6  C   UNL     1       1.803  12.878   1.954  1.00  0.00     0.009 C 
ATOM      7  C   UNL     1       1.122  14.026   1.205  1.00  0.00     0.031 C 
ATOM      8  C   UNL     1       1.897  15.334   1.201  1.00  0.00    -0.073 C 
ATOM      9  C   UNL     1       3.018  15.525   1.959  1.00  0.00    -0.064 C 
ATOM     10  C   UNL     1       3.743  16.867   1.948  1.00  0.00     0.036 C 
ATOM     11  C   UNL     1       5.146  16.784   2.562  1.00  0.00     0.035 C 
ATOM     12  C   UNL     1       1.309  16.457   0.380  1.00  0.00     0.039 C 
ENDROOT
BRANCH   5  13
ATOM     13  C   UNL     1       1.632  13.739   4.446  1.00  0.00    -0.013 C 
ATOM     14  C   UNL     1       2.033  13.013   5.739  1.00  0.00     0.007 C 
ATOM     15  C   UNL     1       0.114  13.621   4.227  1.00  0.00     0.007 C 
ENDBRANCH   5  13
TORSDOF 1
ENDMDL
MODEL 7
REMARK VINA RESULT:    -5.396      1.206      3.845
REMARK INTER + INTRA:          -5.748
REMARK INTER:                  -5.770
REMARK INTRA:                   0.021
REMARK UNBOUND:                -0.037
REMARK SMILES CC1=C[C@@H]2C(=C(C)CC[C@@H]2C(C)C)CC1
REMARK SMILES IDX 1 1 2 2 3 3 4 4 10 5 9 6 8 7 6 8 5 9 14 10 15 11 7 12 11 13
REMARK SMILES IDX 12 14 13 15
REMARK H PARENT
REMARK Flexibility Score: inf
ROOT
ATOM      1  C   UNL     1       2.078  15.875  -0.303  1.00  0.00     0.039 C 
ATOM      2  C   UNL     1       1.319  15.028   0.682  1.00  0.00    -0.076 C 
ATOM      3  C   UNL     1       1.984  14.225   1.528  1.00  0.00    -0.020 C 
ATOM      4  C   UNL     1       1.240  13.382   2.546  1.00  0.00     0.041 C 
ATOM      5  C   UNL     1       2.166  12.869   3.680  1.00  0.00     0.003 C 
ATOM      6  C   UNL     1       1.311  12.022   4.643  1.00  0.00     0.009 C 
ATOM      7  C   UNL     1       0.143  12.802   5.249  1.00  0.00     0.031 C 
ATOM      8  C   UNL     1      -0.524  13.789   4.303  1.00  0.00    -0.073 C 
ATOM      9  C   UNL     1      -0.008  14.092   3.075  1.00  0.00    -0.064 C 
ATOM     10  C   UNL     1      -0.695  15.114   2.174  1.00  0.00     0.036 C 
ATOM     11  C   UNL     1      -0.189  15.059   0.728  1.00  0.00     0.035 C 
ATOM     12  C   UNL     1      -1.750  14.496   4.832  1.00  0.00     0.039 C 
ENDROOT
BRANCH   5  13
ATOM     13  C   UNL     1       3.097  13.948   4.352  1.00  0.00    -0.013 C 
ATOM     14  C   UNL     1       4.435  14.114   3.614  1.00  0.00     0.007 C 
ATOM     15  C   UNL     1       3.348  13.782   5.861  1.00  0.00     0.007 C 
ENDBRANCH   5  13
TORSDOF 1
ENDMDL
MODEL 8
REMARK VINA RESULT:    -5.147      2.156      5.100
REMARK INTER + INTRA:          -5.485
REMARK INTER:                  -5.671
REMARK INTRA:                   0.186
REMARK UNBOUND:                -0.037
REMARK SMILES CC1=C[C@@H]2C(=C(C)CC[C@@H]2C(C)C)CC1
REMARK SMILES IDX 1 1 2 2 3 3 4 4 10 5 9 6 8 7 6 8 5 9 14 10 15 11 7 12 11 13
REMARK SMILES IDX 12 14 13 15
REMARK H PARENT
REMARK Flexibility Score: inf
ROOT
ATOM      1  C   UNL     1       3.597  17.026  -1.688  1.00  0.00     0.039 C 
ATOM      2  C   UNL     1       2.867  16.697  -0.414  1.00  0.00    -0.076 C 
ATOM      3  C   UNL     1       1.589  16.287  -0.461  1.00  0.00    -0.020 C 
ATOM      4  C   UNL     1       0.842  15.925   0.809  1.00  0.00     0.041 C 
ATOM      5  C   UNL     1      -0.435  15.090   0.526  1.00  0.00     0.003 C 
ATOM      6  C   UNL     1      -1.114  14.792   1.878  1.00  0.00     0.009 C 
ATOM      7  C   UNL     1      -0.207  14.031   2.847  1.00  0.00     0.031 C 
ATOM      8  C   UNL     1       1.258  14.436   2.802  1.00  0.00    -0.073 C 
ATOM      9  C   UNL     1       1.759  15.275   1.847  1.00  0.00    -0.064 C 
ATOM     10  C   UNL     1       3.243  15.625   1.822  1.00  0.00     0.036 C 
ATOM     11  C   UNL     1       3.548  16.831   0.925  1.00  0.00     0.035 C 
ATOM     12  C   UNL     1       2.163  13.784   3.821  1.00  0.00     0.039 C 
ENDROOT
BRANCH   5  13
ATOM     13  C   UNL     1      -0.256  13.860  -0.441  1.00  0.00    -0.013 C 
ATOM     14  C   UNL     1      -1.507  12.969  -0.497  1.00  0.00     0.007 C 
ATOM     15  C   UNL     1       0.995  12.994  -0.214  1.00  0.00     0.007 C 
ENDBRANCH   5  13
TORSDOF 1
ENDMDL
MODEL 9
REMARK VINA RESULT:    -5.103      2.298      5.232
REMARK INTER + INTRA:          -5.438
REMARK INTER:                  -5.465
REMARK INTRA:                   0.027
REMARK UNBOUND:                -0.037
REMARK SMILES CC1=C[C@@H]2C(=C(C)CC[C@@H]2C(C)C)CC1
REMARK SMILES IDX 1 1 2 2 3 3 4 4 10 5 9 6 8 7 6 8 5 9 14 10 15 11 7 12 11 13
REMARK SMILES IDX 12 14 13 15
REMARK H PARENT
REMARK Flexibility Score: inf
ROOT
ATOM      1  C   UNL     1       1.360  12.245   4.414  1.00  0.00     0.039 C 
ATOM      2  C   UNL     1       0.230  12.802   5.238  1.00  0.00    -0.076 C 
ATOM      3  C   UNL     1      -0.430  13.893   4.820  1.00  0.00    -0.020 C 
ATOM      4  C   UNL     1      -1.589  14.456   5.621  1.00  0.00     0.041 C 
ATOM      5  C   UNL     1      -2.470  15.423   4.789  1.00  0.00     0.003 C 
ATOM      6  C   UNL     1      -3.600  15.937   5.702  1.00  0.00     0.009 C 
ATOM      7  C   UNL     1      -4.469  14.813   6.271  1.00  0.00     0.031 C 
ATOM      8  C   UNL     1      -3.712  13.545   6.633  1.00  0.00    -0.073 C 
ATOM      9  C   UNL     1      -2.400  13.353   6.306  1.00  0.00    -0.064 C 
ATOM     10  C   UNL     1      -1.692  12.049   6.662  1.00  0.00     0.036 C 
ATOM     11  C   UNL     1      -0.167  12.155   6.541  1.00  0.00     0.035 C 
ATOM     12  C   UNL     1      -4.518  12.454   7.300  1.00  0.00     0.039 C 
ENDROOT
BRANCH   5  13
ATOM     13  C   UNL     1      -2.914  14.904   3.369  1.00  0.00    -0.013 C 
ATOM     14  C   UNL     1      -1.874  15.208   2.280  1.00  0.00     0.007 C 
ATOM     15  C   UNL     1      -4.312  15.337   2.895  1.00  0.00     0.007 C 
ENDBRANCH   5  13
TORSDOF 1
ENDMDL
