MODEL 1
REMARK VINA RESULT:    20.765      0.000      0.000
REMARK INTER + INTRA:          22.586
REMARK INTER:                  22.586
REMARK INTRA:                   0.000
REMARK UNBOUND:                 0.000
REMARK SMILES Cc1cc(O)c2c(c1)C(=O)c1cc(O)cc(O)c1C2=O
REMARK SMILES IDX 1 1 2 2 8 3 7 4 6 5 4 6 3 7 19 8 20 9 18 10 11 11 9 12 10 13
REMARK SMILES IDX 12 14 13 15 15 16 16 17 5 18 17 20 14 22
REMARK H PARENT 5 19 17 21 14 23
REMARK Flexibility Score: inf
ROOT
ATOM      1  C   UNL     1      -1.598   4.784  -3.185  1.00  0.00     0.044 C 
ATOM      2  C   UNL     1      -1.118   3.762  -4.174  1.00  0.00    -0.047 A 
ATOM      3  C   UNL     1       0.162   3.211  -4.051  1.00  0.00     0.016 A 
ATOM      4  C   UNL     1       0.631   2.276  -4.988  1.00  0.00     0.038 A 
ATOM      5  C   UNL     1      -0.194   1.885  -6.066  1.00  0.00     0.076 A 
ATOM      6  C   UNL     1      -1.456   2.510  -6.232  1.00  0.00     0.127 A 
ATOM      7  C   UNL     1      -1.910   3.423  -5.276  1.00  0.00     0.050 A 
ATOM      8  C   UNL     1       0.276   0.787  -6.950  1.00  0.00     0.201 C 
ATOM      9  O   UNL     1      -0.561   0.032  -7.512  1.00  0.00    -0.288 OA
ATOM     10  C   UNL     1       1.725   0.464  -7.018  1.00  0.00     0.076 A 
ATOM     11  C   UNL     1       2.548   0.859  -5.939  1.00  0.00     0.041 A 
ATOM     12  C   UNL     1       1.992   1.702  -4.855  1.00  0.00     0.194 C 
ATOM     13  O   UNL     1       2.684   1.952  -3.830  1.00  0.00    -0.289 OA
ATOM     14  C   UNL     1       3.894   0.454  -5.902  1.00  0.00     0.059 A 
ATOM     15  C   UNL     1       4.429  -0.322  -6.930  1.00  0.00     0.120 A 
ATOM     16  C   UNL     1       3.630  -0.681  -8.018  1.00  0.00     0.093 A 
ATOM     17  C   UNL     1       2.294  -0.273  -8.089  1.00  0.00     0.131 A 
ENDROOT
BRANCH   6  18
ATOM     18  O   UNL     1      -2.271   2.283  -7.344  1.00  0.00    -0.507 OA
ATOM     19  H   UNL     1      -2.916   2.968  -7.713  1.00  0.00     0.293 HD
ENDBRANCH   6  18
BRANCH  17  20
ATOM     20  O   UNL     1       1.584  -0.592  -9.248  1.00  0.00    -0.507 OA
ATOM     21  H   UNL     1       2.008  -0.662 -10.163  1.00  0.00     0.293 HD
ENDBRANCH  17  20
BRANCH  15  22
ATOM     22  O   UNL     1       5.762  -0.723  -6.865  1.00  0.00    -0.508 OA
ATOM     23  H   UNL     1       6.051  -1.650  -7.154  1.00  0.00     0.293 HD
ENDBRANCH  15  22
TORSDOF 3
ENDMDL
