MODEL 1
REMARK VINA RESULT:    -3.105      0.000      0.000
REMARK INTER + INTRA:          -8.673
REMARK INTER:                  -6.736
REMARK INTRA:                  -1.937
REMARK UNBOUND:                -1.937
REMARK SMILES CCCCCCCCCCCCCCCCCCCCCC(=O)[O-]
REMARK SMILES IDX 12 1 11 2 10 3 9 4 8 5 7 6 6 7 5 8 4 9 3 10 2 11 1 12 13 13
REMARK SMILES IDX 14 14 15 15 16 16 17 17 18 18 19 19 20 20 21 21 22 22 23 23
REMARK SMILES IDX 24 24
REMARK H PARENT
REMARK Flexibility Score: inf
ROOT
ATOM      1  C   UNL     1      16.443  -7.131   7.500  1.00  0.00     0.000 C 
ENDROOT
BRANCH   1   2
ATOM      2  C   UNL     1      15.553  -7.418   6.280  1.00  0.00     0.000 C 
BRANCH   2   3
ATOM      3  C   UNL     1      15.186  -8.910   6.154  1.00  0.00     0.000 C 
BRANCH   3   4
ATOM      4  C   UNL     1      13.741  -9.114   5.669  1.00  0.00    -0.000 C 
BRANCH   4   5
ATOM      5  C   UNL     1      13.401  -8.182   4.490  1.00  0.00    -0.000 C 
BRANCH   5   6
ATOM      6  C   UNL     1      12.027  -7.512   4.643  1.00  0.00    -0.000 C 
BRANCH   6   7
ATOM      7  C   UNL     1      11.338  -7.875   5.967  1.00  0.00    -0.000 C 
BRANCH   7   8
ATOM      8  C   UNL     1      10.123  -8.778   5.723  1.00  0.00    -0.000 C 
BRANCH   8   9
ATOM      9  C   UNL     1       9.192  -8.178   4.660  1.00  0.00    -0.000 C 
BRANCH   9  10
ATOM     10  C   UNL     1       7.701  -8.390   4.979  1.00  0.00    -0.000 C 
BRANCH  10  11
ATOM     11  C   UNL     1       7.039  -7.252   5.778  1.00  0.00    -0.003 C 
ATOM     12  C   UNL     1       5.577  -7.023   5.393  1.00  0.00     0.004 C 
ENDBRANCH  10  11
ENDBRANCH   9  10
ENDBRANCH   8   9
ENDBRANCH   7   8
ENDBRANCH   6   7
ENDBRANCH   5   6
ENDBRANCH   4   5
ENDBRANCH   3   4
ENDBRANCH   2   3
ENDBRANCH   1   2
BRANCH   1  13
ATOM     13  C   UNL     1      17.911  -6.917   7.098  1.00  0.00     0.000 C 
BRANCH  13  14
ATOM     14  C   UNL     1      18.869  -7.377   8.207  1.00  0.00     0.000 C 
BRANCH  14  15
ATOM     15  C   UNL     1      19.387  -8.814   7.994  1.00  0.00     0.000 C 
BRANCH  15  16
ATOM     16  C   UNL     1      20.393  -8.984   6.840  1.00  0.00     0.000 C 
BRANCH  16  17
ATOM     17  C   UNL     1      19.995 -10.091   5.854  1.00  0.00     0.000 C 
BRANCH  17  18
ATOM     18  C   UNL     1      18.560  -9.880   5.346  1.00  0.00     0.000 C 
BRANCH  18  19
ATOM     19  C   UNL     1      18.473  -8.845   4.208  1.00  0.00     0.000 C 
BRANCH  19  20
ATOM     20  C   UNL     1      19.801  -8.141   3.875  1.00  0.00     0.006 C 
BRANCH  20  21
ATOM     21  C   UNL     1      19.697  -6.613   3.950  1.00  0.00     0.053 C 
BRANCH  21  22
ATOM     22  C   UNL     1      20.929  -6.041   4.576  1.00  0.00     0.041 C 
ATOM     23  O   UNL     1      20.867  -5.495   5.709  1.00  0.00    -0.550 OA
ATOM     24  O   UNL     1      22.127  -6.044   3.875  1.00  0.00    -0.550 OA
ENDBRANCH  21  22
ENDBRANCH  20  21
ENDBRANCH  19  20
ENDBRANCH  18  19
ENDBRANCH  17  18
ENDBRANCH  16  17
ENDBRANCH  15  16
ENDBRANCH  14  15
ENDBRANCH  13  14
ENDBRANCH   1  13
TORSDOF 20
ENDMDL
MODEL 2
REMARK VINA RESULT:    -2.911      4.810     10.690
REMARK INTER + INTRA:          -8.251
REMARK INTER:                  -6.703
REMARK INTRA:                  -1.548
REMARK UNBOUND:                -1.937
REMARK SMILES CCCCCCCCCCCCCCCCCCCCCC(=O)[O-]
REMARK SMILES IDX 12 1 11 2 10 3 9 4 8 5 7 6 6 7 5 8 4 9 3 10 2 11 1 12 13 13
REMARK SMILES IDX 14 14 15 15 16 16 17 17 18 18 19 19 20 20 21 21 22 22 23 23
REMARK SMILES IDX 24 24
REMARK H PARENT
REMARK Flexibility Score: inf
ROOT
ATOM      1  C   UNL     1      14.884  -7.644   4.817  1.00  0.00     0.000 C 
ENDROOT
BRANCH   1   2
ATOM      2  C   UNL     1      16.025  -6.767   5.357  1.00  0.00     0.000 C 
BRANCH   2   3
ATOM      3  C   UNL     1      16.568  -7.271   6.709  1.00  0.00     0.000 C 
BRANCH   3   4
ATOM      4  C   UNL     1      18.097  -7.442   6.693  1.00  0.00    -0.000 C 
BRANCH   4   5
ATOM      5  C   UNL     1      18.618  -7.761   5.280  1.00  0.00    -0.000 C 
BRANCH   5   6
ATOM      6  C   UNL     1      18.952  -9.250   5.094  1.00  0.00    -0.000 C 
BRANCH   6   7
ATOM      7  C   UNL     1      20.410  -9.477   4.666  1.00  0.00    -0.000 C 
BRANCH   7   8
ATOM      8  C   UNL     1      21.329  -8.405   5.262  1.00  0.00    -0.000 C 
BRANCH   8   9
ATOM      9  C   UNL     1      22.462  -8.044   4.290  1.00  0.00    -0.000 C 
BRANCH   9  10
ATOM     10  C   UNL     1      22.449  -6.560   3.879  1.00  0.00    -0.000 C 
BRANCH  10  11
ATOM     11  C   UNL     1      21.505  -5.666   4.703  1.00  0.00    -0.003 C 
ATOM     12  C   UNL     1      20.897  -4.525   3.885  1.00  0.00     0.004 C 
ENDBRANCH  10  11
ENDBRANCH   9  10
ENDBRANCH   8   9
ENDBRANCH   7   8
ENDBRANCH   6   7
ENDBRANCH   5   6
ENDBRANCH   4   5
ENDBRANCH   3   4
ENDBRANCH   2   3
ENDBRANCH   1   2
BRANCH   1  13
ATOM     13  C   UNL     1      14.496  -8.751   5.810  1.00  0.00     0.000 C 
BRANCH  13  14
ATOM     14  C   UNL     1      13.563  -9.785   5.161  1.00  0.00     0.000 C 
BRANCH  14  15
ATOM     15  C   UNL     1      12.560  -9.151   4.175  1.00  0.00     0.000 C 
BRANCH  15  16
ATOM     16  C   UNL     1      11.306  -9.995   3.883  1.00  0.00     0.000 C 
BRANCH  16  17
ATOM     17  C   UNL     1       9.999  -9.268   4.230  1.00  0.00     0.000 C 
BRANCH  17  18
ATOM     18  C   UNL     1      10.050  -8.705   5.659  1.00  0.00     0.000 C 
BRANCH  18  19
ATOM     19  C   UNL     1       9.124  -9.455   6.633  1.00  0.00     0.000 C 
BRANCH  19  20
ATOM     20  C   UNL     1       7.639  -9.058   6.546  1.00  0.00     0.006 C 
BRANCH  20  21
ATOM     21  C   UNL     1       7.426  -7.713   5.841  1.00  0.00     0.053 C 
BRANCH  21  22
ATOM     22  C   UNL     1       5.965  -7.454   5.653  1.00  0.00     0.041 C 
ATOM     23  O   UNL     1       5.502  -6.295   5.817  1.00  0.00    -0.550 OA
ATOM     24  O   UNL     1       5.106  -8.508   5.371  1.00  0.00    -0.550 OA
ENDBRANCH  21  22
ENDBRANCH  20  21
ENDBRANCH  19  20
ENDBRANCH  18  19
ENDBRANCH  17  18
ENDBRANCH  16  17
ENDBRANCH  15  16
ENDBRANCH  14  15
ENDBRANCH  13  14
ENDBRANCH   1  13
TORSDOF 20
ENDMDL
MODEL 3
REMARK VINA RESULT:    -2.813      4.250     10.696
REMARK INTER + INTRA:          -8.040
REMARK INTER:                  -6.654
REMARK INTRA:                  -1.386
REMARK UNBOUND:                -1.937
REMARK SMILES CCCCCCCCCCCCCCCCCCCCCC(=O)[O-]
REMARK SMILES IDX 12 1 11 2 10 3 9 4 8 5 7 6 6 7 5 8 4 9 3 10 2 11 1 12 13 13
REMARK SMILES IDX 14 14 15 15 16 16 17 17 18 18 19 19 20 20 21 21 22 22 23 23
REMARK SMILES IDX 24 24
REMARK H PARENT
REMARK Flexibility Score: inf
ROOT
ATOM      1  C   UNL     1      13.279  -8.282   5.935  1.00  0.00     0.000 C 
ENDROOT
BRANCH   1   2
ATOM      2  C   UNL     1      14.784  -8.342   5.631  1.00  0.00     0.000 C 
BRANCH   2   3
ATOM      3  C   UNL     1      15.594  -7.318   6.450  1.00  0.00     0.000 C 
BRANCH   3   4
ATOM      4  C   UNL     1      17.066  -7.254   6.009  1.00  0.00    -0.000 C 
BRANCH   4   5
ATOM      5  C   UNL     1      17.316  -8.094   4.742  1.00  0.00    -0.000 C 
BRANCH   5   6
ATOM      6  C   UNL     1      18.281  -9.264   4.989  1.00  0.00    -0.000 C 
BRANCH   6   7
ATOM      7  C   UNL     1      19.395  -9.341   3.934  1.00  0.00    -0.000 C 
BRANCH   7   8
ATOM      8  C   UNL     1      20.775  -9.416   4.600  1.00  0.00    -0.000 C 
BRANCH   8   9
ATOM      9  C   UNL     1      21.675  -8.262   4.137  1.00  0.00    -0.000 C 
BRANCH   9  10
ATOM     10  C   UNL     1      21.272  -6.905   4.746  1.00  0.00    -0.000 C 
BRANCH  10  11
ATOM     11  C   UNL     1      21.851  -5.673   4.028  1.00  0.00    -0.003 C 
ATOM     12  C   UNL     1      21.020  -4.408   4.247  1.00  0.00     0.004 C 
ENDBRANCH  10  11
ENDBRANCH   9  10
ENDBRANCH   8   9
ENDBRANCH   7   8
ENDBRANCH   6   7
ENDBRANCH   5   6
ENDBRANCH   4   5
ENDBRANCH   3   4
ENDBRANCH   2   3
ENDBRANCH   1   2
BRANCH   1  13
ATOM     13  C   UNL     1      12.499  -9.366   5.174  1.00  0.00     0.000 C 
BRANCH  13  14
ATOM     14  C   UNL     1      10.994  -9.058   5.146  1.00  0.00     0.000 C 
BRANCH  14  15
ATOM     15  C   UNL     1      10.563  -8.295   3.877  1.00  0.00     0.000 C 
BRANCH  15  16
ATOM     16  C   UNL     1      10.612  -6.759   3.987  1.00  0.00     0.000 C 
BRANCH  16  17
ATOM     17  C   UNL     1       9.261  -6.142   4.373  1.00  0.00     0.000 C 
BRANCH  17  18
ATOM     18  C   UNL     1       8.101  -7.059   3.951  1.00  0.00     0.000 C 
BRANCH  18  19
ATOM     19  C   UNL     1       7.012  -7.184   5.032  1.00  0.00     0.000 C 
BRANCH  19  20
ATOM     20  C   UNL     1       7.051  -8.496   5.837  1.00  0.00     0.006 C 
BRANCH  20  21
ATOM     21  C   UNL     1       7.300  -8.267   7.333  1.00  0.00     0.053 C 
BRANCH  21  22
ATOM     22  C   UNL     1       7.806  -9.521   7.970  1.00  0.00     0.041 C 
ATOM     23  O   UNL     1       7.227  -9.994   8.984  1.00  0.00    -0.550 OA
ATOM     24  O   UNL     1       8.961 -10.125   7.492  1.00  0.00    -0.550 OA
ENDBRANCH  21  22
ENDBRANCH  20  21
ENDBRANCH  19  20
ENDBRANCH  18  19
ENDBRANCH  17  18
ENDBRANCH  16  17
ENDBRANCH  15  16
ENDBRANCH  14  15
ENDBRANCH  13  14
ENDBRANCH   1  13
TORSDOF 20
ENDMDL
MODEL 4
REMARK VINA RESULT:    -2.728      1.987      3.957
REMARK INTER + INTRA:          -7.854
REMARK INTER:                  -6.417
REMARK INTRA:                  -1.436
REMARK UNBOUND:                -1.937
REMARK SMILES CCCCCCCCCCCCCCCCCCCCCC(=O)[O-]
REMARK SMILES IDX 12 1 11 2 10 3 9 4 8 5 7 6 6 7 5 8 4 9 3 10 2 11 1 12 13 13
REMARK SMILES IDX 14 14 15 15 16 16 17 17 18 18 19 19 20 20 21 21 22 22 23 23
REMARK SMILES IDX 24 24
REMARK H PARENT
REMARK Flexibility Score: inf
ROOT
ATOM      1  C   UNL     1      12.764  -8.227   6.873  1.00  0.00     0.000 C 
ENDROOT
BRANCH   1   2
ATOM      2  C   UNL     1      11.858  -8.047   5.644  1.00  0.00     0.000 C 
BRANCH   2   3
ATOM      3  C   UNL     1      10.735  -9.102   5.577  1.00  0.00     0.000 C 
BRANCH   3   4
ATOM      4  C   UNL     1      10.490  -9.598   4.142  1.00  0.00    -0.000 C 
BRANCH   4   5
ATOM      5  C   UNL     1       9.013  -9.971   3.916  1.00  0.00    -0.000 C 
BRANCH   5   6
ATOM      6  C   UNL     1       8.056  -8.804   4.207  1.00  0.00    -0.000 C 
BRANCH   6   7
ATOM      7  C   UNL     1       7.020  -9.147   5.288  1.00  0.00    -0.000 C 
BRANCH   7   8
ATOM      8  C   UNL     1       6.924  -8.026   6.329  1.00  0.00    -0.000 C 
BRANCH   8   9
ATOM      9  C   UNL     1       6.191  -6.803   5.760  1.00  0.00    -0.000 C 
BRANCH   9  10
ATOM     10  C   UNL     1       4.884  -7.172   5.032  1.00  0.00    -0.000 C 
BRANCH  10  11
ATOM     11  C   UNL     1       4.378  -6.118   4.032  1.00  0.00    -0.003 C 
ATOM     12  C   UNL     1       3.605  -4.980   4.701  1.00  0.00     0.004 C 
ENDBRANCH  10  11
ENDBRANCH   9  10
ENDBRANCH   8   9
ENDBRANCH   7   8
ENDBRANCH   6   7
ENDBRANCH   5   6
ENDBRANCH   4   5
ENDBRANCH   3   4
ENDBRANCH   2   3
ENDBRANCH   1   2
BRANCH   1  13
ATOM     13  C   UNL     1      14.106  -8.878   6.501  1.00  0.00     0.000 C 
BRANCH  13  14
ATOM     14  C   UNL     1      14.315  -8.902   4.980  1.00  0.00     0.000 C 
BRANCH  14  15
ATOM     15  C   UNL     1      15.533  -9.748   4.555  1.00  0.00     0.000 C 
BRANCH  15  16
ATOM     16  C   UNL     1      16.744  -8.943   4.045  1.00  0.00     0.000 C 
BRANCH  16  17
ATOM     17  C   UNL     1      16.675  -7.455   4.416  1.00  0.00     0.000 C 
BRANCH  17  18
ATOM     18  C   UNL     1      18.018  -6.761   4.142  1.00  0.00     0.000 C 
BRANCH  18  19
ATOM     19  C   UNL     1      19.169  -7.755   3.899  1.00  0.00     0.000 C 
BRANCH  19  20
ATOM     20  C   UNL     1      20.065  -8.015   5.124  1.00  0.00     0.006 C 
BRANCH  20  21
ATOM     21  C   UNL     1      19.840  -6.997   6.249  1.00  0.00     0.053 C 
BRANCH  21  22
ATOM     22  C   UNL     1      19.287  -7.680   7.460  1.00  0.00     0.041 C 
ATOM     23  O   UNL     1      18.679  -7.014   8.339  1.00  0.00    -0.550 OA
ATOM     24  O   UNL     1      19.510  -9.037   7.653  1.00  0.00    -0.550 OA
ENDBRANCH  21  22
ENDBRANCH  20  21
ENDBRANCH  19  20
ENDBRANCH  18  19
ENDBRANCH  17  18
ENDBRANCH  16  17
ENDBRANCH  15  16
ENDBRANCH  14  15
ENDBRANCH  13  14
ENDBRANCH   1  13
TORSDOF 20
ENDMDL
MODEL 5
REMARK VINA RESULT:    -2.655      5.176     11.145
REMARK INTER + INTRA:          -7.697
REMARK INTER:                  -6.106
REMARK INTRA:                  -1.590
REMARK UNBOUND:                -1.937
REMARK SMILES CCCCCCCCCCCCCCCCCCCCCC(=O)[O-]
REMARK SMILES IDX 12 1 11 2 10 3 9 4 8 5 7 6 6 7 5 8 4 9 3 10 2 11 1 12 13 13
REMARK SMILES IDX 14 14 15 15 16 16 17 17 18 18 19 19 20 20 21 21 22 22 23 23
REMARK SMILES IDX 24 24
REMARK H PARENT
REMARK Flexibility Score: inf
ROOT
ATOM      1  C   UNL     1      14.017  -8.253   6.956  1.00  0.00     0.000 C 
ENDROOT
BRANCH   1   2
ATOM      2  C   UNL     1      15.300  -8.630   6.199  1.00  0.00     0.000 C 
BRANCH   2   3
ATOM      3  C   UNL     1      16.184  -7.405   5.887  1.00  0.00     0.000 C 
BRANCH   3   4
ATOM      4  C   UNL     1      17.101  -7.644   4.675  1.00  0.00    -0.000 C 
BRANCH   4   5
ATOM      5  C   UNL     1      17.236  -9.144   4.352  1.00  0.00    -0.000 C 
BRANCH   5   6
ATOM      6  C   UNL     1      18.642  -9.689   4.649  1.00  0.00    -0.000 C 
BRANCH   6   7
ATOM      7  C   UNL     1      19.056  -9.484   6.114  1.00  0.00    -0.000 C 
BRANCH   7   8
ATOM      8  C   UNL     1      20.420  -8.788   6.205  1.00  0.00    -0.000 C 
BRANCH   8   9
ATOM      9  C   UNL     1      21.015  -8.553   4.809  1.00  0.00    -0.000 C 
BRANCH   9  10
ATOM     10  C   UNL     1      22.047  -7.409   4.783  1.00  0.00    -0.000 C 
BRANCH  10  11
ATOM     11  C   UNL     1      21.448  -5.993   4.860  1.00  0.00    -0.003 C 
ATOM     12  C   UNL     1      20.269  -5.789   3.908  1.00  0.00     0.004 C 
ENDBRANCH  10  11
ENDBRANCH   9  10
ENDBRANCH   8   9
ENDBRANCH   7   8
ENDBRANCH   6   7
ENDBRANCH   5   6
ENDBRANCH   4   5
ENDBRANCH   3   4
ENDBRANCH   2   3
ENDBRANCH   1   2
BRANCH   1  13
ATOM     13  C   UNL     1      12.788  -8.989   6.399  1.00  0.00     0.000 C 
BRANCH  13  14
ATOM     14  C   UNL     1      12.600  -8.710   4.901  1.00  0.00     0.000 C 
BRANCH  14  15
ATOM     15  C   UNL     1      11.116  -8.654   4.484  1.00  0.00     0.000 C 
BRANCH  15  16
ATOM     16  C   UNL     1      10.185  -7.922   5.468  1.00  0.00     0.000 C 
BRANCH  16  17
ATOM     17  C   UNL     1       9.310  -8.878   6.290  1.00  0.00     0.000 C 
BRANCH  17  18
ATOM     18  C   UNL     1       8.114  -9.373   5.461  1.00  0.00     0.000 C 
BRANCH  18  19
ATOM     19  C   UNL     1       6.757  -9.060   6.119  1.00  0.00     0.000 C 
BRANCH  19  20
ATOM     20  C   UNL     1       5.701  -8.469   5.167  1.00  0.00     0.006 C 
BRANCH  20  21
ATOM     21  C   UNL     1       5.664  -6.936   5.201  1.00  0.00     0.053 C 
BRANCH  21  22
ATOM     22  C   UNL     1       4.372  -6.438   4.636  1.00  0.00     0.041 C 
ATOM     23  O   UNL     1       4.183  -5.202   4.483  1.00  0.00    -0.550 OA
ATOM     24  O   UNL     1       3.349  -7.333   4.352  1.00  0.00    -0.550 OA
ENDBRANCH  21  22
ENDBRANCH  20  21
ENDBRANCH  19  20
ENDBRANCH  18  19
ENDBRANCH  17  18
ENDBRANCH  16  17
ENDBRANCH  15  16
ENDBRANCH  14  15
ENDBRANCH  13  14
ENDBRANCH   1  13
TORSDOF 20
ENDMDL
MODEL 6
REMARK VINA RESULT:    -2.546      4.957     11.432
REMARK INTER + INTRA:          -7.459
REMARK INTER:                  -5.955
REMARK INTRA:                  -1.504
REMARK UNBOUND:                -1.937
REMARK SMILES CCCCCCCCCCCCCCCCCCCCCC(=O)[O-]
REMARK SMILES IDX 12 1 11 2 10 3 9 4 8 5 7 6 6 7 5 8 4 9 3 10 2 11 1 12 13 13
REMARK SMILES IDX 14 14 15 15 16 16 17 17 18 18 19 19 20 20 21 21 22 22 23 23
REMARK SMILES IDX 24 24
REMARK H PARENT
REMARK Flexibility Score: inf
ROOT
ATOM      1  C   UNL     1      11.633  -7.837   6.327  1.00  0.00     0.000 C 
ENDROOT
BRANCH   1   2
ATOM      2  C   UNL     1      12.793  -8.825   6.127  1.00  0.00     0.000 C 
BRANCH   2   3
ATOM      3  C   UNL     1      13.048  -9.143   4.640  1.00  0.00     0.000 C 
BRANCH   3   4
ATOM      4  C   UNL     1      14.544  -9.331   4.334  1.00  0.00    -0.000 C 
BRANCH   4   5
ATOM      5  C   UNL     1      15.343  -9.681   5.603  1.00  0.00    -0.000 C 
BRANCH   5   6
ATOM      6  C   UNL     1      16.690  -8.944   5.677  1.00  0.00    -0.000 C 
BRANCH   6   7
ATOM      7  C   UNL     1      16.625  -7.537   5.063  1.00  0.00    -0.000 C 
BRANCH   7   8
ATOM      8  C   UNL     1      17.999  -7.109   4.532  1.00  0.00    -0.000 C 
BRANCH   8   9
ATOM      9  C   UNL     1      19.125  -7.595   5.454  1.00  0.00    -0.000 C 
BRANCH   9  10
ATOM     10  C   UNL     1      20.097  -6.470   5.858  1.00  0.00    -0.000 C 
BRANCH  10  11
ATOM     11  C   UNL     1      21.299  -6.281   4.915  1.00  0.00    -0.003 C 
ATOM     12  C   UNL     1      21.795  -7.594   4.307  1.00  0.00     0.004 C 
ENDBRANCH  10  11
ENDBRANCH   9  10
ENDBRANCH   8   9
ENDBRANCH   7   8
ENDBRANCH   6   7
ENDBRANCH   5   6
ENDBRANCH   4   5
ENDBRANCH   3   4
ENDBRANCH   2   3
ENDBRANCH   1   2
BRANCH   1  13
ATOM     13  C   UNL     1      10.944  -7.489   4.997  1.00  0.00     0.000 C 
BRANCH  13  14
ATOM     14  C   UNL     1       9.632  -8.269   4.825  1.00  0.00     0.000 C 
BRANCH  14  15
ATOM     15  C   UNL     1       9.126  -8.890   6.143  1.00  0.00     0.000 C 
BRANCH  15  16
ATOM     16  C   UNL     1       7.788  -8.330   6.661  1.00  0.00     0.000 C 
BRANCH  16  17
ATOM     17  C   UNL     1       6.665  -9.377   6.677  1.00  0.00     0.000 C 
BRANCH  17  18
ATOM     18  C   UNL     1       6.584 -10.111   5.329  1.00  0.00     0.000 C 
BRANCH  18  19
ATOM     19  C   UNL     1       5.733  -9.362   4.288  1.00  0.00     0.000 C 
BRANCH  19  20
ATOM     20  C   UNL     1       4.478  -8.675   4.856  1.00  0.00     0.006 C 
BRANCH  20  21
ATOM     21  C   UNL     1       4.024  -7.478   4.012  1.00  0.00     0.053 C 
BRANCH  21  22
ATOM     22  C   UNL     1       4.447  -6.198   4.660  1.00  0.00     0.041 C 
ATOM     23  O   UNL     1       5.466  -6.170   5.398  1.00  0.00    -0.550 OA
ATOM     24  O   UNL     1       3.671  -5.056   4.511  1.00  0.00    -0.550 OA
ENDBRANCH  21  22
ENDBRANCH  20  21
ENDBRANCH  19  20
ENDBRANCH  18  19
ENDBRANCH  17  18
ENDBRANCH  16  17
ENDBRANCH  15  16
ENDBRANCH  14  15
ENDBRANCH  13  14
ENDBRANCH   1  13
TORSDOF 20
ENDMDL
MODEL 7
REMARK VINA RESULT:    -2.313      4.767     10.531
REMARK INTER + INTRA:          -6.954
REMARK INTER:                  -5.240
REMARK INTRA:                  -1.714
REMARK UNBOUND:                -1.937
REMARK SMILES CCCCCCCCCCCCCCCCCCCCCC(=O)[O-]
REMARK SMILES IDX 12 1 11 2 10 3 9 4 8 5 7 6 6 7 5 8 4 9 3 10 2 11 1 12 13 13
REMARK SMILES IDX 14 14 15 15 16 16 17 17 18 18 19 19 20 20 21 21 22 22 23 23
REMARK SMILES IDX 24 24
REMARK H PARENT
REMARK Flexibility Score: inf
ROOT
ATOM      1  C   UNL     1      14.390  -7.926   6.100  1.00  0.00     0.000 C 
ENDROOT
BRANCH   1   2
ATOM      2  C   UNL     1      15.524  -8.951   6.264  1.00  0.00     0.000 C 
BRANCH   2   3
ATOM      3  C   UNL     1      15.817  -9.721   4.960  1.00  0.00     0.000 C 
BRANCH   3   4
ATOM      4  C   UNL     1      16.879  -9.018   4.097  1.00  0.00    -0.000 C 
BRANCH   4   5
ATOM      5  C   UNL     1      17.491  -7.806   4.824  1.00  0.00    -0.000 C 
BRANCH   5   6
ATOM      6  C   UNL     1      18.269  -6.879   3.878  1.00  0.00    -0.000 C 
BRANCH   6   7
ATOM      7  C   UNL     1      19.680  -6.559   4.395  1.00  0.00    -0.000 C 
BRANCH   7   8
ATOM      8  C   UNL     1      20.593  -7.786   4.290  1.00  0.00    -0.000 C 
BRANCH   8   9
ATOM      9  C   UNL     1      21.176  -8.162   5.660  1.00  0.00    -0.000 C 
BRANCH   9  10
ATOM     10  C   UNL     1      20.379  -7.564   6.835  1.00  0.00    -0.000 C 
BRANCH  10  11
ATOM     11  C   UNL     1      19.509  -8.572   7.608  1.00  0.00    -0.003 C 
ATOM     12  C   UNL     1      19.526  -9.972   6.994  1.00  0.00     0.004 C 
ENDBRANCH  10  11
ENDBRANCH   9  10
ENDBRANCH   8   9
ENDBRANCH   7   8
ENDBRANCH   6   7
ENDBRANCH   5   6
ENDBRANCH   4   5
ENDBRANCH   3   4
ENDBRANCH   2   3
ENDBRANCH   1   2
BRANCH   1  13
ATOM     13  C   UNL     1      13.681  -8.070   4.743  1.00  0.00     0.000 C 
BRANCH  13  14
ATOM     14  C   UNL     1      12.241  -7.541   4.805  1.00  0.00     0.000 C 
BRANCH  14  15
ATOM     15  C   UNL     1      11.522  -7.911   6.118  1.00  0.00     0.000 C 
BRANCH  15  16
ATOM     16  C   UNL     1      10.445  -9.006   5.991  1.00  0.00     0.000 C 
BRANCH  16  17
ATOM     17  C   UNL     1      10.430  -9.675   4.609  1.00  0.00     0.000 C 
BRANCH  17  18
ATOM     18  C   UNL     1       8.990  -9.854   4.104  1.00  0.00     0.000 C 
BRANCH  18  19
ATOM     19  C   UNL     1       7.954  -9.113   4.970  1.00  0.00     0.000 C 
BRANCH  19  20
ATOM     20  C   UNL     1       6.976  -8.222   4.184  1.00  0.00     0.006 C 
BRANCH  20  21
ATOM     21  C   UNL     1       5.560  -8.233   4.773  1.00  0.00     0.053 C 
BRANCH  21  22
ATOM     22  C   UNL     1       5.140  -6.843   5.132  1.00  0.00     0.041 C 
ATOM     23  O   UNL     1       5.656  -6.263   6.124  1.00  0.00    -0.550 OA
ATOM     24  O   UNL     1       4.124  -6.220   4.419  1.00  0.00    -0.550 OA
ENDBRANCH  21  22
ENDBRANCH  20  21
ENDBRANCH  19  20
ENDBRANCH  18  19
ENDBRANCH  17  18
ENDBRANCH  16  17
ENDBRANCH  15  16
ENDBRANCH  14  15
ENDBRANCH  13  14
ENDBRANCH   1  13
TORSDOF 20
ENDMDL
MODEL 8
REMARK VINA RESULT:    -2.191      1.870      5.337
REMARK INTER + INTRA:          -6.691
REMARK INTER:                  -5.679
REMARK INTRA:                  -1.012
REMARK UNBOUND:                -1.937
REMARK SMILES CCCCCCCCCCCCCCCCCCCCCC(=O)[O-]
REMARK SMILES IDX 12 1 11 2 10 3 9 4 8 5 7 6 6 7 5 8 4 9 3 10 2 11 1 12 13 13
REMARK SMILES IDX 14 14 15 15 16 16 17 17 18 18 19 19 20 20 21 21 22 22 23 23
REMARK SMILES IDX 24 24
REMARK H PARENT
REMARK Flexibility Score: inf
ROOT
ATOM      1  C   UNL     1      10.273  -8.373   5.132  1.00  0.00     0.000 C 
ENDROOT
BRANCH   1   2
ATOM      2  C   UNL     1       9.723  -9.748   5.544  1.00  0.00     0.000 C 
BRANCH   2   3
ATOM      3  C   UNL     1       8.759  -9.664   6.743  1.00  0.00     0.000 C 
BRANCH   3   4
ATOM      4  C   UNL     1       7.741  -8.520   6.591  1.00  0.00    -0.000 C 
BRANCH   4   5
ATOM      5  C   UNL     1       6.832  -8.729   5.366  1.00  0.00    -0.000 C 
BRANCH   5   6
ATOM      6  C   UNL     1       5.776  -9.823   5.592  1.00  0.00    -0.000 C 
BRANCH   6   7
ATOM      7  C   UNL     1       4.722  -9.864   4.475  1.00  0.00    -0.000 C 
BRANCH   7   8
ATOM      8  C   UNL     1       3.358  -9.392   4.993  1.00  0.00    -0.000 C 
BRANCH   8   9
ATOM      9  C   UNL     1       2.937  -8.076   4.324  1.00  0.00    -0.000 C 
BRANCH   9  10
ATOM     10  C   UNL     1       4.137  -7.221   3.876  1.00  0.00    -0.000 C 
BRANCH  10  11
ATOM     11  C   UNL     1       4.381  -5.953   4.715  1.00  0.00    -0.003 C 
ATOM     12  C   UNL     1       3.341  -4.861   4.464  1.00  0.00     0.004 C 
ENDBRANCH  10  11
ENDBRANCH   9  10
ENDBRANCH   8   9
ENDBRANCH   7   8
ENDBRANCH   6   7
ENDBRANCH   5   6
ENDBRANCH   4   5
ENDBRANCH   3   4
ENDBRANCH   2   3
ENDBRANCH   1   2
BRANCH   1  13
ATOM     13  C   UNL     1      11.238  -8.478   3.939  1.00  0.00     0.000 C 
BRANCH  13  14
ATOM     14  C   UNL     1      12.537  -9.197   4.332  1.00  0.00     0.000 C 
BRANCH  14  15
ATOM     15  C   UNL     1      13.802  -8.438   3.881  1.00  0.00     0.000 C 
BRANCH  15  16
ATOM     16  C   UNL     1      14.416  -7.501   4.937  1.00  0.00     0.000 C 
BRANCH  16  17
ATOM     17  C   UNL     1      15.396  -8.216   5.877  1.00  0.00     0.000 C 
BRANCH  17  18
ATOM     18  C   UNL     1      16.848  -7.842   5.541  1.00  0.00     0.000 C 
BRANCH  18  19
ATOM     19  C   UNL     1      17.876  -8.794   6.180  1.00  0.00     0.000 C 
BRANCH  19  20
ATOM     20  C   UNL     1      19.346  -8.454   5.872  1.00  0.00     0.006 C 
BRANCH  20  21
ATOM     21  C   UNL     1      19.510  -7.088   5.194  1.00  0.00     0.053 C 
BRANCH  21  22
ATOM     22  C   UNL     1      20.920  -6.907   4.731  1.00  0.00     0.041 C 
ATOM     23  O   UNL     1      21.535  -7.863   4.187  1.00  0.00    -0.550 OA
ATOM     24  O   UNL     1      21.580  -5.709   4.970  1.00  0.00    -0.550 OA
ENDBRANCH  21  22
ENDBRANCH  20  21
ENDBRANCH  19  20
ENDBRANCH  18  19
ENDBRANCH  17  18
ENDBRANCH  16  17
ENDBRANCH  15  16
ENDBRANCH  14  15
ENDBRANCH  13  14
ENDBRANCH   1  13
TORSDOF 20
ENDMDL
