MODEL 1
REMARK VINA RESULT:    -4.712      0.000      0.000
REMARK INTER + INTRA:         -10.204
REMARK INTER:                  -8.293
REMARK INTRA:                  -1.911
REMARK UNBOUND:                -1.911
REMARK SMILES CCCCCCCCCCCCCCC(=O)[O-]
REMARK SMILES IDX 9 1 10 2 11 3 12 4 13 5 14 6 15 7 16 8 17 9 8 10 7 11 6 12
REMARK SMILES IDX 5 13 4 14 3 15 2 16 1 17
REMARK H PARENT
REMARK Flexibility Score: inf
ROOT
ATOM      1  C   UNL     1     -37.250  40.357  46.135  1.00  0.00     0.000 C 
ENDROOT
BRANCH   1   2
ATOM      2  C   UNL     1     -36.874  38.895  46.425  1.00  0.00     0.000 C 
BRANCH   2   3
ATOM      3  C   UNL     1     -38.082  37.947  46.337  1.00  0.00     0.000 C 
BRANCH   3   4
ATOM      4  C   UNL     1     -39.430  38.693  46.331  1.00  0.00     0.000 C 
BRANCH   4   5
ATOM      5  C   UNL     1     -40.410  38.287  47.451  1.00  0.00     0.006 C 
BRANCH   5   6
ATOM      6  C   UNL     1     -40.170  36.884  48.033  1.00  0.00     0.053 C 
BRANCH   6   7
ATOM      7  C   UNL     1     -40.922  36.673  49.311  1.00  0.00     0.041 C 
ATOM      8  O   UNL     1     -41.478  37.644  49.888  1.00  0.00    -0.550 OA
ATOM      9  O   UNL     1     -40.981  35.408  49.881  1.00  0.00    -0.550 OA
ENDBRANCH   6   7
ENDBRANCH   5   6
ENDBRANCH   4   5
ENDBRANCH   3   4
ENDBRANCH   2   3
ENDBRANCH   1   2
BRANCH   1  10
ATOM     10  C   UNL     1     -36.690  40.858  44.794  1.00  0.00     0.000 C 
BRANCH  10  11
ATOM     11  C   UNL     1     -37.821  41.125  43.793  1.00  0.00    -0.000 C 
BRANCH  11  12
ATOM     12  C   UNL     1     -37.653  40.263  42.532  1.00  0.00    -0.000 C 
BRANCH  12  13
ATOM     13  C   UNL     1     -38.017  38.788  42.767  1.00  0.00    -0.000 C 
BRANCH  13  14
ATOM     14  C   UNL     1     -36.885  37.829  42.356  1.00  0.00    -0.000 C 
BRANCH  14  15
ATOM     15  C   UNL     1     -36.815  36.572  43.243  1.00  0.00    -0.000 C 
BRANCH  15  16
ATOM     16  C   UNL     1     -35.478  36.366  43.977  1.00  0.00    -0.003 C 
ATOM     17  C   UNL     1     -34.541  37.568  43.861  1.00  0.00     0.004 C 
ENDBRANCH  15  16
ENDBRANCH  14  15
ENDBRANCH  13  14
ENDBRANCH  12  13
ENDBRANCH  11  12
ENDBRANCH  10  11
ENDBRANCH   1  10
TORSDOF 13
ENDMDL
MODEL 2
REMARK VINA RESULT:    -4.696      7.054      9.101
REMARK INTER + INTRA:         -10.175
REMARK INTER:                  -8.257
REMARK INTRA:                  -1.919
REMARK UNBOUND:                -1.911
REMARK SMILES CCCCCCCCCCCCCCC(=O)[O-]
REMARK SMILES IDX 9 1 10 2 11 3 12 4 13 5 14 6 15 7 16 8 17 9 8 10 7 11 6 12
REMARK SMILES IDX 5 13 4 14 3 15 2 16 1 17
REMARK H PARENT
REMARK Flexibility Score: inf
ROOT
ATOM      1  C   UNL     1     -35.056  42.586  44.278  1.00  0.00     0.000 C 
ENDROOT
BRANCH   1   2
ATOM      2  C   UNL     1     -35.633  43.211  42.996  1.00  0.00     0.000 C 
BRANCH   2   3
ATOM      3  C   UNL     1     -36.233  42.160  42.046  1.00  0.00     0.000 C 
BRANCH   3   4
ATOM      4  C   UNL     1     -35.662  42.248  40.618  1.00  0.00     0.000 C 
BRANCH   4   5
ATOM      5  C   UNL     1     -34.913  43.556  40.290  1.00  0.00     0.006 C 
BRANCH   5   6
ATOM      6  C   UNL     1     -34.280  43.596  38.889  1.00  0.00     0.053 C 
BRANCH   6   7
ATOM      7  C   UNL     1     -34.510  44.910  38.209  1.00  0.00     0.041 C 
ATOM      8  O   UNL     1     -35.144  45.826  38.796  1.00  0.00    -0.550 OA
ATOM      9  O   UNL     1     -34.051  45.111  36.913  1.00  0.00    -0.550 OA
ENDBRANCH   6   7
ENDBRANCH   5   6
ENDBRANCH   4   5
ENDBRANCH   3   4
ENDBRANCH   2   3
ENDBRANCH   1   2
BRANCH   1  10
ATOM     10  C   UNL     1     -33.895  41.620  43.996  1.00  0.00     0.000 C 
BRANCH  10  11
ATOM     11  C   UNL     1     -34.275  40.183  44.372  1.00  0.00    -0.000 C 
BRANCH  11  12
ATOM     12  C   UNL     1     -33.493  39.168  43.524  1.00  0.00    -0.000 C 
BRANCH  12  13
ATOM     13  C   UNL     1     -33.772  39.311  42.019  1.00  0.00    -0.000 C 
BRANCH  13  14
ATOM     14  C   UNL     1     -32.486  39.507  41.197  1.00  0.00    -0.000 C 
BRANCH  14  15
ATOM     15  C   UNL     1     -32.400  40.900  40.546  1.00  0.00    -0.000 C 
BRANCH  15  16
ATOM     16  C   UNL     1     -31.178  41.738  40.960  1.00  0.00    -0.003 C 
ATOM     17  C   UNL     1     -30.623  41.349  42.330  1.00  0.00     0.004 C 
ENDBRANCH  15  16
ENDBRANCH  14  15
ENDBRANCH  13  14
ENDBRANCH  12  13
ENDBRANCH  11  12
ENDBRANCH  10  11
ENDBRANCH   1  10
TORSDOF 13
ENDMDL
MODEL 3
REMARK VINA RESULT:    -4.680      6.562      8.921
REMARK INTER + INTRA:         -10.147
REMARK INTER:                  -8.106
REMARK INTRA:                  -2.041
REMARK UNBOUND:                -1.911
REMARK SMILES CCCCCCCCCCCCCCC(=O)[O-]
REMARK SMILES IDX 9 1 10 2 11 3 12 4 13 5 14 6 15 7 16 8 17 9 8 10 7 11 6 12
REMARK SMILES IDX 5 13 4 14 3 15 2 16 1 17
REMARK H PARENT
REMARK Flexibility Score: inf
ROOT
ATOM      1  C   UNL     1     -34.955  42.592  44.052  1.00  0.00     0.000 C 
ENDROOT
BRANCH   1   2
ATOM      2  C   UNL     1     -35.984  42.802  42.929  1.00  0.00     0.000 C 
BRANCH   2   3
ATOM      3  C   UNL     1     -35.481  43.766  41.840  1.00  0.00     0.000 C 
BRANCH   3   4
ATOM      4  C   UNL     1     -35.124  43.049  40.524  1.00  0.00     0.000 C 
BRANCH   4   5
ATOM      5  C   UNL     1     -33.645  43.154  40.101  1.00  0.00     0.006 C 
BRANCH   5   6
ATOM      6  C   UNL     1     -33.246  44.512  39.501  1.00  0.00     0.053 C 
BRANCH   6   7
ATOM      7  C   UNL     1     -34.151  44.914  38.378  1.00  0.00     0.041 C 
ATOM      8  O   UNL     1     -34.025  44.388  37.241  1.00  0.00    -0.550 OA
ATOM      9  O   UNL     1     -35.114  45.896  38.579  1.00  0.00    -0.550 OA
ENDBRANCH   6   7
ENDBRANCH   5   6
ENDBRANCH   4   5
ENDBRANCH   3   4
ENDBRANCH   2   3
ENDBRANCH   1   2
BRANCH   1  10
ATOM     10  C   UNL     1     -34.492  41.131  44.165  1.00  0.00     0.000 C 
BRANCH  10  11
ATOM     11  C   UNL     1     -33.645  40.729  42.952  1.00  0.00    -0.000 C 
BRANCH  11  12
ATOM     12  C   UNL     1     -34.094  39.369  42.395  1.00  0.00    -0.000 C 
BRANCH  12  13
ATOM     13  C   UNL     1     -34.343  39.401  40.878  1.00  0.00    -0.000 C 
BRANCH  13  14
ATOM     14  C   UNL     1     -35.738  38.874  40.499  1.00  0.00    -0.000 C 
BRANCH  14  15
ATOM     15  C   UNL     1     -36.858  39.892  40.779  1.00  0.00    -0.000 C 
BRANCH  15  16
ATOM     16  C   UNL     1     -37.640  39.658  42.084  1.00  0.00    -0.003 C 
ATOM     17  C   UNL     1     -37.723  38.182  42.475  1.00  0.00     0.004 C 
ENDBRANCH  15  16
ENDBRANCH  14  15
ENDBRANCH  13  14
ENDBRANCH  12  13
ENDBRANCH  11  12
ENDBRANCH  10  11
ENDBRANCH   1  10
TORSDOF 13
ENDMDL
MODEL 4
REMARK VINA RESULT:    -4.679      6.099      8.429
REMARK INTER + INTRA:         -10.146
REMARK INTER:                  -7.703
REMARK INTRA:                  -2.443
REMARK UNBOUND:                -1.911
REMARK SMILES CCCCCCCCCCCCCCC(=O)[O-]
REMARK SMILES IDX 9 1 10 2 11 3 12 4 13 5 14 6 15 7 16 8 17 9 8 10 7 11 6 12
REMARK SMILES IDX 5 13 4 14 3 15 2 16 1 17
REMARK H PARENT
REMARK Flexibility Score: inf
ROOT
ATOM      1  C   UNL     1     -33.872  39.105  41.897  1.00  0.00     0.000 C 
ENDROOT
BRANCH   1   2
ATOM      2  C   UNL     1     -33.965  40.277  42.887  1.00  0.00     0.000 C 
BRANCH   2   3
ATOM      3  C   UNL     1     -33.628  41.629  42.234  1.00  0.00     0.000 C 
BRANCH   3   4
ATOM      4  C   UNL     1     -34.829  42.592  42.195  1.00  0.00     0.000 C 
BRANCH   4   5
ATOM      5  C   UNL     1     -35.383  42.894  40.788  1.00  0.00     0.006 C 
BRANCH   5   6
ATOM      6  C   UNL     1     -34.310  43.062  39.701  1.00  0.00     0.053 C 
BRANCH   6   7
ATOM      7  C   UNL     1     -33.975  44.503  39.464  1.00  0.00     0.041 C 
ATOM      8  O   UNL     1     -32.773  44.880  39.443  1.00  0.00    -0.550 OA
ATOM      9  O   UNL     1     -34.991  45.435  39.299  1.00  0.00    -0.550 OA
ENDBRANCH   6   7
ENDBRANCH   5   6
ENDBRANCH   4   5
ENDBRANCH   3   4
ENDBRANCH   2   3
ENDBRANCH   1   2
BRANCH   1  10
ATOM     10  C   UNL     1     -33.418  39.546  40.497  1.00  0.00     0.000 C 
BRANCH  10  11
ATOM     11  C   UNL     1     -34.524  39.307  39.461  1.00  0.00    -0.000 C 
BRANCH  11  12
ATOM     12  C   UNL     1     -35.780  38.721  40.124  1.00  0.00    -0.000 C 
BRANCH  12  13
ATOM     13  C   UNL     1     -36.931  39.737  40.218  1.00  0.00    -0.000 C 
BRANCH  13  14
ATOM     14  C   UNL     1     -37.907  39.418  41.365  1.00  0.00    -0.000 C 
BRANCH  14  15
ATOM     15  C   UNL     1     -37.709  40.330  42.589  1.00  0.00    -0.000 C 
BRANCH  15  16
ATOM     16  C   UNL     1     -37.494  39.593  43.923  1.00  0.00    -0.003 C 
ATOM     17  C   UNL     1     -37.100  38.127  43.739  1.00  0.00     0.004 C 
ENDBRANCH  15  16
ENDBRANCH  14  15
ENDBRANCH  13  14
ENDBRANCH  12  13
ENDBRANCH  11  12
ENDBRANCH  10  11
ENDBRANCH   1  10
TORSDOF 13
ENDMDL
MODEL 5
REMARK VINA RESULT:    -4.678      5.244      7.386
REMARK INTER + INTRA:         -10.143
REMARK INTER:                  -7.584
REMARK INTRA:                  -2.559
REMARK UNBOUND:                -1.911
REMARK SMILES CCCCCCCCCCCCCCC(=O)[O-]
REMARK SMILES IDX 9 1 10 2 11 3 12 4 13 5 14 6 15 7 16 8 17 9 8 10 7 11 6 12
REMARK SMILES IDX 5 13 4 14 3 15 2 16 1 17
REMARK H PARENT
REMARK Flexibility Score: inf
ROOT
ATOM      1  C   UNL     1     -34.356  39.719  44.975  1.00  0.00     0.000 C 
ENDROOT
BRANCH   1   2
ATOM      2  C   UNL     1     -34.431  41.119  44.344  1.00  0.00     0.000 C 
BRANCH   2   3
ATOM      3  C   UNL     1     -35.818  41.766  44.507  1.00  0.00     0.000 C 
BRANCH   3   4
ATOM      4  C   UNL     1     -36.275  42.527  43.248  1.00  0.00     0.000 C 
BRANCH   4   5
ATOM      5  C   UNL     1     -35.164  42.827  42.222  1.00  0.00     0.006 C 
BRANCH   5   6
ATOM      6  C   UNL     1     -35.507  42.439  40.775  1.00  0.00     0.053 C 
BRANCH   6   7
ATOM      7  C   UNL     1     -34.305  42.488  39.883  1.00  0.00     0.041 C 
ATOM      8  O   UNL     1     -33.255  41.868  40.197  1.00  0.00    -0.550 OA
ATOM      9  O   UNL     1     -34.335  43.244  38.718  1.00  0.00    -0.550 OA
ENDBRANCH   6   7
ENDBRANCH   5   6
ENDBRANCH   4   5
ENDBRANCH   3   4
ENDBRANCH   2   3
ENDBRANCH   1   2
BRANCH   1  10
ATOM     10  C   UNL     1     -34.529  38.594  43.942  1.00  0.00     0.000 C 
BRANCH  10  11
ATOM     11  C   UNL     1     -34.316  39.121  42.518  1.00  0.00    -0.000 C 
BRANCH  11  12
ATOM     12  C   UNL     1     -35.569  38.897  41.656  1.00  0.00    -0.000 C 
BRANCH  12  13
ATOM     13  C   UNL     1     -36.740  38.302  42.455  1.00  0.00    -0.000 C 
BRANCH  13  14
ATOM     14  C   UNL     1     -38.016  39.157  42.356  1.00  0.00    -0.000 C 
BRANCH  14  15
ATOM     15  C   UNL     1     -38.579  39.552  43.733  1.00  0.00    -0.000 C 
BRANCH  15  16
ATOM     16  C   UNL     1     -38.049  38.722  44.916  1.00  0.00    -0.003 C 
ATOM     17  C   UNL     1     -38.133  39.462  46.251  1.00  0.00     0.004 C 
ENDBRANCH  15  16
ENDBRANCH  14  15
ENDBRANCH  13  14
ENDBRANCH  12  13
ENDBRANCH  11  12
ENDBRANCH  10  11
ENDBRANCH   1  10
TORSDOF 13
ENDMDL
MODEL 6
REMARK VINA RESULT:    -4.669      6.317      8.608
REMARK INTER + INTRA:         -10.128
REMARK INTER:                  -7.525
REMARK INTRA:                  -2.603
REMARK UNBOUND:                -1.911
REMARK SMILES CCCCCCCCCCCCCCC(=O)[O-]
REMARK SMILES IDX 9 1 10 2 11 3 12 4 13 5 14 6 15 7 16 8 17 9 8 10 7 11 6 12
REMARK SMILES IDX 5 13 4 14 3 15 2 16 1 17
REMARK H PARENT
REMARK Flexibility Score: inf
ROOT
ATOM      1  C   UNL     1     -33.665  38.740  43.035  1.00  0.00     0.000 C 
ENDROOT
BRANCH   1   2
ATOM      2  C   UNL     1     -33.069  39.539  41.864  1.00  0.00     0.000 C 
BRANCH   2   3
ATOM      3  C   UNL     1     -33.863  39.354  40.560  1.00  0.00     0.000 C 
BRANCH   3   4
ATOM      4  C   UNL     1     -34.161  40.686  39.846  1.00  0.00     0.000 C 
BRANCH   4   5
ATOM      5  C   UNL     1     -33.469  41.924  40.450  1.00  0.00     0.006 C 
BRANCH   5   6
ATOM      6  C   UNL     1     -34.252  43.238  40.289  1.00  0.00     0.053 C 
BRANCH   6   7
ATOM      7  C   UNL     1     -33.805  44.011  39.087  1.00  0.00     0.041 C 
ATOM      8  O   UNL     1     -34.382  43.851  37.979  1.00  0.00    -0.550 OA
ATOM      9  O   UNL     1     -32.730  44.886  39.183  1.00  0.00    -0.550 OA
ENDBRANCH   6   7
ENDBRANCH   5   6
ENDBRANCH   4   5
ENDBRANCH   3   4
ENDBRANCH   2   3
ENDBRANCH   1   2
BRANCH   1  10
ATOM     10  C   UNL     1     -34.001  39.625  44.246  1.00  0.00     0.000 C 
BRANCH  10  11
ATOM     11  C   UNL     1     -33.396  41.025  44.086  1.00  0.00    -0.000 C 
BRANCH  11  12
ATOM     12  C   UNL     1     -34.496  42.097  44.044  1.00  0.00    -0.000 C 
BRANCH  12  13
ATOM     13  C   UNL     1     -35.911  41.496  44.026  1.00  0.00    -0.000 C 
BRANCH  13  14
ATOM     14  C   UNL     1     -36.649  41.763  42.702  1.00  0.00    -0.000 C 
BRANCH  14  15
ATOM     15  C   UNL     1     -37.169  40.474  42.038  1.00  0.00    -0.000 C 
BRANCH  15  16
ATOM     16  C   UNL     1     -37.635  39.380  43.016  1.00  0.00    -0.003 C 
ATOM     17  C   UNL     1     -37.264  37.971  42.556  1.00  0.00     0.004 C 
ENDBRANCH  15  16
ENDBRANCH  14  15
ENDBRANCH  13  14
ENDBRANCH  12  13
ENDBRANCH  11  12
ENDBRANCH  10  11
ENDBRANCH   1  10
TORSDOF 13
ENDMDL
MODEL 7
REMARK VINA RESULT:    -4.663      1.768      2.540
REMARK INTER + INTRA:         -10.117
REMARK INTER:                  -8.130
REMARK INTRA:                  -1.987
REMARK UNBOUND:                -1.911
REMARK SMILES CCCCCCCCCCCCCCC(=O)[O-]
REMARK SMILES IDX 9 1 10 2 11 3 12 4 13 5 14 6 15 7 16 8 17 9 8 10 7 11 6 12
REMARK SMILES IDX 5 13 4 14 3 15 2 16 1 17
REMARK H PARENT
REMARK Flexibility Score: inf
ROOT
ATOM      1  C   UNL     1     -34.771  37.724  46.421  1.00  0.00     0.000 C 
ENDROOT
BRANCH   1   2
ATOM      2  C   UNL     1     -35.877  38.019  47.447  1.00  0.00     0.000 C 
BRANCH   2   3
ATOM      3  C   UNL     1     -37.256  37.515  46.989  1.00  0.00     0.000 C 
BRANCH   3   4
ATOM      4  C   UNL     1     -38.226  38.658  46.636  1.00  0.00     0.000 C 
BRANCH   4   5
ATOM      5  C   UNL     1     -39.646  38.519  47.220  1.00  0.00     0.006 C 
BRANCH   5   6
ATOM      6  C   UNL     1     -39.692  38.056  48.685  1.00  0.00     0.053 C 
BRANCH   6   7
ATOM      7  C   UNL     1     -40.319  36.703  48.824  1.00  0.00     0.041 C 
ATOM      8  O   UNL     1     -40.365  35.920  47.839  1.00  0.00    -0.550 OA
ATOM      9  O   UNL     1     -40.880  36.318  50.035  1.00  0.00    -0.550 OA
ENDBRANCH   6   7
ENDBRANCH   5   6
ENDBRANCH   4   5
ENDBRANCH   3   4
ENDBRANCH   2   3
ENDBRANCH   1   2
BRANCH   1  10
ATOM     10  C   UNL     1     -34.880  38.600  45.163  1.00  0.00     0.000 C 
BRANCH  10  11
ATOM     11  C   UNL     1     -34.705  37.758  43.893  1.00  0.00    -0.000 C 
BRANCH  11  12
ATOM     12  C   UNL     1     -35.970  37.808  43.023  1.00  0.00    -0.000 C 
BRANCH  12  13
ATOM     13  C   UNL     1     -36.997  36.728  43.404  1.00  0.00    -0.000 C 
BRANCH  13  14
ATOM     14  C   UNL     1     -36.366  35.329  43.519  1.00  0.00    -0.000 C 
BRANCH  14  15
ATOM     15  C   UNL     1     -36.618  34.671  44.888  1.00  0.00    -0.000 C 
BRANCH  15  16
ATOM     16  C   UNL     1     -35.385  34.007  45.528  1.00  0.00    -0.003 C 
ATOM     17  C   UNL     1     -34.089  34.298  44.772  1.00  0.00     0.004 C 
ENDBRANCH  15  16
ENDBRANCH  14  15
ENDBRANCH  13  14
ENDBRANCH  12  13
ENDBRANCH  11  12
ENDBRANCH  10  11
ENDBRANCH   1  10
TORSDOF 13
ENDMDL
MODEL 8
REMARK VINA RESULT:    -4.627      1.708      3.134
REMARK INTER + INTRA:         -10.054
REMARK INTER:                  -7.716
REMARK INTRA:                  -2.338
REMARK UNBOUND:                -1.911
REMARK SMILES CCCCCCCCCCCCCCC(=O)[O-]
REMARK SMILES IDX 9 1 10 2 11 3 12 4 13 5 14 6 15 7 16 8 17 9 8 10 7 11 6 12
REMARK SMILES IDX 5 13 4 14 3 15 2 16 1 17
REMARK H PARENT
REMARK Flexibility Score: inf
ROOT
ATOM      1  C   UNL     1     -35.595  39.951  44.052  1.00  0.00     0.000 C 
ENDROOT
BRANCH   1   2
ATOM      2  C   UNL     1     -36.901  40.538  44.612  1.00  0.00     0.000 C 
BRANCH   2   3
ATOM      3  C   UNL     1     -38.136  40.106  43.804  1.00  0.00     0.000 C 
BRANCH   3   4
ATOM      4  C   UNL     1     -39.294  39.618  44.695  1.00  0.00     0.000 C 
BRANCH   4   5
ATOM      5  C   UNL     1     -38.870  38.824  45.948  1.00  0.00     0.006 C 
BRANCH   5   6
ATOM      6  C   UNL     1     -40.004  38.558  46.951  1.00  0.00     0.053 C 
BRANCH   6   7
ATOM      7  C   UNL     1     -39.572  37.639  48.052  1.00  0.00     0.041 C 
ATOM      8  O   UNL     1     -38.983  38.097  49.066  1.00  0.00    -0.550 OA
ATOM      9  O   UNL     1     -39.792  36.272  47.943  1.00  0.00    -0.550 OA
ENDBRANCH   6   7
ENDBRANCH   5   6
ENDBRANCH   4   5
ENDBRANCH   3   4
ENDBRANCH   2   3
ENDBRANCH   1   2
BRANCH   1  10
ATOM     10  C   UNL     1     -34.668  39.411  45.152  1.00  0.00     0.000 C 
BRANCH  10  11
ATOM     11  C   UNL     1     -35.210  39.757  46.545  1.00  0.00    -0.000 C 
BRANCH  11  12
ATOM     12  C   UNL     1     -35.460  38.486  47.369  1.00  0.00    -0.000 C 
BRANCH  12  13
ATOM     13  C   UNL     1     -35.212  37.198  46.566  1.00  0.00    -0.000 C 
BRANCH  13  14
ATOM     14  C   UNL     1     -36.416  36.240  46.600  1.00  0.00    -0.000 C 
BRANCH  14  15
ATOM     15  C   UNL     1     -36.684  35.569  45.241  1.00  0.00    -0.000 C 
BRANCH  15  16
ATOM     16  C   UNL     1     -36.041  36.269  44.030  1.00  0.00    -0.003 C 
ATOM     17  C   UNL     1     -37.057  36.664  42.958  1.00  0.00     0.004 C 
ENDBRANCH  15  16
ENDBRANCH  14  15
ENDBRANCH  13  14
ENDBRANCH  12  13
ENDBRANCH  11  12
ENDBRANCH  10  11
ENDBRANCH   1  10
TORSDOF 13
ENDMDL
MODEL 9
REMARK VINA RESULT:    -4.610      1.362      2.834
REMARK INTER + INTRA:         -10.025
REMARK INTER:                  -7.672
REMARK INTRA:                  -2.353
REMARK UNBOUND:                -1.911
REMARK SMILES CCCCCCCCCCCCCCC(=O)[O-]
REMARK SMILES IDX 9 1 10 2 11 3 12 4 13 5 14 6 15 7 16 8 17 9 8 10 7 11 6 12
REMARK SMILES IDX 5 13 4 14 3 15 2 16 1 17
REMARK H PARENT
REMARK Flexibility Score: inf
ROOT
ATOM      1  C   UNL     1     -36.522  37.423  44.228  1.00  0.00     0.000 C 
ENDROOT
BRANCH   1   2
ATOM      2  C   UNL     1     -37.366  37.121  45.477  1.00  0.00     0.000 C 
BRANCH   2   3
ATOM      3  C   UNL     1     -36.918  37.936  46.702  1.00  0.00     0.000 C 
BRANCH   3   4
ATOM      4  C   UNL     1     -38.040  38.823  47.275  1.00  0.00     0.000 C 
BRANCH   4   5
ATOM      5  C   UNL     1     -39.397  38.714  46.551  1.00  0.00     0.006 C 
BRANCH   5   6
ATOM      6  C   UNL     1     -40.574  38.314  47.456  1.00  0.00     0.053 C 
BRANCH   6   7
ATOM      7  C   UNL     1     -40.231  37.155  48.340  1.00  0.00     0.041 C 
ATOM      8  O   UNL     1     -40.128  37.314  49.585  1.00  0.00    -0.550 OA
ATOM      9  O   UNL     1     -39.995  35.903  47.784  1.00  0.00    -0.550 OA
ENDBRANCH   6   7
ENDBRANCH   5   6
ENDBRANCH   4   5
ENDBRANCH   3   4
ENDBRANCH   2   3
ENDBRANCH   1   2
BRANCH   1  10
ATOM     10  C   UNL     1     -37.382  37.744  42.995  1.00  0.00     0.000 C 
BRANCH  10  11
ATOM     11  C   UNL     1     -37.188  39.200  42.555  1.00  0.00    -0.000 C 
BRANCH  11  12
ATOM     12  C   UNL     1     -38.100  40.142  43.356  1.00  0.00    -0.000 C 
BRANCH  12  13
ATOM     13  C   UNL     1     -37.403  41.456  43.745  1.00  0.00    -0.000 C 
BRANCH  13  14
ATOM     14  C   UNL     1     -36.703  41.370  45.113  1.00  0.00    -0.000 C 
BRANCH  14  15
ATOM     15  C   UNL     1     -35.172  41.501  45.011  1.00  0.00    -0.000 C 
BRANCH  15  16
ATOM     16  C   UNL     1     -34.396  40.178  45.131  1.00  0.00    -0.003 C 
ATOM     17  C   UNL     1     -33.698  39.774  43.832  1.00  0.00     0.004 C 
ENDBRANCH  15  16
ENDBRANCH  14  15
ENDBRANCH  13  14
ENDBRANCH  12  13
ENDBRANCH  11  12
ENDBRANCH  10  11
ENDBRANCH   1  10
TORSDOF 13
ENDMDL
