MODEL 1
REMARK VINA RESULT:    -8.077      0.000      0.000
REMARK INTER + INTRA:         -11.503
REMARK INTER:                 -10.910
REMARK INTRA:                  -0.593
REMARK UNBOUND:                -0.593
REMARK SMILES O=c1c(-c2ccc(O)cc2)coc2c([C@H]3O[C@H](CO)[C@H](O)[C@@H](O)[C@@H]3O)c(O)ccc12
REMARK SMILES IDX 3 1 11 2 12 3 13 4 30 5 2 6 1 7 29 8 28 9 26 10 14 11 4 12
REMARK SMILES IDX 5 13 6 14 7 15 10 16 9 17 8 18 15 20 24 21 16 22 22 23 17 24
REMARK SMILES IDX 20 25 25 26 23 28 18 30 19 31 21 33 27 35
REMARK H PARENT 8 19 25 27 23 29 19 32 21 34 27 36
REMARK Flexibility Score: inf
ROOT
ATOM      1  C   UNL     1     -25.171  92.987 -14.770  1.00  0.00     0.065 A 
ATOM      2  C   UNL     1     -24.480  91.998 -14.056  1.00  0.00     0.208 A 
ATOM      3  O   UNL     1     -25.119  91.192 -13.217  1.00  0.00    -0.463 OA
ATOM      4  C   UNL     1     -26.429  91.259 -12.996  1.00  0.00     0.147 A 
ATOM      5  C   UNL     1     -27.206  92.222 -13.682  1.00  0.00     0.066 A 
ATOM      6  C   UNL     1     -26.562  93.090 -14.583  1.00  0.00     0.200 A 
ATOM      7  O   UNL     1     -27.229  93.943 -15.233  1.00  0.00    -0.288 OA
ATOM      8  C   UNL     1     -28.591  92.282 -13.461  1.00  0.00     0.020 A 
ATOM      9  C   UNL     1     -29.199  91.394 -12.578  1.00  0.00     0.047 A 
ATOM     10  C   UNL     1     -28.441  90.436 -11.894  1.00  0.00     0.125 A 
ATOM     11  C   UNL     1     -27.041  90.369 -12.083  1.00  0.00     0.069 A 
ENDROOT
BRANCH   1  12
ATOM     12  C   UNL     1     -24.434  93.882 -15.698  1.00  0.00    -0.011 A 
ATOM     13  C   UNL     1     -24.475  93.654 -17.085  1.00  0.00     0.013 A 
ATOM     14  C   UNL     1     -23.775  94.491 -17.960  1.00  0.00     0.047 A 
ATOM     15  C   UNL     1     -23.022  95.557 -17.463  1.00  0.00     0.115 A 
ATOM     16  C   UNL     1     -23.669  94.953 -15.204  1.00  0.00     0.013 A 
ATOM     17  C   UNL     1     -22.970  95.787 -16.082  1.00  0.00     0.047 A 
BRANCH  15  18
ATOM     18  O   UNL     1     -22.330  96.382 -18.346  1.00  0.00    -0.508 OA
ATOM     19  H   UNL     1     -21.419  96.760 -18.115  1.00  0.00     0.293 HD
ENDBRANCH  15  18
ENDBRANCH   1  12
BRANCH  11  20
ATOM     20  C   UNL     1     -26.213  89.314 -11.360  1.00  0.00     0.188 C 
ATOM     21  C   UNL     1     -25.224  89.994 -10.385  1.00  0.00     0.179 C 
ATOM     22  O   UNL     1     -25.532  88.523 -12.321  1.00  0.00    -0.362 OA
ATOM     23  C   UNL     1     -24.381  88.928  -9.665  1.00  0.00     0.177 C 
ATOM     24  C   UNL     1     -24.761  87.475 -11.744  1.00  0.00     0.176 C 
ATOM     25  C   UNL     1     -23.735  87.982 -10.693  1.00  0.00     0.177 C 
BRANCH  21  26
ATOM     26  O   UNL     1     -25.900  90.801  -9.451  1.00  0.00    -0.387 OA
ATOM     27  H   UNL     1     -26.856  90.534  -9.457  1.00  0.00     0.211 HD
ENDBRANCH  21  26
BRANCH  23  28
ATOM     28  O   UNL     1     -23.401  89.528  -8.853  1.00  0.00    -0.387 OA
ATOM     29  H   UNL     1     -23.184  88.897  -8.119  1.00  0.00     0.211 HD
ENDBRANCH  23  28
BRANCH  24  30
ATOM     30  C   UNL     1     -25.625  86.265 -11.317  1.00  0.00     0.191 C 
BRANCH  30  31
ATOM     31  O   UNL     1     -24.857  85.113 -11.118  1.00  0.00    -0.394 OA
ATOM     32  H   UNL     1     -24.468  85.192 -10.208  1.00  0.00     0.210 HD
ENDBRANCH  30  31
ENDBRANCH  24  30
BRANCH  25  33
ATOM     33  O   UNL     1     -23.128  86.906 -10.024  1.00  0.00    -0.388 OA
ATOM     34  H   UNL     1     -22.380  87.286  -9.492  1.00  0.00     0.211 HD
ENDBRANCH  25  33
ENDBRANCH  11  20
BRANCH  10  35
ATOM     35  O   UNL     1     -29.081  89.548 -11.029  1.00  0.00    -0.507 OA
ATOM     36  H   UNL     1     -28.575  89.046 -10.308  1.00  0.00     0.293 HD
ENDBRANCH  10  35
TORSDOF 9
ENDMDL
MODEL 2
REMARK VINA RESULT:    -8.073      7.490      9.847
REMARK INTER + INTRA:         -11.497
REMARK INTER:                 -10.347
REMARK INTRA:                  -1.150
REMARK UNBOUND:                -0.593
REMARK SMILES O=c1c(-c2ccc(O)cc2)coc2c([C@H]3O[C@H](CO)[C@H](O)[C@@H](O)[C@@H]3O)c(O)ccc12
REMARK SMILES IDX 3 1 11 2 12 3 13 4 30 5 2 6 1 7 29 8 28 9 26 10 14 11 4 12
REMARK SMILES IDX 5 13 6 14 7 15 10 16 9 17 8 18 15 20 24 21 16 22 22 23 17 24
REMARK SMILES IDX 20 25 25 26 23 28 18 30 19 31 21 33 27 35
REMARK H PARENT 8 19 25 27 23 29 19 32 21 34 27 36
REMARK Flexibility Score: inf
ROOT
ATOM      1  C   UNL     1     -26.895  86.816 -15.464  1.00  0.00     0.065 A 
ATOM      2  C   UNL     1     -26.059  86.160 -16.378  1.00  0.00     0.208 A 
ATOM      3  O   UNL     1     -26.366  86.110 -17.668  1.00  0.00    -0.463 OA
ATOM      4  C   UNL     1     -27.461  86.667 -18.179  1.00  0.00     0.147 A 
ATOM      5  C   UNL     1     -28.357  87.358 -17.330  1.00  0.00     0.066 A 
ATOM      6  C   UNL     1     -28.060  87.433 -15.957  1.00  0.00     0.200 A 
ATOM      7  O   UNL     1     -28.822  88.067 -15.174  1.00  0.00    -0.288 OA
ATOM      8  C   UNL     1     -29.503  87.959 -17.872  1.00  0.00     0.020 A 
ATOM      9  C   UNL     1     -29.756  87.882 -19.239  1.00  0.00     0.047 A 
ATOM     10  C   UNL     1     -28.877  87.201 -20.090  1.00  0.00     0.125 A 
ATOM     11  C   UNL     1     -27.725  86.569 -19.566  1.00  0.00     0.069 A 
ENDROOT
BRANCH   1  12
ATOM     12  C   UNL     1     -26.535  86.852 -14.025  1.00  0.00    -0.011 A 
ATOM     13  C   UNL     1     -25.762  87.909 -13.513  1.00  0.00     0.013 A 
ATOM     14  C   UNL     1     -25.415  87.941 -12.159  1.00  0.00     0.047 A 
ATOM     15  C   UNL     1     -25.827  86.917 -11.302  1.00  0.00     0.115 A 
ATOM     16  C   UNL     1     -26.942  85.822 -13.158  1.00  0.00     0.013 A 
ATOM     17  C   UNL     1     -26.592  85.857 -11.805  1.00  0.00     0.047 A 
BRANCH  15  18
ATOM     18  O   UNL     1     -25.474  86.961  -9.956  1.00  0.00    -0.508 OA
ATOM     19  H   UNL     1     -26.089  87.364  -9.259  1.00  0.00     0.293 HD
ENDBRANCH  15  18
ENDBRANCH   1  12
BRANCH  11  20
ATOM     20  C   UNL     1     -26.752  85.847 -20.489  1.00  0.00     0.188 C 
ATOM     21  C   UNL     1     -25.766  86.861 -21.115  1.00  0.00     0.179 C 
ATOM     22  O   UNL     1     -27.488  85.157 -21.487  1.00  0.00    -0.362 OA
ATOM     23  C   UNL     1     -24.792  86.132 -22.057  1.00  0.00     0.177 C 
ATOM     24  C   UNL     1     -26.666  84.411 -22.377  1.00  0.00     0.176 C 
ATOM     25  C   UNL     1     -25.575  85.276 -23.068  1.00  0.00     0.177 C 
BRANCH  21  26
ATOM     26  O   UNL     1     -25.058  87.565 -20.123  1.00  0.00    -0.387 OA
ATOM     27  H   UNL     1     -24.089  87.449 -20.304  1.00  0.00     0.211 HD
ENDBRANCH  21  26
BRANCH  23  28
ATOM     28  O   UNL     1     -23.955  87.048 -22.719  1.00  0.00    -0.387 OA
ATOM     29  H   UNL     1     -23.770  86.692 -23.627  1.00  0.00     0.211 HD
ENDBRANCH  23  28
BRANCH  24  30
ATOM     30  C   UNL     1     -26.184  83.075 -21.766  1.00  0.00     0.191 C 
BRANCH  30  31
ATOM     31  O   UNL     1     -25.690  82.198 -22.738  1.00  0.00    -0.394 OA
ATOM     32  H   UNL     1     -25.878  82.621 -23.615  1.00  0.00     0.210 HD
ENDBRANCH  30  31
ENDBRANCH  24  30
BRANCH  25  33
ATOM     33  O   UNL     1     -24.681  84.471 -23.793  1.00  0.00    -0.388 OA
ATOM     34  H   UNL     1     -24.769  83.550 -23.433  1.00  0.00     0.211 HD
ENDBRANCH  25  33
ENDBRANCH  11  20
BRANCH  10  35
ATOM     35  O   UNL     1     -29.147  87.157 -21.458  1.00  0.00    -0.507 OA
ATOM     36  H   UNL     1     -29.727  86.432 -21.864  1.00  0.00     0.293 HD
ENDBRANCH  10  35
TORSDOF 9
ENDMDL
MODEL 3
REMARK VINA RESULT:    -8.005      1.318      2.405
REMARK INTER + INTRA:         -11.405
REMARK INTER:                 -10.417
REMARK INTRA:                  -0.988
REMARK UNBOUND:                -0.593
REMARK SMILES O=c1c(-c2ccc(O)cc2)coc2c([C@H]3O[C@H](CO)[C@H](O)[C@@H](O)[C@@H]3O)c(O)ccc12
REMARK SMILES IDX 3 1 11 2 12 3 13 4 30 5 2 6 1 7 29 8 28 9 26 10 14 11 4 12
REMARK SMILES IDX 5 13 6 14 7 15 10 16 9 17 8 18 15 20 24 21 16 22 22 23 17 24
REMARK SMILES IDX 20 25 25 26 23 28 18 30 19 31 21 33 27 35
REMARK H PARENT 8 19 25 27 23 29 19 32 21 34 27 36
REMARK Flexibility Score: inf
ROOT
ATOM      1  C   UNL     1     -24.357  93.560 -14.799  1.00  0.00     0.065 A 
ATOM      2  C   UNL     1     -23.858  92.267 -14.594  1.00  0.00     0.208 A 
ATOM      3  O   UNL     1     -24.464  91.425 -13.766  1.00  0.00    -0.463 OA
ATOM      4  C   UNL     1     -25.564  91.737 -13.085  1.00  0.00     0.147 A 
ATOM      5  C   UNL     1     -26.142  93.019 -13.239  1.00  0.00     0.066 A 
ATOM      6  C   UNL     1     -25.527  93.935 -14.113  1.00  0.00     0.200 A 
ATOM      7  O   UNL     1     -26.032  95.078 -14.295  1.00  0.00    -0.288 OA
ATOM      8  C   UNL     1     -27.311  93.342 -12.534  1.00  0.00     0.020 A 
ATOM      9  C   UNL     1     -27.905  92.405 -11.693  1.00  0.00     0.047 A 
ATOM     10  C   UNL     1     -27.343  91.132 -11.533  1.00  0.00     0.125 A 
ATOM     11  C   UNL     1     -26.153  90.789 -12.216  1.00  0.00     0.069 A 
ENDROOT
BRANCH   1  12
ATOM     12  C   UNL     1     -23.658  94.486 -15.724  1.00  0.00    -0.011 A 
ATOM     13  C   UNL     1     -24.074  94.600 -17.063  1.00  0.00     0.013 A 
ATOM     14  C   UNL     1     -23.411  95.465 -17.939  1.00  0.00     0.047 A 
ATOM     15  C   UNL     1     -22.324  96.221 -17.493  1.00  0.00     0.115 A 
ATOM     16  C   UNL     1     -22.559  95.245 -15.284  1.00  0.00     0.013 A 
ATOM     17  C   UNL     1     -21.899  96.109 -16.163  1.00  0.00     0.047 A 
BRANCH  15  18
ATOM     18  O   UNL     1     -21.673  97.079 -18.376  1.00  0.00    -0.508 OA
ATOM     19  H   UNL     1     -21.301  96.749 -19.258  1.00  0.00     0.293 HD
ENDBRANCH  15  18
ENDBRANCH   1  12
BRANCH  11  20
ATOM     20  C   UNL     1     -25.549  89.398 -12.065  1.00  0.00     0.188 C 
ATOM     21  C   UNL     1     -26.265  88.405 -13.010  1.00  0.00     0.179 C 
ATOM     22  O   UNL     1     -25.656  88.993 -10.709  1.00  0.00    -0.362 OA
ATOM     23  C   UNL     1     -25.663  86.999 -12.847  1.00  0.00     0.177 C 
ATOM     24  C   UNL     1     -25.077  87.718 -10.456  1.00  0.00     0.176 C 
ATOM     25  C   UNL     1     -25.655  86.595 -11.362  1.00  0.00     0.177 C 
BRANCH  21  26
ATOM     26  O   UNL     1     -26.184  88.825 -14.350  1.00  0.00    -0.387 OA
ATOM     27  H   UNL     1     -26.594  89.727 -14.410  1.00  0.00     0.211 HD
ENDBRANCH  21  26
BRANCH  23  28
ATOM     28  O   UNL     1     -26.370  86.058 -13.617  1.00  0.00    -0.387 OA
ATOM     29  H   UNL     1     -25.727  85.626 -14.238  1.00  0.00     0.211 HD
ENDBRANCH  23  28
BRANCH  24  30
ATOM     30  C   UNL     1     -23.535  87.774 -10.349  1.00  0.00     0.191 C 
BRANCH  30  31
ATOM     31  O   UNL     1     -23.098  88.864  -9.588  1.00  0.00    -0.394 OA
ATOM     32  H   UNL     1     -22.454  89.360 -10.156  1.00  0.00     0.210 HD
ENDBRANCH  30  31
ENDBRANCH  24  30
BRANCH  25  33
ATOM     33  O   UNL     1     -24.933  85.401 -11.205  1.00  0.00    -0.388 OA
ATOM     34  H   UNL     1     -24.031  85.560 -11.586  1.00  0.00     0.211 HD
ENDBRANCH  25  33
ENDBRANCH  11  20
BRANCH  10  35
ATOM     35  O   UNL     1     -27.970  90.207 -10.698  1.00  0.00    -0.507 OA
ATOM     36  H   UNL     1     -28.901  90.366 -10.329  1.00  0.00     0.293 HD
ENDBRANCH  10  35
TORSDOF 9
ENDMDL
MODEL 4
REMARK VINA RESULT:    -7.616      6.095      9.062
REMARK INTER + INTRA:         -10.880
REMARK INTER:                 -10.499
REMARK INTRA:                  -0.381
REMARK UNBOUND:                -0.593
REMARK SMILES O=c1c(-c2ccc(O)cc2)coc2c([C@H]3O[C@H](CO)[C@H](O)[C@@H](O)[C@@H]3O)c(O)ccc12
REMARK SMILES IDX 3 1 11 2 12 3 13 4 30 5 2 6 1 7 29 8 28 9 26 10 14 11 4 12
REMARK SMILES IDX 5 13 6 14 7 15 10 16 9 17 8 18 15 20 24 21 16 22 22 23 17 24
REMARK SMILES IDX 20 25 25 26 23 28 18 30 19 31 21 33 27 35
REMARK H PARENT 8 19 25 27 23 29 19 32 21 34 27 36
REMARK Flexibility Score: inf
ROOT
ATOM      1  C   UNL     1     -25.921  85.928 -11.960  1.00  0.00     0.065 A 
ATOM      2  C   UNL     1     -25.182  85.196 -12.900  1.00  0.00     0.208 A 
ATOM      3  O   UNL     1     -25.778  84.333 -13.713  1.00  0.00    -0.463 OA
ATOM      4  C   UNL     1     -27.089  84.104 -13.698  1.00  0.00     0.147 A 
ATOM      5  C   UNL     1     -27.912  84.806 -12.787  1.00  0.00     0.066 A 
ATOM      6  C   UNL     1     -27.314  85.732 -11.914  1.00  0.00     0.200 A 
ATOM      7  O   UNL     1     -28.022  86.397 -11.107  1.00  0.00    -0.288 OA
ATOM      8  C   UNL     1     -29.297  84.576 -12.784  1.00  0.00     0.020 A 
ATOM      9  C   UNL     1     -29.859  83.667 -13.676  1.00  0.00     0.047 A 
ATOM     10  C   UNL     1     -29.055  82.966 -14.583  1.00  0.00     0.125 A 
ATOM     11  C   UNL     1     -27.655  83.165 -14.593  1.00  0.00     0.069 A 
ENDROOT
BRANCH   1  12
ATOM     12  C   UNL     1     -25.231  86.882 -11.056  1.00  0.00    -0.011 A 
ATOM     13  C   UNL     1     -23.880  87.210 -11.268  1.00  0.00     0.013 A 
ATOM     14  C   UNL     1     -23.225  88.101 -10.414  1.00  0.00     0.047 A 
ATOM     15  C   UNL     1     -23.906  88.671  -9.334  1.00  0.00     0.115 A 
ATOM     16  C   UNL     1     -25.908  87.454  -9.964  1.00  0.00     0.013 A 
ATOM     17  C   UNL     1     -25.250  88.344  -9.111  1.00  0.00     0.047 A 
BRANCH  15  18
ATOM     18  O   UNL     1     -23.241  89.557  -8.491  1.00  0.00    -0.508 OA
ATOM     19  H   UNL     1     -23.499  90.535  -8.441  1.00  0.00     0.293 HD
ENDBRANCH  15  18
ENDBRANCH   1  12
BRANCH  11  20
ATOM     20  C   UNL     1     -26.776  82.424 -15.593  1.00  0.00     0.188 C 
ATOM     21  C   UNL     1     -26.781  83.163 -16.951  1.00  0.00     0.179 C 
ATOM     22  O   UNL     1     -27.250  81.092 -15.726  1.00  0.00    -0.362 OA
ATOM     23  C   UNL     1     -25.904  82.407 -17.963  1.00  0.00     0.177 C 
ATOM     24  C   UNL     1     -26.464  80.301 -16.610  1.00  0.00     0.176 C 
ATOM     25  C   UNL     1     -26.324  80.927 -18.026  1.00  0.00     0.177 C 
BRANCH  21  26
ATOM     26  O   UNL     1     -26.339  84.492 -16.812  1.00  0.00    -0.387 OA
ATOM     27  H   UNL     1     -25.491  84.583 -17.320  1.00  0.00     0.211 HD
ENDBRANCH  21  26
BRANCH  23  28
ATOM     28  O   UNL     1     -25.979  83.002 -19.236  1.00  0.00    -0.387 OA
ATOM     29  H   UNL     1     -25.055  83.206 -19.533  1.00  0.00     0.211 HD
ENDBRANCH  23  28
BRANCH  24  30
ATOM     30  C   UNL     1     -25.153  79.802 -15.958  1.00  0.00     0.191 C 
BRANCH  30  31
ATOM     31  O   UNL     1     -24.617  78.698 -16.631  1.00  0.00    -0.394 OA
ATOM     32  H   UNL     1     -24.261  78.092 -15.931  1.00  0.00     0.210 HD
ENDBRANCH  30  31
ENDBRANCH  24  30
BRANCH  25  33
ATOM     33  O   UNL     1     -25.400  80.210 -18.803  1.00  0.00    -0.388 OA
ATOM     34  H   UNL     1     -25.294  80.709 -19.654  1.00  0.00     0.211 HD
ENDBRANCH  25  33
ENDBRANCH  11  20
BRANCH  10  35
ATOM     35  O   UNL     1     -29.649  82.076 -15.478  1.00  0.00    -0.507 OA
ATOM     36  H   UNL     1     -29.828  82.329 -16.443  1.00  0.00     0.293 HD
ENDBRANCH  10  35
TORSDOF 9
ENDMDL
MODEL 5
REMARK VINA RESULT:    -7.561      5.398      9.201
REMARK INTER + INTRA:         -10.805
REMARK INTER:                  -9.943
REMARK INTRA:                  -0.862
REMARK UNBOUND:                -0.593
REMARK SMILES O=c1c(-c2ccc(O)cc2)coc2c([C@H]3O[C@H](CO)[C@H](O)[C@@H](O)[C@@H]3O)c(O)ccc12
REMARK SMILES IDX 3 1 11 2 12 3 13 4 30 5 2 6 1 7 29 8 28 9 26 10 14 11 4 12
REMARK SMILES IDX 5 13 6 14 7 15 10 16 9 17 8 18 15 20 24 21 16 22 22 23 17 24
REMARK SMILES IDX 20 25 25 26 23 28 18 30 19 31 21 33 27 35
REMARK H PARENT 8 19 25 27 23 29 19 32 21 34 27 36
REMARK Flexibility Score: inf
ROOT
ATOM      1  C   UNL     1     -26.750  85.843 -12.369  1.00  0.00     0.065 A 
ATOM      2  C   UNL     1     -25.692  85.308 -13.117  1.00  0.00     0.208 A 
ATOM      3  O   UNL     1     -25.829  84.159 -13.766  1.00  0.00    -0.463 OA
ATOM      4  C   UNL     1     -26.952  83.446 -13.756  1.00  0.00     0.147 A 
ATOM      5  C   UNL     1     -28.074  83.916 -13.034  1.00  0.00     0.066 A 
ATOM      6  C   UNL     1     -27.965  85.133 -12.338  1.00  0.00     0.200 A 
ATOM      7  O   UNL     1     -28.955  85.596 -11.706  1.00  0.00    -0.288 OA
ATOM      8  C   UNL     1     -29.264  83.171 -13.038  1.00  0.00     0.020 A 
ATOM      9  C   UNL     1     -29.343  81.980 -13.754  1.00  0.00     0.047 A 
ATOM     10  C   UNL     1     -28.240  81.504 -14.474  1.00  0.00     0.125 A 
ATOM     11  C   UNL     1     -27.023  82.225 -14.469  1.00  0.00     0.069 A 
ENDROOT
BRANCH   1  12
ATOM     12  C   UNL     1     -26.571  87.127 -11.645  1.00  0.00    -0.011 A 
ATOM     13  C   UNL     1     -26.942  88.340 -12.251  1.00  0.00     0.013 A 
ATOM     14  C   UNL     1     -26.767  89.552 -11.574  1.00  0.00     0.047 A 
ATOM     15  C   UNL     1     -26.215  89.568 -10.291  1.00  0.00     0.115 A 
ATOM     16  C   UNL     1     -26.010  87.151 -10.356  1.00  0.00     0.013 A 
ATOM     17  C   UNL     1     -25.836  88.364  -9.683  1.00  0.00     0.047 A 
BRANCH  15  18
ATOM     18  O   UNL     1     -26.046  90.781  -9.629  1.00  0.00    -0.508 OA
ATOM     19  H   UNL     1     -26.730  91.123  -8.966  1.00  0.00     0.293 HD
ENDBRANCH  15  18
ENDBRANCH   1  12
BRANCH  11  20
ATOM     20  C   UNL     1     -25.826  81.727 -15.269  1.00  0.00     0.188 C 
ATOM     21  C   UNL     1     -26.098  81.886 -16.783  1.00  0.00     0.179 C 
ATOM     22  O   UNL     1     -25.574  80.372 -14.927  1.00  0.00    -0.362 OA
ATOM     23  C   UNL     1     -24.894  81.370 -17.589  1.00  0.00     0.177 C 
ATOM     24  C   UNL     1     -24.442  79.825 -15.592  1.00  0.00     0.176 C 
ATOM     25  C   UNL     1     -24.528  79.944 -17.139  1.00  0.00     0.177 C 
BRANCH  21  26
ATOM     26  O   UNL     1     -26.377  83.224 -17.115  1.00  0.00    -0.387 OA
ATOM     27  H   UNL     1     -25.795  83.802 -16.554  1.00  0.00     0.211 HD
ENDBRANCH  21  26
BRANCH  23  28
ATOM     28  O   UNL     1     -25.162  81.405 -18.969  1.00  0.00    -0.387 OA
ATOM     29  H   UNL     1     -24.785  82.248 -19.333  1.00  0.00     0.211 HD
ENDBRANCH  23  28
BRANCH  24  30
ATOM     30  C   UNL     1     -23.104  80.267 -14.953  1.00  0.00     0.191 C 
BRANCH  30  31
ATOM     31  O   UNL     1     -22.600  81.433 -15.539  1.00  0.00    -0.394 OA
ATOM     32  H   UNL     1     -23.065  81.530 -16.410  1.00  0.00     0.210 HD
ENDBRANCH  30  31
ENDBRANCH  24  30
BRANCH  25  33
ATOM     33  O   UNL     1     -23.318  79.559 -17.741  1.00  0.00    -0.388 OA
ATOM     34  H   UNL     1     -22.613  80.151 -17.370  1.00  0.00     0.211 HD
ENDBRANCH  25  33
ENDBRANCH  11  20
BRANCH  10  35
ATOM     35  O   UNL     1     -28.355  80.317 -15.197  1.00  0.00    -0.507 OA
ATOM     36  H   UNL     1     -27.971  79.444 -14.855  1.00  0.00     0.293 HD
ENDBRANCH  10  35
TORSDOF 9
ENDMDL
MODEL 6
REMARK VINA RESULT:    -7.456      2.646      3.627
REMARK INTER + INTRA:         -10.665
REMARK INTER:                  -9.710
REMARK INTRA:                  -0.955
REMARK UNBOUND:                -0.593
REMARK SMILES O=c1c(-c2ccc(O)cc2)coc2c([C@H]3O[C@H](CO)[C@H](O)[C@@H](O)[C@@H]3O)c(O)ccc12
REMARK SMILES IDX 3 1 11 2 12 3 13 4 30 5 2 6 1 7 29 8 28 9 26 10 14 11 4 12
REMARK SMILES IDX 5 13 6 14 7 15 10 16 9 17 8 18 15 20 24 21 16 22 22 23 17 24
REMARK SMILES IDX 20 25 25 26 23 28 18 30 19 31 21 33 27 35
REMARK H PARENT 8 19 25 27 23 29 19 32 21 34 27 36
REMARK Flexibility Score: inf
ROOT
ATOM      1  C   UNL     1     -28.247  91.882 -15.498  1.00  0.00     0.065 A 
ATOM      2  C   UNL     1     -27.029  91.443 -14.961  1.00  0.00     0.208 A 
ATOM      3  O   UNL     1     -26.998  90.666 -13.886  1.00  0.00    -0.463 OA
ATOM      4  C   UNL     1     -28.094  90.254 -13.253  1.00  0.00     0.147 A 
ATOM      5  C   UNL     1     -29.367  90.642 -13.733  1.00  0.00     0.066 A 
ATOM      6  C   UNL     1     -29.436  91.462 -14.874  1.00  0.00     0.200 A 
ATOM      7  O   UNL     1     -30.556  91.804 -15.346  1.00  0.00    -0.288 OA
ATOM      8  C   UNL     1     -30.523  90.194 -13.075  1.00  0.00     0.020 A 
ATOM      9  C   UNL     1     -30.419  89.366 -11.960  1.00  0.00     0.047 A 
ATOM     10  C   UNL     1     -29.165  88.974 -11.475  1.00  0.00     0.125 A 
ATOM     11  C   UNL     1     -27.984  89.430 -12.108  1.00  0.00     0.069 A 
ENDROOT
BRANCH   1  12
ATOM     12  C   UNL     1     -28.255  92.757 -16.697  1.00  0.00    -0.011 A 
ATOM     13  C   UNL     1     -28.829  92.307 -17.900  1.00  0.00     0.013 A 
ATOM     14  C   UNL     1     -28.831  93.126 -19.033  1.00  0.00     0.047 A 
ATOM     15  C   UNL     1     -28.255  94.398 -18.983  1.00  0.00     0.115 A 
ATOM     16  C   UNL     1     -27.672  94.036 -16.657  1.00  0.00     0.013 A 
ATOM     17  C   UNL     1     -27.675  94.851 -17.792  1.00  0.00     0.047 A 
BRANCH  15  18
ATOM     18  O   UNL     1     -28.264  95.203 -20.119  1.00  0.00    -0.508 OA
ATOM     19  H   UNL     1     -29.128  95.554 -20.514  1.00  0.00     0.293 HD
ENDBRANCH  15  18
ENDBRANCH   1  12
BRANCH  11  20
ATOM     20  C   UNL     1     -26.617  88.989 -11.602  1.00  0.00     0.188 C 
ATOM     21  C   UNL     1     -26.233  87.629 -12.230  1.00  0.00     0.179 C 
ATOM     22  O   UNL     1     -26.651  88.914 -10.185  1.00  0.00    -0.362 OA
ATOM     23  C   UNL     1     -24.858  87.179 -11.707  1.00  0.00     0.177 C 
ATOM     24  C   UNL     1     -25.402  88.551  -9.609  1.00  0.00     0.176 C 
ATOM     25  C   UNL     1     -24.839  87.214 -10.169  1.00  0.00     0.177 C 
BRANCH  21  26
ATOM     26  O   UNL     1     -26.228  87.698 -13.635  1.00  0.00    -0.387 OA
ATOM     27  H   UNL     1     -27.012  87.185 -13.965  1.00  0.00     0.211 HD
ENDBRANCH  21  26
BRANCH  23  28
ATOM     28  O   UNL     1     -24.537  85.895 -12.182  1.00  0.00    -0.387 OA
ATOM     29  H   UNL     1     -25.233  85.627 -12.836  1.00  0.00     0.211 HD
ENDBRANCH  23  28
BRANCH  24  30
ATOM     30  C   UNL     1     -24.405  89.733  -9.553  1.00  0.00     0.191 C 
BRANCH  30  31
ATOM     31  O   UNL     1     -23.451  89.570  -8.542  1.00  0.00    -0.394 OA
ATOM     32  H   UNL     1     -23.174  88.618  -8.573  1.00  0.00     0.210 HD
ENDBRANCH  30  31
ENDBRANCH  24  30
BRANCH  25  33
ATOM     33  O   UNL     1     -23.531  86.989  -9.710  1.00  0.00    -0.388 OA
ATOM     34  H   UNL     1     -23.586  86.895  -8.724  1.00  0.00     0.211 HD
ENDBRANCH  25  33
ENDBRANCH  11  20
BRANCH  10  35
ATOM     35  O   UNL     1     -29.092  88.130 -10.368  1.00  0.00    -0.507 OA
ATOM     36  H   UNL     1     -29.040  88.492  -9.423  1.00  0.00     0.293 HD
ENDBRANCH  10  35
TORSDOF 9
ENDMDL
MODEL 7
REMARK VINA RESULT:    -7.356      4.692      8.261
REMARK INTER + INTRA:         -10.529
REMARK INTER:                 -10.057
REMARK INTRA:                  -0.473
REMARK UNBOUND:                -0.593
REMARK SMILES O=c1c(-c2ccc(O)cc2)coc2c([C@H]3O[C@H](CO)[C@H](O)[C@@H](O)[C@@H]3O)c(O)ccc12
REMARK SMILES IDX 3 1 11 2 12 3 13 4 30 5 2 6 1 7 29 8 28 9 26 10 14 11 4 12
REMARK SMILES IDX 5 13 6 14 7 15 10 16 9 17 8 18 15 20 24 21 16 22 22 23 17 24
REMARK SMILES IDX 20 25 25 26 23 28 18 30 19 31 21 33 27 35
REMARK H PARENT 8 19 25 27 23 29 19 32 21 34 27 36
REMARK Flexibility Score: inf
ROOT
ATOM      1  C   UNL     1     -27.153  83.752 -14.248  1.00  0.00     0.065 A 
ATOM      2  C   UNL     1     -26.154  84.529 -13.645  1.00  0.00     0.208 A 
ATOM      3  O   UNL     1     -26.466  85.498 -12.792  1.00  0.00    -0.463 OA
ATOM      4  C   UNL     1     -27.718  85.796 -12.454  1.00  0.00     0.147 A 
ATOM      5  C   UNL     1     -28.788  85.055 -13.008  1.00  0.00     0.066 A 
ATOM      6  C   UNL     1     -28.493  84.018 -13.912  1.00  0.00     0.200 A 
ATOM      7  O   UNL     1     -29.422  83.319 -14.403  1.00  0.00    -0.288 OA
ATOM      8  C   UNL     1     -30.107  85.359 -12.637  1.00  0.00     0.020 A 
ATOM      9  C   UNL     1     -30.362  86.378 -11.724  1.00  0.00     0.047 A 
ATOM     10  C   UNL     1     -29.311  87.118 -11.167  1.00  0.00     0.125 A 
ATOM     11  C   UNL     1     -27.974  86.846 -11.540  1.00  0.00     0.069 A 
ENDROOT
BRANCH   1  12
ATOM     12  C   UNL     1     -26.780  82.680 -15.204  1.00  0.00    -0.011 A 
ATOM     13  C   UNL     1     -26.803  82.925 -16.589  1.00  0.00     0.013 A 
ATOM     14  C   UNL     1     -26.461  81.914 -17.492  1.00  0.00     0.047 A 
ATOM     15  C   UNL     1     -26.099  80.647 -17.027  1.00  0.00     0.115 A 
ATOM     16  C   UNL     1     -26.421  81.401 -14.743  1.00  0.00     0.013 A 
ATOM     17  C   UNL     1     -26.080  80.392 -15.649  1.00  0.00     0.047 A 
BRANCH  15  18
ATOM     18  O   UNL     1     -25.760  79.650 -17.938  1.00  0.00    -0.508 OA
ATOM     19  H   UNL     1     -26.350  79.435 -18.732  1.00  0.00     0.293 HD
ENDBRANCH  15  18
ENDBRANCH   1  12
BRANCH  11  20
ATOM     20  C   UNL     1     -26.824  87.630 -10.922  1.00  0.00     0.188 C 
ATOM     21  C   UNL     1     -26.119  88.478 -12.006  1.00  0.00     0.179 C 
ATOM     22  O   UNL     1     -25.924  86.722 -10.307  1.00  0.00    -0.362 OA
ATOM     23  C   UNL     1     -24.950  89.260 -11.383  1.00  0.00     0.177 C 
ATOM     24  C   UNL     1     -24.832  87.364  -9.659  1.00  0.00     0.176 C 
ATOM     25  C   UNL     1     -24.030  88.304 -10.603  1.00  0.00     0.177 C 
BRANCH  21  26
ATOM     26  O   UNL     1     -27.020  89.357 -12.635  1.00  0.00    -0.387 OA
ATOM     27  H   UNL     1     -27.832  88.837 -12.872  1.00  0.00     0.211 HD
ENDBRANCH  21  26
BRANCH  23  28
ATOM     28  O   UNL     1     -24.228  89.954 -12.370  1.00  0.00    -0.387 OA
ATOM     29  H   UNL     1     -24.003  90.851 -12.011  1.00  0.00     0.211 HD
ENDBRANCH  23  28
BRANCH  24  30
ATOM     30  C   UNL     1     -25.219  87.958  -8.284  1.00  0.00     0.191 C 
BRANCH  30  31
ATOM     31  O   UNL     1     -24.934  87.081  -7.232  1.00  0.00    -0.394 OA
ATOM     32  H   UNL     1     -24.038  87.336  -6.893  1.00  0.00     0.210 HD
ENDBRANCH  30  31
ENDBRANCH  24  30
BRANCH  25  33
ATOM     33  O   UNL     1     -23.081  89.048  -9.884  1.00  0.00    -0.388 OA
ATOM     34  H   UNL     1     -23.307  88.946  -8.923  1.00  0.00     0.211 HD
ENDBRANCH  25  33
ENDBRANCH  11  20
BRANCH  10  35
ATOM     35  O   UNL     1     -29.596  88.121 -10.241  1.00  0.00    -0.507 OA
ATOM     36  H   UNL     1     -29.024  88.954 -10.163  1.00  0.00     0.293 HD
ENDBRANCH  10  35
TORSDOF 9
ENDMDL
MODEL 8
REMARK VINA RESULT:    -7.337      6.466      8.957
REMARK INTER + INTRA:         -10.503
REMARK INTER:                  -9.506
REMARK INTRA:                  -0.998
REMARK UNBOUND:                -0.593
REMARK SMILES O=c1c(-c2ccc(O)cc2)coc2c([C@H]3O[C@H](CO)[C@H](O)[C@@H](O)[C@@H]3O)c(O)ccc12
REMARK SMILES IDX 3 1 11 2 12 3 13 4 30 5 2 6 1 7 29 8 28 9 26 10 14 11 4 12
REMARK SMILES IDX 5 13 6 14 7 15 10 16 9 17 8 18 15 20 24 21 16 22 22 23 17 24
REMARK SMILES IDX 20 25 25 26 23 28 18 30 19 31 21 33 27 35
REMARK H PARENT 8 19 25 27 23 29 19 32 21 34 27 36
REMARK Flexibility Score: inf
ROOT
ATOM      1  C   UNL     1     -26.985  87.324 -20.223  1.00  0.00     0.065 A 
ATOM      2  C   UNL     1     -25.968  88.119 -19.678  1.00  0.00     0.208 A 
ATOM      3  O   UNL     1     -26.249  89.269 -19.078  1.00  0.00    -0.463 OA
ATOM      4  C   UNL     1     -27.487  89.741 -18.952  1.00  0.00     0.147 A 
ATOM      5  C   UNL     1     -28.575  88.998 -19.465  1.00  0.00     0.066 A 
ATOM      6  C   UNL     1     -28.313  87.772 -20.103  1.00  0.00     0.200 A 
ATOM      7  O   UNL     1     -29.263  87.069 -20.547  1.00  0.00    -0.288 OA
ATOM      8  C   UNL     1     -29.882  89.488 -19.316  1.00  0.00     0.020 A 
ATOM      9  C   UNL     1     -30.108  90.696 -18.661  1.00  0.00     0.047 A 
ATOM     10  C   UNL     1     -29.039  91.441 -18.147  1.00  0.00     0.125 A 
ATOM     11  C   UNL     1     -27.711  90.979 -18.303  1.00  0.00     0.069 A 
ENDROOT
BRANCH   1  12
ATOM     12  C   UNL     1     -26.645  86.045 -20.896  1.00  0.00    -0.011 A 
ATOM     13  C   UNL     1     -26.385  84.890 -20.136  1.00  0.00     0.013 A 
ATOM     14  C   UNL     1     -26.056  83.687 -20.767  1.00  0.00     0.047 A 
ATOM     15  C   UNL     1     -25.976  83.622 -22.160  1.00  0.00     0.115 A 
ATOM     16  C   UNL     1     -26.556  85.973 -22.297  1.00  0.00     0.013 A 
ATOM     17  C   UNL     1     -26.226  84.768 -22.925  1.00  0.00     0.047 A 
BRANCH  15  18
ATOM     18  O   UNL     1     -25.647  82.416 -22.775  1.00  0.00    -0.508 OA
ATOM     19  H   UNL     1     -24.984  82.375 -23.540  1.00  0.00     0.293 HD
ENDBRANCH  15  18
ENDBRANCH   1  12
BRANCH  11  20
ATOM     20  C   UNL     1     -26.544  91.772 -17.727  1.00  0.00     0.188 C 
ATOM     21  C   UNL     1     -26.654  91.830 -16.185  1.00  0.00     0.179 C 
ATOM     22  O   UNL     1     -26.544  93.072 -18.296  1.00  0.00    -0.362 OA
ATOM     23  C   UNL     1     -25.483  92.641 -15.606  1.00  0.00     0.177 C 
ATOM     24  C   UNL     1     -25.460  93.880 -17.852  1.00  0.00     0.176 C 
ATOM     25  C   UNL     1     -25.391  94.010 -16.304  1.00  0.00     0.177 C 
BRANCH  21  26
ATOM     26  O   UNL     1     -26.684  90.539 -15.626  1.00  0.00    -0.387 OA
ATOM     27  H   UNL     1     -25.921  90.028 -16.003  1.00  0.00     0.211 HD
ENDBRANCH  21  26
BRANCH  23  28
ATOM     28  O   UNL     1     -25.621  92.798 -14.215  1.00  0.00    -0.387 OA
ATOM     29  H   UNL     1     -26.114  92.011 -13.866  1.00  0.00     0.211 HD
ENDBRANCH  23  28
BRANCH  24  30
ATOM     30  C   UNL     1     -24.130  93.536 -18.562  1.00  0.00     0.191 C 
BRANCH  30  31
ATOM     31  O   UNL     1     -23.430  94.683 -18.955  1.00  0.00    -0.394 OA
ATOM     32  H   UNL     1     -24.099  95.414 -18.999  1.00  0.00     0.210 HD
ENDBRANCH  30  31
ENDBRANCH  24  30
BRANCH  25  33
ATOM     33  O   UNL     1     -24.212  94.661 -15.907  1.00  0.00    -0.388 OA
ATOM     34  H   UNL     1     -23.804  95.040 -16.729  1.00  0.00     0.211 HD
ENDBRANCH  25  33
ENDBRANCH  11  20
BRANCH  10  35
ATOM     35  O   UNL     1     -29.297  92.638 -17.480  1.00  0.00    -0.507 OA
ATOM     36  H   UNL     1     -29.986  93.300 -17.818  1.00  0.00     0.293 HD
ENDBRANCH  10  35
TORSDOF 9
ENDMDL
MODEL 9
REMARK VINA RESULT:    -7.221      5.242      6.658
REMARK INTER + INTRA:         -10.347
REMARK INTER:                  -9.426
REMARK INTRA:                  -0.922
REMARK UNBOUND:                -0.593
REMARK SMILES O=c1c(-c2ccc(O)cc2)coc2c([C@H]3O[C@H](CO)[C@H](O)[C@@H](O)[C@@H]3O)c(O)ccc12
REMARK SMILES IDX 3 1 11 2 12 3 13 4 30 5 2 6 1 7 29 8 28 9 26 10 14 11 4 12
REMARK SMILES IDX 5 13 6 14 7 15 10 16 9 17 8 18 15 20 24 21 16 22 22 23 17 24
REMARK SMILES IDX 20 25 25 26 23 28 18 30 19 31 21 33 27 35
REMARK H PARENT 8 19 25 27 23 29 19 32 21 34 27 36
REMARK Flexibility Score: inf
ROOT
ATOM      1  C   UNL     1     -27.458  86.384 -17.142  1.00  0.00     0.065 A 
ATOM      2  C   UNL     1     -26.371  86.978 -16.488  1.00  0.00     0.208 A 
ATOM      3  O   UNL     1     -26.399  87.195 -15.178  1.00  0.00    -0.463 OA
ATOM      4  C   UNL     1     -27.436  86.872 -14.409  1.00  0.00     0.147 A 
ATOM      5  C   UNL     1     -28.573  86.260 -14.986  1.00  0.00     0.066 A 
ATOM      6  C   UNL     1     -28.574  86.011 -16.370  1.00  0.00     0.200 A 
ATOM      7  O   UNL     1     -29.561  85.440 -16.914  1.00  0.00    -0.288 OA
ATOM      8  C   UNL     1     -29.659  85.905 -14.170  1.00  0.00     0.020 A 
ATOM      9  C   UNL     1     -29.615  86.147 -12.800  1.00  0.00     0.047 A 
ATOM     10  C   UNL     1     -28.495  86.752 -12.216  1.00  0.00     0.125 A 
ATOM     11  C   UNL     1     -27.397  87.138 -13.019  1.00  0.00     0.069 A 
ENDROOT
BRANCH   1  12
ATOM     12  C   UNL     1     -27.407  86.158 -18.609  1.00  0.00    -0.011 A 
ATOM     13  C   UNL     1     -26.647  85.098 -19.137  1.00  0.00     0.013 A 
ATOM     14  C   UNL     1     -26.590  84.889 -20.518  1.00  0.00     0.047 A 
ATOM     15  C   UNL     1     -27.282  85.735 -21.388  1.00  0.00     0.115 A 
ATOM     16  C   UNL     1     -28.095  87.009 -19.491  1.00  0.00     0.013 A 
ATOM     17  C   UNL     1     -28.035  86.797 -20.871  1.00  0.00     0.047 A 
BRANCH  15  18
ATOM     18  O   UNL     1     -27.216  85.515 -22.761  1.00  0.00    -0.508 OA
ATOM     19  H   UNL     1     -27.624  84.691 -23.186  1.00  0.00     0.293 HD
ENDBRANCH  15  18
ENDBRANCH   1  12
BRANCH  11  20
ATOM     20  C   UNL     1     -26.165  87.775 -12.389  1.00  0.00     0.188 C 
ATOM     21  C   UNL     1     -25.300  86.691 -11.706  1.00  0.00     0.179 C 
ATOM     22  O   UNL     1     -26.581  88.766 -11.462  1.00  0.00    -0.362 OA
ATOM     23  C   UNL     1     -24.063  87.338 -11.058  1.00  0.00     0.177 C 
ATOM     24  C   UNL     1     -25.497  89.454 -10.848  1.00  0.00     0.176 C 
ATOM     25  C   UNL     1     -24.490  88.500 -10.145  1.00  0.00     0.177 C 
BRANCH  21  26
ATOM     26  O   UNL     1     -24.913  85.694 -12.620  1.00  0.00    -0.387 OA
ATOM     27  H   UNL     1     -25.115  84.813 -12.209  1.00  0.00     0.211 HD
ENDBRANCH  21  26
BRANCH  23  28
ATOM     28  O   UNL     1     -23.318  86.385 -10.340  1.00  0.00    -0.387 OA
ATOM     29  H   UNL     1     -22.397  86.739 -10.226  1.00  0.00     0.211 HD
ENDBRANCH  23  28
BRANCH  24  30
ATOM     30  C   UNL     1     -24.877  90.531 -11.768  1.00  0.00     0.191 C 
BRANCH  30  31
ATOM     31  O   UNL     1     -23.731  90.068 -12.425  1.00  0.00    -0.394 OA
ATOM     32  H   UNL     1     -23.994  89.919 -13.370  1.00  0.00     0.210 HD
ENDBRANCH  30  31
ENDBRANCH  24  30
BRANCH  25  33
ATOM     33  O   UNL     1     -23.352  89.200  -9.713  1.00  0.00    -0.388 OA
ATOM     34  H   UNL     1     -22.620  88.973 -10.344  1.00  0.00     0.211 HD
ENDBRANCH  25  33
ENDBRANCH  11  20
BRANCH  10  35
ATOM     35  O   UNL     1     -28.473  86.965 -10.838  1.00  0.00    -0.507 OA
ATOM     36  H   UNL     1     -27.880  87.671 -10.417  1.00  0.00     0.293 HD
ENDBRANCH  10  35
TORSDOF 9
ENDMDL
