MODEL 1
REMARK VINA RESULT:    -3.844      0.000      0.000
REMARK INTER + INTRA:          -8.547
REMARK INTER:                  -6.540
REMARK INTRA:                  -2.007
REMARK UNBOUND:                -2.007
REMARK SMILES CCCCCCCCCCCCCC(=O)[O-]
REMARK SMILES IDX 8 1 9 2 10 3 11 4 12 5 13 6 14 7 15 8 16 9 7 10 6 11 5 12
REMARK SMILES IDX 4 13 3 14 2 15 1 16
REMARK H PARENT
REMARK Flexibility Score: inf
ROOT
ATOM      1  C   UNL     1     -12.025   4.795  19.081  1.00  0.00     0.000 C 
ENDROOT
BRANCH   1   2
ATOM      2  C   UNL     1     -13.065   3.830  18.485  1.00  0.00     0.000 C 
BRANCH   2   3
ATOM      3  C   UNL     1     -12.857   3.588  16.981  1.00  0.00     0.000 C 
BRANCH   3   4
ATOM      4  C   UNL     1     -12.101   2.279  16.693  1.00  0.00     0.000 C 
BRANCH   4   5
ATOM      5  C   UNL     1     -11.003   2.454  15.630  1.00  0.00     0.006 C 
BRANCH   5   6
ATOM      6  C   UNL     1     -10.031   1.268  15.584  1.00  0.00     0.053 C 
BRANCH   6   7
ATOM      7  C   UNL     1     -10.242   0.470  14.337  1.00  0.00     0.041 C 
ATOM      8  O   UNL     1      -9.281  -0.150  13.811  1.00  0.00    -0.550 OA
ATOM      9  O   UNL     1     -11.512   0.369  13.783  1.00  0.00    -0.550 OA
ENDBRANCH   6   7
ENDBRANCH   5   6
ENDBRANCH   4   5
ENDBRANCH   3   4
ENDBRANCH   2   3
ENDBRANCH   1   2
BRANCH   1  10
ATOM     10  C   UNL     1     -11.151   5.463  18.006  1.00  0.00     0.000 C 
BRANCH  10  11
ATOM     11  C   UNL     1      -9.676   5.037  18.097  1.00  0.00    -0.000 C 
BRANCH  11  12
ATOM     12  C   UNL     1      -9.430   3.962  19.171  1.00  0.00    -0.000 C 
BRANCH  12  13
ATOM     13  C   UNL     1      -8.641   2.726  18.692  1.00  0.00    -0.000 C 
BRANCH  13  14
ATOM     14  C   UNL     1      -9.229   1.366  19.118  1.00  0.00    -0.000 C 
BRANCH  14  15
ATOM     15  C   UNL     1     -10.536   1.453  19.926  1.00  0.00    -0.003 C 
ATOM     16  C   UNL     1     -10.444   0.755  21.283  1.00  0.00     0.004 C 
ENDBRANCH  14  15
ENDBRANCH  13  14
ENDBRANCH  12  13
ENDBRANCH  11  12
ENDBRANCH  10  11
ENDBRANCH   1  10
TORSDOF 12
ENDMDL
MODEL 2
REMARK VINA RESULT:    -3.820      1.819      3.107
REMARK INTER + INTRA:          -8.507
REMARK INTER:                  -7.315
REMARK INTRA:                  -1.192
REMARK UNBOUND:                -2.007
REMARK SMILES CCCCCCCCCCCCCC(=O)[O-]
REMARK SMILES IDX 8 1 9 2 10 3 11 4 12 5 13 6 14 7 15 8 16 9 7 10 6 11 5 12
REMARK SMILES IDX 4 13 3 14 2 15 1 16
REMARK H PARENT
REMARK Flexibility Score: inf
ROOT
ATOM      1  C   UNL     1     -11.461   3.829  19.291  1.00  0.00     0.000 C 
ENDROOT
BRANCH   1   2
ATOM      2  C   UNL     1     -12.840   3.663  18.627  1.00  0.00     0.000 C 
BRANCH   2   3
ATOM      3  C   UNL     1     -12.783   3.818  17.098  1.00  0.00     0.000 C 
BRANCH   3   4
ATOM      4  C   UNL     1     -12.366   2.518  16.389  1.00  0.00     0.000 C 
BRANCH   4   5
ATOM      5  C   UNL     1     -11.018   2.650  15.661  1.00  0.00     0.006 C 
BRANCH   5   6
ATOM      6  C   UNL     1     -10.190   1.360  15.710  1.00  0.00     0.053 C 
BRANCH   6   7
ATOM      7  C   UNL     1     -10.322   0.607  14.425  1.00  0.00     0.041 C 
ATOM      8  O   UNL     1     -11.461   0.366  13.946  1.00  0.00    -0.550 OA
ATOM      9  O   UNL     1      -9.186   0.213  13.729  1.00  0.00    -0.550 OA
ENDBRANCH   6   7
ENDBRANCH   5   6
ENDBRANCH   4   5
ENDBRANCH   3   4
ENDBRANCH   2   3
ENDBRANCH   1   2
BRANCH   1  10
ATOM     10  C   UNL     1     -10.866   2.493  19.764  1.00  0.00     0.000 C 
BRANCH  10  11
ATOM     11  C   UNL     1      -9.437   2.266  19.242  1.00  0.00    -0.000 C 
BRANCH  11  12
ATOM     12  C   UNL     1      -8.828   3.527  18.602  1.00  0.00    -0.000 C 
BRANCH  12  13
ATOM     13  C   UNL     1      -7.815   4.285  19.484  1.00  0.00    -0.000 C 
BRANCH  13  14
ATOM     14  C   UNL     1      -6.633   4.923  18.727  1.00  0.00    -0.000 C 
BRANCH  14  15
ATOM     15  C   UNL     1      -5.243   4.571  19.286  1.00  0.00    -0.003 C 
ATOM     16  C   UNL     1      -4.269   4.101  18.206  1.00  0.00     0.004 C 
ENDBRANCH  14  15
ENDBRANCH  13  14
ENDBRANCH  12  13
ENDBRANCH  11  12
ENDBRANCH  10  11
ENDBRANCH   1  10
TORSDOF 12
ENDMDL
MODEL 3
REMARK VINA RESULT:    -3.697      2.867      5.284
REMARK INTER + INTRA:          -8.297
REMARK INTER:                  -6.148
REMARK INTRA:                  -2.149
REMARK UNBOUND:                -2.007
REMARK SMILES CCCCCCCCCCCCCC(=O)[O-]
REMARK SMILES IDX 8 1 9 2 10 3 11 4 12 5 13 6 14 7 15 8 16 9 7 10 6 11 5 12
REMARK SMILES IDX 4 13 3 14 2 15 1 16
REMARK H PARENT
REMARK Flexibility Score: inf
ROOT
ATOM      1  C   UNL     1      -8.871   3.263  17.741  1.00  0.00     0.000 C 
ENDROOT
BRANCH   1   2
ATOM      2  C   UNL     1      -9.183   2.339  18.931  1.00  0.00     0.000 C 
BRANCH   2   3
ATOM      3  C   UNL     1      -9.490   3.117  20.222  1.00  0.00     0.000 C 
BRANCH   3   4
ATOM      4  C   UNL     1     -10.399   2.331  21.182  1.00  0.00     0.000 C 
BRANCH   4   5
ATOM      5  C   UNL     1     -11.150   1.188  20.479  1.00  0.00     0.006 C 
BRANCH   5   6
ATOM      6  C   UNL     1     -10.991  -0.156  21.201  1.00  0.00     0.053 C 
BRANCH   6   7
ATOM      7  C   UNL     1      -9.544  -0.517  21.317  1.00  0.00     0.041 C 
ATOM      8  O   UNL     1      -8.985  -0.540  22.445  1.00  0.00    -0.550 OA
ATOM      9  O   UNL     1      -8.824  -0.878  20.185  1.00  0.00    -0.550 OA
ENDBRANCH   6   7
ENDBRANCH   5   6
ENDBRANCH   4   5
ENDBRANCH   3   4
ENDBRANCH   2   3
ENDBRANCH   1   2
BRANCH   1  10
ATOM     10  C   UNL     1      -9.783   3.002  16.531  1.00  0.00     0.000 C 
BRANCH  10  11
ATOM     11  C   UNL     1     -10.723   1.804  16.749  1.00  0.00    -0.000 C 
BRANCH  11  12
ATOM     12  C   UNL     1     -12.191   2.129  16.416  1.00  0.00    -0.000 C 
BRANCH  12  13
ATOM     13  C   UNL     1     -12.658   3.540  16.825  1.00  0.00    -0.000 C 
BRANCH  13  14
ATOM     14  C   UNL     1     -13.112   3.682  18.292  1.00  0.00    -0.000 C 
BRANCH  14  15
ATOM     15  C   UNL     1     -12.437   4.826  19.068  1.00  0.00    -0.003 C 
ATOM     16  C   UNL     1     -11.660   5.782  18.163  1.00  0.00     0.004 C 
ENDBRANCH  14  15
ENDBRANCH  13  14
ENDBRANCH  12  13
ENDBRANCH  11  12
ENDBRANCH  10  11
ENDBRANCH   1  10
TORSDOF 12
ENDMDL
MODEL 4
REMARK VINA RESULT:    -3.658      1.222      2.566
REMARK INTER + INTRA:          -8.232
REMARK INTER:                  -6.343
REMARK INTRA:                  -1.889
REMARK UNBOUND:                -2.007
REMARK SMILES CCCCCCCCCCCCCC(=O)[O-]
REMARK SMILES IDX 8 1 9 2 10 3 11 4 12 5 13 6 14 7 15 8 16 9 7 10 6 11 5 12
REMARK SMILES IDX 4 13 3 14 2 15 1 16
REMARK H PARENT
REMARK Flexibility Score: inf
ROOT
ATOM      1  C   UNL     1     -13.436   3.751  19.779  1.00  0.00     0.000 C 
ENDROOT
BRANCH   1   2
ATOM      2  C   UNL     1     -12.856   4.434  18.527  1.00  0.00     0.000 C 
BRANCH   2   3
ATOM      3  C   UNL     1     -12.900   3.528  17.284  1.00  0.00     0.000 C 
BRANCH   3   4
ATOM      4  C   UNL     1     -11.680   3.726  16.368  1.00  0.00     0.000 C 
BRANCH   4   5
ATOM      5  C   UNL     1     -11.078   2.394  15.891  1.00  0.00     0.006 C 
BRANCH   5   6
ATOM      6  C   UNL     1     -12.144   1.317  15.648  1.00  0.00     0.053 C 
BRANCH   6   7
ATOM      7  C   UNL     1     -11.779   0.481  14.464  1.00  0.00     0.041 C 
ATOM      8  O   UNL     1     -10.569   0.302  14.163  1.00  0.00    -0.550 OA
ATOM      9  O   UNL     1     -12.772  -0.144  13.720  1.00  0.00    -0.550 OA
ENDBRANCH   6   7
ENDBRANCH   5   6
ENDBRANCH   4   5
ENDBRANCH   3   4
ENDBRANCH   2   3
ENDBRANCH   1   2
BRANCH   1  10
ATOM     10  C   UNL     1     -12.380   3.520  20.872  1.00  0.00     0.000 C 
BRANCH  10  11
ATOM     11  C   UNL     1     -12.091   2.028  21.108  1.00  0.00    -0.000 C 
BRANCH  11  12
ATOM     12  C   UNL     1     -11.400   1.357  19.907  1.00  0.00    -0.000 C 
BRANCH  12  13
ATOM     13  C   UNL     1      -9.858   1.397  19.932  1.00  0.00    -0.000 C 
BRANCH  13  14
ATOM     14  C   UNL     1      -9.214   2.453  19.011  1.00  0.00    -0.000 C 
BRANCH  14  15
ATOM     15  C   UNL     1      -8.819   3.765  19.711  1.00  0.00    -0.003 C 
ATOM     16  C   UNL     1      -9.220   5.008  18.917  1.00  0.00     0.004 C 
ENDBRANCH  14  15
ENDBRANCH  13  14
ENDBRANCH  12  13
ENDBRANCH  11  12
ENDBRANCH  10  11
ENDBRANCH   1  10
TORSDOF 12
ENDMDL
MODEL 5
REMARK VINA RESULT:    -3.633      1.398      2.795
REMARK INTER + INTRA:          -8.188
REMARK INTER:                  -6.707
REMARK INTRA:                  -1.481
REMARK UNBOUND:                -2.007
REMARK SMILES CCCCCCCCCCCCCC(=O)[O-]
REMARK SMILES IDX 8 1 9 2 10 3 11 4 12 5 13 6 14 7 15 8 16 9 7 10 6 11 5 12
REMARK SMILES IDX 4 13 3 14 2 15 1 16
REMARK H PARENT
REMARK Flexibility Score: inf
ROOT
ATOM      1  C   UNL     1      -9.930   3.873  19.486  1.00  0.00     0.000 C 
ENDROOT
BRANCH   1   2
ATOM      2  C   UNL     1     -10.684   4.670  18.406  1.00  0.00     0.000 C 
BRANCH   2   3
ATOM      3  C   UNL     1     -12.210   4.621  18.590  1.00  0.00     0.000 C 
BRANCH   3   4
ATOM      4  C   UNL     1     -12.877   3.560  17.697  1.00  0.00     0.000 C 
BRANCH   4   5
ATOM      5  C   UNL     1     -11.999   3.160  16.500  1.00  0.00     0.006 C 
BRANCH   5   6
ATOM      6  C   UNL     1     -12.110   1.669  16.156  1.00  0.00     0.053 C 
BRANCH   6   7
ATOM      7  C   UNL     1     -10.978   1.253  15.273  1.00  0.00     0.041 C 
ATOM      8  O   UNL     1     -11.185   0.484  14.296  1.00  0.00    -0.550 OA
ATOM      9  O   UNL     1      -9.701   1.751  15.496  1.00  0.00    -0.550 OA
ENDBRANCH   6   7
ENDBRANCH   5   6
ENDBRANCH   4   5
ENDBRANCH   3   4
ENDBRANCH   2   3
ENDBRANCH   1   2
BRANCH   1  10
ATOM     10  C   UNL     1      -9.018   2.787  18.894  1.00  0.00     0.000 C 
BRANCH  10  11
ATOM     11  C   UNL     1      -9.561   1.367  19.132  1.00  0.00    -0.000 C 
BRANCH  11  12
ATOM     12  C   UNL     1     -10.788   1.345  20.062  1.00  0.00    -0.000 C 
BRANCH  12  13
ATOM     13  C   UNL     1     -10.661   0.423  21.292  1.00  0.00    -0.000 C 
BRANCH  13  14
ATOM     14  C   UNL     1      -9.862  -0.875  21.059  1.00  0.00    -0.000 C 
BRANCH  14  15
ATOM     15  C   UNL     1      -8.526  -0.955  21.819  1.00  0.00    -0.003 C 
ATOM     16  C   UNL     1      -8.662  -0.607  23.301  1.00  0.00     0.004 C 
ENDBRANCH  14  15
ENDBRANCH  13  14
ENDBRANCH  12  13
ENDBRANCH  11  12
ENDBRANCH  10  11
ENDBRANCH   1  10
TORSDOF 12
ENDMDL
MODEL 6
REMARK VINA RESULT:    -3.594      3.275      5.392
REMARK INTER + INTRA:          -8.123
REMARK INTER:                  -6.766
REMARK INTRA:                  -1.357
REMARK UNBOUND:                -2.007
REMARK SMILES CCCCCCCCCCCCCC(=O)[O-]
REMARK SMILES IDX 8 1 9 2 10 3 11 4 12 5 13 6 14 7 15 8 16 9 7 10 6 11 5 12
REMARK SMILES IDX 4 13 3 14 2 15 1 16
REMARK H PARENT
REMARK Flexibility Score: inf
ROOT
ATOM      1  C   UNL     1     -11.975   3.108  19.599  1.00  0.00     0.000 C 
ENDROOT
BRANCH   1   2
ATOM      2  C   UNL     1     -10.936   2.002  19.340  1.00  0.00     0.000 C 
BRANCH   2   3
ATOM      3  C   UNL     1      -9.526   2.391  19.813  1.00  0.00     0.000 C 
BRANCH   3   4
ATOM      4  C   UNL     1      -9.017   3.683  19.149  1.00  0.00     0.000 C 
BRANCH   4   5
ATOM      5  C   UNL     1      -7.537   3.592  18.741  1.00  0.00     0.006 C 
BRANCH   5   6
ATOM      6  C   UNL     1      -6.673   4.673  19.403  1.00  0.00     0.053 C 
BRANCH   6   7
ATOM      7  C   UNL     1      -5.312   4.702  18.784  1.00  0.00     0.041 C 
ATOM      8  O   UNL     1      -4.640   5.768  18.781  1.00  0.00    -0.550 OA
ATOM      9  O   UNL     1      -4.763   3.541  18.255  1.00  0.00    -0.550 OA
ENDBRANCH   6   7
ENDBRANCH   5   6
ENDBRANCH   4   5
ENDBRANCH   3   4
ENDBRANCH   2   3
ENDBRANCH   1   2
BRANCH   1  10
ATOM     10  C   UNL     1     -12.400   3.836  18.314  1.00  0.00     0.000 C 
BRANCH  10  11
ATOM     11  C   UNL     1     -12.255   2.956  17.062  1.00  0.00    -0.000 C 
BRANCH  11  12
ATOM     12  C   UNL     1     -11.351   3.589  15.988  1.00  0.00    -0.000 C 
BRANCH  12  13
ATOM     13  C   UNL     1      -9.987   2.898  15.789  1.00  0.00    -0.000 C 
BRANCH  13  14
ATOM     14  C   UNL     1     -10.022   1.357  15.821  1.00  0.00    -0.000 C 
BRANCH  14  15
ATOM     15  C   UNL     1     -10.136   0.685  14.442  1.00  0.00    -0.003 C 
ATOM     16  C   UNL     1     -11.566   0.270  14.098  1.00  0.00     0.004 C 
ENDBRANCH  14  15
ENDBRANCH  13  14
ENDBRANCH  12  13
ENDBRANCH  11  12
ENDBRANCH  10  11
ENDBRANCH   1  10
TORSDOF 12
ENDMDL
MODEL 7
REMARK VINA RESULT:    -3.572      1.253      2.557
REMARK INTER + INTRA:          -8.085
REMARK INTER:                  -5.947
REMARK INTRA:                  -2.138
REMARK UNBOUND:                -2.007
REMARK SMILES CCCCCCCCCCCCCC(=O)[O-]
REMARK SMILES IDX 8 1 9 2 10 3 11 4 12 5 13 6 14 7 15 8 16 9 7 10 6 11 5 12
REMARK SMILES IDX 4 13 3 14 2 15 1 16
REMARK H PARENT
REMARK Flexibility Score: inf
ROOT
ATOM      1  C   UNL     1      -9.561   4.909  18.753  1.00  0.00     0.000 C 
ENDROOT
BRANCH   1   2
ATOM      2  C   UNL     1     -10.263   4.487  17.449  1.00  0.00     0.000 C 
BRANCH   2   3
ATOM      3  C   UNL     1     -11.784   4.708  17.497  1.00  0.00     0.000 C 
BRANCH   3   4
ATOM      4  C   UNL     1     -12.563   3.603  16.762  1.00  0.00     0.000 C 
BRANCH   4   5
ATOM      5  C   UNL     1     -11.638   2.629  16.014  1.00  0.00     0.006 C 
BRANCH   5   6
ATOM      6  C   UNL     1     -12.258   1.235  15.847  1.00  0.00     0.053 C 
BRANCH   6   7
ATOM      7  C   UNL     1     -11.747   0.583  14.602  1.00  0.00     0.041 C 
ATOM      8  O   UNL     1     -10.511   0.392  14.449  1.00  0.00    -0.550 OA
ATOM      9  O   UNL     1     -12.637   0.140  13.633  1.00  0.00    -0.550 OA
ENDBRANCH   6   7
ENDBRANCH   5   6
ENDBRANCH   4   5
ENDBRANCH   3   4
ENDBRANCH   2   3
ENDBRANCH   1   2
BRANCH   1  10
ATOM     10  C   UNL     1      -8.820   3.745  19.432  1.00  0.00     0.000 C 
BRANCH  10  11
ATOM     11  C   UNL     1      -9.005   2.414  18.685  1.00  0.00    -0.000 C 
BRANCH  11  12
ATOM     12  C   UNL     1      -9.747   1.357  19.523  1.00  0.00    -0.000 C 
BRANCH  12  13
ATOM     13  C   UNL     1     -11.281   1.517  19.569  1.00  0.00    -0.000 C 
BRANCH  13  14
ATOM     14  C   UNL     1     -11.836   2.141  20.865  1.00  0.00    -0.000 C 
BRANCH  14  15
ATOM     15  C   UNL     1     -12.894   3.238  20.652  1.00  0.00    -0.003 C 
ATOM     16  C   UNL     1     -12.452   4.603  21.179  1.00  0.00     0.004 C 
ENDBRANCH  14  15
ENDBRANCH  13  14
ENDBRANCH  12  13
ENDBRANCH  11  12
ENDBRANCH  10  11
ENDBRANCH   1  10
TORSDOF 12
ENDMDL
MODEL 8
REMARK VINA RESULT:    -3.549      2.782      4.789
REMARK INTER + INTRA:          -8.046
REMARK INTER:                  -6.268
REMARK INTRA:                  -1.778
REMARK UNBOUND:                -2.007
REMARK SMILES CCCCCCCCCCCCCC(=O)[O-]
REMARK SMILES IDX 8 1 9 2 10 3 11 4 12 5 13 6 14 7 15 8 16 9 7 10 6 11 5 12
REMARK SMILES IDX 4 13 3 14 2 15 1 16
REMARK H PARENT
REMARK Flexibility Score: inf
ROOT
ATOM      1  C   UNL     1     -10.511   5.418  18.659  1.00  0.00     0.000 C 
ENDROOT
BRANCH   1   2
ATOM      2  C   UNL     1      -9.302   5.016  17.795  1.00  0.00     0.000 C 
BRANCH   2   3
ATOM      3  C   UNL     1      -8.744   3.631  18.165  1.00  0.00     0.000 C 
BRANCH   3   4
ATOM      4  C   UNL     1      -9.281   3.120  19.513  1.00  0.00     0.000 C 
BRANCH   4   5
ATOM      5  C   UNL     1     -10.059   1.801  19.376  1.00  0.00     0.006 C 
BRANCH   5   6
ATOM      6  C   UNL     1      -9.155   0.567  19.488  1.00  0.00     0.053 C 
BRANCH   6   7
ATOM      7  C   UNL     1      -9.572  -0.281  20.647  1.00  0.00     0.041 C 
ATOM      8  O   UNL     1      -8.942  -1.337  20.920  1.00  0.00    -0.550 OA
ATOM      9  O   UNL     1     -10.627   0.120  21.458  1.00  0.00    -0.550 OA
ENDBRANCH   6   7
ENDBRANCH   5   6
ENDBRANCH   4   5
ENDBRANCH   3   4
ENDBRANCH   2   3
ENDBRANCH   1   2
BRANCH   1  10
ATOM     10  C   UNL     1     -11.785   5.645  17.829  1.00  0.00     0.000 C 
BRANCH  10  11
ATOM     11  C   UNL     1     -11.894   4.676  16.640  1.00  0.00    -0.000 C 
BRANCH  11  12
ATOM     12  C   UNL     1     -12.717   3.417  16.968  1.00  0.00    -0.000 C 
BRANCH  12  13
ATOM     13  C   UNL     1     -12.188   2.108  16.348  1.00  0.00    -0.000 C 
BRANCH  13  14
ATOM     14  C   UNL     1     -10.902   2.252  15.509  1.00  0.00    -0.000 C 
BRANCH  14  15
ATOM     15  C   UNL     1      -9.939   1.055  15.595  1.00  0.00    -0.003 C 
ATOM     16  C   UNL     1      -9.577   0.484  14.224  1.00  0.00     0.004 C 
ENDBRANCH  14  15
ENDBRANCH  13  14
ENDBRANCH  12  13
ENDBRANCH  11  12
ENDBRANCH  10  11
ENDBRANCH   1  10
TORSDOF 12
ENDMDL
MODEL 9
REMARK VINA RESULT:    -3.499      1.153      2.340
REMARK INTER + INTRA:          -7.961
REMARK INTER:                  -6.119
REMARK INTRA:                  -1.842
REMARK UNBOUND:                -2.007
REMARK SMILES CCCCCCCCCCCCCC(=O)[O-]
REMARK SMILES IDX 8 1 9 2 10 3 11 4 12 5 13 6 14 7 15 8 16 9 7 10 6 11 5 12
REMARK SMILES IDX 4 13 3 14 2 15 1 16
REMARK H PARENT
REMARK Flexibility Score: inf
ROOT
ATOM      1  C   UNL     1     -11.827   5.105  19.347  1.00  0.00     0.000 C 
ENDROOT
BRANCH   1   2
ATOM      2  C   UNL     1     -11.599   4.767  17.863  1.00  0.00     0.000 C 
BRANCH   2   3
ATOM      3  C   UNL     1     -12.720   3.892  17.276  1.00  0.00     0.000 C 
BRANCH   3   4
ATOM      4  C   UNL     1     -12.223   2.497  16.859  1.00  0.00     0.000 C 
BRANCH   4   5
ATOM      5  C   UNL     1     -11.290   2.545  15.637  1.00  0.00     0.006 C 
BRANCH   5   6
ATOM      6  C   UNL     1     -10.227   1.439  15.661  1.00  0.00     0.053 C 
BRANCH   6   7
ATOM      7  C   UNL     1     -10.335   0.587  14.436  1.00  0.00     0.041 C 
ATOM      8  O   UNL     1     -11.466   0.295  13.965  1.00  0.00    -0.550 OA
ATOM      9  O   UNL     1      -9.187   0.156  13.785  1.00  0.00    -0.550 OA
ENDBRANCH   6   7
ENDBRANCH   5   6
ENDBRANCH   4   5
ENDBRANCH   3   4
ENDBRANCH   2   3
ENDBRANCH   1   2
BRANCH   1  10
ATOM     10  C   UNL     1     -13.243   4.747  19.827  1.00  0.00     0.000 C 
BRANCH  10  11
ATOM     11  C   UNL     1     -13.246   3.604  20.856  1.00  0.00    -0.000 C 
BRANCH  11  12
ATOM     12  C   UNL     1     -11.867   3.380  21.503  1.00  0.00    -0.000 C 
BRANCH  12  13
ATOM     13  C   UNL     1     -11.370   1.919  21.497  1.00  0.00    -0.000 C 
BRANCH  13  14
ATOM     14  C   UNL     1     -11.264   1.268  20.103  1.00  0.00    -0.000 C 
BRANCH  14  15
ATOM     15  C   UNL     1      -9.829   1.119  19.568  1.00  0.00    -0.003 C 
ATOM     16  C   UNL     1      -9.203   2.452  19.162  1.00  0.00     0.004 C 
ENDBRANCH  14  15
ENDBRANCH  13  14
ENDBRANCH  12  13
ENDBRANCH  11  12
ENDBRANCH  10  11
ENDBRANCH   1  10
TORSDOF 12
ENDMDL
