MODEL 1
REMARK VINA RESULT:    44.915      0.000      0.000
REMARK INTER + INTRA:          72.279
REMARK INTER:                  73.797
REMARK INTRA:                  -1.518
REMARK UNBOUND:                -1.518
REMARK SMILES C[C@H]1O[C@H](OC[C@H]2O[C@H](Oc3c(-c4ccc(O)c(O)c4)oc4cc(O)cc(O)c4c3=O)[C@@H](O)[C@H](O)[C@@H]2O)[C@H](O)[C@@H](O)[C@@H]1O
REMARK SMILES IDX 7 1 36 2 34 3 32 4 9 5 8 6 6 7 5 8 4 9 1 10 2 11 42 12 3 13
REMARK SMILES IDX 40 14 38 15 43 16 41 18 39 20 37 22 35 24 10 26 11 27 12 28
REMARK SMILES IDX 30 29 21 30 29 31 31 32 22 33 27 34 23 35 26 36 24 37 13 38
REMARK SMILES IDX 20 39 14 40 18 41 15 42 16 43 19 44 17 46 28 48 25 50 33 52
REMARK H PARENT 43 17 41 19 39 21 37 23 35 25 19 45 17 47 28 49 25 51 33 53
REMARK Flexibility Score: inf
ROOT
ATOM      1  C   UNL     1     109.757 108.380 107.120  1.00  0.00     0.180 C 
ATOM      2  C   UNL     1     110.840 109.544 107.372  1.00  0.00     0.177 C 
ATOM      3  C   UNL     1     110.070 110.944 106.955  1.00  0.00     0.180 C 
ATOM      4  C   UNL     1     108.456 111.022 106.851  1.00  0.00     0.214 C 
ATOM      5  C   UNL     1     107.859 109.551 106.371  1.00  0.00     0.339 C 
ATOM      6  O   UNL     1     109.047 108.875 106.030  1.00  0.00    -0.332 OA
ENDROOT
BRANCH   1   7
ATOM      7  C   UNL     1     109.078 108.418 108.653  1.00  0.00     0.198 C 
BRANCH   7   8
ATOM      8  O   UNL     1     110.144 108.998 109.524  1.00  0.00    -0.347 OA
BRANCH   8   9
ATOM      9  C   UNL     1     109.582 110.062 110.381  1.00  0.00     0.281 C 
ATOM     10  C   UNL     1     107.813 111.314 113.125  1.00  0.00     0.041 C 
ATOM     11  C   UNL     1     108.747 110.114 112.711  1.00  0.00     0.150 C 
ATOM     12  C   UNL     1     110.352 110.037 113.124  1.00  0.00     0.174 C 
ATOM     13  O   UNL     1     108.662 109.533 111.426  1.00  0.00    -0.344 OA
ATOM     14  C   UNL     1     111.407 111.061 112.114  1.00  0.00     0.179 C 
ATOM     15  C   UNL     1     110.384 111.373 110.889  1.00  0.00     0.202 C 
BRANCH  12  16
ATOM     16  O   UNL     1     110.666 108.664 112.942  1.00  0.00    -0.388 OA
ATOM     17  H   UNL     1     110.657 108.252 113.878  1.00  0.00     0.211 HD
ENDBRANCH  12  16
BRANCH  14  18
ATOM     18  O   UNL     1     111.389 112.185 112.975  1.00  0.00    -0.387 OA
ATOM     19  H   UNL     1     110.579 112.125 113.571  1.00  0.00     0.211 HD
ENDBRANCH  14  18
BRANCH  15  20
ATOM     20  O   UNL     1     111.077 111.884 109.773  1.00  0.00    -0.385 OA
ATOM     21  H   UNL     1     111.874 112.381 110.160  1.00  0.00     0.211 HD
ENDBRANCH  15  20
ENDBRANCH   8   9
ENDBRANCH   7   8
ENDBRANCH   1   7
BRANCH   2  22
ATOM     22  O   UNL     1     112.026 109.132 106.543  1.00  0.00    -0.387 OA
ATOM     23  H   UNL     1     112.333 109.909 105.985  1.00  0.00     0.211 HD
ENDBRANCH   2  22
BRANCH   3  24
ATOM     24  O   UNL     1     110.669 111.412 105.705  1.00  0.00    -0.387 OA
ATOM     25  H   UNL     1     110.284 112.385 105.334  1.00  0.00     0.211 HD
ENDBRANCH   3  24
BRANCH   5  26
ATOM     26  O   UNL     1     107.021 109.848 105.219  1.00  0.00    -0.454 OA
BRANCH  26  27
ATOM     27  C   UNL     1     106.355 108.838 104.461  1.00  0.00     0.214 A 
ATOM     28  C   UNL     1     106.722 108.221 103.194  1.00  0.00     0.180 A 
ATOM     29  C   UNL     1     105.435 108.102 105.135  1.00  0.00     0.239 A 
ATOM     30  O   UNL     1     107.021 106.901 103.269  1.00  0.00    -0.452 OA
ATOM     31  C   UNL     1     105.938 106.773 105.398  1.00  0.00     0.111 A 
ATOM     32  O   UNL     1     104.517 108.664 105.802  1.00  0.00    -0.285 OA
ATOM     33  C   UNL     1     106.732 106.183 104.357  1.00  0.00     0.146 A 
ATOM     34  C   UNL     1     106.009 106.141 106.674  1.00  0.00     0.134 A 
ATOM     35  C   UNL     1     107.289 104.952 104.461  1.00  0.00     0.094 A 
ATOM     36  C   UNL     1     106.829 105.048 106.849  1.00  0.00     0.093 A 
ATOM     37  C   UNL     1     107.481 104.400 105.764  1.00  0.00     0.123 A 
BRANCH  28  38
ATOM     38  C   UNL     1     106.702 108.831 101.818  1.00  0.00     0.025 A 
ATOM     39  C   UNL     1     106.204 108.105 100.715  1.00  0.00     0.062 A 
ATOM     40  C   UNL     1     107.673 109.816 101.561  1.00  0.00     0.016 A 
ATOM     41  C   UNL     1     106.389 108.506  99.374  1.00  0.00     0.158 A 
ATOM     42  C   UNL     1     107.921 110.217 100.252  1.00  0.00     0.051 A 
ATOM     43  C   UNL     1     107.305 109.586  99.151  1.00  0.00     0.157 A 
BRANCH  41  44
ATOM     44  O   UNL     1     105.781 107.664  98.347  1.00  0.00    -0.504 OA
ATOM     45  H   UNL     1     105.833 107.991  97.390  1.00  0.00     0.293 HD
ENDBRANCH  41  44
BRANCH  43  46
ATOM     46  O   UNL     1     107.750 109.980  97.845  1.00  0.00    -0.504 OA
ATOM     47  H   UNL     1     107.746 110.998  97.629  1.00  0.00     0.293 HD
ENDBRANCH  43  46
ENDBRANCH  28  38
BRANCH  34  48
ATOM     48  O   UNL     1     105.456 106.747 107.834  1.00  0.00    -0.507 OA
ATOM     49  H   UNL     1     104.448 106.900 107.905  1.00  0.00     0.293 HD
ENDBRANCH  34  48
BRANCH  37  50
ATOM     50  O   UNL     1     108.336 103.339 105.932  1.00  0.00    -0.508 OA
ATOM     51  H   UNL     1     108.069 102.388 105.689  1.00  0.00     0.293 HD
ENDBRANCH  37  50
ENDBRANCH  26  27
ENDBRANCH   5  26
BRANCH   4  52
ATOM     52  O   UNL     1     107.770 111.417 108.085  1.00  0.00    -0.384 OA
ATOM     53  H   UNL     1     108.518 111.298 108.716  1.00  0.00     0.211 HD
ENDBRANCH   4  52
TORSDOF 16
ENDMDL
MODEL 2
REMARK VINA RESULT:    46.400      0.852      1.584
REMARK INTER + INTRA:          74.720
REMARK INTER:                  74.233
REMARK INTRA:                   0.487
REMARK UNBOUND:                -1.518
REMARK SMILES C[C@H]1O[C@H](OC[C@H]2O[C@H](Oc3c(-c4ccc(O)c(O)c4)oc4cc(O)cc(O)c4c3=O)[C@@H](O)[C@H](O)[C@@H]2O)[C@H](O)[C@@H](O)[C@@H]1O
REMARK SMILES IDX 7 1 36 2 34 3 32 4 9 5 8 6 6 7 5 8 4 9 1 10 2 11 42 12 3 13
REMARK SMILES IDX 40 14 38 15 43 16 41 18 39 20 37 22 35 24 10 26 11 27 12 28
REMARK SMILES IDX 30 29 21 30 29 31 31 32 22 33 27 34 23 35 26 36 24 37 13 38
REMARK SMILES IDX 20 39 14 40 18 41 15 42 16 43 19 44 17 46 28 48 25 50 33 52
REMARK H PARENT 43 17 41 19 39 21 37 23 35 25 19 45 17 47 28 49 25 51 33 53
REMARK Flexibility Score: inf
ROOT
ATOM      1  C   UNL     1     110.153 108.729 106.513  1.00  0.00     0.180 C 
ATOM      2  C   UNL     1     110.990 110.030 106.956  1.00  0.00     0.177 C 
ATOM      3  C   UNL     1     109.898 111.269 106.941  1.00  0.00     0.180 C 
ATOM      4  C   UNL     1     108.303 110.990 106.975  1.00  0.00     0.214 C 
ATOM      5  C   UNL     1     107.974 109.559 106.203  1.00  0.00     0.339 C 
ATOM      6  O   UNL     1     109.226 109.268 105.626  1.00  0.00    -0.332 OA
ENDROOT
BRANCH   1   7
ATOM      7  C   UNL     1     109.676 108.276 108.056  1.00  0.00     0.198 C 
BRANCH   7   8
ATOM      8  O   UNL     1     109.475 109.566 108.783  1.00  0.00    -0.347 OA
BRANCH   8   9
ATOM      9  C   UNL     1     109.753 109.391 110.223  1.00  0.00     0.281 C 
ATOM     10  C   UNL     1     111.691 109.625 113.125  1.00  0.00     0.041 C 
ATOM     11  C   UNL     1     111.406 110.387 111.775  1.00  0.00     0.150 C 
ATOM     12  C   UNL     1     110.444 111.735 111.688  1.00  0.00     0.174 C 
ATOM     13  O   UNL     1     111.172 109.681 110.574  1.00  0.00    -0.344 OA
ATOM     14  C   UNL     1     108.696 111.379 111.726  1.00  0.00     0.179 C 
ATOM     15  C   UNL     1     108.742 109.782 111.424  1.00  0.00     0.202 C 
BRANCH  12  16
ATOM     16  O   UNL     1     110.809 112.311 110.442  1.00  0.00    -0.388 OA
ATOM     17  H   UNL     1     111.587 111.746 110.093  1.00  0.00     0.211 HD
ENDBRANCH  12  16
BRANCH  14  18
ATOM     18  O   UNL     1     108.545 111.540 113.125  1.00  0.00    -0.387 OA
ATOM     19  H   UNL     1     109.413 111.875 113.510  1.00  0.00     0.211 HD
ENDBRANCH  14  18
BRANCH  15  20
ATOM     20  O   UNL     1     107.468 109.303 111.056  1.00  0.00    -0.385 OA
ATOM     21  H   UNL     1     107.167 109.907 110.296  1.00  0.00     0.211 HD
ENDBRANCH  15  20
ENDBRANCH   8   9
ENDBRANCH   7   8
ENDBRANCH   1   7
BRANCH   2  22
ATOM     22  O   UNL     1     112.125 110.095 105.969  1.00  0.00    -0.387 OA
ATOM     23  H   UNL     1     111.888 110.727 105.224  1.00  0.00     0.211 HD
ENDBRANCH   2  22
BRANCH   3  24
ATOM     24  O   UNL     1     110.227 112.122 105.798  1.00  0.00    -0.387 OA
ATOM     25  H   UNL     1     109.720 111.850 104.848  1.00  0.00     0.211 HD
ENDBRANCH   3  24
BRANCH   5  26
ATOM     26  O   UNL     1     106.956 109.895 105.219  1.00  0.00    -0.454 OA
BRANCH  26  27
ATOM     27  C   UNL     1     106.310 108.916 104.404  1.00  0.00     0.214 A 
ATOM     28  C   UNL     1     106.724 108.329 103.138  1.00  0.00     0.180 A 
ATOM     29  C   UNL     1     105.351 108.175 105.017  1.00  0.00     0.239 A 
ATOM     30  O   UNL     1     107.001 107.003 103.188  1.00  0.00    -0.452 OA
ATOM     31  C   UNL     1     105.823 106.832 105.264  1.00  0.00     0.111 A 
ATOM     32  O   UNL     1     104.413 108.733 105.659  1.00  0.00    -0.285 OA
ATOM     33  C   UNL     1     106.654 106.260 104.243  1.00  0.00     0.146 A 
ATOM     34  C   UNL     1     105.830 106.165 106.524  1.00  0.00     0.134 A 
ATOM     35  C   UNL     1     107.189 105.017 104.336  1.00  0.00     0.094 A 
ATOM     36  C   UNL     1     106.626 105.055 106.703  1.00  0.00     0.093 A 
ATOM     37  C   UNL     1     107.316 104.427 105.631  1.00  0.00     0.123 A 
BRANCH  28  38
ATOM     38  C   UNL     1     106.773 108.976 101.780  1.00  0.00     0.025 A 
ATOM     39  C   UNL     1     106.243 108.319 100.649  1.00  0.00     0.062 A 
ATOM     40  C   UNL     1     107.816 109.895 101.568  1.00  0.00     0.016 A 
ATOM     41  C   UNL     1     106.481 108.742  99.323  1.00  0.00     0.158 A 
ATOM     42  C   UNL     1     108.116 110.313 100.274  1.00  0.00     0.051 A 
ATOM     43  C   UNL     1     107.476 109.759  99.145  1.00  0.00     0.157 A 
BRANCH  41  44
ATOM     44  O   UNL     1     105.833 107.975  98.262  1.00  0.00    -0.504 OA
ATOM     45  H   UNL     1     105.019 107.428  98.518  1.00  0.00     0.293 HD
ENDBRANCH  41  44
BRANCH  43  46
ATOM     46  O   UNL     1     107.972 110.155  97.859  1.00  0.00    -0.504 OA
ATOM     47  H   UNL     1     107.799 109.506  97.063  1.00  0.00     0.293 HD
ENDBRANCH  43  46
ENDBRANCH  28  38
BRANCH  34  48
ATOM     48  O   UNL     1     105.235 106.747 107.676  1.00  0.00    -0.507 OA
ATOM     49  H   UNL     1     105.382 107.734 107.889  1.00  0.00     0.293 HD
ENDBRANCH  34  48
BRANCH  37  50
ATOM     50  O   UNL     1     108.148 103.350 105.806  1.00  0.00    -0.508 OA
ATOM     51  H   UNL     1     109.145 103.460 105.977  1.00  0.00     0.293 HD
ENDBRANCH  37  50
ENDBRANCH  26  27
ENDBRANCH   5  26
BRANCH   4  52
ATOM     52  O   UNL     1     107.708 110.938 108.314  1.00  0.00    -0.384 OA
ATOM     53  H   UNL     1     108.353 110.327 108.741  1.00  0.00     0.211 HD
ENDBRANCH   4  52
TORSDOF 16
ENDMDL
MODEL 3
REMARK VINA RESULT:    47.742      3.034      5.951
REMARK INTER + INTRA:          76.925
REMARK INTER:                  74.328
REMARK INTRA:                   2.596
REMARK UNBOUND:                -1.518
REMARK SMILES C[C@H]1O[C@H](OC[C@H]2O[C@H](Oc3c(-c4ccc(O)c(O)c4)oc4cc(O)cc(O)c4c3=O)[C@@H](O)[C@H](O)[C@@H]2O)[C@H](O)[C@@H](O)[C@@H]1O
REMARK SMILES IDX 7 1 36 2 34 3 32 4 9 5 8 6 6 7 5 8 4 9 1 10 2 11 42 12 3 13
REMARK SMILES IDX 40 14 38 15 43 16 41 18 39 20 37 22 35 24 10 26 11 27 12 28
REMARK SMILES IDX 30 29 21 30 29 31 31 32 22 33 27 34 23 35 26 36 24 37 13 38
REMARK SMILES IDX 20 39 14 40 18 41 15 42 16 43 19 44 17 46 28 48 25 50 33 52
REMARK H PARENT 43 17 41 19 39 21 37 23 35 25 19 45 17 47 28 49 25 51 33 53
REMARK Flexibility Score: inf
ROOT
ATOM      1  C   UNL     1     109.171 110.094 111.219  1.00  0.00     0.180 C 
ATOM      2  C   UNL     1     107.645 109.661 111.488  1.00  0.00     0.177 C 
ATOM      3  C   UNL     1     107.454 108.233 110.681  1.00  0.00     0.180 C 
ATOM      4  C   UNL     1     108.729 107.344 110.226  1.00  0.00     0.214 C 
ATOM      5  C   UNL     1     110.011 108.341 109.893  1.00  0.00     0.339 C 
ATOM      6  O   UNL     1     109.389 109.605 109.934  1.00  0.00    -0.332 OA
ENDROOT
BRANCH   1   7
ATOM      7  C   UNL     1     109.829 109.302 112.543  1.00  0.00     0.198 C 
BRANCH   7   8
ATOM      8  O   UNL     1     111.129 109.996 112.790  1.00  0.00    -0.347 OA
BRANCH   8   9
ATOM      9  C   UNL     1     110.900 111.427 113.075  1.00  0.00     0.281 C 
ATOM     10  C   UNL     1     111.742 114.821 113.124  1.00  0.00     0.041 C 
ATOM     11  C   UNL     1     111.944 113.519 112.259  1.00  0.00     0.150 C 
ATOM     12  C   UNL     1     111.091 113.219 110.869  1.00  0.00     0.174 C 
ATOM     13  O   UNL     1     112.120 112.257 112.870  1.00  0.00    -0.344 OA
ATOM     14  C   UNL     1     109.428 112.638 111.153  1.00  0.00     0.179 C 
ATOM     15  C   UNL     1     109.548 112.244 112.725  1.00  0.00     0.202 C 
BRANCH  12  16
ATOM     16  O   UNL     1     111.866 112.219 110.224  1.00  0.00    -0.388 OA
ATOM     17  H   UNL     1     111.202 111.661 109.682  1.00  0.00     0.211 HD
ENDBRANCH  12  16
BRANCH  14  18
ATOM     18  O   UNL     1     108.814 113.912 111.082  1.00  0.00    -0.387 OA
ATOM     19  H   UNL     1     109.316 114.549 111.678  1.00  0.00     0.211 HD
ENDBRANCH  14  18
BRANCH  15  20
ATOM     20  O   UNL     1     108.466 111.431 113.124  1.00  0.00    -0.385 OA
ATOM     21  H   UNL     1     108.703 110.498 112.801  1.00  0.00     0.211 HD
ENDBRANCH  15  20
ENDBRANCH   8   9
ENDBRANCH   7   8
ENDBRANCH   1   7
BRANCH   2  22
ATOM     22  O   UNL     1     106.837 110.839 111.013  1.00  0.00    -0.387 OA
ATOM     23  H   UNL     1     106.708 111.486 111.772  1.00  0.00     0.211 HD
ENDBRANCH   2  22
BRANCH   3  24
ATOM     24  O   UNL     1     106.599 108.500 109.525  1.00  0.00    -0.387 OA
ATOM     25  H   UNL     1     105.724 109.153 109.728  1.00  0.00     0.211 HD
ENDBRANCH   3  24
BRANCH   5  26
ATOM     26  O   UNL     1     110.441 107.959 108.557  1.00  0.00    -0.454 OA
BRANCH  26  27
ATOM     27  C   UNL     1     109.787 108.412 107.371  1.00  0.00     0.214 A 
ATOM     28  C   UNL     1     108.411 108.229 106.930  1.00  0.00     0.180 A 
ATOM     29  C   UNL     1     110.403 109.422 106.704  1.00  0.00     0.239 A 
ATOM     30  O   UNL     1     107.680 109.368 106.860  1.00  0.00    -0.452 OA
ATOM     31  C   UNL     1     109.690 110.665 106.891  1.00  0.00     0.111 A 
ATOM     32  O   UNL     1     111.626 109.340 106.388  1.00  0.00    -0.285 OA
ATOM     33  C   UNL     1     108.258 110.571 106.923  1.00  0.00     0.146 A 
ATOM     34  C   UNL     1     110.248 111.888 107.368  1.00  0.00     0.134 A 
ATOM     35  C   UNL     1     107.451 111.644 107.108  1.00  0.00     0.094 A 
ATOM     36  C   UNL     1     109.416 112.876 107.846  1.00  0.00     0.093 A 
ATOM     37  C   UNL     1     108.001 112.811 107.722  1.00  0.00     0.123 A 
BRANCH  28  38
ATOM     38  C   UNL     1     107.746 106.970 106.445  1.00  0.00     0.025 A 
ATOM     39  C   UNL     1     108.405 105.725 106.537  1.00  0.00     0.062 A 
ATOM     40  C   UNL     1     106.794 107.125 105.421  1.00  0.00     0.016 A 
ATOM     41  C   UNL     1     107.958 104.559 105.878  1.00  0.00     0.158 A 
ATOM     42  C   UNL     1     106.351 106.012 104.714  1.00  0.00     0.051 A 
ATOM     43  C   UNL     1     106.911 104.732 104.914  1.00  0.00     0.157 A 
BRANCH  41  44
ATOM     44  O   UNL     1     108.732 103.341 106.103  1.00  0.00    -0.504 OA
ATOM     45  H   UNL     1     108.984 102.795 105.287  1.00  0.00     0.293 HD
ENDBRANCH  41  44
BRANCH  43  46
ATOM     46  O   UNL     1     106.484 103.690 104.025  1.00  0.00    -0.504 OA
ATOM     47  H   UNL     1     106.736 103.792 103.020  1.00  0.00     0.293 HD
ENDBRANCH  43  46
ENDBRANCH  28  38
BRANCH  34  48
ATOM     48  O   UNL     1     111.643 112.027 107.599  1.00  0.00    -0.507 OA
ATOM     49  H   UNL     1     112.110 112.916 107.413  1.00  0.00     0.293 HD
ENDBRANCH  34  48
BRANCH  37  50
ATOM     50  O   UNL     1     107.161 113.768 108.235  1.00  0.00    -0.508 OA
ATOM     51  H   UNL     1     107.071 113.926 109.235  1.00  0.00     0.293 HD
ENDBRANCH  37  50
ENDBRANCH  26  27
ENDBRANCH   5  26
BRANCH   4  52
ATOM     52  O   UNL     1     109.167 106.338 111.200  1.00  0.00    -0.384 OA
ATOM     53  H   UNL     1     108.429 105.694 111.092  1.00  0.00     0.211 HD
ENDBRANCH   4  52
TORSDOF 16
ENDMDL
