MODEL 1
REMARK VINA RESULT:    -3.969      0.000      0.000
REMARK INTER + INTRA:          -4.913
REMARK INTER:                  -4.665
REMARK INTRA:                  -0.248
REMARK UNBOUND:                -0.248
REMARK SMILES O=C([O-])C=Cc1ccc(O)c(O)c1
REMARK SMILES IDX 6 1 13 2 7 3 11 4 8 5 9 6 5 7 4 8 2 9 1 10 3 11 12 12 10 14
REMARK H PARENT 12 13 10 15
REMARK Flexibility Score: inf
ROOT
ATOM      1  C   UNL     1      -8.165  21.235  17.813  1.00  0.00    -0.022 A 
ATOM      2  C   UNL     1      -8.689  22.502  18.110  1.00  0.00     0.058 A 
ATOM      3  C   UNL     1      -7.396  20.567  18.778  1.00  0.00     0.012 A 
ATOM      4  C   UNL     1      -8.406  23.121  19.333  1.00  0.00     0.157 A 
ATOM      5  C   UNL     1      -7.110  21.180  20.001  1.00  0.00     0.051 A 
ATOM      6  C   UNL     1      -7.609  22.459  20.283  1.00  0.00     0.157 A 
ENDROOT
BRANCH   1   7
ATOM      7  C   UNL     1      -8.524  20.586  16.535  1.00  0.00     0.010 C 
ATOM      8  C   UNL     1      -7.698  20.414  15.491  1.00  0.00     0.025 C 
BRANCH   8   9
ATOM      9  C   UNL     1      -6.347  20.994  15.355  1.00  0.00     0.064 C 
ATOM     10  O   UNL     1      -6.141  22.030  14.670  1.00  0.00    -0.545 OA
ATOM     11  O   UNL     1      -5.269  20.342  15.938  1.00  0.00    -0.545 OA
ENDBRANCH   8   9
ENDBRANCH   1   7
BRANCH   4  12
ATOM     12  O   UNL     1      -8.927  24.390  19.587  1.00  0.00    -0.504 OA
ATOM     13  H   UNL     1      -9.138  24.706  20.526  1.00  0.00     0.293 HD
ENDBRANCH   4  12
BRANCH   6  14
ATOM     14  O   UNL     1      -7.321  23.070  21.502  1.00  0.00    -0.504 OA
ATOM     15  H   UNL     1      -7.984  23.686  21.957  1.00  0.00     0.293 HD
ENDBRANCH   6  14
TORSDOF 4
ENDMDL
MODEL 2
REMARK VINA RESULT:    -3.325      1.076      5.044
REMARK INTER + INTRA:          -4.156
REMARK INTER:                  -3.932
REMARK INTRA:                  -0.224
REMARK UNBOUND:                -0.248
REMARK SMILES O=C([O-])C=Cc1ccc(O)c(O)c1
REMARK SMILES IDX 6 1 13 2 7 3 11 4 8 5 9 6 5 7 4 8 2 9 1 10 3 11 12 12 10 14
REMARK H PARENT 12 13 10 15
REMARK Flexibility Score: inf
ROOT
ATOM      1  C   UNL     1      -7.588  20.611  18.096  1.00  0.00    -0.022 A 
ATOM      2  C   UNL     1      -6.253  20.210  17.936  1.00  0.00     0.058 A 
ATOM      3  C   UNL     1      -8.305  21.072  16.980  1.00  0.00     0.012 A 
ATOM      4  C   UNL     1      -5.621  20.317  16.692  1.00  0.00     0.157 A 
ATOM      5  C   UNL     1      -7.679  21.180  15.735  1.00  0.00     0.051 A 
ATOM      6  C   UNL     1      -6.336  20.809  15.585  1.00  0.00     0.157 A 
ENDROOT
BRANCH   1   7
ATOM      7  C   UNL     1      -8.243  20.437  19.408  1.00  0.00     0.010 C 
ATOM      8  C   UNL     1      -8.626  21.432  20.224  1.00  0.00     0.025 C 
BRANCH   8   9
ATOM      9  C   UNL     1      -8.307  22.863  20.049  1.00  0.00     0.064 C 
ATOM     10  O   UNL     1      -7.349  23.403  20.661  1.00  0.00    -0.545 OA
ATOM     11  O   UNL     1      -9.125  23.645  19.245  1.00  0.00    -0.545 OA
ENDBRANCH   8   9
ENDBRANCH   1   7
BRANCH   4  12
ATOM     12  O   UNL     1      -4.287  19.928  16.573  1.00  0.00    -0.504 OA
ATOM     13  H   UNL     1      -4.018  19.060  16.125  1.00  0.00     0.293 HD
ENDBRANCH   4  12
BRANCH   6  14
ATOM     14  O   UNL     1      -5.712  20.921  14.344  1.00  0.00    -0.504 OA
ATOM     15  H   UNL     1      -6.210  20.735  13.481  1.00  0.00     0.293 HD
ENDBRANCH   6  14
TORSDOF 4
ENDMDL
MODEL 3
REMARK VINA RESULT:    -2.913      2.184      4.812
REMARK INTER + INTRA:          -3.672
REMARK INTER:                  -3.584
REMARK INTRA:                  -0.088
REMARK UNBOUND:                -0.248
REMARK SMILES O=C([O-])C=Cc1ccc(O)c(O)c1
REMARK SMILES IDX 6 1 13 2 7 3 11 4 8 5 9 6 5 7 4 8 2 9 1 10 3 11 12 12 10 14
REMARK H PARENT 12 13 10 15
REMARK Flexibility Score: inf
ROOT
ATOM      1  C   UNL     1      -6.810  20.412  16.133  1.00  0.00    -0.022 A 
ATOM      2  C   UNL     1      -6.031  20.085  17.253  1.00  0.00     0.058 A 
ATOM      3  C   UNL     1      -6.172  20.798  14.942  1.00  0.00     0.012 A 
ATOM      4  C   UNL     1      -4.636  20.190  17.206  1.00  0.00     0.157 A 
ATOM      5  C   UNL     1      -4.781  20.905  14.890  1.00  0.00     0.051 A 
ATOM      6  C   UNL     1      -4.006  20.607  16.020  1.00  0.00     0.157 A 
ENDROOT
BRANCH   1   7
ATOM      7  C   UNL     1      -8.275  20.241  16.196  1.00  0.00     0.010 C 
ATOM      8  C   UNL     1      -9.116  20.990  16.927  1.00  0.00     0.025 C 
BRANCH   8   9
ATOM      9  C   UNL     1      -8.721  21.997  17.933  1.00  0.00     0.064 C 
ATOM     10  O   UNL     1      -8.480  21.676  19.126  1.00  0.00    -0.545 OA
ATOM     11  O   UNL     1      -8.682  23.336  17.570  1.00  0.00    -0.545 OA
ENDBRANCH   8   9
ENDBRANCH   1   7
BRANCH   4  12
ATOM     12  O   UNL     1      -3.894  19.876  18.344  1.00  0.00    -0.504 OA
ATOM     13  H   UNL     1      -3.821  20.510  19.131  1.00  0.00     0.293 HD
ENDBRANCH   4  12
BRANCH   6  14
ATOM     14  O   UNL     1      -2.618  20.717  15.967  1.00  0.00    -0.504 OA
ATOM     15  H   UNL     1      -2.154  21.615  16.035  1.00  0.00     0.293 HD
ENDBRANCH   6  14
TORSDOF 4
ENDMDL
MODEL 4
REMARK VINA RESULT:    -2.854     14.713     16.943
REMARK INTER + INTRA:          -3.603
REMARK INTER:                  -3.386
REMARK INTRA:                  -0.217
REMARK UNBOUND:                -0.248
REMARK SMILES O=C([O-])C=Cc1ccc(O)c(O)c1
REMARK SMILES IDX 6 1 13 2 7 3 11 4 8 5 9 6 5 7 4 8 2 9 1 10 3 11 12 12 10 14
REMARK H PARENT 12 13 10 15
REMARK Flexibility Score: inf
ROOT
ATOM      1  C   UNL     1       8.715  20.546  14.539  1.00  0.00    -0.022 A 
ATOM      2  C   UNL     1       9.496  21.708  14.625  1.00  0.00     0.058 A 
ATOM      3  C   UNL     1       8.454  19.986  13.278  1.00  0.00     0.012 A 
ATOM      4  C   UNL     1       9.968  22.337  13.468  1.00  0.00     0.157 A 
ATOM      5  C   UNL     1       8.922  20.610  12.119  1.00  0.00     0.051 A 
ATOM      6  C   UNL     1       9.677  21.788  12.207  1.00  0.00     0.157 A 
ENDROOT
BRANCH   1   7
ATOM      7  C   UNL     1       8.275  19.876  15.780  1.00  0.00     0.010 C 
ATOM      8  C   UNL     1       7.075  20.025  16.361  1.00  0.00     0.025 C 
BRANCH   8   9
ATOM      9  C   UNL     1       6.046  21.012  15.976  1.00  0.00     0.064 C 
ATOM     10  O   UNL     1       5.717  21.954  16.745  1.00  0.00    -0.545 OA
ATOM     11  O   UNL     1       5.379  20.859  14.769  1.00  0.00    -0.545 OA
ENDBRANCH   8   9
ENDBRANCH   1   7
BRANCH   4  12
ATOM     12  O   UNL     1      10.726  23.501  13.590  1.00  0.00    -0.504 OA
ATOM     13  H   UNL     1      10.796  24.179  12.840  1.00  0.00     0.293 HD
ENDBRANCH   4  12
BRANCH   6  14
ATOM     14  O   UNL     1      10.141  22.411  11.049  1.00  0.00    -0.504 OA
ATOM     15  H   UNL     1      10.890  22.012  10.496  1.00  0.00     0.293 HD
ENDBRANCH   6  14
TORSDOF 4
ENDMDL
MODEL 5
REMARK VINA RESULT:    -2.845      2.079      2.966
REMARK INTER + INTRA:          -3.592
REMARK INTER:                  -3.557
REMARK INTRA:                  -0.035
REMARK UNBOUND:                -0.248
REMARK SMILES O=C([O-])C=Cc1ccc(O)c(O)c1
REMARK SMILES IDX 6 1 13 2 7 3 11 4 8 5 9 6 5 7 4 8 2 9 1 10 3 11 12 12 10 14
REMARK H PARENT 12 13 10 15
REMARK Flexibility Score: inf
ROOT
ATOM      1  C   UNL     1      -8.662  22.490  19.825  1.00  0.00    -0.022 A 
ATOM      2  C   UNL     1      -9.034  21.655  20.889  1.00  0.00     0.058 A 
ATOM      3  C   UNL     1      -7.776  23.553  20.063  1.00  0.00     0.012 A 
ATOM      4  C   UNL     1      -8.572  21.906  22.187  1.00  0.00     0.157 A 
ATOM      5  C   UNL     1      -7.311  23.808  21.356  1.00  0.00     0.051 A 
ATOM      6  C   UNL     1      -7.709  22.990  22.423  1.00  0.00     0.157 A 
ENDROOT
BRANCH   1   7
ATOM      7  C   UNL     1      -9.124  22.169  18.459  1.00  0.00     0.010 C 
ATOM      8  C   UNL     1      -8.491  21.362  17.594  1.00  0.00     0.025 C 
BRANCH   8   9
ATOM      9  C   UNL     1      -7.141  20.793  17.773  1.00  0.00     0.064 C 
ATOM     10  O   UNL     1      -6.253  20.913  16.889  1.00  0.00    -0.545 OA
ATOM     11  O   UNL     1      -6.865  20.050  18.913  1.00  0.00    -0.545 OA
ENDBRANCH   8   9
ENDBRANCH   1   7
BRANCH   4  12
ATOM     12  O   UNL     1      -8.977  21.067  23.224  1.00  0.00    -0.504 OA
ATOM     13  H   UNL     1      -8.314  20.529  23.771  1.00  0.00     0.293 HD
ENDBRANCH   4  12
BRANCH   6  14
ATOM     14  O   UNL     1      -7.247  23.248  23.713  1.00  0.00    -0.504 OA
ATOM     15  H   UNL     1      -7.769  23.829  24.358  1.00  0.00     0.293 HD
ENDBRANCH   6  14
TORSDOF 4
ENDMDL
MODEL 6
REMARK VINA RESULT:    -2.792      2.366      3.588
REMARK INTER + INTRA:          -3.529
REMARK INTER:                  -3.450
REMARK INTRA:                  -0.079
REMARK UNBOUND:                -0.248
REMARK SMILES O=C([O-])C=Cc1ccc(O)c(O)c1
REMARK SMILES IDX 6 1 13 2 7 3 11 4 8 5 9 6 5 7 4 8 2 9 1 10 3 11 12 12 10 14
REMARK H PARENT 12 13 10 15
REMARK Flexibility Score: inf
ROOT
ATOM      1  C   UNL     1      -7.178  21.234  20.427  1.00  0.00    -0.022 A 
ATOM      2  C   UNL     1      -7.503  20.405  21.511  1.00  0.00     0.058 A 
ATOM      3  C   UNL     1      -7.467  22.606  20.502  1.00  0.00     0.012 A 
ATOM      4  C   UNL     1      -8.156  20.924  22.635  1.00  0.00     0.157 A 
ATOM      5  C   UNL     1      -8.119  23.130  21.621  1.00  0.00     0.051 A 
ATOM      6  C   UNL     1      -8.470  22.294  22.689  1.00  0.00     0.157 A 
ENDROOT
BRANCH   1   7
ATOM      7  C   UNL     1      -6.442  20.668  19.279  1.00  0.00     0.010 C 
ATOM      8  C   UNL     1      -6.831  20.736  17.996  1.00  0.00     0.025 C 
BRANCH   8   9
ATOM      9  C   UNL     1      -8.138  21.226  17.515  1.00  0.00     0.064 C 
ATOM     10  O   UNL     1      -9.112  20.446  17.348  1.00  0.00    -0.545 OA
ATOM     11  O   UNL     1      -8.275  22.564  17.173  1.00  0.00    -0.545 OA
ENDBRANCH   8   9
ENDBRANCH   1   7
BRANCH   4  12
ATOM     12  O   UNL     1      -8.482  20.068  23.686  1.00  0.00    -0.504 OA
ATOM     13  H   UNL     1      -9.260  19.422  23.632  1.00  0.00     0.293 HD
ENDBRANCH   4  12
BRANCH   6  14
ATOM     14  O   UNL     1      -9.124  22.818  23.803  1.00  0.00    -0.504 OA
ATOM     15  H   UNL     1      -9.527  23.747  23.794  1.00  0.00     0.293 HD
ENDBRANCH   6  14
TORSDOF 4
ENDMDL
MODEL 7
REMARK VINA RESULT:    -2.789     14.554     16.427
REMARK INTER + INTRA:          -3.526
REMARK INTER:                  -3.258
REMARK INTRA:                  -0.268
REMARK UNBOUND:                -0.248
REMARK SMILES O=C([O-])C=Cc1ccc(O)c(O)c1
REMARK SMILES IDX 6 1 13 2 7 3 11 4 8 5 9 6 5 7 4 8 2 9 1 10 3 11 12 12 10 14
REMARK H PARENT 12 13 10 15
REMARK Flexibility Score: inf
ROOT
ATOM      1  C   UNL     1       8.625  20.365  14.934  1.00  0.00    -0.022 A 
ATOM      2  C   UNL     1       7.753  20.200  13.847  1.00  0.00     0.058 A 
ATOM      3  C   UNL     1       8.098  20.712  16.189  1.00  0.00     0.012 A 
ATOM      4  C   UNL     1       6.380  20.428  13.993  1.00  0.00     0.157 A 
ATOM      5  C   UNL     1       6.729  20.941  16.341  1.00  0.00     0.051 A 
ATOM      6  C   UNL     1       5.864  20.805  15.246  1.00  0.00     0.157 A 
ENDROOT
BRANCH   1   7
ATOM      7  C   UNL     1      10.061  20.066  14.762  1.00  0.00     0.010 C 
ATOM      8  C   UNL     1      11.034  20.980  14.619  1.00  0.00     0.025 C 
BRANCH   8   9
ATOM      9  C   UNL     1      10.835  22.430  14.428  1.00  0.00     0.064 C 
ATOM     10  O   UNL     1      10.468  22.905  13.321  1.00  0.00    -0.545 OA
ATOM     11  O   UNL     1      11.125  23.296  15.474  1.00  0.00    -0.545 OA
ENDBRANCH   8   9
ENDBRANCH   1   7
BRANCH   4  12
ATOM     12  O   UNL     1       5.546  20.274  12.887  1.00  0.00    -0.504 OA
ATOM     13  H   UNL     1       5.909  20.220  11.943  1.00  0.00     0.293 HD
ENDBRANCH   4  12
BRANCH   6  14
ATOM     14  O   UNL     1       4.498  21.037  15.398  1.00  0.00    -0.504 OA
ATOM     15  H   UNL     1       4.049  21.848  14.990  1.00  0.00     0.293 HD
ENDBRANCH   6  14
TORSDOF 4
ENDMDL
MODEL 8
REMARK VINA RESULT:    -2.703      2.049      5.458
REMARK INTER + INTRA:          -3.425
REMARK INTER:                  -3.237
REMARK INTRA:                  -0.188
REMARK UNBOUND:                -0.248
REMARK SMILES O=C([O-])C=Cc1ccc(O)c(O)c1
REMARK SMILES IDX 6 1 13 2 7 3 11 4 8 5 9 6 5 7 4 8 2 9 1 10 3 11 12 12 10 14
REMARK H PARENT 12 13 10 15
REMARK Flexibility Score: inf
ROOT
ATOM      1  C   UNL     1      -7.541  20.098  20.395  1.00  0.00    -0.022 A 
ATOM      2  C   UNL     1      -6.141  20.151  20.319  1.00  0.00     0.058 A 
ATOM      3  C   UNL     1      -8.292  20.072  19.210  1.00  0.00     0.012 A 
ATOM      4  C   UNL     1      -5.497  20.230  19.078  1.00  0.00     0.157 A 
ATOM      5  C   UNL     1      -7.656  20.151  17.969  1.00  0.00     0.051 A 
ATOM      6  C   UNL     1      -6.258  20.234  17.896  1.00  0.00     0.157 A 
ENDROOT
BRANCH   1   7
ATOM      7  C   UNL     1      -8.188  19.963  21.716  1.00  0.00     0.010 C 
ATOM      8  C   UNL     1      -8.616  20.980  22.480  1.00  0.00     0.025 C 
BRANCH   8   9
ATOM      9  C   UNL     1      -8.363  22.413  22.232  1.00  0.00     0.064 C 
ATOM     10  O   UNL     1      -7.709  23.116  23.046  1.00  0.00    -0.545 OA
ATOM     11  O   UNL     1      -8.917  23.013  21.110  1.00  0.00    -0.545 OA
ENDBRANCH   8   9
ENDBRANCH   1   7
BRANCH   4  12
ATOM     12  O   UNL     1      -4.105  20.300  19.040  1.00  0.00    -0.504 OA
ATOM     13  H   UNL     1      -3.589  21.022  19.528  1.00  0.00     0.293 HD
ENDBRANCH   4  12
BRANCH   6  14
ATOM     14  O   UNL     1      -5.625  20.316  16.657  1.00  0.00    -0.504 OA
ATOM     15  H   UNL     1      -5.497  21.203  16.184  1.00  0.00     0.293 HD
ENDBRANCH   6  14
TORSDOF 4
ENDMDL
