MODEL 1
REMARK VINA RESULT:    -4.230      0.000      0.000
REMARK INTER + INTRA:          -8.685
REMARK INTER:                  -7.691
REMARK INTRA:                  -0.993
REMARK UNBOUND:                -0.993
REMARK SMILES CCCCCC=CCC=CCCCCCCCC(=O)[O-]
REMARK SMILES IDX 11 1 12 2 13 3 14 4 15 5 16 6 17 7 18 8 19 9 20 10 10 11
REMARK SMILES IDX 9 12 8 13 7 14 6 15 5 16 4 17 3 18 2 19 1 20
REMARK H PARENT
REMARK Flexibility Score: inf
ROOT
ATOM      1  C   UNL     1      21.152   6.246  -4.352  1.00  0.00     0.027 C 
ENDROOT
BRANCH   1   2
ATOM      2  C   UNL     1      21.251   5.999  -2.839  1.00  0.00     0.004 C 
BRANCH   2   3
ATOM      3  C   UNL     1      20.954   7.261  -2.012  1.00  0.00     0.000 C 
BRANCH   3   4
ATOM      4  C   UNL     1      20.134   6.955  -0.746  1.00  0.00     0.000 C 
BRANCH   4   5
ATOM      5  C   UNL     1      19.384   5.616  -0.834  1.00  0.00     0.000 C 
BRANCH   5   6
ATOM      6  C   UNL     1      17.875   5.762  -0.590  1.00  0.00     0.006 C 
BRANCH   6   7
ATOM      7  C   UNL     1      17.074   4.926  -1.594  1.00  0.00     0.053 C 
BRANCH   7   8
ATOM      8  C   UNL     1      17.023   3.493  -1.165  1.00  0.00     0.041 C 
ATOM      9  O   UNL     1      17.423   3.161  -0.018  1.00  0.00    -0.550 OA
ATOM     10  O   UNL     1      16.577   2.518  -2.048  1.00  0.00    -0.550 OA
ENDBRANCH   7   8
ENDBRANCH   6   7
ENDBRANCH   5   6
ENDBRANCH   4   5
ENDBRANCH   3   4
ENDBRANCH   2   3
ENDBRANCH   1   2
BRANCH   1  11
ATOM     11  C   UNL     1      20.995   7.713  -4.648  1.00  0.00    -0.031 C 
ATOM     12  C   UNL     1      20.881   8.168  -5.904  1.00  0.00    -0.027 C 
BRANCH  12  13
ATOM     13  C   UNL     1      20.764   9.636  -6.208  1.00  0.00     0.054 C 
BRANCH  13  14
ATOM     14  C   UNL     1      19.430   9.970  -6.827  1.00  0.00    -0.027 C 
ATOM     15  C   UNL     1      19.263  10.468  -8.067  1.00  0.00    -0.031 C 
BRANCH  15  16
ATOM     16  C   UNL     1      20.378  10.719  -9.050  1.00  0.00     0.027 C 
BRANCH  16  17
ATOM     17  C   UNL     1      20.020  11.869 -10.003  1.00  0.00     0.004 C 
BRANCH  17  18
ATOM     18  C   UNL     1      18.635  12.474  -9.693  1.00  0.00     0.000 C 
BRANCH  18  19
ATOM     19  C   UNL     1      17.652  12.409 -10.875  1.00  0.00    -0.003 C 
ATOM     20  C   UNL     1      16.867  11.100 -10.927  1.00  0.00     0.004 C 
ENDBRANCH  18  19
ENDBRANCH  17  18
ENDBRANCH  16  17
ENDBRANCH  15  16
ENDBRANCH  13  14
ENDBRANCH  12  13
ENDBRANCH   1  11
TORSDOF 14
ENDMDL
MODEL 2
REMARK VINA RESULT:    -4.093      4.682      9.867
REMARK INTER + INTRA:          -8.436
REMARK INTER:                  -7.603
REMARK INTRA:                  -0.834
REMARK UNBOUND:                -0.993
REMARK SMILES CCCCCC=CCC=CCCCCCCCC(=O)[O-]
REMARK SMILES IDX 11 1 12 2 13 3 14 4 15 5 16 6 17 7 18 8 19 9 20 10 10 11
REMARK SMILES IDX 9 12 8 13 7 14 6 15 5 16 4 17 3 18 2 19 1 20
REMARK H PARENT
REMARK Flexibility Score: inf
ROOT
ATOM      1  C   UNL     1      20.870   8.377  -5.982  1.00  0.00     0.027 C 
ENDROOT
BRANCH   1   2
ATOM      2  C   UNL     1      20.759   9.907  -5.898  1.00  0.00     0.004 C 
BRANCH   2   3
ATOM      3  C   UNL     1      19.455  10.441  -6.515  1.00  0.00     0.000 C 
BRANCH   3   4
ATOM      4  C   UNL     1      19.490  10.440  -8.054  1.00  0.00     0.000 C 
BRANCH   4   5
ATOM      5  C   UNL     1      18.109  10.691  -8.679  1.00  0.00     0.000 C 
BRANCH   5   6
ATOM      6  C   UNL     1      18.190  11.425 -10.026  1.00  0.00     0.006 C 
BRANCH   6   7
ATOM      7  C   UNL     1      19.276  12.506  -9.998  1.00  0.00     0.053 C 
BRANCH   7   8
ATOM      8  C   UNL     1      18.662  13.870  -9.983  1.00  0.00     0.041 C 
ATOM      9  O   UNL     1      17.781  14.178 -10.828  1.00  0.00    -0.550 OA
ATOM     10  O   UNL     1      19.094  14.817  -9.062  1.00  0.00    -0.550 OA
ENDBRANCH   7   8
ENDBRANCH   6   7
ENDBRANCH   5   6
ENDBRANCH   4   5
ENDBRANCH   3   4
ENDBRANCH   2   3
ENDBRANCH   1   2
BRANCH   1  11
ATOM     11  C   UNL     1      20.903   7.764  -4.609  1.00  0.00    -0.031 C 
ATOM     12  C   UNL     1      21.229   6.477  -4.422  1.00  0.00    -0.027 C 
BRANCH  12  13
ATOM     13  C   UNL     1      21.225   5.848  -3.056  1.00  0.00     0.054 C 
BRANCH  13  14
ATOM     14  C   UNL     1      21.023   6.879  -1.973  1.00  0.00    -0.027 C 
ATOM     15  C   UNL     1      20.199   6.731  -0.918  1.00  0.00    -0.031 C 
BRANCH  15  16
ATOM     16  C   UNL     1      19.391   5.492  -0.625  1.00  0.00     0.027 C 
BRANCH  16  17
ATOM     17  C   UNL     1      17.951   5.644  -1.136  1.00  0.00     0.004 C 
BRANCH  17  18
ATOM     18  C   UNL     1      16.961   4.742  -0.369  1.00  0.00     0.000 C 
BRANCH  18  19
ATOM     19  C   UNL     1      17.165   3.239  -0.627  1.00  0.00    -0.003 C 
ATOM     20  C   UNL     1      16.638   2.790  -1.988  1.00  0.00     0.004 C 
ENDBRANCH  18  19
ENDBRANCH  17  18
ENDBRANCH  16  17
ENDBRANCH  15  16
ENDBRANCH  13  14
ENDBRANCH  12  13
ENDBRANCH   1  11
TORSDOF 14
ENDMDL
MODEL 3
REMARK VINA RESULT:    -3.753      1.369      2.027
REMARK INTER + INTRA:          -7.817
REMARK INTER:                  -7.091
REMARK INTRA:                  -0.726
REMARK UNBOUND:                -0.993
REMARK SMILES CCCCCC=CCC=CCCCCCCCC(=O)[O-]
REMARK SMILES IDX 11 1 12 2 13 3 14 4 15 5 16 6 17 7 18 8 19 9 20 10 10 11
REMARK SMILES IDX 9 12 8 13 7 14 6 15 5 16 4 17 3 18 2 19 1 20
REMARK H PARENT
REMARK Flexibility Score: inf
ROOT
ATOM      1  C   UNL     1      21.003   7.840  -4.425  1.00  0.00     0.027 C 
ENDROOT
BRANCH   1   2
ATOM      2  C   UNL     1      21.263   6.339  -4.217  1.00  0.00     0.004 C 
BRANCH   2   3
ATOM      3  C   UNL     1      20.945   5.876  -2.786  1.00  0.00     0.000 C 
BRANCH   3   4
ATOM      4  C   UNL     1      20.928   7.042  -1.782  1.00  0.00     0.000 C 
BRANCH   4   5
ATOM      5  C   UNL     1      19.895   6.846  -0.661  1.00  0.00     0.000 C 
BRANCH   5   6
ATOM      6  C   UNL     1      19.349   5.411  -0.600  1.00  0.00     0.006 C 
BRANCH   6   7
ATOM      7  C   UNL     1      17.835   5.390  -0.841  1.00  0.00     0.053 C 
BRANCH   7   8
ATOM      8  C   UNL     1      17.314   3.988  -0.794  1.00  0.00     0.041 C 
ATOM      9  O   UNL     1      17.749   3.179   0.067  1.00  0.00    -0.550 OA
ATOM     10  O   UNL     1      16.378   3.562  -1.729  1.00  0.00    -0.550 OA
ENDBRANCH   7   8
ENDBRANCH   6   7
ENDBRANCH   5   6
ENDBRANCH   4   5
ENDBRANCH   3   4
ENDBRANCH   2   3
ENDBRANCH   1   2
BRANCH   1  11
ATOM     11  C   UNL     1      20.809   8.155  -5.882  1.00  0.00    -0.031 C 
ATOM     12  C   UNL     1      20.500   9.393  -6.298  1.00  0.00    -0.027 C 
BRANCH  12  13
ATOM     13  C   UNL     1      20.265   9.705  -7.750  1.00  0.00     0.054 C 
BRANCH  13  14
ATOM     14  C   UNL     1      18.925  10.361  -7.967  1.00  0.00    -0.027 C 
ATOM     15  C   UNL     1      18.683  11.332  -8.868  1.00  0.00    -0.031 C 
BRANCH  15  16
ATOM     16  C   UNL     1      19.699  11.876  -9.840  1.00  0.00     0.027 C 
BRANCH  16  17
ATOM     17  C   UNL     1      19.127  13.066 -10.623  1.00  0.00     0.004 C 
BRANCH  17  18
ATOM     18  C   UNL     1      19.887  14.377 -10.329  1.00  0.00     0.000 C 
BRANCH  18  19
ATOM     19  C   UNL     1      19.229  15.244  -9.242  1.00  0.00    -0.003 C 
ATOM     20  C   UNL     1      18.502  16.462  -9.807  1.00  0.00     0.004 C 
ENDBRANCH  18  19
ENDBRANCH  17  18
ENDBRANCH  16  17
ENDBRANCH  15  16
ENDBRANCH  13  14
ENDBRANCH  12  13
ENDBRANCH   1  11
TORSDOF 14
ENDMDL
MODEL 4
REMARK VINA RESULT:    -3.669      5.005     10.455
REMARK INTER + INTRA:          -7.665
REMARK INTER:                  -6.960
REMARK INTRA:                  -0.705
REMARK UNBOUND:                -0.993
REMARK SMILES CCCCCC=CCC=CCCCCCCCC(=O)[O-]
REMARK SMILES IDX 11 1 12 2 13 3 14 4 15 5 16 6 17 7 18 8 19 9 20 10 10 11
REMARK SMILES IDX 9 12 8 13 7 14 6 15 5 16 4 17 3 18 2 19 1 20
REMARK H PARENT
REMARK Flexibility Score: inf
ROOT
ATOM      1  C   UNL     1      20.312   9.655  -7.758  1.00  0.00     0.027 C 
ENDROOT
BRANCH   1   2
ATOM      2  C   UNL     1      19.100  10.562  -8.025  1.00  0.00     0.004 C 
BRANCH   2   3
ATOM      3  C   UNL     1      19.269  11.418  -9.291  1.00  0.00     0.000 C 
BRANCH   3   4
ATOM      4  C   UNL     1      17.960  11.554 -10.088  1.00  0.00     0.000 C 
BRANCH   4   5
ATOM      5  C   UNL     1      17.902  12.846 -10.918  1.00  0.00     0.000 C 
BRANCH   5   6
ATOM      6  C   UNL     1      19.098  13.774 -10.659  1.00  0.00     0.006 C 
BRANCH   6   7
ATOM      7  C   UNL     1      18.633  15.132 -10.122  1.00  0.00     0.053 C 
BRANCH   7   8
ATOM      8  C   UNL     1      19.580  15.640  -9.081  1.00  0.00     0.041 C 
ATOM      9  O   UNL     1      19.206  15.749  -7.884  1.00  0.00    -0.550 OA
ATOM     10  O   UNL     1      20.863  16.035  -9.441  1.00  0.00    -0.550 OA
ENDBRANCH   7   8
ENDBRANCH   6   7
ENDBRANCH   5   6
ENDBRANCH   4   5
ENDBRANCH   3   4
ENDBRANCH   2   3
ENDBRANCH   1   2
BRANCH   1  11
ATOM     11  C   UNL     1      20.465   9.382  -6.287  1.00  0.00    -0.031 C 
ATOM     12  C   UNL     1      20.912   8.201  -5.835  1.00  0.00    -0.027 C 
BRANCH  12  13
ATOM     13  C   UNL     1      21.029   7.908  -4.365  1.00  0.00     0.054 C 
BRANCH  13  14
ATOM     14  C   UNL     1      21.081   6.424  -4.098  1.00  0.00    -0.027 C 
ATOM     15  C   UNL     1      20.923   5.857  -2.886  1.00  0.00    -0.031 C 
BRANCH  15  16
ATOM     16  C   UNL     1      20.616   6.612  -1.617  1.00  0.00     0.027 C 
BRANCH  16  17
ATOM     17  C   UNL     1      19.785   5.750  -0.655  1.00  0.00     0.004 C 
BRANCH  17  18
ATOM     18  C   UNL     1      18.270   5.997  -0.813  1.00  0.00     0.000 C 
BRANCH  18  19
ATOM     19  C   UNL     1      17.484   4.753  -1.262  1.00  0.00    -0.003 C 
ATOM     20  C   UNL     1      17.642   3.570  -0.311  1.00  0.00     0.004 C 
ENDBRANCH  18  19
ENDBRANCH  17  18
ENDBRANCH  16  17
ENDBRANCH  15  16
ENDBRANCH  13  14
ENDBRANCH  12  13
ENDBRANCH   1  11
TORSDOF 14
ENDMDL
MODEL 5
REMARK VINA RESULT:    -3.167      4.118      9.020
REMARK INTER + INTRA:          -6.752
REMARK INTER:                  -5.589
REMARK INTRA:                  -1.163
REMARK UNBOUND:                -0.993
REMARK SMILES CCCCCC=CCC=CCCCCCCCC(=O)[O-]
REMARK SMILES IDX 11 1 12 2 13 3 14 4 15 5 16 6 17 7 18 8 19 9 20 10 10 11
REMARK SMILES IDX 9 12 8 13 7 14 6 15 5 16 4 17 3 18 2 19 1 20
REMARK H PARENT
REMARK Flexibility Score: inf
ROOT
ATOM      1  C   UNL     1      21.737   5.838  -4.364  1.00  0.00     0.027 C 
ENDROOT
BRANCH   1   2
ATOM      2  C   UNL     1      21.875   6.982  -5.381  1.00  0.00     0.004 C 
BRANCH   2   3
ATOM      3  C   UNL     1      20.576   7.789  -5.543  1.00  0.00     0.000 C 
BRANCH   3   4
ATOM      4  C   UNL     1      20.736   8.970  -6.516  1.00  0.00     0.000 C 
BRANCH   4   5
ATOM      5  C   UNL     1      20.391  10.322  -5.870  1.00  0.00     0.000 C 
BRANCH   5   6
ATOM      6  C   UNL     1      19.254  11.055  -6.597  1.00  0.00     0.006 C 
BRANCH   6   7
ATOM      7  C   UNL     1      18.902  10.355  -7.914  1.00  0.00     0.053 C 
BRANCH   7   8
ATOM      8  C   UNL     1      19.278  11.210  -9.083  1.00  0.00     0.041 C 
ATOM      9  O   UNL     1      20.446  11.164  -9.551  1.00  0.00    -0.550 OA
ATOM     10  O   UNL     1      18.352  12.089  -9.628  1.00  0.00    -0.550 OA
ENDBRANCH   7   8
ENDBRANCH   6   7
ENDBRANCH   5   6
ENDBRANCH   4   5
ENDBRANCH   3   4
ENDBRANCH   2   3
ENDBRANCH   1   2
BRANCH   1  11
ATOM     11  C   UNL     1      20.802   6.219  -3.249  1.00  0.00    -0.031 C 
ATOM     12  C   UNL     1      21.237   6.871  -2.160  1.00  0.00    -0.027 C 
BRANCH  12  13
ATOM     13  C   UNL     1      20.315   7.220  -1.025  1.00  0.00     0.054 C 
BRANCH  13  14
ATOM     14  C   UNL     1      19.948   6.002  -0.215  1.00  0.00    -0.027 C 
ATOM     15  C   UNL     1      18.773   5.348  -0.302  1.00  0.00    -0.031 C 
BRANCH  15  16
ATOM     16  C   UNL     1      17.664   5.698  -1.261  1.00  0.00     0.027 C 
BRANCH  16  17
ATOM     17  C   UNL     1      16.518   4.680  -1.168  1.00  0.00     0.004 C 
BRANCH  17  18
ATOM     18  C   UNL     1      16.975   3.343  -0.548  1.00  0.00     0.000 C 
BRANCH  18  19
ATOM     19  C   UNL     1      16.839   2.141  -1.498  1.00  0.00    -0.003 C 
ATOM     20  C   UNL     1      16.262   2.519  -2.861  1.00  0.00     0.004 C 
ENDBRANCH  18  19
ENDBRANCH  17  18
ENDBRANCH  16  17
ENDBRANCH  15  16
ENDBRANCH  13  14
ENDBRANCH  12  13
ENDBRANCH   1  11
TORSDOF 14
ENDMDL
MODEL 6
REMARK VINA RESULT:    -3.137      6.778     10.011
REMARK INTER + INTRA:          -6.697
REMARK INTER:                  -4.864
REMARK INTRA:                  -1.833
REMARK UNBOUND:                -0.993
REMARK SMILES CCCCCC=CCC=CCCCCCCCC(=O)[O-]
REMARK SMILES IDX 11 1 12 2 13 3 14 4 15 5 16 6 17 7 18 8 19 9 20 10 10 11
REMARK SMILES IDX 9 12 8 13 7 14 6 15 5 16 4 17 3 18 2 19 1 20
REMARK H PARENT
REMARK Flexibility Score: inf
ROOT
ATOM      1  C   UNL     1      17.621  11.006  -9.678  1.00  0.00     0.027 C 
ENDROOT
BRANCH   1   2
ATOM      2  C   UNL     1      18.465  12.056 -10.416  1.00  0.00     0.004 C 
BRANCH   2   3
ATOM      3  C   UNL     1      17.664  13.322 -10.762  1.00  0.00     0.000 C 
BRANCH   3   4
ATOM      4  C   UNL     1      18.477  14.610 -10.544  1.00  0.00     0.000 C 
BRANCH   4   5
ATOM      5  C   UNL     1      19.010  14.739  -9.108  1.00  0.00     0.000 C 
BRANCH   5   6
ATOM      6  C   UNL     1      19.906  15.972  -8.914  1.00  0.00     0.006 C 
BRANCH   6   7
ATOM      7  C   UNL     1      20.584  16.370 -10.230  1.00  0.00     0.053 C 
BRANCH   7   8
ATOM      8  C   UNL     1      22.072  16.288 -10.102  1.00  0.00     0.041 C 
ATOM      9  O   UNL     1      22.772  15.919 -11.082  1.00  0.00    -0.550 OA
ATOM     10  O   UNL     1      22.683  16.576  -8.889  1.00  0.00    -0.550 OA
ENDBRANCH   7   8
ENDBRANCH   6   7
ENDBRANCH   5   6
ENDBRANCH   4   5
ENDBRANCH   3   4
ENDBRANCH   2   3
ENDBRANCH   1   2
BRANCH   1  11
ATOM     11  C   UNL     1      18.359  10.465  -8.484  1.00  0.00    -0.031 C 
ATOM     12  C   UNL     1      18.910  11.280  -7.572  1.00  0.00    -0.027 C 
BRANCH  12  13
ATOM     13  C   UNL     1      19.684  10.746  -6.398  1.00  0.00     0.054 C 
BRANCH  13  14
ATOM     14  C   UNL     1      20.017   9.285  -6.571  1.00  0.00    -0.027 C 
ATOM     15  C   UNL     1      21.114   8.818  -7.199  1.00  0.00    -0.031 C 
BRANCH  15  16
ATOM     16  C   UNL     1      22.206   9.682  -7.778  1.00  0.00     0.027 C 
BRANCH  16  17
ATOM     17  C   UNL     1      21.885  10.072  -9.228  1.00  0.00     0.004 C 
BRANCH  17  18
ATOM     18  C   UNL     1      23.125  10.602  -9.978  1.00  0.00     0.000 C 
BRANCH  18  19
ATOM     19  C   UNL     1      22.803  11.695 -11.011  1.00  0.00    -0.003 C 
ATOM     20  C   UNL     1      21.694  12.640 -10.555  1.00  0.00     0.004 C 
ENDBRANCH  18  19
ENDBRANCH  17  18
ENDBRANCH  16  17
ENDBRANCH  15  16
ENDBRANCH  13  14
ENDBRANCH  12  13
ENDBRANCH   1  11
TORSDOF 14
ENDMDL
MODEL 7
REMARK VINA RESULT:    -2.874      0.917      1.437
REMARK INTER + INTRA:          -6.219
REMARK INTER:                  -5.464
REMARK INTRA:                  -0.755
REMARK UNBOUND:                -0.993
REMARK SMILES CCCCCC=CCC=CCCCCCCCC(=O)[O-]
REMARK SMILES IDX 11 1 12 2 13 3 14 4 15 5 16 6 17 7 18 8 19 9 20 10 10 11
REMARK SMILES IDX 9 12 8 13 7 14 6 15 5 16 4 17 3 18 2 19 1 20
REMARK H PARENT
REMARK Flexibility Score: inf
ROOT
ATOM      1  C   UNL     1      21.291   5.989  -3.199  1.00  0.00     0.027 C 
ENDROOT
BRANCH   1   2
ATOM      2  C   UNL     1      20.939   6.690  -1.877  1.00  0.00     0.004 C 
BRANCH   2   3
ATOM      3  C   UNL     1      20.134   5.790  -0.926  1.00  0.00     0.000 C 
BRANCH   3   4
ATOM      4  C   UNL     1      18.783   6.413  -0.530  1.00  0.00     0.000 C 
BRANCH   4   5
ATOM      5  C   UNL     1      17.590   5.726  -1.214  1.00  0.00     0.000 C 
BRANCH   5   6
ATOM      6  C   UNL     1      17.003   4.580  -0.377  1.00  0.00     0.006 C 
BRANCH   6   7
ATOM      7  C   UNL     1      17.558   3.227  -0.834  1.00  0.00     0.053 C 
BRANCH   7   8
ATOM      8  C   UNL     1      16.567   2.516  -1.701  1.00  0.00     0.041 C 
ATOM      9  O   UNL     1      15.642   1.838  -1.181  1.00  0.00    -0.550 OA
ATOM     10  O   UNL     1      16.690   2.566  -3.084  1.00  0.00    -0.550 OA
ENDBRANCH   7   8
ENDBRANCH   6   7
ENDBRANCH   5   6
ENDBRANCH   4   5
ENDBRANCH   3   4
ENDBRANCH   2   3
ENDBRANCH   1   2
BRANCH   1  11
ATOM     11  C   UNL     1      20.691   6.716  -4.370  1.00  0.00    -0.031 C 
ATOM     12  C   UNL     1      21.439   7.480  -5.180  1.00  0.00    -0.027 C 
BRANCH  12  13
ATOM     13  C   UNL     1      20.838   8.242  -6.329  1.00  0.00     0.054 C 
BRANCH  13  14
ATOM     14  C   UNL     1      20.338   9.597  -5.894  1.00  0.00    -0.027 C 
ATOM     15  C   UNL     1      19.886  10.552  -6.730  1.00  0.00    -0.031 C 
BRANCH  15  16
ATOM     16  C   UNL     1      19.756  10.396  -8.224  1.00  0.00     0.027 C 
BRANCH  16  17
ATOM     17  C   UNL     1      18.586  11.232  -8.762  1.00  0.00     0.004 C 
BRANCH  17  18
ATOM     18  C   UNL     1      19.012  12.147  -9.930  1.00  0.00     0.000 C 
BRANCH  18  19
ATOM     19  C   UNL     1      17.960  12.255 -11.047  1.00  0.00    -0.003 C 
ATOM     20  C   UNL     1      16.837  11.230 -10.911  1.00  0.00     0.004 C 
ENDBRANCH  18  19
ENDBRANCH  17  18
ENDBRANCH  16  17
ENDBRANCH  15  16
ENDBRANCH  13  14
ENDBRANCH  12  13
ENDBRANCH   1  11
TORSDOF 14
ENDMDL
MODEL 8
REMARK VINA RESULT:    -2.401      5.701     10.834
REMARK INTER + INTRA:          -5.360
REMARK INTER:                  -4.397
REMARK INTRA:                  -0.963
REMARK UNBOUND:                -0.993
REMARK SMILES CCCCCC=CCC=CCCCCCCCC(=O)[O-]
REMARK SMILES IDX 11 1 12 2 13 3 14 4 15 5 16 6 17 7 18 8 19 9 20 10 10 11
REMARK SMILES IDX 9 12 8 13 7 14 6 15 5 16 4 17 3 18 2 19 1 20
REMARK H PARENT
REMARK Flexibility Score: inf
ROOT
ATOM      1  C   UNL     1      17.700  11.160 -10.090  1.00  0.00     0.027 C 
ENDROOT
BRANCH   1   2
ATOM      2  C   UNL     1      17.649  12.548 -10.747  1.00  0.00     0.004 C 
BRANCH   2   3
ATOM      3  C   UNL     1      19.047  13.143 -10.981  1.00  0.00     0.000 C 
BRANCH   3   4
ATOM      4  C   UNL     1      19.100  14.653 -10.688  1.00  0.00     0.000 C 
BRANCH   4   5
ATOM      5  C   UNL     1      19.215  14.963  -9.187  1.00  0.00     0.000 C 
BRANCH   5   6
ATOM      6  C   UNL     1      20.083  16.197  -8.899  1.00  0.00     0.006 C 
BRANCH   6   7
ATOM      7  C   UNL     1      20.918  16.579 -10.126  1.00  0.00     0.053 C 
BRANCH   7   8
ATOM      8  C   UNL     1      22.330  16.107  -9.972  1.00  0.00     0.041 C 
ATOM      9  O   UNL     1      22.834  15.330 -10.824  1.00  0.00    -0.550 OA
ATOM     10  O   UNL     1      23.074  16.491  -8.863  1.00  0.00    -0.550 OA
ENDBRANCH   7   8
ENDBRANCH   6   7
ENDBRANCH   5   6
ENDBRANCH   4   5
ENDBRANCH   3   4
ENDBRANCH   2   3
ENDBRANCH   1   2
BRANCH   1  11
ATOM     11  C   UNL     1      18.719  11.125  -8.985  1.00  0.00    -0.031 C 
ATOM     12  C   UNL     1      18.529  10.393  -7.877  1.00  0.00    -0.027 C 
BRANCH  12  13
ATOM     13  C   UNL     1      19.526  10.387  -6.751  1.00  0.00     0.054 C 
BRANCH  13  14
ATOM     14  C   UNL     1      20.801   9.682  -7.143  1.00  0.00    -0.027 C 
ATOM     15  C   UNL     1      21.266   8.560  -6.562  1.00  0.00    -0.031 C 
BRANCH  15  16
ATOM     16  C   UNL     1      20.559   7.801  -5.468  1.00  0.00     0.027 C 
BRANCH  16  17
ATOM     17  C   UNL     1      21.556   6.971  -4.645  1.00  0.00     0.004 C 
BRANCH  17  18
ATOM     18  C   UNL     1      20.853   6.102  -3.581  1.00  0.00     0.000 C 
BRANCH  18  19
ATOM     19  C   UNL     1      21.076   6.587  -2.139  1.00  0.00    -0.003 C 
ATOM     20  C   UNL     1      20.022   6.069  -1.164  1.00  0.00     0.004 C 
ENDBRANCH  18  19
ENDBRANCH  17  18
ENDBRANCH  16  17
ENDBRANCH  15  16
ENDBRANCH  13  14
ENDBRANCH  12  13
ENDBRANCH   1  11
TORSDOF 14
ENDMDL
MODEL 9
REMARK VINA RESULT:    -2.394      5.933      9.405
REMARK INTER + INTRA:          -5.346
REMARK INTER:                  -3.535
REMARK INTRA:                  -1.811
REMARK UNBOUND:                -0.993
REMARK SMILES CCCCCC=CCC=CCCCCCCCC(=O)[O-]
REMARK SMILES IDX 11 1 12 2 13 3 14 4 15 5 16 6 17 7 18 8 19 9 20 10 10 11
REMARK SMILES IDX 9 12 8 13 7 14 6 15 5 16 4 17 3 18 2 19 1 20
REMARK H PARENT
REMARK Flexibility Score: inf
ROOT
ATOM      1  C   UNL     1      18.707  14.770  -7.438  1.00  0.00     0.027 C 
ENDROOT
BRANCH   1   2
ATOM      2  C   UNL     1      19.528  15.635  -8.407  1.00  0.00     0.004 C 
BRANCH   2   3
ATOM      3  C   UNL     1      18.734  16.837  -8.946  1.00  0.00     0.000 C 
BRANCH   3   4
ATOM      4  C   UNL     1      18.433  16.715 -10.450  1.00  0.00     0.000 C 
BRANCH   4   5
ATOM      5  C   UNL     1      18.814  15.341 -11.022  1.00  0.00     0.000 C 
BRANCH   5   6
ATOM      6  C   UNL     1      17.617  14.384 -11.121  1.00  0.00     0.006 C 
BRANCH   6   7
ATOM      7  C   UNL     1      18.029  12.951 -10.766  1.00  0.00     0.053 C 
BRANCH   7   8
ATOM      8  C   UNL     1      16.889  12.006 -10.977  1.00  0.00     0.041 C 
ATOM      9  O   UNL     1      15.717  12.448 -11.111  1.00  0.00    -0.550 OA
ATOM     10  O   UNL     1      17.113  10.635 -10.983  1.00  0.00    -0.550 OA
ENDBRANCH   7   8
ENDBRANCH   6   7
ENDBRANCH   5   6
ENDBRANCH   4   5
ENDBRANCH   3   4
ENDBRANCH   2   3
ENDBRANCH   1   2
BRANCH   1  11
ATOM     11  C   UNL     1      18.931  13.307  -7.702  1.00  0.00    -0.031 C 
ATOM     12  C   UNL     1      18.683  12.378  -6.766  1.00  0.00    -0.027 C 
BRANCH  12  13
ATOM     13  C   UNL     1      18.943  10.917  -7.010  1.00  0.00     0.054 C 
BRANCH  13  14
ATOM     14  C   UNL     1      20.077  10.406  -6.158  1.00  0.00    -0.027 C 
ATOM     15  C   UNL     1      21.053   9.585  -6.592  1.00  0.00    -0.031 C 
BRANCH  15  16
ATOM     16  C   UNL     1      21.195   9.094  -8.011  1.00  0.00     0.027 C 
BRANCH  16  17
ATOM     17  C   UNL     1      22.165   9.983  -8.803  1.00  0.00     0.004 C 
BRANCH  17  18
ATOM     18  C   UNL     1      21.426  11.007  -9.690  1.00  0.00     0.000 C 
BRANCH  18  19
ATOM     19  C   UNL     1      22.363  11.862 -10.560  1.00  0.00    -0.003 C 
ATOM     20  C   UNL     1      21.822  13.267 -10.817  1.00  0.00     0.004 C 
ENDBRANCH  18  19
ENDBRANCH  17  18
ENDBRANCH  16  17
ENDBRANCH  15  16
ENDBRANCH  13  14
ENDBRANCH  12  13
ENDBRANCH   1  11
TORSDOF 14
ENDMDL
