MODEL 1
REMARK VINA RESULT:    -2.060      0.000      0.000
REMARK INTER + INTRA:          -2.786
REMARK INTER:                  -2.663
REMARK INTRA:                  -0.123
REMARK UNBOUND:                -0.123
REMARK SMILES CCCCCCC(=O)[O-]
REMARK SMILES IDX 5 1 6 2 7 3 8 4 9 5 4 6 3 7 2 8 1 9
REMARK H PARENT
REMARK Flexibility Score: inf
ROOT
ATOM      1  C   UNL     1     -31.441  18.371 -10.421  1.00  0.00     0.006 C 
ENDROOT
BRANCH   1   2
ATOM      2  C   UNL     1     -29.952  18.564 -10.738  1.00  0.00     0.053 C 
BRANCH   2   3
ATOM      3  C   UNL     1     -29.425  17.394 -11.506  1.00  0.00     0.041 C 
ATOM      4  O   UNL     1     -28.793  17.575 -12.581  1.00  0.00    -0.550 OA
ATOM      5  O   UNL     1     -29.673  16.101 -11.063  1.00  0.00    -0.550 OA
ENDBRANCH   2   3
ENDBRANCH   1   2
BRANCH   1   6
ATOM      6  C   UNL     1     -32.229  19.693 -10.411  1.00  0.00     0.000 C 
BRANCH   6   7
ATOM      7  C   UNL     1     -31.364  20.966 -10.356  1.00  0.00    -0.000 C 
BRANCH   7   8
ATOM      8  C   UNL     1     -32.150  22.238 -10.706  1.00  0.00    -0.003 C 
ATOM      9  C   UNL     1     -31.846  23.360  -9.717  1.00  0.00     0.004 C 
ENDBRANCH   7   8
ENDBRANCH   6   7
ENDBRANCH   1   6
TORSDOF 5
ENDMDL
MODEL 2
REMARK VINA RESULT:    -1.818      3.880      5.589
REMARK INTER + INTRA:          -2.473
REMARK INTER:                  -2.353
REMARK INTRA:                  -0.120
REMARK UNBOUND:                -0.123
REMARK SMILES CCCCCCC(=O)[O-]
REMARK SMILES IDX 5 1 6 2 7 3 8 4 9 5 4 6 3 7 2 8 1 9
REMARK H PARENT
REMARK Flexibility Score: inf
ROOT
ATOM      1  C   UNL     1     -32.218  20.928 -10.035  1.00  0.00     0.006 C 
ENDROOT
BRANCH   1   2
ATOM      2  C   UNL     1     -31.842  22.221 -10.771  1.00  0.00     0.053 C 
BRANCH   2   3
ATOM      3  C   UNL     1     -32.366  23.413 -10.035  1.00  0.00     0.041 C 
ATOM      4  O   UNL     1     -31.603  24.085  -9.292  1.00  0.00    -0.550 OA
ATOM      5  O   UNL     1     -33.710  23.754 -10.129  1.00  0.00    -0.550 OA
ENDBRANCH   2   3
ENDBRANCH   1   2
BRANCH   1   6
ATOM      6  C   UNL     1     -31.297  19.747 -10.389  1.00  0.00     0.000 C 
BRANCH   6   7
ATOM      7  C   UNL     1     -31.988  18.371 -10.425  1.00  0.00    -0.000 C 
BRANCH   7   8
ATOM      8  C   UNL     1     -30.994  17.207 -10.550  1.00  0.00    -0.003 C 
ATOM      9  C   UNL     1     -29.602  17.711 -10.919  1.00  0.00     0.004 C 
ENDBRANCH   7   8
ENDBRANCH   6   7
ENDBRANCH   1   6
TORSDOF 5
ENDMDL
MODEL 3
REMARK VINA RESULT:    -1.593      3.207      5.140
REMARK INTER + INTRA:          -2.182
REMARK INTER:                  -2.029
REMARK INTRA:                  -0.153
REMARK UNBOUND:                -0.123
REMARK SMILES CCCCCCC(=O)[O-]
REMARK SMILES IDX 5 1 6 2 7 3 8 4 9 5 4 6 3 7 2 8 1 9
REMARK H PARENT
REMARK Flexibility Score: inf
ROOT
ATOM      1  C   UNL     1     -31.512  19.930 -10.344  1.00  0.00     0.006 C 
ENDROOT
BRANCH   1   2
ATOM      2  C   UNL     1     -32.514  21.071 -10.119  1.00  0.00     0.053 C 
BRANCH   2   3
ATOM      3  C   UNL     1     -31.841  22.397 -10.283  1.00  0.00     0.041 C 
ATOM      4  O   UNL     1     -30.665  22.459 -10.729  1.00  0.00    -0.550 OA
ATOM      5  O   UNL     1     -32.493  23.561  -9.897  1.00  0.00    -0.550 OA
ENDBRANCH   2   3
ENDBRANCH   1   2
BRANCH   1   6
ATOM      6  C   UNL     1     -32.177  18.542 -10.355  1.00  0.00     0.000 C 
BRANCH   6   7
ATOM      7  C   UNL     1     -31.202  17.354 -10.455  1.00  0.00    -0.000 C 
BRANCH   7   8
ATOM      8  C   UNL     1     -29.760  17.790 -10.754  1.00  0.00    -0.003 C 
ATOM      9  C   UNL     1     -29.100  16.847 -11.757  1.00  0.00     0.004 C 
ENDBRANCH   7   8
ENDBRANCH   6   7
ENDBRANCH   1   6
TORSDOF 5
ENDMDL
MODEL 4
REMARK VINA RESULT:    -1.535     20.405     22.150
REMARK INTER + INTRA:          -2.107
REMARK INTER:                  -1.964
REMARK INTRA:                  -0.143
REMARK UNBOUND:                -0.123
REMARK SMILES CCCCCCC(=O)[O-]
REMARK SMILES IDX 5 1 6 2 7 3 8 4 9 5 4 6 3 7 2 8 1 9
REMARK H PARENT
REMARK Flexibility Score: inf
ROOT
ATOM      1  C   UNL     1     -17.905   4.703 -19.287  1.00  0.00     0.006 C 
ENDROOT
BRANCH   1   2
ATOM      2  C   UNL     1     -19.124   4.206 -20.074  1.00  0.00     0.053 C 
BRANCH   2   3
ATOM      3  C   UNL     1     -20.312   4.080 -19.173  1.00  0.00     0.041 C 
ATOM      4  O   UNL     1     -20.152   3.876 -17.940  1.00  0.00    -0.550 OA
ATOM      5  O   UNL     1     -21.595   4.137 -19.701  1.00  0.00    -0.550 OA
ENDBRANCH   2   3
ENDBRANCH   1   2
BRANCH   1   6
ATOM      6  C   UNL     1     -16.636   3.875 -19.561  1.00  0.00     0.000 C 
BRANCH   6   7
ATOM      7  C   UNL     1     -15.598   3.879 -18.423  1.00  0.00    -0.000 C 
BRANCH   7   8
ATOM      8  C   UNL     1     -14.151   3.926 -18.936  1.00  0.00    -0.003 C 
ATOM      9  C   UNL     1     -13.906   5.177 -19.774  1.00  0.00     0.004 C 
ENDBRANCH   7   8
ENDBRANCH   6   7
ENDBRANCH   1   6
TORSDOF 5
ENDMDL
MODEL 5
REMARK VINA RESULT:    -0.151     20.300     21.852
REMARK INTER + INTRA:          -0.318
REMARK INTER:                  -0.168
REMARK INTRA:                  -0.151
REMARK UNBOUND:                -0.123
REMARK SMILES CCCCCCC(=O)[O-]
REMARK SMILES IDX 5 1 6 2 7 3 8 4 9 5 4 6 3 7 2 8 1 9
REMARK H PARENT
REMARK Flexibility Score: inf
ROOT
ATOM      1  C   UNL     1     -17.456   4.790 -19.457  1.00  0.00     0.006 C 
ENDROOT
BRANCH   1   2
ATOM      2  C   UNL     1     -16.117   4.215 -19.935  1.00  0.00     0.053 C 
BRANCH   2   3
ATOM      3  C   UNL     1     -15.124   4.203 -18.816  1.00  0.00     0.041 C 
ATOM      4  O   UNL     1     -13.908   4.440 -19.046  1.00  0.00    -0.550 OA
ATOM      5  O   UNL     1     -15.530   3.881 -17.527  1.00  0.00    -0.550 OA
ENDBRANCH   2   3
ENDBRANCH   1   2
BRANCH   1   6
ATOM      6  C   UNL     1     -18.651   3.875 -19.779  1.00  0.00     0.000 C 
BRANCH   6   7
ATOM      7  C   UNL     1     -19.977   4.609 -20.055  1.00  0.00    -0.000 C 
BRANCH   7   8
ATOM      8  C   UNL     1     -21.161   4.015 -19.278  1.00  0.00    -0.003 C 
ATOM      9  C   UNL     1     -20.928   4.100 -17.773  1.00  0.00     0.004 C 
ENDBRANCH   7   8
ENDBRANCH   6   7
ENDBRANCH   1   6
TORSDOF 5
ENDMDL
