MODEL 1
REMARK VINA RESULT:    -5.935      0.000      0.000
REMARK INTER + INTRA:          -6.281
REMARK INTER:                  -6.281
REMARK INTRA:                   0.000
REMARK UNBOUND:                 0.000
REMARK SMILES O=c1ccc2cc(O)c(O)cc2o1
REMARK SMILES IDX 4 1 3 2 2 3 1 4 13 5 12 6 11 7 9 8 7 9 6 10 5 11 8 12 10 14
REMARK H PARENT 8 13 10 15
REMARK Flexibility Score: inf
ROOT
ATOM      1  C   UNL     1      -4.628  -4.076  44.521  1.00  0.00     0.019 A 
ATOM      2  C   UNL     1      -4.001  -2.909  44.959  1.00  0.00     0.094 A 
ATOM      3  C   UNL     1      -4.287  -2.425  46.239  1.00  0.00     0.336 A 
ATOM      4  O   UNL     1      -3.731  -1.374  46.652  1.00  0.00    -0.246 OA
ATOM      5  O   UNL     1      -5.145  -3.069  47.028  1.00  0.00    -0.423 OA
ATOM      6  C   UNL     1      -5.765  -4.185  46.649  1.00  0.00     0.142 A 
ATOM      7  C   UNL     1      -6.656  -4.819  47.520  1.00  0.00     0.098 A 
ATOM      8  C   UNL     1      -7.313  -5.995  47.126  1.00  0.00     0.161 A 
ATOM      9  C   UNL     1      -7.075  -6.538  45.855  1.00  0.00     0.158 A 
ATOM     10  C   UNL     1      -6.181  -5.907  44.978  1.00  0.00     0.062 A 
ATOM     11  C   UNL     1      -5.526  -4.732  45.370  1.00  0.00     0.022 A 
ENDROOT
BRANCH   9  12
ATOM     12  O   UNL     1      -7.731  -7.707  45.473  1.00  0.00    -0.504 OA
ATOM     13  H   UNL     1      -7.596  -8.114  44.554  1.00  0.00     0.293 HD
ENDBRANCH   9  12
BRANCH   8  14
ATOM     14  O   UNL     1      -8.202  -6.628  47.993  1.00  0.00    -0.504 OA
ATOM     15  H   UNL     1      -9.191  -6.408  47.990  1.00  0.00     0.293 HD
ENDBRANCH   8  14
TORSDOF 2
ENDMDL
MODEL 2
REMARK VINA RESULT:    -5.893      1.484      4.564
REMARK INTER + INTRA:          -6.238
REMARK INTER:                  -6.238
REMARK INTRA:                   0.000
REMARK UNBOUND:                 0.000
REMARK SMILES O=c1ccc2cc(O)c(O)cc2o1
REMARK SMILES IDX 4 1 3 2 2 3 1 4 13 5 12 6 11 7 9 8 7 9 6 10 5 11 8 12 10 14
REMARK H PARENT 8 13 10 15
REMARK Flexibility Score: inf
ROOT
ATOM      1  C   UNL     1      -4.768  -4.338  44.297  1.00  0.00     0.019 A 
ATOM      2  C   UNL     1      -5.484  -5.535  44.297  1.00  0.00     0.094 A 
ATOM      3  C   UNL     1      -6.313  -5.830  45.384  1.00  0.00     0.336 A 
ATOM      4  O   UNL     1      -6.967  -6.906  45.402  1.00  0.00    -0.246 OA
ATOM      5  O   UNL     1      -6.417  -4.979  46.403  1.00  0.00    -0.423 OA
ATOM      6  C   UNL     1      -5.752  -3.827  46.442  1.00  0.00     0.142 A 
ATOM      7  C   UNL     1      -5.901  -2.972  47.538  1.00  0.00     0.098 A 
ATOM      8  C   UNL     1      -5.202  -1.756  47.586  1.00  0.00     0.161 A 
ATOM      9  C   UNL     1      -4.352  -1.394  46.531  1.00  0.00     0.158 A 
ATOM     10  C   UNL     1      -4.199  -2.248  45.428  1.00  0.00     0.062 A 
ATOM     11  C   UNL     1      -4.896  -3.463  45.380  1.00  0.00     0.022 A 
ENDROOT
BRANCH   9  12
ATOM     12  O   UNL     1      -3.662  -0.184  46.586  1.00  0.00    -0.504 OA
ATOM     13  H   UNL     1      -3.796   0.534  45.883  1.00  0.00     0.293 HD
ENDBRANCH   9  12
BRANCH   8  14
ATOM     14  O   UNL     1      -5.348  -0.902  48.678  1.00  0.00    -0.504 OA
ATOM     15  H   UNL     1      -5.929  -0.073  48.628  1.00  0.00     0.293 HD
ENDBRANCH   8  14
TORSDOF 2
ENDMDL
MODEL 3
REMARK VINA RESULT:    -5.726      1.923      4.869
REMARK INTER + INTRA:          -6.061
REMARK INTER:                  -6.061
REMARK INTRA:                   0.000
REMARK UNBOUND:                 0.000
REMARK SMILES O=c1ccc2cc(O)c(O)cc2o1
REMARK SMILES IDX 4 1 3 2 2 3 1 4 13 5 12 6 11 7 9 8 7 9 6 10 5 11 8 12 10 14
REMARK H PARENT 8 13 10 15
REMARK Flexibility Score: inf
ROOT
ATOM      1  C   UNL     1      -6.713  -5.151  46.626  1.00  0.00     0.019 A 
ATOM      2  C   UNL     1      -6.674  -6.062  45.571  1.00  0.00     0.094 A 
ATOM      3  C   UNL     1      -5.819  -5.814  44.492  1.00  0.00     0.336 A 
ATOM      4  O   UNL     1      -5.771  -6.625  43.530  1.00  0.00    -0.246 OA
ATOM      5  O   UNL     1      -5.055  -4.724  44.474  1.00  0.00    -0.423 OA
ATOM      6  C   UNL     1      -5.061  -3.830  45.460  1.00  0.00     0.142 A 
ATOM      7  C   UNL     1      -4.236  -2.704  45.387  1.00  0.00     0.098 A 
ATOM      8  C   UNL     1      -4.239  -1.758  46.422  1.00  0.00     0.161 A 
ATOM      9  C   UNL     1      -5.071  -1.940  47.536  1.00  0.00     0.158 A 
ATOM     10  C   UNL     1      -5.900  -3.069  47.616  1.00  0.00     0.062 A 
ATOM     11  C   UNL     1      -5.899  -4.014  46.581  1.00  0.00     0.022 A 
ENDROOT
BRANCH   9  12
ATOM     12  O   UNL     1      -5.067  -0.995  48.561  1.00  0.00    -0.504 OA
ATOM     13  H   UNL     1      -4.672  -0.071  48.427  1.00  0.00     0.293 HD
ENDBRANCH   9  12
BRANCH   8  14
ATOM     14  O   UNL     1      -3.418  -0.634  46.352  1.00  0.00    -0.504 OA
ATOM     15  H   UNL     1      -2.569  -0.562  46.901  1.00  0.00     0.293 HD
ENDBRANCH   8  14
TORSDOF 2
ENDMDL
MODEL 4
REMARK VINA RESULT:    -5.672      1.077      2.237
REMARK INTER + INTRA:          -6.004
REMARK INTER:                  -6.004
REMARK INTRA:                   0.000
REMARK UNBOUND:                 0.000
REMARK SMILES O=c1ccc2cc(O)c(O)cc2o1
REMARK SMILES IDX 4 1 3 2 2 3 1 4 13 5 12 6 11 7 9 8 7 9 6 10 5 11 8 12 10 14
REMARK H PARENT 8 13 10 15
REMARK Flexibility Score: inf
ROOT
ATOM      1  C   UNL     1      -5.118  -2.893  47.212  1.00  0.00     0.019 A 
ATOM      2  C   UNL     1      -4.256  -2.220  46.348  1.00  0.00     0.094 A 
ATOM      3  C   UNL     1      -4.052  -2.728  45.061  1.00  0.00     0.336 A 
ATOM      4  O   UNL     1      -3.277  -2.134  44.266  1.00  0.00    -0.246 OA
ATOM      5  O   UNL     1      -4.674  -3.838  44.668  1.00  0.00    -0.423 OA
ATOM      6  C   UNL     1      -5.505  -4.510  45.460  1.00  0.00     0.142 A 
ATOM      7  C   UNL     1      -6.130  -5.670  44.994  1.00  0.00     0.098 A 
ATOM      8  C   UNL     1      -7.006  -6.384  45.825  1.00  0.00     0.161 A 
ATOM      9  C   UNL     1      -7.258  -5.934  47.129  1.00  0.00     0.158 A 
ATOM     10  C   UNL     1      -6.634  -4.770  47.603  1.00  0.00     0.062 A 
ATOM     11  C   UNL     1      -5.758  -4.057  46.774  1.00  0.00     0.022 A 
ENDROOT
BRANCH   9  12
ATOM     12  O   UNL     1      -8.130  -6.649  47.948  1.00  0.00    -0.504 OA
ATOM     13  H   UNL     1      -8.955  -6.216  48.350  1.00  0.00     0.293 HD
ENDBRANCH   9  12
BRANCH   8  14
ATOM     14  O   UNL     1      -7.631  -7.541  45.362  1.00  0.00    -0.504 OA
ATOM     15  H   UNL     1      -7.251  -8.460  45.552  1.00  0.00     0.293 HD
ENDBRANCH   8  14
TORSDOF 2
ENDMDL
MODEL 5
REMARK VINA RESULT:    -5.649      2.782      4.111
REMARK INTER + INTRA:          -5.979
REMARK INTER:                  -5.979
REMARK INTRA:                   0.000
REMARK UNBOUND:                 0.000
REMARK SMILES O=c1ccc2cc(O)c(O)cc2o1
REMARK SMILES IDX 4 1 3 2 2 3 1 4 13 5 12 6 11 7 9 8 7 9 6 10 5 11 8 12 10 14
REMARK H PARENT 8 13 10 15
REMARK Flexibility Score: inf
ROOT
ATOM      1  C   UNL     1      -2.832  -3.572  44.521  1.00  0.00     0.019 A 
ATOM      2  C   UNL     1      -1.855  -2.864  43.822  1.00  0.00     0.094 A 
ATOM      3  C   UNL     1      -1.609  -1.530  44.164  1.00  0.00     0.336 A 
ATOM      4  O   UNL     1      -0.732  -0.874  43.544  1.00  0.00    -0.246 OA
ATOM      5  O   UNL     1      -2.299  -0.946  45.142  1.00  0.00    -0.423 OA
ATOM      6  C   UNL     1      -3.239  -1.586  45.834  1.00  0.00     0.142 A 
ATOM      7  C   UNL     1      -3.931  -0.922  46.851  1.00  0.00     0.098 A 
ATOM      8  C   UNL     1      -4.924  -1.591  47.583  1.00  0.00     0.161 A 
ATOM      9  C   UNL     1      -5.224  -2.930  47.295  1.00  0.00     0.158 A 
ATOM     10  C   UNL     1      -4.532  -3.602  46.277  1.00  0.00     0.062 A 
ATOM     11  C   UNL     1      -3.542  -2.934  45.544  1.00  0.00     0.022 A 
ENDROOT
BRANCH   9  12
ATOM     12  O   UNL     1      -6.211  -3.587  48.029  1.00  0.00    -0.504 OA
ATOM     13  H   UNL     1      -7.191  -3.341  47.937  1.00  0.00     0.293 HD
ENDBRANCH   9  12
BRANCH   8  14
ATOM     14  O   UNL     1      -5.615  -0.931  48.598  1.00  0.00    -0.504 OA
ATOM     15  H   UNL     1      -6.524  -1.250  48.913  1.00  0.00     0.293 HD
ENDBRANCH   8  14
TORSDOF 2
ENDMDL
MODEL 6
REMARK VINA RESULT:    -5.491     13.452     15.118
REMARK INTER + INTRA:          -5.812
REMARK INTER:                  -5.812
REMARK INTRA:                   0.000
REMARK UNBOUND:                 0.000
REMARK SMILES O=c1ccc2cc(O)c(O)cc2o1
REMARK SMILES IDX 4 1 3 2 2 3 1 4 13 5 12 6 11 7 9 8 7 9 6 10 5 11 8 12 10 14
REMARK H PARENT 8 13 10 15
REMARK Flexibility Score: inf
ROOT
ATOM      1  C   UNL     1      -5.026 -17.139  49.165  1.00  0.00     0.019 A 
ATOM      2  C   UNL     1      -6.012 -17.771  49.922  1.00  0.00     0.094 A 
ATOM      3  C   UNL     1      -5.846 -19.117  50.265  1.00  0.00     0.336 A 
ATOM      4  O   UNL     1      -6.725 -19.704  50.948  1.00  0.00    -0.246 OA
ATOM      5  O   UNL     1      -4.762 -19.784  49.873  1.00  0.00    -0.423 OA
ATOM      6  C   UNL     1      -3.798 -19.219  49.151  1.00  0.00     0.142 A 
ATOM      7  C   UNL     1      -2.681 -19.969  48.768  1.00  0.00     0.098 A 
ATOM      8  C   UNL     1      -1.662 -19.380  48.005  1.00  0.00     0.161 A 
ATOM      9  C   UNL     1      -1.761 -18.033  47.624  1.00  0.00     0.158 A 
ATOM     10  C   UNL     1      -2.878 -17.276  48.006  1.00  0.00     0.062 A 
ATOM     11  C   UNL     1      -3.897 -17.864  48.767  1.00  0.00     0.022 A 
ENDROOT
BRANCH   9  12
ATOM     12  O   UNL     1      -0.743 -17.456  46.867  1.00  0.00    -0.504 OA
ATOM     13  H   UNL     1      -0.917 -17.086  45.939  1.00  0.00     0.293 HD
ENDBRANCH   9  12
BRANCH   8  14
ATOM     14  O   UNL     1      -0.548 -20.125  47.622  1.00  0.00    -0.504 OA
ATOM     15  H   UNL     1       0.367 -19.700  47.531  1.00  0.00     0.293 HD
ENDBRANCH   8  14
TORSDOF 2
ENDMDL
MODEL 7
REMARK VINA RESULT:    -5.398      3.009      4.692
REMARK INTER + INTRA:          -5.714
REMARK INTER:                  -5.714
REMARK INTRA:                   0.000
REMARK UNBOUND:                 0.000
REMARK SMILES O=c1ccc2cc(O)c(O)cc2o1
REMARK SMILES IDX 4 1 3 2 2 3 1 4 13 5 12 6 11 7 9 8 7 9 6 10 5 11 8 12 10 14
REMARK H PARENT 8 13 10 15
REMARK Flexibility Score: inf
ROOT
ATOM      1  C   UNL     1      -3.617  -0.177  43.949  1.00  0.00     0.019 A 
ATOM      2  C   UNL     1      -3.275  -0.717  42.710  1.00  0.00     0.094 A 
ATOM      3  C   UNL     1      -3.320  -2.105  42.540  1.00  0.00     0.336 A 
ATOM      4  O   UNL     1      -3.013  -2.611  41.428  1.00  0.00    -0.246 OA
ATOM      5  O   UNL     1      -3.684  -2.897  43.546  1.00  0.00    -0.423 OA
ATOM      6  C   UNL     1      -4.019  -2.422  44.743  1.00  0.00     0.142 A 
ATOM      7  C   UNL     1      -4.394  -3.301  45.763  1.00  0.00     0.098 A 
ATOM      8  C   UNL     1      -4.748  -2.807  47.028  1.00  0.00     0.161 A 
ATOM      9  C   UNL     1      -4.726  -1.426  47.272  1.00  0.00     0.158 A 
ATOM     10  C   UNL     1      -4.351  -0.539  46.252  1.00  0.00     0.062 A 
ATOM     11  C   UNL     1      -3.997  -1.032  44.989  1.00  0.00     0.022 A 
ENDROOT
BRANCH   9  12
ATOM     12  O   UNL     1      -5.079  -0.944  48.531  1.00  0.00    -0.504 OA
ATOM     13  H   UNL     1      -5.645  -0.109  48.639  1.00  0.00     0.293 HD
ENDBRANCH   9  12
BRANCH   8  14
ATOM     14  O   UNL     1      -5.122  -3.682  48.047  1.00  0.00    -0.504 OA
ATOM     15  H   UNL     1      -4.821  -4.649  48.051  1.00  0.00     0.293 HD
ENDBRANCH   8  14
TORSDOF 2
ENDMDL
MODEL 8
REMARK VINA RESULT:    -5.262      5.821      7.526
REMARK INTER + INTRA:          -5.569
REMARK INTER:                  -5.569
REMARK INTRA:                   0.000
REMARK UNBOUND:                 0.000
REMARK SMILES O=c1ccc2cc(O)c(O)cc2o1
REMARK SMILES IDX 4 1 3 2 2 3 1 4 13 5 12 6 11 7 9 8 7 9 6 10 5 11 8 12 10 14
REMARK H PARENT 8 13 10 15
REMARK Flexibility Score: inf
ROOT
ATOM      1  C   UNL     1     -11.688  -4.745  40.546  1.00  0.00     0.019 A 
ATOM      2  C   UNL     1     -11.573  -4.845  39.160  1.00  0.00     0.094 A 
ATOM      3  C   UNL     1     -10.526  -5.598  38.619  1.00  0.00     0.336 A 
ATOM      4  O   UNL     1     -10.406  -5.700  37.369  1.00  0.00    -0.246 OA
ATOM      5  O   UNL     1      -9.654  -6.211  39.416  1.00  0.00    -0.423 OA
ATOM      6  C   UNL     1      -9.728  -6.142  40.743  1.00  0.00     0.142 A 
ATOM      7  C   UNL     1      -8.783  -6.806  41.531  1.00  0.00     0.098 A 
ATOM      8  C   UNL     1      -8.856  -6.736  42.931  1.00  0.00     0.161 A 
ATOM      9  C   UNL     1      -9.879  -5.998  43.543  1.00  0.00     0.158 A 
ATOM     10  C   UNL     1     -10.830  -5.330  42.758  1.00  0.00     0.062 A 
ATOM     11  C   UNL     1     -10.757  -5.399  41.361  1.00  0.00     0.022 A 
ENDROOT
BRANCH   9  12
ATOM     12  O   UNL     1      -9.943  -5.935  44.934  1.00  0.00    -0.504 OA
ATOM     13  H   UNL     1      -9.786  -5.066  45.433  1.00  0.00     0.293 HD
ENDBRANCH   9  12
BRANCH   8  14
ATOM     14  O   UNL     1      -7.915  -7.398  43.718  1.00  0.00    -0.504 OA
ATOM     15  H   UNL     1      -7.607  -7.018  44.606  1.00  0.00     0.293 HD
ENDBRANCH   8  14
TORSDOF 2
ENDMDL
MODEL 9
REMARK VINA RESULT:    -5.082      6.003      7.386
REMARK INTER + INTRA:          -5.379
REMARK INTER:                  -5.379
REMARK INTRA:                   0.000
REMARK UNBOUND:                 0.000
REMARK SMILES O=c1ccc2cc(O)c(O)cc2o1
REMARK SMILES IDX 4 1 3 2 2 3 1 4 13 5 12 6 11 7 9 8 7 9 6 10 5 11 8 12 10 14
REMARK H PARENT 8 13 10 15
REMARK Flexibility Score: inf
ROOT
ATOM      1  C   UNL     1      -9.955  -5.897  39.257  1.00  0.00     0.019 A 
ATOM      2  C   UNL     1     -10.927  -5.136  38.608  1.00  0.00     0.094 A 
ATOM      3  C   UNL     1     -11.864  -4.436  39.375  1.00  0.00     0.336 A 
ATOM      4  O   UNL     1     -12.749  -3.743  38.807  1.00  0.00    -0.246 OA
ATOM      5  O   UNL     1     -11.827  -4.495  40.705  1.00  0.00    -0.423 OA
ATOM      6  C   UNL     1     -10.917  -5.209  41.363  1.00  0.00     0.142 A 
ATOM      7  C   UNL     1     -10.926  -5.235  42.761  1.00  0.00     0.098 A 
ATOM      8  C   UNL     1      -9.970  -5.986  43.460  1.00  0.00     0.161 A 
ATOM      9  C   UNL     1      -8.999  -6.714  42.757  1.00  0.00     0.158 A 
ATOM     10  C   UNL     1      -8.984  -6.692  41.355  1.00  0.00     0.062 A 
ATOM     11  C   UNL     1      -9.940  -5.943  40.655  1.00  0.00     0.022 A 
ENDROOT
BRANCH   9  12
ATOM     12  O   UNL     1      -8.053  -7.457  43.461  1.00  0.00    -0.504 OA
ATOM     13  H   UNL     1      -7.158  -7.701  43.049  1.00  0.00     0.293 HD
ENDBRANCH   9  12
BRANCH   8  14
ATOM     14  O   UNL     1      -9.978  -6.013  44.854  1.00  0.00    -0.504 OA
ATOM     15  H   UNL     1     -10.806  -5.770  45.384  1.00  0.00     0.293 HD
ENDBRANCH   8  14
TORSDOF 2
ENDMDL
