MODEL 1
REMARK VINA RESULT:    -4.666      0.000      0.000
REMARK INTER + INTRA:         -13.577
REMARK INTER:                 -10.121
REMARK INTRA:                  -3.455
REMARK UNBOUND:                -3.455
REMARK SMILES CCCCCCCCCCCCCCCCCCCCCC(=O)[O-]
REMARK SMILES IDX 12 1 11 2 10 3 9 4 8 5 7 6 6 7 5 8 4 9 3 10 2 11 1 12 13 13
REMARK SMILES IDX 14 14 15 15 16 16 17 17 18 18 19 19 20 20 21 21 22 22 23 23
REMARK SMILES IDX 24 24
REMARK H PARENT
REMARK Flexibility Score: inf
ROOT
ATOM      1  C   UNL     1     -23.939 -35.528 -12.580  1.00  0.00     0.000 C 
ENDROOT
BRANCH   1   2
ATOM      2  C   UNL     1     -24.924 -34.648 -11.796  1.00  0.00     0.000 C 
BRANCH   2   3
ATOM      3  C   UNL     1     -24.772 -33.153 -12.127  1.00  0.00     0.000 C 
BRANCH   3   4
ATOM      4  C   UNL     1     -25.039 -32.246 -10.914  1.00  0.00    -0.000 C 
BRANCH   4   5
ATOM      5  C   UNL     1     -25.355 -30.795 -11.318  1.00  0.00    -0.000 C 
BRANCH   5   6
ATOM      6  C   UNL     1     -25.675 -30.658 -12.816  1.00  0.00    -0.000 C 
BRANCH   6   7
ATOM      7  C   UNL     1     -27.098 -30.130 -13.073  1.00  0.00    -0.000 C 
BRANCH   7   8
ATOM      8  C   UNL     1     -28.184 -31.070 -12.527  1.00  0.00    -0.000 C 
BRANCH   8   9
ATOM      9  C   UNL     1     -28.275 -32.388 -13.310  1.00  0.00    -0.000 C 
BRANCH   9  10
ATOM     10  C   UNL     1     -28.359 -33.587 -12.357  1.00  0.00    -0.000 C 
BRANCH  10  11
ATOM     11  C   UNL     1     -28.228 -34.909 -13.123  1.00  0.00    -0.003 C 
ATOM     12  C   UNL     1     -27.498 -34.709 -14.447  1.00  0.00     0.004 C 
ENDBRANCH  10  11
ENDBRANCH   9  10
ENDBRANCH   8   9
ENDBRANCH   7   8
ENDBRANCH   6   7
ENDBRANCH   5   6
ENDBRANCH   4   5
ENDBRANCH   3   4
ENDBRANCH   2   3
ENDBRANCH   1   2
BRANCH   1  13
ATOM     13  C   UNL     1     -22.597 -34.822 -12.849  1.00  0.00     0.000 C 
BRANCH  13  14
ATOM     14  C   UNL     1     -21.403 -35.588 -12.257  1.00  0.00     0.000 C 
BRANCH  14  15
ATOM     15  C   UNL     1     -20.113 -35.387 -13.070  1.00  0.00     0.000 C 
BRANCH  15  16
ATOM     16  C   UNL     1     -20.340 -34.593 -14.370  1.00  0.00     0.000 C 
BRANCH  16  17
ATOM     17  C   UNL     1     -19.605 -33.242 -14.446  1.00  0.00     0.000 C 
BRANCH  17  18
ATOM     18  C   UNL     1     -20.366 -32.191 -15.273  1.00  0.00     0.000 C 
BRANCH  18  19
ATOM     19  C   UNL     1     -20.820 -30.980 -14.436  1.00  0.00     0.000 C 
BRANCH  19  20
ATOM     20  C   UNL     1     -21.863 -31.288 -13.346  1.00  0.00     0.006 C 
BRANCH  20  21
ATOM     21  C   UNL     1     -21.687 -30.432 -12.086  1.00  0.00     0.053 C 
BRANCH  21  22
ATOM     22  C   UNL     1     -21.479 -31.302 -10.888  1.00  0.00     0.041 C 
ATOM     23  O   UNL     1     -20.843 -32.383 -10.992  1.00  0.00    -0.550 OA
ATOM     24  O   UNL     1     -22.026 -30.939  -9.662  1.00  0.00    -0.550 OA
ENDBRANCH  21  22
ENDBRANCH  20  21
ENDBRANCH  19  20
ENDBRANCH  18  19
ENDBRANCH  17  18
ENDBRANCH  16  17
ENDBRANCH  15  16
ENDBRANCH  14  15
ENDBRANCH  13  14
ENDBRANCH   1  13
TORSDOF 20
ENDMDL
MODEL 2
REMARK VINA RESULT:    -4.469      2.256      4.265
REMARK INTER + INTRA:         -13.150
REMARK INTER:                 -10.293
REMARK INTRA:                  -2.856
REMARK UNBOUND:                -3.455
REMARK SMILES CCCCCCCCCCCCCCCCCCCCCC(=O)[O-]
REMARK SMILES IDX 12 1 11 2 10 3 9 4 8 5 7 6 6 7 5 8 4 9 3 10 2 11 1 12 13 13
REMARK SMILES IDX 14 14 15 15 16 16 17 17 18 18 19 19 20 20 21 21 22 22 23 23
REMARK SMILES IDX 24 24
REMARK H PARENT
REMARK Flexibility Score: inf
ROOT
ATOM      1  C   UNL     1     -26.344 -35.153 -12.750  1.00  0.00     0.000 C 
ENDROOT
BRANCH   1   2
ATOM      2  C   UNL     1     -27.324 -35.085 -13.932  1.00  0.00     0.000 C 
BRANCH   2   3
ATOM      3  C   UNL     1     -27.953 -33.690 -14.098  1.00  0.00     0.000 C 
BRANCH   3   4
ATOM      4  C   UNL     1     -28.362 -33.060 -12.756  1.00  0.00    -0.000 C 
BRANCH   4   5
ATOM      5  C   UNL     1     -28.558 -31.536 -12.853  1.00  0.00    -0.000 C 
BRANCH   5   6
ATOM      6  C   UNL     1     -27.519 -30.756 -12.032  1.00  0.00    -0.000 C 
BRANCH   6   7
ATOM      7  C   UNL     1     -26.431 -30.112 -12.910  1.00  0.00    -0.000 C 
BRANCH   7   8
ATOM      8  C   UNL     1     -25.109 -30.893 -12.882  1.00  0.00    -0.000 C 
BRANCH   8   9
ATOM      9  C   UNL     1     -25.036 -31.890 -11.716  1.00  0.00    -0.000 C 
BRANCH   9  10
ATOM     10  C   UNL     1     -23.817 -31.609 -10.828  1.00  0.00    -0.000 C 
BRANCH  10  11
ATOM     11  C   UNL     1     -22.623 -31.136 -11.665  1.00  0.00    -0.003 C 
ATOM     12  C   UNL     1     -21.350 -31.883 -11.279  1.00  0.00     0.004 C 
ENDBRANCH  10  11
ENDBRANCH   9  10
ENDBRANCH   8   9
ENDBRANCH   7   8
ENDBRANCH   6   7
ENDBRANCH   5   6
ENDBRANCH   4   5
ENDBRANCH   3   4
ENDBRANCH   2   3
ENDBRANCH   1   2
BRANCH   1  13
ATOM     13  C   UNL     1     -25.072 -35.953 -13.081  1.00  0.00     0.000 C 
BRANCH  13  14
ATOM     14  C   UNL     1     -23.923 -35.660 -12.101  1.00  0.00     0.000 C 
BRANCH  14  15
ATOM     15  C   UNL     1     -22.770 -34.886 -12.760  1.00  0.00     0.000 C 
BRANCH  15  16
ATOM     16  C   UNL     1     -21.382 -35.413 -12.350  1.00  0.00     0.000 C 
BRANCH  16  17
ATOM     17  C   UNL     1     -20.348 -35.482 -13.489  1.00  0.00     0.000 C 
BRANCH  17  18
ATOM     18  C   UNL     1     -19.158 -34.531 -13.277  1.00  0.00     0.000 C 
BRANCH  18  19
ATOM     19  C   UNL     1     -19.156 -33.341 -14.254  1.00  0.00     0.000 C 
BRANCH  19  20
ATOM     20  C   UNL     1     -20.443 -33.168 -15.082  1.00  0.00     0.006 C 
BRANCH  20  21
ATOM     21  C   UNL     1     -20.782 -31.700 -15.368  1.00  0.00     0.053 C 
BRANCH  21  22
ATOM     22  C   UNL     1     -20.403 -31.340 -16.769  1.00  0.00     0.041 C 
ATOM     23  O   UNL     1     -19.407 -30.602 -16.986  1.00  0.00    -0.550 OA
ATOM     24  O   UNL     1     -21.177 -31.785 -17.834  1.00  0.00    -0.550 OA
ENDBRANCH  21  22
ENDBRANCH  20  21
ENDBRANCH  19  20
ENDBRANCH  18  19
ENDBRANCH  17  18
ENDBRANCH  16  17
ENDBRANCH  15  16
ENDBRANCH  14  15
ENDBRANCH  13  14
ENDBRANCH   1  13
TORSDOF 20
ENDMDL
MODEL 3
REMARK VINA RESULT:    -4.412      1.119      2.576
REMARK INTER + INTRA:         -13.025
REMARK INTER:                  -9.924
REMARK INTRA:                  -3.101
REMARK UNBOUND:                -3.455
REMARK SMILES CCCCCCCCCCCCCCCCCCCCCC(=O)[O-]
REMARK SMILES IDX 12 1 11 2 10 3 9 4 8 5 7 6 6 7 5 8 4 9 3 10 2 11 1 12 13 13
REMARK SMILES IDX 14 14 15 15 16 16 17 17 18 18 19 19 20 20 21 21 22 22 23 23
REMARK SMILES IDX 24 24
REMARK H PARENT
REMARK Flexibility Score: inf
ROOT
ATOM      1  C   UNL     1     -24.373 -35.574 -12.662  1.00  0.00     0.000 C 
ENDROOT
BRANCH   1   2
ATOM      2  C   UNL     1     -25.302 -35.388 -11.451  1.00  0.00     0.000 C 
BRANCH   2   3
ATOM      3  C   UNL     1     -26.640 -34.731 -11.830  1.00  0.00     0.000 C 
BRANCH   3   4
ATOM      4  C   UNL     1     -26.953 -34.843 -13.332  1.00  0.00    -0.000 C 
BRANCH   4   5
ATOM      5  C   UNL     1     -27.665 -33.594 -13.882  1.00  0.00    -0.000 C 
BRANCH   5   6
ATOM      6  C   UNL     1     -28.495 -32.870 -12.810  1.00  0.00    -0.000 C 
BRANCH   6   7
ATOM      7  C   UNL     1     -28.618 -31.359 -13.075  1.00  0.00    -0.000 C 
BRANCH   7   8
ATOM      8  C   UNL     1     -27.458 -30.556 -12.465  1.00  0.00    -0.000 C 
BRANCH   8   9
ATOM      9  C   UNL     1     -27.198 -30.917 -10.995  1.00  0.00    -0.000 C 
BRANCH   9  10
ATOM     10  C   UNL     1     -25.759 -30.573 -10.591  1.00  0.00    -0.000 C 
BRANCH  10  11
ATOM     11  C   UNL     1     -24.827 -31.771 -10.801  1.00  0.00    -0.003 C 
ATOM     12  C   UNL     1     -24.375 -31.870 -12.255  1.00  0.00     0.004 C 
ENDBRANCH  10  11
ENDBRANCH   9  10
ENDBRANCH   8   9
ENDBRANCH   7   8
ENDBRANCH   6   7
ENDBRANCH   5   6
ENDBRANCH   4   5
ENDBRANCH   3   4
ENDBRANCH   2   3
ENDBRANCH   1   2
BRANCH   1  13
ATOM     13  C   UNL     1     -22.887 -35.631 -12.266  1.00  0.00     0.000 C 
BRANCH  13  14
ATOM     14  C   UNL     1     -22.034 -34.613 -13.040  1.00  0.00     0.000 C 
BRANCH  14  15
ATOM     15  C   UNL     1     -20.608 -35.123 -13.310  1.00  0.00     0.000 C 
BRANCH  15  16
ATOM     16  C   UNL     1     -19.773 -34.146 -14.159  1.00  0.00     0.000 C 
BRANCH  16  17
ATOM     17  C   UNL     1     -20.592 -33.178 -15.034  1.00  0.00     0.000 C 
BRANCH  17  18
ATOM     18  C   UNL     1     -20.235 -31.702 -14.789  1.00  0.00     0.000 C 
BRANCH  18  19
ATOM     19  C   UNL     1     -21.088 -31.052 -13.684  1.00  0.00     0.000 C 
BRANCH  19  20
ATOM     20  C   UNL     1     -20.357 -30.801 -12.352  1.00  0.00     0.006 C 
BRANCH  20  21
ATOM     21  C   UNL     1     -20.866 -31.689 -11.210  1.00  0.00     0.053 C 
BRANCH  21  22
ATOM     22  C   UNL     1     -20.763 -30.970  -9.903  1.00  0.00     0.041 C 
ATOM     23  O   UNL     1     -19.635 -30.672  -9.431  1.00  0.00    -0.550 OA
ATOM     24  O   UNL     1     -21.914 -30.668  -9.184  1.00  0.00    -0.550 OA
ENDBRANCH  21  22
ENDBRANCH  20  21
ENDBRANCH  19  20
ENDBRANCH  18  19
ENDBRANCH  17  18
ENDBRANCH  16  17
ENDBRANCH  15  16
ENDBRANCH  14  15
ENDBRANCH  13  14
ENDBRANCH   1  13
TORSDOF 20
ENDMDL
MODEL 4
REMARK VINA RESULT:    -4.389      1.946      5.586
REMARK INTER + INTRA:         -12.975
REMARK INTER:                  -9.431
REMARK INTRA:                  -3.544
REMARK UNBOUND:                -3.455
REMARK SMILES CCCCCCCCCCCCCCCCCCCCCC(=O)[O-]
REMARK SMILES IDX 12 1 11 2 10 3 9 4 8 5 7 6 6 7 5 8 4 9 3 10 2 11 1 12 13 13
REMARK SMILES IDX 14 14 15 15 16 16 17 17 18 18 19 19 20 20 21 21 22 22 23 23
REMARK SMILES IDX 24 24
REMARK H PARENT
REMARK Flexibility Score: inf
ROOT
ATOM      1  C   UNL     1     -27.884 -30.966 -11.615  1.00  0.00     0.000 C 
ENDROOT
BRANCH   1   2
ATOM      2  C   UNL     1     -28.160 -31.554 -13.007  1.00  0.00     0.000 C 
BRANCH   2   3
ATOM      3  C   UNL     1     -28.413 -33.071 -12.967  1.00  0.00     0.000 C 
BRANCH   3   4
ATOM      4  C   UNL     1     -27.112 -33.888 -12.896  1.00  0.00    -0.000 C 
BRANCH   4   5
ATOM      5  C   UNL     1     -26.824 -34.421 -11.481  1.00  0.00    -0.000 C 
BRANCH   5   6
ATOM      6  C   UNL     1     -25.481 -35.164 -11.395  1.00  0.00    -0.000 C 
BRANCH   6   7
ATOM      7  C   UNL     1     -24.719 -35.169 -12.732  1.00  0.00    -0.000 C 
BRANCH   7   8
ATOM      8  C   UNL     1     -23.234 -35.530 -12.565  1.00  0.00    -0.000 C 
BRANCH   8   9
ATOM      9  C   UNL     1     -22.312 -34.308 -12.684  1.00  0.00    -0.000 C 
BRANCH   9  10
ATOM     10  C   UNL     1     -20.890 -34.645 -12.216  1.00  0.00    -0.000 C 
BRANCH  10  11
ATOM     11  C   UNL     1     -20.218 -35.638 -13.170  1.00  0.00    -0.003 C 
ATOM     12  C   UNL     1     -19.020 -36.313 -12.509  1.00  0.00     0.004 C 
ENDBRANCH  10  11
ENDBRANCH   9  10
ENDBRANCH   8   9
ENDBRANCH   7   8
ENDBRANCH   6   7
ENDBRANCH   5   6
ENDBRANCH   4   5
ENDBRANCH   3   4
ENDBRANCH   2   3
ENDBRANCH   1   2
BRANCH   1  13
ATOM     13  C   UNL     1     -26.523 -30.251 -11.533  1.00  0.00     0.000 C 
BRANCH  13  14
ATOM     14  C   UNL     1     -25.688 -30.431 -12.811  1.00  0.00     0.000 C 
BRANCH  14  15
ATOM     15  C   UNL     1     -24.443 -31.306 -12.584  1.00  0.00     0.000 C 
BRANCH  15  16
ATOM     16  C   UNL     1     -24.192 -31.617 -11.097  1.00  0.00     0.000 C 
BRANCH  16  17
ATOM     17  C   UNL     1     -22.786 -31.254 -10.583  1.00  0.00     0.000 C 
BRANCH  17  18
ATOM     18  C   UNL     1     -21.942 -30.504 -11.628  1.00  0.00     0.000 C 
BRANCH  18  19
ATOM     19  C   UNL     1     -20.503 -31.043 -11.738  1.00  0.00     0.000 C 
BRANCH  19  20
ATOM     20  C   UNL     1     -19.960 -31.180 -13.172  1.00  0.00     0.006 C 
BRANCH  20  21
ATOM     21  C   UNL     1     -21.010 -30.871 -14.245  1.00  0.00     0.053 C 
BRANCH  21  22
ATOM     22  C   UNL     1     -20.716 -31.629 -15.499  1.00  0.00     0.041 C 
ATOM     23  O   UNL     1     -20.518 -31.014 -16.580  1.00  0.00    -0.550 OA
ATOM     24  O   UNL     1     -20.701 -33.019 -15.484  1.00  0.00    -0.550 OA
ENDBRANCH  21  22
ENDBRANCH  20  21
ENDBRANCH  19  20
ENDBRANCH  18  19
ENDBRANCH  17  18
ENDBRANCH  16  17
ENDBRANCH  15  16
ENDBRANCH  14  15
ENDBRANCH  13  14
ENDBRANCH   1  13
TORSDOF 20
ENDMDL
MODEL 5
REMARK VINA RESULT:    -4.335      1.907      6.943
REMARK INTER + INTRA:         -12.860
REMARK INTER:                  -9.944
REMARK INTRA:                  -2.916
REMARK UNBOUND:                -3.455
REMARK SMILES CCCCCCCCCCCCCCCCCCCCCC(=O)[O-]
REMARK SMILES IDX 12 1 11 2 10 3 9 4 8 5 7 6 6 7 5 8 4 9 3 10 2 11 1 12 13 13
REMARK SMILES IDX 14 14 15 15 16 16 17 17 18 18 19 19 20 20 21 21 22 22 23 23
REMARK SMILES IDX 24 24
REMARK H PARENT
REMARK Flexibility Score: inf
ROOT
ATOM      1  C   UNL     1     -24.994 -30.225 -11.938  1.00  0.00     0.000 C 
ENDROOT
BRANCH   1   2
ATOM      2  C   UNL     1     -23.713 -31.012 -12.257  1.00  0.00     0.000 C 
BRANCH   2   3
ATOM      3  C   UNL     1     -23.020 -31.548 -10.993  1.00  0.00     0.000 C 
BRANCH   3   4
ATOM      4  C   UNL     1     -21.487 -31.464 -11.075  1.00  0.00    -0.000 C 
BRANCH   4   5
ATOM      5  C   UNL     1     -20.997 -30.892 -12.416  1.00  0.00    -0.000 C 
BRANCH   5   6
ATOM      6  C   UNL     1     -20.103 -31.878 -13.185  1.00  0.00    -0.000 C 
BRANCH   6   7
ATOM      7  C   UNL     1     -20.823 -32.522 -14.384  1.00  0.00    -0.000 C 
BRANCH   7   8
ATOM      8  C   UNL     1     -20.532 -34.025 -14.510  1.00  0.00    -0.000 C 
BRANCH   8   9
ATOM      9  C   UNL     1     -19.465 -34.507 -13.517  1.00  0.00    -0.000 C 
BRANCH   9  10
ATOM     10  C   UNL     1     -19.799 -35.909 -12.989  1.00  0.00    -0.000 C 
BRANCH  10  11
ATOM     11  C   UNL     1     -20.252 -35.854 -11.527  1.00  0.00    -0.003 C 
ATOM     12  C   UNL     1     -19.674 -34.634 -10.816  1.00  0.00     0.004 C 
ENDBRANCH  10  11
ENDBRANCH   9  10
ENDBRANCH   8   9
ENDBRANCH   7   8
ENDBRANCH   6   7
ENDBRANCH   5   6
ENDBRANCH   4   5
ENDBRANCH   3   4
ENDBRANCH   2   3
ENDBRANCH   1   2
BRANCH   1  13
ATOM     13  C   UNL     1     -25.792 -30.837 -10.773  1.00  0.00     0.000 C 
BRANCH  13  14
ATOM     14  C   UNL     1     -27.311 -30.692 -10.962  1.00  0.00     0.000 C 
BRANCH  14  15
ATOM     15  C   UNL     1     -27.704 -30.471 -12.432  1.00  0.00     0.000 C 
BRANCH  15  16
ATOM     16  C   UNL     1     -28.475 -31.661 -13.032  1.00  0.00     0.000 C 
BRANCH  16  17
ATOM     17  C   UNL     1     -27.601 -32.857 -13.455  1.00  0.00     0.000 C 
BRANCH  17  18
ATOM     18  C   UNL     1     -28.191 -34.211 -13.024  1.00  0.00     0.000 C 
BRANCH  18  19
ATOM     19  C   UNL     1     -27.680 -34.680 -11.649  1.00  0.00     0.000 C 
BRANCH  19  20
ATOM     20  C   UNL     1     -26.247 -34.241 -11.295  1.00  0.00     0.006 C 
BRANCH  20  21
ATOM     21  C   UNL     1     -25.264 -35.414 -11.203  1.00  0.00     0.053 C 
BRANCH  21  22
ATOM     22  C   UNL     1     -24.519 -35.575 -12.489  1.00  0.00     0.041 C 
ATOM     23  O   UNL     1     -24.822 -36.501 -13.285  1.00  0.00    -0.550 OA
ATOM     24  O   UNL     1     -23.460 -34.726 -12.789  1.00  0.00    -0.550 OA
ENDBRANCH  21  22
ENDBRANCH  20  21
ENDBRANCH  19  20
ENDBRANCH  18  19
ENDBRANCH  17  18
ENDBRANCH  16  17
ENDBRANCH  15  16
ENDBRANCH  14  15
ENDBRANCH  13  14
ENDBRANCH   1  13
TORSDOF 20
ENDMDL
MODEL 6
REMARK VINA RESULT:    -4.285      2.410      6.759
REMARK INTER + INTRA:         -12.750
REMARK INTER:                  -9.557
REMARK INTRA:                  -3.193
REMARK UNBOUND:                -3.455
REMARK SMILES CCCCCCCCCCCCCCCCCCCCCC(=O)[O-]
REMARK SMILES IDX 12 1 11 2 10 3 9 4 8 5 7 6 6 7 5 8 4 9 3 10 2 11 1 12 13 13
REMARK SMILES IDX 14 14 15 15 16 16 17 17 18 18 19 19 20 20 21 21 22 22 23 23
REMARK SMILES IDX 24 24
REMARK H PARENT
REMARK Flexibility Score: inf
ROOT
ATOM      1  C   UNL     1     -22.679 -35.051 -12.608  1.00  0.00     0.000 C 
ENDROOT
BRANCH   1   2
ATOM      2  C   UNL     1     -21.178 -35.274 -12.365  1.00  0.00     0.000 C 
BRANCH   2   3
ATOM      3  C   UNL     1     -20.362 -35.263 -13.669  1.00  0.00     0.000 C 
BRANCH   3   4
ATOM      4  C   UNL     1     -19.803 -33.871 -14.008  1.00  0.00    -0.000 C 
BRANCH   4   5
ATOM      5  C   UNL     1     -20.564 -33.193 -15.161  1.00  0.00    -0.000 C 
BRANCH   5   6
ATOM      6  C   UNL     1     -19.976 -31.820 -15.526  1.00  0.00    -0.000 C 
BRANCH   6   7
ATOM      7  C   UNL     1     -20.086 -30.803 -14.377  1.00  0.00    -0.000 C 
BRANCH   7   8
ATOM      8  C   UNL     1     -21.538 -30.568 -13.932  1.00  0.00    -0.000 C 
BRANCH   8   9
ATOM      9  C   UNL     1     -21.641 -30.101 -12.472  1.00  0.00    -0.000 C 
BRANCH   9  10
ATOM     10  C   UNL     1     -20.404 -30.528 -11.671  1.00  0.00    -0.000 C 
BRANCH  10  11
ATOM     11  C   UNL     1     -20.740 -31.671 -10.707  1.00  0.00    -0.003 C 
ATOM     12  C   UNL     1     -19.542 -32.594 -10.508  1.00  0.00     0.004 C 
ENDBRANCH  10  11
ENDBRANCH   9  10
ENDBRANCH   8   9
ENDBRANCH   7   8
ENDBRANCH   6   7
ENDBRANCH   5   6
ENDBRANCH   4   5
ENDBRANCH   3   4
ENDBRANCH   2   3
ENDBRANCH   1   2
BRANCH   1  13
ATOM     13  C   UNL     1     -23.067 -33.562 -12.594  1.00  0.00     0.000 C 
BRANCH  13  14
ATOM     14  C   UNL     1     -24.435 -33.318 -11.936  1.00  0.00     0.000 C 
BRANCH  14  15
ATOM     15  C   UNL     1     -24.454 -32.049 -11.068  1.00  0.00     0.000 C 
BRANCH  15  16
ATOM     16  C   UNL     1     -25.257 -30.898 -11.704  1.00  0.00     0.000 C 
BRANCH  16  17
ATOM     17  C   UNL     1     -26.296 -30.239 -10.779  1.00  0.00     0.000 C 
BRANCH  17  18
ATOM     18  C   UNL     1     -27.745 -30.472 -11.243  1.00  0.00     0.000 C 
BRANCH  18  19
ATOM     19  C   UNL     1     -27.846 -30.841 -12.735  1.00  0.00     0.000 C 
BRANCH  19  20
ATOM     20  C   UNL     1     -28.557 -32.173 -13.036  1.00  0.00     0.006 C 
BRANCH  20  21
ATOM     21  C   UNL     1     -27.627 -33.225 -13.653  1.00  0.00     0.053 C 
BRANCH  21  22
ATOM     22  C   UNL     1     -27.796 -34.541 -12.964  1.00  0.00     0.041 C 
ATOM     23  O   UNL     1     -27.910 -35.598 -13.637  1.00  0.00    -0.550 OA
ATOM     24  O   UNL     1     -27.870 -34.595 -11.577  1.00  0.00    -0.550 OA
ENDBRANCH  21  22
ENDBRANCH  20  21
ENDBRANCH  19  20
ENDBRANCH  18  19
ENDBRANCH  17  18
ENDBRANCH  16  17
ENDBRANCH  15  16
ENDBRANCH  14  15
ENDBRANCH  13  14
ENDBRANCH   1  13
TORSDOF 20
ENDMDL
MODEL 7
REMARK VINA RESULT:    -4.281      1.227      6.313
REMARK INTER + INTRA:         -12.741
REMARK INTER:                 -10.181
REMARK INTRA:                  -2.560
REMARK UNBOUND:                -3.455
REMARK SMILES CCCCCCCCCCCCCCCCCCCCCC(=O)[O-]
REMARK SMILES IDX 12 1 11 2 10 3 9 4 8 5 7 6 6 7 5 8 4 9 3 10 2 11 1 12 13 13
REMARK SMILES IDX 14 14 15 15 16 16 17 17 18 18 19 19 20 20 21 21 22 22 23 23
REMARK SMILES IDX 24 24
REMARK H PARENT
REMARK Flexibility Score: inf
ROOT
ATOM      1  C   UNL     1     -26.096 -35.792 -13.497  1.00  0.00     0.000 C 
ENDROOT
BRANCH   1   2
ATOM      2  C   UNL     1     -25.254 -35.073 -12.430  1.00  0.00     0.000 C 
BRANCH   2   3
ATOM      3  C   UNL     1     -23.787 -35.538 -12.426  1.00  0.00     0.000 C 
BRANCH   3   4
ATOM      4  C   UNL     1     -22.806 -34.409 -12.785  1.00  0.00    -0.000 C 
BRANCH   4   5
ATOM      5  C   UNL     1     -21.396 -34.933 -13.110  1.00  0.00    -0.000 C 
BRANCH   5   6
ATOM      6  C   UNL     1     -20.741 -34.174 -14.276  1.00  0.00    -0.000 C 
BRANCH   6   7
ATOM      7  C   UNL     1     -19.446 -33.452 -13.861  1.00  0.00    -0.000 C 
BRANCH   7   8
ATOM      8  C   UNL     1     -19.480 -31.949 -14.176  1.00  0.00    -0.000 C 
BRANCH   8   9
ATOM      9  C   UNL     1     -20.910 -31.390 -14.236  1.00  0.00    -0.000 C 
BRANCH   9  10
ATOM     10  C   UNL     1     -21.081 -30.450 -15.436  1.00  0.00    -0.000 C 
BRANCH  10  11
ATOM     11  C   UNL     1     -20.199 -30.888 -16.610  1.00  0.00    -0.003 C 
ATOM     12  C   UNL     1     -20.985 -31.735 -17.606  1.00  0.00     0.004 C 
ENDBRANCH  10  11
ENDBRANCH   9  10
ENDBRANCH   8   9
ENDBRANCH   7   8
ENDBRANCH   6   7
ENDBRANCH   5   6
ENDBRANCH   4   5
ENDBRANCH   3   4
ENDBRANCH   2   3
ENDBRANCH   1   2
BRANCH   1  13
ATOM     13  C   UNL     1     -27.323 -34.972 -13.935  1.00  0.00     0.000 C 
BRANCH  13  14
ATOM     14  C   UNL     1     -27.164 -33.473 -13.634  1.00  0.00     0.000 C 
BRANCH  14  15
ATOM     15  C   UNL     1     -28.385 -32.885 -12.906  1.00  0.00     0.000 C 
BRANCH  15  16
ATOM     16  C   UNL     1     -28.447 -31.348 -12.982  1.00  0.00     0.000 C 
BRANCH  16  17
ATOM     17  C   UNL     1     -27.281 -30.614 -12.293  1.00  0.00     0.000 C 
BRANCH  17  18
ATOM     18  C   UNL     1     -27.160 -30.954 -10.797  1.00  0.00     0.000 C 
BRANCH  18  19
ATOM     19  C   UNL     1     -25.716 -31.277 -10.369  1.00  0.00     0.000 C 
BRANCH  19  20
ATOM     20  C   UNL     1     -24.742 -31.589 -11.520  1.00  0.00     0.006 C 
BRANCH  20  21
ATOM     21  C   UNL     1     -23.531 -30.649 -11.555  1.00  0.00     0.053 C 
BRANCH  21  22
ATOM     22  C   UNL     1     -22.559 -31.008 -10.478  1.00  0.00     0.041 C 
ATOM     23  O   UNL     1     -22.680 -30.518  -9.325  1.00  0.00    -0.550 OA
ATOM     24  O   UNL     1     -21.492 -31.854 -10.758  1.00  0.00    -0.550 OA
ENDBRANCH  21  22
ENDBRANCH  20  21
ENDBRANCH  19  20
ENDBRANCH  18  19
ENDBRANCH  17  18
ENDBRANCH  16  17
ENDBRANCH  15  16
ENDBRANCH  14  15
ENDBRANCH  13  14
ENDBRANCH   1  13
TORSDOF 20
ENDMDL
MODEL 8
REMARK VINA RESULT:    -4.207      2.007      7.062
REMARK INTER + INTRA:         -12.582
REMARK INTER:                  -9.779
REMARK INTRA:                  -2.803
REMARK UNBOUND:                -3.455
REMARK SMILES CCCCCCCCCCCCCCCCCCCCCC(=O)[O-]
REMARK SMILES IDX 12 1 11 2 10 3 9 4 8 5 7 6 6 7 5 8 4 9 3 10 2 11 1 12 13 13
REMARK SMILES IDX 14 14 15 15 16 16 17 17 18 18 19 19 20 20 21 21 22 22 23 23
REMARK SMILES IDX 24 24
REMARK H PARENT
REMARK Flexibility Score: inf
ROOT
ATOM      1  C   UNL     1     -23.869 -30.948 -12.522  1.00  0.00     0.000 C 
ENDROOT
BRANCH   1   2
ATOM      2  C   UNL     1     -22.381 -30.752 -12.849  1.00  0.00     0.000 C 
BRANCH   2   3
ATOM      3  C   UNL     1     -21.531 -30.485 -11.595  1.00  0.00     0.000 C 
BRANCH   3   4
ATOM      4  C   UNL     1     -20.200 -31.255 -11.604  1.00  0.00    -0.000 C 
BRANCH   4   5
ATOM      5  C   UNL     1     -20.305 -32.627 -10.915  1.00  0.00    -0.000 C 
BRANCH   5   6
ATOM      6  C   UNL     1     -18.976 -33.399 -10.935  1.00  0.00    -0.000 C 
BRANCH   6   7
ATOM      7  C   UNL     1     -19.176 -34.925 -10.949  1.00  0.00    -0.000 C 
BRANCH   7   8
ATOM      8  C   UNL     1     -20.425 -35.350 -11.737  1.00  0.00    -0.000 C 
BRANCH   8   9
ATOM      9  C   UNL     1     -20.148 -35.519 -13.238  1.00  0.00    -0.000 C 
BRANCH   9  10
ATOM     10  C   UNL     1     -20.826 -34.407 -14.050  1.00  0.00    -0.000 C 
BRANCH  10  11
ATOM     11  C   UNL     1     -19.790 -33.434 -14.624  1.00  0.00    -0.003 C 
ATOM     12  C   UNL     1     -20.455 -32.371 -15.493  1.00  0.00     0.004 C 
ENDBRANCH  10  11
ENDBRANCH   9  10
ENDBRANCH   8   9
ENDBRANCH   7   8
ENDBRANCH   6   7
ENDBRANCH   5   6
ENDBRANCH   4   5
ENDBRANCH   3   4
ENDBRANCH   2   3
ENDBRANCH   1   2
BRANCH   1  13
ATOM     13  C   UNL     1     -24.091 -31.813 -11.267  1.00  0.00     0.000 C 
BRANCH  13  14
ATOM     14  C   UNL     1     -25.395 -31.458 -10.534  1.00  0.00     0.000 C 
BRANCH  14  15
ATOM     15  C   UNL     1     -26.191 -30.352 -11.248  1.00  0.00     0.000 C 
BRANCH  15  16
ATOM     16  C   UNL     1     -27.676 -30.712 -11.442  1.00  0.00     0.000 C 
BRANCH  16  17
ATOM     17  C   UNL     1     -28.027 -31.308 -12.818  1.00  0.00     0.000 C 
BRANCH  17  18
ATOM     18  C   UNL     1     -28.536 -32.757 -12.731  1.00  0.00     0.000 C 
BRANCH  18  19
ATOM     19  C   UNL     1     -27.845 -33.700 -13.734  1.00  0.00     0.000 C 
BRANCH  19  20
ATOM     20  C   UNL     1     -27.276 -34.998 -13.132  1.00  0.00     0.006 C 
BRANCH  20  21
ATOM     21  C   UNL     1     -26.104 -34.754 -12.173  1.00  0.00     0.053 C 
BRANCH  21  22
ATOM     22  C   UNL     1     -24.897 -35.516 -12.617  1.00  0.00     0.041 C 
ATOM     23  O   UNL     1     -23.744 -35.102 -12.328  1.00  0.00    -0.550 OA
ATOM     24  O   UNL     1     -25.045 -36.663 -13.389  1.00  0.00    -0.550 OA
ENDBRANCH  21  22
ENDBRANCH  20  21
ENDBRANCH  19  20
ENDBRANCH  18  19
ENDBRANCH  17  18
ENDBRANCH  16  17
ENDBRANCH  15  16
ENDBRANCH  14  15
ENDBRANCH  13  14
ENDBRANCH   1  13
TORSDOF 20
ENDMDL
MODEL 9
REMARK VINA RESULT:    -4.196      1.543      3.957
REMARK INTER + INTRA:         -12.558
REMARK INTER:                  -9.685
REMARK INTRA:                  -2.873
REMARK UNBOUND:                -3.455
REMARK SMILES CCCCCCCCCCCCCCCCCCCCCC(=O)[O-]
REMARK SMILES IDX 12 1 11 2 10 3 9 4 8 5 7 6 6 7 5 8 4 9 3 10 2 11 1 12 13 13
REMARK SMILES IDX 14 14 15 15 16 16 17 17 18 18 19 19 20 20 21 21 22 22 23 23
REMARK SMILES IDX 24 24
REMARK H PARENT
REMARK Flexibility Score: inf
ROOT
ATOM      1  C   UNL     1     -22.134 -31.896 -11.987  1.00  0.00     0.000 C 
ENDROOT
BRANCH   1   2
ATOM      2  C   UNL     1     -23.534 -32.162 -12.564  1.00  0.00     0.000 C 
BRANCH   2   3
ATOM      3  C   UNL     1     -24.291 -33.258 -11.795  1.00  0.00     0.000 C 
BRANCH   3   4
ATOM      4  C   UNL     1     -24.309 -34.602 -12.542  1.00  0.00    -0.000 C 
BRANCH   4   5
ATOM      5  C   UNL     1     -25.705 -35.250 -12.561  1.00  0.00    -0.000 C 
BRANCH   5   6
ATOM      6  C   UNL     1     -26.635 -34.673 -11.481  1.00  0.00    -0.000 C 
BRANCH   6   7
ATOM      7  C   UNL     1     -27.978 -34.185 -12.054  1.00  0.00    -0.000 C 
BRANCH   7   8
ATOM      8  C   UNL     1     -27.803 -33.290 -13.291  1.00  0.00    -0.000 C 
BRANCH   8   9
ATOM      9  C   UNL     1     -28.267 -31.846 -13.045  1.00  0.00    -0.000 C 
BRANCH   9  10
ATOM     10  C   UNL     1     -27.595 -31.258 -11.797  1.00  0.00    -0.000 C 
BRANCH  10  11
ATOM     11  C   UNL     1     -26.836 -29.971 -12.135  1.00  0.00    -0.003 C 
ATOM     12  C   UNL     1     -26.348 -29.982 -13.581  1.00  0.00     0.004 C 
ENDBRANCH  10  11
ENDBRANCH   9  10
ENDBRANCH   8   9
ENDBRANCH   7   8
ENDBRANCH   6   7
ENDBRANCH   5   6
ENDBRANCH   4   5
ENDBRANCH   3   4
ENDBRANCH   2   3
ENDBRANCH   1   2
BRANCH   1  13
ATOM     13  C   UNL     1     -21.555 -30.542 -12.434  1.00  0.00     0.000 C 
BRANCH  13  14
ATOM     14  C   UNL     1     -20.390 -30.701 -13.425  1.00  0.00     0.000 C 
BRANCH  14  15
ATOM     15  C   UNL     1     -20.865 -31.082 -14.837  1.00  0.00     0.000 C 
BRANCH  15  16
ATOM     16  C   UNL     1     -20.432 -32.501 -15.253  1.00  0.00     0.000 C 
BRANCH  16  17
ATOM     17  C   UNL     1     -19.045 -32.934 -14.745  1.00  0.00     0.000 C 
BRANCH  17  18
ATOM     18  C   UNL     1     -19.098 -34.187 -13.853  1.00  0.00     0.000 C 
BRANCH  18  19
ATOM     19  C   UNL     1     -20.499 -34.823 -13.791  1.00  0.00     0.000 C 
BRANCH  19  20
ATOM     20  C   UNL     1     -20.831 -35.557 -12.479  1.00  0.00     0.006 C 
BRANCH  20  21
ATOM     21  C   UNL     1     -19.591 -36.118 -11.772  1.00  0.00     0.053 C 
BRANCH  21  22
ATOM     22  C   UNL     1     -19.486 -35.569 -10.386  1.00  0.00     0.041 C 
ATOM     23  O   UNL     1     -19.155 -34.368 -10.203  1.00  0.00    -0.550 OA
ATOM     24  O   UNL     1     -19.711 -36.396  -9.292  1.00  0.00    -0.550 OA
ENDBRANCH  21  22
ENDBRANCH  20  21
ENDBRANCH  19  20
ENDBRANCH  18  19
ENDBRANCH  17  18
ENDBRANCH  16  17
ENDBRANCH  15  16
ENDBRANCH  14  15
ENDBRANCH  13  14
ENDBRANCH   1  13
TORSDOF 20
ENDMDL
