MODEL 1
REMARK VINA RESULT:    -4.499      0.000      0.000
REMARK INTER + INTRA:          -5.948
REMARK INTER:                  -5.814
REMARK INTRA:                  -0.133
REMARK UNBOUND:                -0.133
REMARK SMILES CCCCCCC(=O)[O-]
REMARK SMILES IDX 5 1 6 2 7 3 8 4 9 5 4 6 3 7 2 8 1 9
REMARK H PARENT
REMARK Flexibility Score: inf
ROOT
ATOM      1  C   UNL     1      16.879   8.316  50.088  1.00  0.00     0.006 C 
ENDROOT
BRANCH   1   2
ATOM      2  C   UNL     1      16.389   7.944  48.683  1.00  0.00     0.053 C 
BRANCH   2   3
ATOM      3  C   UNL     1      15.496   6.745  48.741  1.00  0.00     0.041 C 
ATOM      4  O   UNL     1      15.862   5.711  49.358  1.00  0.00    -0.550 OA
ATOM      5  O   UNL     1      14.279   6.752  48.070  1.00  0.00    -0.550 OA
ENDBRANCH   2   3
ENDBRANCH   1   2
BRANCH   1   6
ATOM      6  C   UNL     1      17.887   9.475  50.076  1.00  0.00     0.000 C 
BRANCH   6   7
ATOM      7  C   UNL     1      18.370   9.853  51.488  1.00  0.00    -0.000 C 
BRANCH   7   8
ATOM      8  C   UNL     1      18.581   8.624  52.386  1.00  0.00    -0.003 C 
ATOM      9  C   UNL     1      19.329   8.959  53.677  1.00  0.00     0.004 C 
ENDBRANCH   7   8
ENDBRANCH   6   7
ENDBRANCH   1   6
TORSDOF 5
ENDMDL
MODEL 2
REMARK VINA RESULT:    -4.463      1.031      1.299
REMARK INTER + INTRA:          -5.901
REMARK INTER:                  -5.732
REMARK INTRA:                  -0.169
REMARK UNBOUND:                -0.133
REMARK SMILES CCCCCCC(=O)[O-]
REMARK SMILES IDX 5 1 6 2 7 3 8 4 9 5 4 6 3 7 2 8 1 9
REMARK H PARENT
REMARK Flexibility Score: inf
ROOT
ATOM      1  C   UNL     1      17.471   8.037  49.911  1.00  0.00     0.006 C 
ENDROOT
BRANCH   1   2
ATOM      2  C   UNL     1      16.038   7.515  49.751  1.00  0.00     0.053 C 
BRANCH   2   3
ATOM      3  C   UNL     1      15.748   7.217  48.313  1.00  0.00     0.041 C 
ATOM      4  O   UNL     1      14.562   7.038  47.930  1.00  0.00    -0.550 OA
ATOM      5  O   UNL     1      16.792   7.088  47.406  1.00  0.00    -0.550 OA
ENDBRANCH   2   3
ENDBRANCH   1   2
BRANCH   1   6
ATOM      6  C   UNL     1      17.520   9.475  50.450  1.00  0.00     0.000 C 
BRANCH   6   7
ATOM      7  C   UNL     1      18.637   9.679  51.489  1.00  0.00    -0.000 C 
BRANCH   7   8
ATOM      8  C   UNL     1      18.641   8.587  52.570  1.00  0.00    -0.003 C 
ATOM      9  C   UNL     1      19.442   8.986  53.809  1.00  0.00     0.004 C 
ENDBRANCH   7   8
ENDBRANCH   6   7
ENDBRANCH   1   6
TORSDOF 5
ENDMDL
MODEL 3
REMARK VINA RESULT:    -4.433      3.264      5.170
REMARK INTER + INTRA:          -5.862
REMARK INTER:                  -5.663
REMARK INTRA:                  -0.199
REMARK UNBOUND:                -0.133
REMARK SMILES CCCCCCC(=O)[O-]
REMARK SMILES IDX 5 1 6 2 7 3 8 4 9 5 4 6 3 7 2 8 1 9
REMARK H PARENT
REMARK Flexibility Score: inf
ROOT
ATOM      1  C   UNL     1      17.284   8.529  50.461  1.00  0.00     0.006 C 
ENDROOT
BRANCH   1   2
ATOM      2  C   UNL     1      17.972   9.780  49.902  1.00  0.00     0.053 C 
BRANCH   2   3
ATOM      3  C   UNL     1      19.460   9.635  49.975  1.00  0.00     0.041 C 
ATOM      4  O   UNL     1      20.205  10.391  49.297  1.00  0.00    -0.550 OA
ATOM      5  O   UNL     1      20.023   8.631  50.754  1.00  0.00    -0.550 OA
ENDBRANCH   2   3
ENDBRANCH   1   2
BRANCH   1   6
ATOM      6  C   UNL     1      16.771   7.592  49.357  1.00  0.00     0.000 C 
BRANCH   6   7
ATOM      7  C   UNL     1      15.373   7.025  49.664  1.00  0.00    -0.000 C 
BRANCH   7   8
ATOM      8  C   UNL     1      14.516   6.858  48.400  1.00  0.00    -0.003 C 
ATOM      9  C   UNL     1      14.897   7.841  47.294  1.00  0.00     0.004 C 
ENDBRANCH   7   8
ENDBRANCH   6   7
ENDBRANCH   1   6
TORSDOF 5
ENDMDL
MODEL 4
REMARK VINA RESULT:    -4.399      2.966      5.048
REMARK INTER + INTRA:          -5.818
REMARK INTER:                  -5.677
REMARK INTRA:                  -0.141
REMARK UNBOUND:                -0.133
REMARK SMILES CCCCCCC(=O)[O-]
REMARK SMILES IDX 5 1 6 2 7 3 8 4 9 5 4 6 3 7 2 8 1 9
REMARK H PARENT
REMARK Flexibility Score: inf
ROOT
ATOM      1  C   UNL     1      17.697   9.250  49.890  1.00  0.00     0.006 C 
ENDROOT
BRANCH   1   2
ATOM      2  C   UNL     1      18.074   9.964  51.195  1.00  0.00     0.053 C 
BRANCH   2   3
ATOM      3  C   UNL     1      19.070   9.155  51.964  1.00  0.00     0.041 C 
ATOM      4  O   UNL     1      19.121   9.238  53.219  1.00  0.00    -0.550 OA
ATOM      5  O   UNL     1      19.978   8.346  51.291  1.00  0.00    -0.550 OA
ENDBRANCH   2   3
ENDBRANCH   1   2
BRANCH   1   6
ATOM      6  C   UNL     1      16.707   8.097  50.111  1.00  0.00     0.000 C 
BRANCH   6   7
ATOM      7  C   UNL     1      16.812   7.011  49.025  1.00  0.00    -0.000 C 
BRANCH   7   8
ATOM      8  C   UNL     1      15.714   5.943  49.153  1.00  0.00    -0.003 C 
ATOM      9  C   UNL     1      14.358   6.428  48.642  1.00  0.00     0.004 C 
ENDBRANCH   7   8
ENDBRANCH   6   7
ENDBRANCH   1   6
TORSDOF 5
ENDMDL
MODEL 5
REMARK VINA RESULT:    -4.389      1.187      1.726
REMARK INTER + INTRA:          -5.805
REMARK INTER:                  -5.565
REMARK INTRA:                  -0.240
REMARK UNBOUND:                -0.133
REMARK SMILES CCCCCCC(=O)[O-]
REMARK SMILES IDX 5 1 6 2 7 3 8 4 9 5 4 6 3 7 2 8 1 9
REMARK H PARENT
REMARK Flexibility Score: inf
ROOT
ATOM      1  C   UNL     1      17.266   7.418  48.782  1.00  0.00     0.006 C 
ENDROOT
BRANCH   1   2
ATOM      2  C   UNL     1      15.842   7.581  49.329  1.00  0.00     0.053 C 
BRANCH   2   3
ATOM      3  C   UNL     1      14.838   7.132  48.315  1.00  0.00     0.041 C 
ATOM      4  O   UNL     1      14.800   7.672  47.178  1.00  0.00    -0.550 OA
ATOM      5  O   UNL     1      13.910   6.151  48.643  1.00  0.00    -0.550 OA
ENDBRANCH   2   3
ENDBRANCH   1   2
BRANCH   1   6
ATOM      6  C   UNL     1      18.310   8.178  49.615  1.00  0.00     0.000 C 
BRANCH   6   7
ATOM      7  C   UNL     1      17.976   9.673  49.761  1.00  0.00    -0.000 C 
BRANCH   7   8
ATOM      8  C   UNL     1      18.015  10.144  51.223  1.00  0.00    -0.003 C 
ATOM      9  C   UNL     1      18.705   9.143  52.147  1.00  0.00     0.004 C 
ENDBRANCH   7   8
ENDBRANCH   6   7
ENDBRANCH   1   6
TORSDOF 5
ENDMDL
MODEL 6
REMARK VINA RESULT:    -4.374      2.783      4.995
REMARK INTER + INTRA:          -5.787
REMARK INTER:                  -5.532
REMARK INTRA:                  -0.255
REMARK UNBOUND:                -0.133
REMARK SMILES CCCCCCC(=O)[O-]
REMARK SMILES IDX 5 1 6 2 7 3 8 4 9 5 4 6 3 7 2 8 1 9
REMARK H PARENT
REMARK Flexibility Score: inf
ROOT
ATOM      1  C   UNL     1      15.881   7.296  49.919  1.00  0.00     0.006 C 
ENDROOT
BRANCH   1   2
ATOM      2  C   UNL     1      17.388   7.547  49.783  1.00  0.00     0.053 C 
BRANCH   2   3
ATOM      3  C   UNL     1      17.755   8.866  50.387  1.00  0.00     0.041 C 
ATOM      4  O   UNL     1      18.031   8.947  51.613  1.00  0.00    -0.550 OA
ATOM      5  O   UNL     1      17.743  10.015  49.606  1.00  0.00    -0.550 OA
ENDBRANCH   2   3
ENDBRANCH   1   2
BRANCH   1   6
ATOM      6  C   UNL     1      15.331   6.380  48.815  1.00  0.00     0.000 C 
BRANCH   6   7
ATOM      7  C   UNL     1      14.326   7.099  47.897  1.00  0.00    -0.000 C 
BRANCH   7   8
ATOM      8  C   UNL     1      14.945   8.310  47.181  1.00  0.00    -0.003 C 
ATOM      9  C   UNL     1      16.057   7.915  46.210  1.00  0.00     0.004 C 
ENDBRANCH   7   8
ENDBRANCH   6   7
ENDBRANCH   1   6
TORSDOF 5
ENDMDL
MODEL 7
REMARK VINA RESULT:    -4.331      1.638      2.073
REMARK INTER + INTRA:          -5.730
REMARK INTER:                  -5.609
REMARK INTRA:                  -0.121
REMARK UNBOUND:                -0.133
REMARK SMILES CCCCCCC(=O)[O-]
REMARK SMILES IDX 5 1 6 2 7 3 8 4 9 5 4 6 3 7 2 8 1 9
REMARK H PARENT
REMARK Flexibility Score: inf
ROOT
ATOM      1  C   UNL     1      16.670   8.366  49.389  1.00  0.00     0.006 C 
ENDROOT
BRANCH   1   2
ATOM      2  C   UNL     1      16.010   6.981  49.396  1.00  0.00     0.053 C 
BRANCH   2   3
ATOM      3  C   UNL     1      14.876   6.937  48.421  1.00  0.00     0.041 C 
ATOM      4  O   UNL     1      13.869   6.217  48.651  1.00  0.00    -0.550 OA
ATOM      5  O   UNL     1      14.953   7.653  47.232  1.00  0.00    -0.550 OA
ENDBRANCH   2   3
ENDBRANCH   1   2
BRANCH   1   6
ATOM      6  C   UNL     1      17.763   8.506  50.459  1.00  0.00     0.000 C 
BRANCH   6   7
ATOM      7  C   UNL     1      18.116   9.975  50.755  1.00  0.00    -0.000 C 
BRANCH   7   8
ATOM      8  C   UNL     1      19.458  10.393  50.135  1.00  0.00    -0.003 C 
ATOM      9  C   UNL     1      20.178   9.233  49.449  1.00  0.00     0.004 C 
ENDBRANCH   7   8
ENDBRANCH   6   7
ENDBRANCH   1   6
TORSDOF 5
ENDMDL
MODEL 8
REMARK VINA RESULT:    -3.804      3.229      4.675
REMARK INTER + INTRA:          -5.050
REMARK INTER:                  -4.831
REMARK INTRA:                  -0.219
REMARK UNBOUND:                -0.133
REMARK SMILES CCCCCCC(=O)[O-]
REMARK SMILES IDX 5 1 6 2 7 3 8 4 9 5 4 6 3 7 2 8 1 9
REMARK H PARENT
REMARK Flexibility Score: inf
ROOT
ATOM      1  C   UNL     1      14.008   6.748  48.253  1.00  0.00     0.006 C 
ENDROOT
BRANCH   1   2
ATOM      2  C   UNL     1      14.624   7.316  49.537  1.00  0.00     0.053 C 
BRANCH   2   3
ATOM      3  C   UNL     1      15.970   6.711  49.784  1.00  0.00     0.041 C 
ATOM      4  O   UNL     1      16.178   5.498  49.518  1.00  0.00    -0.550 OA
ATOM      5  O   UNL     1      16.981   7.474  50.354  1.00  0.00    -0.550 OA
ENDBRANCH   2   3
ENDBRANCH   1   2
BRANCH   1   6
ATOM      6  C   UNL     1      13.913   7.793  47.130  1.00  0.00     0.000 C 
BRANCH   6   7
ATOM      7  C   UNL     1      15.198   8.627  46.989  1.00  0.00    -0.000 C 
BRANCH   7   8
ATOM      8  C   UNL     1      16.174   8.036  45.960  1.00  0.00    -0.003 C 
ATOM      9  C   UNL     1      17.275   7.196  46.606  1.00  0.00     0.004 C 
ENDBRANCH   7   8
ENDBRANCH   6   7
ENDBRANCH   1   6
TORSDOF 5
ENDMDL
MODEL 9
REMARK VINA RESULT:    -3.613      2.410      3.463
REMARK INTER + INTRA:          -4.803
REMARK INTER:                  -4.619
REMARK INTRA:                  -0.184
REMARK UNBOUND:                -0.133
REMARK SMILES CCCCCCC(=O)[O-]
REMARK SMILES IDX 5 1 6 2 7 3 8 4 9 5 4 6 3 7 2 8 1 9
REMARK H PARENT
REMARK Flexibility Score: inf
ROOT
ATOM      1  C   UNL     1      15.367   8.491  47.179  1.00  0.00     0.006 C 
ENDROOT
BRANCH   1   2
ATOM      2  C   UNL     1      14.172   7.561  47.426  1.00  0.00     0.053 C 
BRANCH   2   3
ATOM      3  C   UNL     1      14.399   6.733  48.651  1.00  0.00     0.041 C 
ATOM      4  O   UNL     1      14.747   7.279  49.731  1.00  0.00    -0.550 OA
ATOM      5  O   UNL     1      14.276   5.350  48.588  1.00  0.00    -0.550 OA
ENDBRANCH   2   3
ENDBRANCH   1   2
BRANCH   1   6
ATOM      6  C   UNL     1      16.494   7.808  46.390  1.00  0.00     0.000 C 
BRANCH   6   7
ATOM      7  C   UNL     1      17.424   6.975  47.290  1.00  0.00    -0.000 C 
BRANCH   7   8
ATOM      8  C   UNL     1      18.361   7.849  48.138  1.00  0.00    -0.003 C 
ATOM      9  C   UNL     1      18.137   7.671  49.639  1.00  0.00     0.004 C 
ENDBRANCH   7   8
ENDBRANCH   6   7
ENDBRANCH   1   6
TORSDOF 5
ENDMDL
