MODEL 1
REMARK VINA RESULT:    -3.540      0.000      0.000
REMARK INTER + INTRA:          -5.441
REMARK INTER:                  -4.781
REMARK INTRA:                  -0.660
REMARK UNBOUND:                -0.660
REMARK SMILES CCCCCCC=CC(=O)[O-]
REMARK SMILES IDX 5 1 6 2 7 3 8 4 9 5 10 6 11 7 4 8 3 9 2 10 1 11
REMARK H PARENT
REMARK Flexibility Score: inf
ROOT
ATOM      1  C   UNL     1      -0.708   2.468  16.665  1.00  0.00     0.004 C 
ENDROOT
BRANCH   1   2
ATOM      2  C   UNL     1      -1.463   3.694  17.192  1.00  0.00     0.027 C 
BRANCH   2   3
ATOM      3  C   UNL     1      -2.280   4.339  16.108  1.00  0.00    -0.025 C 
ATOM      4  C   UNL     1      -2.496   3.726  14.939  1.00  0.00     0.020 C 
BRANCH   4   5
ATOM      5  C   UNL     1      -3.304   4.333  13.869  1.00  0.00     0.064 C 
ATOM      6  O   UNL     1      -3.987   3.621  13.085  1.00  0.00    -0.545 OA
ATOM      7  O   UNL     1      -3.316   5.714  13.720  1.00  0.00    -0.545 OA
ENDBRANCH   4   5
ENDBRANCH   2   3
ENDBRANCH   1   2
BRANCH   1   8
ATOM      8  C   UNL     1       0.752   2.478  17.133  1.00  0.00     0.000 C 
BRANCH   8   9
ATOM      9  C   UNL     1       1.518   3.658  16.518  1.00  0.00    -0.000 C 
BRANCH   9  10
ATOM     10  C   UNL     1       1.500   3.637  14.981  1.00  0.00    -0.003 C 
ATOM     11  C   UNL     1       1.514   5.039  14.371  1.00  0.00     0.004 C 
ENDBRANCH   9  10
ENDBRANCH   8   9
ENDBRANCH   1   8
TORSDOF 6
ENDMDL
MODEL 2
REMARK VINA RESULT:    -3.524      2.933      4.485
REMARK INTER + INTRA:          -5.420
REMARK INTER:                  -4.942
REMARK INTRA:                  -0.478
REMARK UNBOUND:                -0.660
REMARK SMILES CCCCCCC=CC(=O)[O-]
REMARK SMILES IDX 5 1 6 2 7 3 8 4 9 5 10 6 11 7 4 8 3 9 2 10 1 11
REMARK H PARENT
REMARK Flexibility Score: inf
ROOT
ATOM      1  C   UNL     1      -3.212   3.265  15.517  1.00  0.00     0.004 C 
ENDROOT
BRANCH   1   2
ATOM      2  C   UNL     1      -2.717   3.599  16.929  1.00  0.00     0.027 C 
BRANCH   2   3
ATOM      3  C   UNL     1      -1.315   4.138  16.902  1.00  0.00    -0.025 C 
ATOM      4  C   UNL     1      -0.256   3.326  16.818  1.00  0.00     0.020 C 
BRANCH   4   5
ATOM      5  C   UNL     1       1.125   3.833  16.776  1.00  0.00     0.064 C 
ATOM      6  O   UNL     1       1.967   3.504  17.654  1.00  0.00    -0.545 OA
ATOM      7  O   UNL     1       1.508   4.689  15.751  1.00  0.00    -0.545 OA
ENDBRANCH   4   5
ENDBRANCH   2   3
ENDBRANCH   1   2
BRANCH   1   8
ATOM      8  C   UNL     1      -3.298   4.528  14.651  1.00  0.00     0.000 C 
BRANCH   8   9
ATOM      9  C   UNL     1      -2.211   4.526  13.567  1.00  0.00    -0.000 C 
BRANCH   9  10
ATOM     10  C   UNL     1      -1.625   3.126  13.321  1.00  0.00    -0.003 C 
ATOM     11  C   UNL     1      -2.100   2.509  12.005  1.00  0.00     0.004 C 
ENDBRANCH   9  10
ENDBRANCH   8   9
ENDBRANCH   1   8
TORSDOF 6
ENDMDL
MODEL 3
REMARK VINA RESULT:    -3.474      1.801      2.331
REMARK INTER + INTRA:          -5.352
REMARK INTER:                  -4.694
REMARK INTRA:                  -0.658
REMARK UNBOUND:                -0.660
REMARK SMILES CCCCCCC=CC(=O)[O-]
REMARK SMILES IDX 5 1 6 2 7 3 8 4 9 5 10 6 11 7 4 8 3 9 2 10 1 11
REMARK H PARENT
REMARK Flexibility Score: inf
ROOT
ATOM      1  C   UNL     1      -1.667   3.722  16.436  1.00  0.00     0.004 C 
ENDROOT
BRANCH   1   2
ATOM      2  C   UNL     1      -2.313   4.421  15.234  1.00  0.00     0.027 C 
BRANCH   2   3
ATOM      3  C   UNL     1      -2.676   3.435  14.161  1.00  0.00    -0.025 C 
ATOM      4  C   UNL     1      -1.928   3.292  13.062  1.00  0.00     0.020 C 
BRANCH   4   5
ATOM      5  C   UNL     1      -2.256   2.323  12.004  1.00  0.00     0.064 C 
ATOM      6  O   UNL     1      -3.095   1.404  12.201  1.00  0.00    -0.545 OA
ATOM      7  O   UNL     1      -1.632   2.423  10.767  1.00  0.00    -0.545 OA
ENDBRANCH   4   5
ENDBRANCH   2   3
ENDBRANCH   1   2
BRANCH   1   8
ATOM      8  C   UNL     1      -0.355   4.410  16.834  1.00  0.00     0.000 C 
BRANCH   8   9
ATOM      9  C   UNL     1       0.838   3.461  16.653  1.00  0.00    -0.000 C 
BRANCH   9  10
ATOM     10  C   UNL     1       1.323   3.392  15.197  1.00  0.00    -0.003 C 
ATOM     11  C   UNL     1       1.372   4.764  14.524  1.00  0.00     0.004 C 
ENDBRANCH   9  10
ENDBRANCH   8   9
ENDBRANCH   1   8
TORSDOF 6
ENDMDL
MODEL 4
REMARK VINA RESULT:    -3.469     14.737     16.095
REMARK INTER + INTRA:          -5.346
REMARK INTER:                  -4.610
REMARK INTRA:                  -0.736
REMARK UNBOUND:                -0.660
REMARK SMILES CCCCCCC=CC(=O)[O-]
REMARK SMILES IDX 5 1 6 2 7 3 8 4 9 5 10 6 11 7 4 8 3 9 2 10 1 11
REMARK H PARENT
REMARK Flexibility Score: inf
ROOT
ATOM      1  C   UNL     1     -12.848  -7.747  11.477  1.00  0.00     0.004 C 
ENDROOT
BRANCH   1   2
ATOM      2  C   UNL     1     -12.213  -8.825  12.363  1.00  0.00     0.027 C 
BRANCH   2   3
ATOM      3  C   UNL     1     -12.211  -8.412  13.807  1.00  0.00    -0.025 C 
ATOM      4  C   UNL     1     -11.075  -8.115  14.447  1.00  0.00     0.020 C 
BRANCH   4   5
ATOM      5  C   UNL     1     -11.050  -7.695  15.857  1.00  0.00     0.064 C 
ATOM      6  O   UNL     1     -11.440  -8.466  16.774  1.00  0.00    -0.545 OA
ATOM      7  O   UNL     1     -10.588  -6.426  16.184  1.00  0.00    -0.545 OA
ENDBRANCH   4   5
ENDBRANCH   2   3
ENDBRANCH   1   2
BRANCH   1   8
ATOM      8  C   UNL     1     -11.773  -6.917  10.764  1.00  0.00     0.000 C 
BRANCH   8   9
ATOM      9  C   UNL     1     -11.814  -5.453  11.226  1.00  0.00    -0.000 C 
BRANCH   9  10
ATOM     10  C   UNL     1     -13.019  -5.152  12.131  1.00  0.00    -0.003 C 
ATOM     11  C   UNL     1     -12.608  -4.642  13.512  1.00  0.00     0.004 C 
ENDBRANCH   9  10
ENDBRANCH   8   9
ENDBRANCH   1   8
TORSDOF 6
ENDMDL
MODEL 5
REMARK VINA RESULT:    -3.465      8.187      9.561
REMARK INTER + INTRA:          -5.340
REMARK INTER:                  -4.831
REMARK INTRA:                  -0.509
REMARK UNBOUND:                -0.660
REMARK SMILES CCCCCCC=CC(=O)[O-]
REMARK SMILES IDX 5 1 6 2 7 3 8 4 9 5 10 6 11 7 4 8 3 9 2 10 1 11
REMARK H PARENT
REMARK Flexibility Score: inf
ROOT
ATOM      1  C   UNL     1      -6.043   1.624  20.449  1.00  0.00     0.004 C 
ENDROOT
BRANCH   1   2
ATOM      2  C   UNL     1      -5.179   1.238  21.656  1.00  0.00     0.027 C 
BRANCH   2   3
ATOM      3  C   UNL     1      -4.560   2.450  22.293  1.00  0.00    -0.025 C 
ATOM      4  C   UNL     1      -5.291   3.527  22.601  1.00  0.00     0.020 C 
BRANCH   4   5
ATOM      5  C   UNL     1      -4.709   4.719  23.237  1.00  0.00     0.064 C 
ATOM      6  O   UNL     1      -5.408   5.480  23.958  1.00  0.00    -0.545 OA
ATOM      7  O   UNL     1      -3.364   5.010  23.043  1.00  0.00    -0.545 OA
ENDBRANCH   4   5
ENDBRANCH   2   3
ENDBRANCH   1   2
BRANCH   1   8
ATOM      8  C   UNL     1      -7.243   0.680  20.307  1.00  0.00     0.000 C 
BRANCH   8   9
ATOM      9  C   UNL     1      -8.549   1.391  20.691  1.00  0.00    -0.000 C 
BRANCH   9  10
ATOM     10  C   UNL     1      -8.348   2.892  20.955  1.00  0.00    -0.003 C 
ATOM     11  C   UNL     1      -8.823   3.316  22.345  1.00  0.00     0.004 C 
ENDBRANCH   9  10
ENDBRANCH   8   9
ENDBRANCH   1   8
TORSDOF 6
ENDMDL
MODEL 6
REMARK VINA RESULT:    -3.425     15.106     16.285
REMARK INTER + INTRA:          -5.286
REMARK INTER:                  -4.796
REMARK INTRA:                  -0.490
REMARK UNBOUND:                -0.660
REMARK SMILES CCCCCCC=CC(=O)[O-]
REMARK SMILES IDX 5 1 6 2 7 3 8 4 9 5 10 6 11 7 4 8 3 9 2 10 1 11
REMARK H PARENT
REMARK Flexibility Score: inf
ROOT
ATOM      1  C   UNL     1     -12.649  -8.656  13.567  1.00  0.00     0.004 C 
ENDROOT
BRANCH   1   2
ATOM      2  C   UNL     1     -11.370  -8.244  14.305  1.00  0.00     0.027 C 
BRANCH   2   3
ATOM      3  C   UNL     1     -11.660  -7.873  15.732  1.00  0.00    -0.025 C 
ATOM      4  C   UNL     1     -11.019  -8.456  16.750  1.00  0.00     0.020 C 
BRANCH   4   5
ATOM      5  C   UNL     1     -11.277  -8.098  18.153  1.00  0.00     0.064 C 
ATOM      6  O   UNL     1     -11.472  -8.985  19.027  1.00  0.00    -0.545 OA
ATOM      7  O   UNL     1     -11.305  -6.759  18.523  1.00  0.00    -0.545 OA
ENDBRANCH   4   5
ENDBRANCH   2   3
ENDBRANCH   1   2
BRANCH   1   8
ATOM      8  C   UNL     1     -12.800  -7.880  12.253  1.00  0.00     0.000 C 
BRANCH   8   9
ATOM      9  C   UNL     1     -11.764  -6.750  12.160  1.00  0.00    -0.000 C 
BRANCH   9  10
ATOM     10  C   UNL     1     -12.413  -5.361  12.054  1.00  0.00    -0.003 C 
ATOM     11  C   UNL     1     -12.735  -4.753  13.420  1.00  0.00     0.004 C 
ENDBRANCH   9  10
ENDBRANCH   8   9
ENDBRANCH   1   8
TORSDOF 6
ENDMDL
MODEL 7
REMARK VINA RESULT:    -3.395      1.564      2.671
REMARK INTER + INTRA:          -5.246
REMARK INTER:                  -4.548
REMARK INTRA:                  -0.697
REMARK UNBOUND:                -0.660
REMARK SMILES CCCCCCC=CC(=O)[O-]
REMARK SMILES IDX 5 1 6 2 7 3 8 4 9 5 10 6 11 7 4 8 3 9 2 10 1 11
REMARK H PARENT
REMARK Flexibility Score: inf
ROOT
ATOM      1  C   UNL     1       1.100   4.303  16.152  1.00  0.00     0.004 C 
ENDROOT
BRANCH   1   2
ATOM      2  C   UNL     1       0.975   4.283  14.624  1.00  0.00     0.027 C 
BRANCH   2   3
ATOM      3  C   UNL     1      -0.453   4.460  14.192  1.00  0.00    -0.025 C 
ATOM      4  C   UNL     1      -1.471   4.175  15.011  1.00  0.00     0.020 C 
BRANCH   4   5
ATOM      5  C   UNL     1      -2.876   4.355  14.614  1.00  0.00     0.064 C 
ATOM      6  O   UNL     1      -3.284   5.446  14.135  1.00  0.00    -0.545 OA
ATOM      7  O   UNL     1      -3.770   3.302  14.769  1.00  0.00    -0.545 OA
ENDBRANCH   4   5
ENDBRANCH   2   3
ENDBRANCH   1   2
BRANCH   1   8
ATOM      8  C   UNL     1       1.820   3.049  16.663  1.00  0.00     0.000 C 
BRANCH   8   9
ATOM      9  C   UNL     1       1.832   1.949  15.592  1.00  0.00    -0.000 C 
BRANCH   9  10
ATOM     10  C   UNL     1       0.819   0.831  15.883  1.00  0.00    -0.003 C 
ATOM     11  C   UNL     1      -0.108   0.549  14.699  1.00  0.00     0.004 C 
ENDBRANCH   9  10
ENDBRANCH   8   9
ENDBRANCH   1   8
TORSDOF 6
ENDMDL
MODEL 8
REMARK VINA RESULT:    -3.389     15.024     15.937
REMARK INTER + INTRA:          -5.237
REMARK INTER:                  -4.978
REMARK INTRA:                  -0.259
REMARK UNBOUND:                -0.660
REMARK SMILES CCCCCCC=CC(=O)[O-]
REMARK SMILES IDX 5 1 6 2 7 3 8 4 9 5 10 6 11 7 4 8 3 9 2 10 1 11
REMARK H PARENT
REMARK Flexibility Score: inf
ROOT
ATOM      1  C   UNL     1     -10.892  -8.058  14.484  1.00  0.00     0.004 C 
ENDROOT
BRANCH   1   2
ATOM      2  C   UNL     1     -12.316  -8.434  14.058  1.00  0.00     0.027 C 
BRANCH   2   3
ATOM      3  C   UNL     1     -12.713  -7.726  12.794  1.00  0.00    -0.025 C 
ATOM      4  C   UNL     1     -12.160  -6.560  12.444  1.00  0.00     0.020 C 
BRANCH   4   5
ATOM      5  C   UNL     1     -12.523  -5.856  11.204  1.00  0.00     0.064 C 
ATOM      6  O   UNL     1     -12.391  -6.408  10.079  1.00  0.00    -0.545 OA
ATOM      7  O   UNL     1     -13.020  -4.561  11.274  1.00  0.00    -0.545 OA
ENDBRANCH   4   5
ENDBRANCH   2   3
ENDBRANCH   1   2
BRANCH   1   8
ATOM      8  C   UNL     1     -10.878  -7.461  15.896  1.00  0.00     0.000 C 
BRANCH   8   9
ATOM      9  C   UNL     1     -11.291  -8.509  16.939  1.00  0.00    -0.000 C 
BRANCH   9  10
ATOM     10  C   UNL     1     -11.537  -7.897  18.327  1.00  0.00    -0.003 C 
ATOM     11  C   UNL     1     -11.324  -8.898  19.462  1.00  0.00     0.004 C 
ENDBRANCH   9  10
ENDBRANCH   8   9
ENDBRANCH   1   8
TORSDOF 6
ENDMDL
MODEL 9
REMARK VINA RESULT:    -3.338     14.456     15.497
REMARK INTER + INTRA:          -5.169
REMARK INTER:                  -4.904
REMARK INTRA:                  -0.265
REMARK UNBOUND:                -0.660
REMARK SMILES CCCCCCC=CC(=O)[O-]
REMARK SMILES IDX 5 1 6 2 7 3 8 4 9 5 10 6 11 7 4 8 3 9 2 10 1 11
REMARK H PARENT
REMARK Flexibility Score: inf
ROOT
ATOM      1  C   UNL     1     -10.396  -7.905  16.279  1.00  0.00     0.004 C 
ENDROOT
BRANCH   1   2
ATOM      2  C   UNL     1     -10.493  -8.177  14.773  1.00  0.00     0.027 C 
BRANCH   2   3
ATOM      3  C   UNL     1     -11.546  -7.319  14.132  1.00  0.00    -0.025 C 
ATOM      4  C   UNL     1     -11.406  -5.992  14.041  1.00  0.00     0.020 C 
BRANCH   4   5
ATOM      5  C   UNL     1     -12.418  -5.134  13.404  1.00  0.00     0.064 C 
ATOM      6  O   UNL     1     -12.973  -5.472  12.325  1.00  0.00    -0.545 OA
ATOM      7  O   UNL     1     -12.769  -3.931  14.004  1.00  0.00    -0.545 OA
ENDBRANCH   4   5
ENDBRANCH   2   3
ENDBRANCH   1   2
BRANCH   1   8
ATOM      8  C   UNL     1     -11.660  -8.382  17.007  1.00  0.00     0.000 C 
BRANCH   8   9
ATOM      9  C   UNL     1     -11.662  -7.911  18.468  1.00  0.00    -0.000 C 
BRANCH   9  10
ATOM     10  C   UNL     1     -11.189  -9.002  19.441  1.00  0.00    -0.003 C 
ATOM     11  C   UNL     1     -10.578  -8.430  20.721  1.00  0.00     0.004 C 
ENDBRANCH   9  10
ENDBRANCH   8   9
ENDBRANCH   1   8
TORSDOF 6
ENDMDL
