MODEL 1
REMARK VINA RESULT:    28.196      0.000      0.000
REMARK INTER + INTRA:          41.418
REMARK INTER:                  41.382
REMARK INTRA:                   0.035
REMARK UNBOUND:                 0.035
REMARK SMILES O=c1c(O[C@H]2O[C@H](CO)[C@@H](O)[C@H](O)[C@@H]2O)c(-c2ccc(O)c(O)c2)oc2cc(O)cc(O)c12
REMARK SMILES IDX 4 1 3 2 16 3 25 4 2 5 26 6 1 7 33 8 27 9 31 10 28 11 30 12
REMARK SMILES IDX 17 13 18 14 19 15 20 16 24 17 22 18 21 19 23 21 32 23 29 25
REMARK SMILES IDX 5 27 14 28 6 29 12 30 7 31 10 32 15 33 13 35 8 37 9 38 11 40
REMARK H PARENT 21 20 23 22 32 24 29 26 15 34 13 36 9 39 11 41
REMARK Flexibility Score: inf
ROOT
ATOM      1  O   UNL     1     -17.193   3.742  17.614  1.00  0.00    -0.454 OA
ENDROOT
BRANCH   1   2
ATOM      2  C   UNL     1     -17.659   3.279  16.367  1.00  0.00     0.214 A 
ATOM      3  C   UNL     1     -16.851   2.383  15.642  1.00  0.00     0.180 A 
ATOM      4  O   UNL     1     -17.225   1.969  14.438  1.00  0.00    -0.452 OA
ATOM      5  C   UNL     1     -18.859   3.726  15.770  1.00  0.00     0.239 A 
ATOM      6  C   UNL     1     -18.367   2.321  13.866  1.00  0.00     0.146 A 
ATOM      7  O   UNL     1     -19.507   4.662  16.303  1.00  0.00    -0.285 OA
ATOM      8  C   UNL     1     -19.273   3.185  14.529  1.00  0.00     0.111 A 
ATOM      9  C   UNL     1     -18.656   1.834  12.589  1.00  0.00     0.094 A 
ATOM     10  C   UNL     1     -20.509   3.497  13.888  1.00  0.00     0.134 A 
ATOM     11  C   UNL     1     -19.837   2.196  11.944  1.00  0.00     0.123 A 
ATOM     12  C   UNL     1     -20.754   3.026  12.592  1.00  0.00     0.093 A 
BRANCH   3  13
ATOM     13  C   UNL     1     -15.555   1.901  16.168  1.00  0.00     0.025 A 
ATOM     14  C   UNL     1     -15.156   0.565  16.002  1.00  0.00     0.016 A 
ATOM     15  C   UNL     1     -13.925   0.130  16.497  1.00  0.00     0.051 A 
ATOM     16  C   UNL     1     -13.071   1.022  17.152  1.00  0.00     0.157 A 
ATOM     17  C   UNL     1     -14.687   2.801  16.802  1.00  0.00     0.062 A 
ATOM     18  C   UNL     1     -13.450   2.367  17.302  1.00  0.00     0.158 A 
BRANCH  16  19
ATOM     19  O   UNL     1     -11.851   0.557  17.643  1.00  0.00    -0.504 OA
ATOM     20  H   UNL     1     -10.971   0.988  17.389  1.00  0.00     0.293 HD
ENDBRANCH  16  19
BRANCH  18  21
ATOM     21  O   UNL     1     -12.600   3.265  17.945  1.00  0.00    -0.504 OA
ATOM     22  H   UNL     1     -11.595   3.222  17.828  1.00  0.00     0.293 HD
ENDBRANCH  18  21
ENDBRANCH   3  13
BRANCH  10  23
ATOM     23  O   UNL     1     -21.535   4.227  14.497  1.00  0.00    -0.507 OA
ATOM     24  H   UNL     1     -22.218   3.832  15.125  1.00  0.00     0.293 HD
ENDBRANCH  10  23
BRANCH  11  25
ATOM     25  O   UNL     1     -20.094   1.718  10.661  1.00  0.00    -0.508 OA
ATOM     26  H   UNL     1     -20.724   0.940  10.502  1.00  0.00     0.293 HD
ENDBRANCH  11  25
ENDBRANCH   1   2
BRANCH   1  27
ATOM     27  C   UNL     1     -17.837   4.679  18.486  1.00  0.00     0.339 C 
ATOM     28  C   UNL     1     -16.796   5.274  19.476  1.00  0.00     0.214 C 
ATOM     29  O   UNL     1     -18.932   4.045  19.138  1.00  0.00    -0.332 OA
ATOM     30  C   UNL     1     -17.430   5.475  20.861  1.00  0.00     0.180 C 
ATOM     31  C   UNL     1     -18.506   3.242  20.224  1.00  0.00     0.179 C 
ATOM     32  C   UNL     1     -17.969   4.129  21.387  1.00  0.00     0.177 C 
BRANCH  28  33
ATOM     33  O   UNL     1     -16.299   6.499  19.000  1.00  0.00    -0.384 OA
ATOM     34  H   UNL     1     -15.586   6.783  19.629  1.00  0.00     0.211 HD
ENDBRANCH  28  33
BRANCH  30  35
ATOM     35  O   UNL     1     -18.485   6.402  20.781  1.00  0.00    -0.387 OA
ATOM     36  H   UNL     1     -18.177   7.232  21.230  1.00  0.00     0.211 HD
ENDBRANCH  30  35
BRANCH  31  37
ATOM     37  C   UNL     1     -19.687   2.387  20.701  1.00  0.00     0.191 C 
BRANCH  37  38
ATOM     38  O   UNL     1     -20.193   2.900  21.901  1.00  0.00    -0.394 OA
ATOM     39  H   UNL     1     -19.407   3.065  22.484  1.00  0.00     0.210 HD
ENDBRANCH  37  38
ENDBRANCH  31  37
BRANCH  32  40
ATOM     40  O   UNL     1     -16.938   3.452  22.061  1.00  0.00    -0.387 OA
ATOM     41  H   UNL     1     -16.280   4.138  22.343  1.00  0.00     0.211 HD
ENDBRANCH  32  40
ENDBRANCH   1  27
TORSDOF 12
ENDMDL
MODEL 2
REMARK VINA RESULT:    29.743      1.040      2.268
REMARK INTER + INTRA:          43.689
REMARK INTER:                  43.752
REMARK INTRA:                  -0.064
REMARK UNBOUND:                 0.035
REMARK SMILES O=c1c(O[C@H]2O[C@H](CO)[C@@H](O)[C@H](O)[C@@H]2O)c(-c2ccc(O)c(O)c2)oc2cc(O)cc(O)c12
REMARK SMILES IDX 4 1 3 2 16 3 25 4 2 5 26 6 1 7 33 8 27 9 31 10 28 11 30 12
REMARK SMILES IDX 17 13 18 14 19 15 20 16 24 17 22 18 21 19 23 21 32 23 29 25
REMARK SMILES IDX 5 27 14 28 6 29 12 30 7 31 10 32 15 33 13 35 8 37 9 38 11 40
REMARK H PARENT 21 20 23 22 32 24 29 26 15 34 13 36 9 39 11 41
REMARK Flexibility Score: inf
ROOT
ATOM      1  O   UNL     1     -16.427   4.343  17.451  1.00  0.00    -0.454 OA
ENDROOT
BRANCH   1   2
ATOM      2  C   UNL     1     -17.164   3.775  16.394  1.00  0.00     0.214 A 
ATOM      3  C   UNL     1     -16.641   2.637  15.750  1.00  0.00     0.180 A 
ATOM      4  O   UNL     1     -17.274   2.105  14.712  1.00  0.00    -0.452 OA
ATOM      5  C   UNL     1     -18.363   4.330  15.893  1.00  0.00     0.239 A 
ATOM      6  C   UNL     1     -18.426   2.563  14.246  1.00  0.00     0.146 A 
ATOM      7  O   UNL     1     -18.757   5.445  16.320  1.00  0.00    -0.285 OA
ATOM      8  C   UNL     1     -19.060   3.678  14.848  1.00  0.00     0.111 A 
ATOM      9  C   UNL     1     -19.000   1.933  13.138  1.00  0.00     0.094 A 
ATOM     10  C   UNL     1     -20.322   4.102  14.335  1.00  0.00     0.134 A 
ATOM     11  C   UNL     1     -20.200   2.395  12.605  1.00  0.00     0.123 A 
ATOM     12  C   UNL     1     -20.853   3.476  13.201  1.00  0.00     0.093 A 
BRANCH   3  13
ATOM     13  C   UNL     1     -15.367   2.017  16.176  1.00  0.00     0.025 A 
ATOM     14  C   UNL     1     -15.034   0.707  15.796  1.00  0.00     0.016 A 
ATOM     15  C   UNL     1     -13.822   0.142  16.199  1.00  0.00     0.051 A 
ATOM     16  C   UNL     1     -12.923   0.878  16.975  1.00  0.00     0.157 A 
ATOM     17  C   UNL     1     -14.452   2.764  16.932  1.00  0.00     0.062 A 
ATOM     18  C   UNL     1     -13.235   2.198  17.341  1.00  0.00     0.158 A 
BRANCH  16  19
ATOM     19  O   UNL     1     -11.723   0.284  17.369  1.00  0.00    -0.504 OA
ATOM     20  H   UNL     1     -11.480  -0.662  17.104  1.00  0.00     0.293 HD
ENDBRANCH  16  19
BRANCH  18  21
ATOM     21  O   UNL     1     -12.339   2.943  18.105  1.00  0.00    -0.504 OA
ATOM     22  H   UNL     1     -11.361   3.023  17.851  1.00  0.00     0.293 HD
ENDBRANCH  18  21
ENDBRANCH   3  13
BRANCH  10  23
ATOM     23  O   UNL     1     -21.103   5.100  14.927  1.00  0.00    -0.507 OA
ATOM     24  H   UNL     1     -21.632   4.978  15.778  1.00  0.00     0.293 HD
ENDBRANCH  10  23
BRANCH  11  25
ATOM     25  O   UNL     1     -20.743   1.766  11.486  1.00  0.00    -0.508 OA
ATOM     26  H   UNL     1     -20.247   1.026  11.001  1.00  0.00     0.293 HD
ENDBRANCH  11  25
ENDBRANCH   1   2
BRANCH   1  27
ATOM     27  C   UNL     1     -16.598   4.102  18.854  1.00  0.00     0.339 C 
ATOM     28  C   UNL     1     -18.101   3.853  19.163  1.00  0.00     0.214 C 
ATOM     29  O   UNL     1     -16.046   5.187  19.592  1.00  0.00    -0.332 OA
ATOM     30  C   UNL     1     -18.481   4.484  20.512  1.00  0.00     0.180 C 
ATOM     31  C   UNL     1     -16.918   6.304  19.621  1.00  0.00     0.179 C 
ATOM     32  C   UNL     1     -18.178   5.996  20.484  1.00  0.00     0.177 C 
BRANCH  28  33
ATOM     33  O   UNL     1     -18.384   2.477  19.187  1.00  0.00    -0.384 OA
ATOM     34  H   UNL     1     -19.160   2.334  18.585  1.00  0.00     0.211 HD
ENDBRANCH  28  33
BRANCH  30  35
ATOM     35  O   UNL     1     -17.751   3.879  21.552  1.00  0.00    -0.387 OA
ATOM     36  H   UNL     1     -16.993   4.485  21.764  1.00  0.00     0.211 HD
ENDBRANCH  30  35
BRANCH  31  37
ATOM     37  C   UNL     1     -16.158   7.510  20.188  1.00  0.00     0.191 C 
BRANCH  37  38
ATOM     38  O   UNL     1     -16.920   8.125  21.188  1.00  0.00    -0.394 OA
ATOM     39  H   UNL     1     -16.730   7.627  22.026  1.00  0.00     0.210 HD
ENDBRANCH  37  38
ENDBRANCH  31  37
BRANCH  32  40
ATOM     40  O   UNL     1     -19.288   6.679  19.959  1.00  0.00    -0.387 OA
ATOM     41  H   UNL     1     -19.041   7.639  19.914  1.00  0.00     0.211 HD
ENDBRANCH  32  40
ENDBRANCH   1  27
TORSDOF 12
ENDMDL
MODEL 3
REMARK VINA RESULT:    31.120      1.868      6.631
REMARK INTER + INTRA:          45.710
REMARK INTER:                  41.942
REMARK INTRA:                   3.768
REMARK UNBOUND:                 0.035
REMARK SMILES O=c1c(O[C@H]2O[C@H](CO)[C@@H](O)[C@H](O)[C@@H]2O)c(-c2ccc(O)c(O)c2)oc2cc(O)cc(O)c12
REMARK SMILES IDX 4 1 3 2 16 3 25 4 2 5 26 6 1 7 33 8 27 9 31 10 28 11 30 12
REMARK SMILES IDX 17 13 18 14 19 15 20 16 24 17 22 18 21 19 23 21 32 23 29 25
REMARK SMILES IDX 5 27 14 28 6 29 12 30 7 31 10 32 15 33 13 35 8 37 9 38 11 40
REMARK H PARENT 21 20 23 22 32 24 29 26 15 34 13 36 9 39 11 41
REMARK Flexibility Score: inf
ROOT
ATOM      1  O   UNL     1     -18.059   4.045  15.809  1.00  0.00    -0.454 OA
ENDROOT
BRANCH   1   2
ATOM      2  C   UNL     1     -16.894   3.335  16.162  1.00  0.00     0.214 A 
ATOM      3  C   UNL     1     -16.352   3.536  17.446  1.00  0.00     0.180 A 
ATOM      4  O   UNL     1     -15.224   2.933  17.798  1.00  0.00    -0.452 OA
ATOM      5  C   UNL     1     -16.196   2.490  15.270  1.00  0.00     0.239 A 
ATOM      6  C   UNL     1     -14.569   2.092  17.011  1.00  0.00     0.146 A 
ATOM      7  O   UNL     1     -16.547   2.435  14.064  1.00  0.00    -0.285 OA
ATOM      8  C   UNL     1     -15.052   1.787  15.715  1.00  0.00     0.111 A 
ATOM      9  C   UNL     1     -13.382   1.521  17.480  1.00  0.00     0.094 A 
ATOM     10  C   UNL     1     -14.332   0.841  14.926  1.00  0.00     0.134 A 
ATOM     11  C   UNL     1     -12.652   0.648  16.677  1.00  0.00     0.123 A 
ATOM     12  C   UNL     1     -13.126   0.315  15.407  1.00  0.00     0.093 A 
BRANCH   3  13
ATOM     13  C   UNL     1     -16.989   4.441  18.428  1.00  0.00     0.025 A 
ATOM     14  C   UNL     1     -18.218   4.118  19.023  1.00  0.00     0.016 A 
ATOM     15  C   UNL     1     -18.800   4.980  19.955  1.00  0.00     0.051 A 
ATOM     16  C   UNL     1     -18.158   6.169  20.315  1.00  0.00     0.157 A 
ATOM     17  C   UNL     1     -16.332   5.621  18.810  1.00  0.00     0.062 A 
ATOM     18  C   UNL     1     -16.915   6.490  19.744  1.00  0.00     0.158 A 
BRANCH  16  19
ATOM     19  O   UNL     1     -18.766   7.013  21.244  1.00  0.00    -0.504 OA
ATOM     20  H   UNL     1     -19.749   7.248  21.193  1.00  0.00     0.293 HD
ENDBRANCH  16  19
BRANCH  18  21
ATOM     21  O   UNL     1     -16.263   7.668  20.106  1.00  0.00    -0.504 OA
ATOM     22  H   UNL     1     -16.060   7.887  21.074  1.00  0.00     0.293 HD
ENDBRANCH  18  21
ENDBRANCH   3  13
BRANCH  10  23
ATOM     23  O   UNL     1     -14.780   0.361  13.691  1.00  0.00    -0.507 OA
ATOM     24  H   UNL     1     -15.508  -0.329  13.579  1.00  0.00     0.293 HD
ENDBRANCH  10  23
BRANCH  11  25
ATOM     25  O   UNL     1     -11.460   0.109  17.156  1.00  0.00    -0.508 OA
ATOM     26  H   UNL     1     -10.648   0.690  17.331  1.00  0.00     0.293 HD
ENDBRANCH  11  25
ENDBRANCH   1   2
BRANCH   1  27
ATOM     27  C   UNL     1     -18.796   3.945  14.585  1.00  0.00     0.339 C 
ATOM     28  C   UNL     1     -20.319   4.048  14.879  1.00  0.00     0.214 C 
ATOM     29  O   UNL     1     -18.437   2.742  13.912  1.00  0.00    -0.332 OA
ATOM     30  C   UNL     1     -21.107   3.105  13.958  1.00  0.00     0.180 C 
ATOM     31  C   UNL     1     -19.091   1.613  14.463  1.00  0.00     0.179 C 
ATOM     32  C   UNL     1     -20.617   1.655  14.153  1.00  0.00     0.177 C 
BRANCH  28  33
ATOM     33  O   UNL     1     -20.771   5.367  14.707  1.00  0.00    -0.384 OA
ATOM     34  H   UNL     1     -21.743   5.365  14.906  1.00  0.00     0.211 HD
ENDBRANCH  28  33
BRANCH  30  35
ATOM     35  O   UNL     1     -20.932   3.481  12.614  1.00  0.00    -0.387 OA
ATOM     36  H   UNL     1     -20.785   2.648  12.095  1.00  0.00     0.211 HD
ENDBRANCH  30  35
BRANCH  31  37
ATOM     37  C   UNL     1     -18.459   0.342  13.880  1.00  0.00     0.191 C 
BRANCH  37  38
ATOM     38  O   UNL     1     -19.211  -0.778  14.253  1.00  0.00    -0.394 OA
ATOM     39  H   UNL     1     -20.133  -0.449  14.416  1.00  0.00     0.210 HD
ENDBRANCH  37  38
ENDBRANCH  31  37
BRANCH  32  40
ATOM     40  O   UNL     1     -21.330   1.066  15.211  1.00  0.00    -0.387 OA
ATOM     41  H   UNL     1     -20.711   1.020  15.985  1.00  0.00     0.211 HD
ENDBRANCH  32  40
ENDBRANCH   1  27
TORSDOF 12
ENDMDL
