MODEL 1
REMARK VINA RESULT:    -4.388      0.000      0.000
REMARK INTER + INTRA:          -5.121
REMARK INTER:                  -5.030
REMARK INTRA:                  -0.091
REMARK UNBOUND:                -0.091
REMARK SMILES COc1cc(C(=O)[O-])ccc1O
REMARK SMILES IDX 5 1 9 2 4 3 10 4 3 5 11 6 6 7 7 8 8 9 2 10 1 11 12 12
REMARK H PARENT 12 13
REMARK Flexibility Score: inf
ROOT
ATOM      1  C   UNL     1     -11.982 -34.635 -14.569  1.00  0.00     0.001 A 
ATOM      2  C   UNL     1     -12.581 -35.490 -15.508  1.00  0.00     0.014 A 
ATOM      3  C   UNL     1     -11.946 -33.253 -14.830  1.00  0.00     0.060 A 
ATOM      4  C   UNL     1     -13.132 -34.976 -16.683  1.00  0.00     0.051 A 
ATOM      5  C   UNL     1     -12.502 -32.728 -16.015  1.00  0.00     0.161 A 
ATOM      6  C   UNL     1     -13.097 -33.604 -16.940  1.00  0.00     0.157 A 
ENDROOT
BRANCH   1   7
ATOM      7  C   UNL     1     -11.396 -35.177 -13.323  1.00  0.00     0.072 C 
ATOM      8  O   UNL     1     -12.008 -35.069 -12.227  1.00  0.00    -0.545 OA
ATOM      9  O   UNL     1     -10.160 -35.813 -13.344  1.00  0.00    -0.545 OA
ENDBRANCH   1   7
BRANCH   5  10
ATOM     10  O   UNL     1     -12.480 -31.353 -16.301  1.00  0.00    -0.493 OA
ATOM     11  C   UNL     1     -11.405 -30.679 -16.947  1.00  0.00     0.278 C 
ENDBRANCH   5  10
BRANCH   6  12
ATOM     12  O   UNL     1     -13.658 -33.126 -18.125  1.00  0.00    -0.504 OA
ATOM     13  H   UNL     1     -14.596 -33.373 -18.417  1.00  0.00     0.293 HD
ENDBRANCH   6  12
TORSDOF 3
ENDMDL
MODEL 2
REMARK VINA RESULT:    -4.360     11.699     13.795
REMARK INTER + INTRA:          -5.089
REMARK INTER:                  -5.007
REMARK INTRA:                  -0.082
REMARK UNBOUND:                -0.091
REMARK SMILES COc1cc(C(=O)[O-])ccc1O
REMARK SMILES IDX 5 1 9 2 4 3 10 4 3 5 11 6 6 7 7 8 8 9 2 10 1 11 12 12
REMARK H PARENT 12 13
REMARK Flexibility Score: inf
ROOT
ATOM      1  C   UNL     1     -19.974 -38.059  -4.162  1.00  0.00     0.001 A 
ATOM      2  C   UNL     1     -19.034 -37.922  -3.128  1.00  0.00     0.014 A 
ATOM      3  C   UNL     1     -19.518 -38.236  -5.481  1.00  0.00     0.060 A 
ATOM      4  C   UNL     1     -17.667 -37.960  -3.406  1.00  0.00     0.051 A 
ATOM      5  C   UNL     1     -18.138 -38.275  -5.767  1.00  0.00     0.161 A 
ATOM      6  C   UNL     1     -17.215 -38.136  -4.715  1.00  0.00     0.157 A 
ENDROOT
BRANCH   1   7
ATOM      7  C   UNL     1     -21.425 -38.019  -3.871  1.00  0.00     0.072 C 
ATOM      8  O   UNL     1     -22.264 -37.942  -4.808  1.00  0.00    -0.545 OA
ATOM      9  O   UNL     1     -21.883 -38.065  -2.560  1.00  0.00    -0.545 OA
ENDBRANCH   1   7
BRANCH   5  10
ATOM     10  O   UNL     1     -17.654 -38.449  -7.074  1.00  0.00    -0.493 OA
ATOM     11  C   UNL     1     -18.345 -38.046  -8.252  1.00  0.00     0.278 C 
ENDBRANCH   5  10
BRANCH   6  12
ATOM     12  O   UNL     1     -15.840 -38.169  -4.955  1.00  0.00    -0.504 OA
ATOM     13  H   UNL     1     -15.324 -37.352  -5.258  1.00  0.00     0.293 HD
ENDBRANCH   6  12
TORSDOF 3
ENDMDL
MODEL 3
REMARK VINA RESULT:    -4.307     13.718     15.545
REMARK INTER + INTRA:          -5.028
REMARK INTER:                  -4.937
REMARK INTRA:                  -0.090
REMARK UNBOUND:                -0.091
REMARK SMILES COc1cc(C(=O)[O-])ccc1O
REMARK SMILES IDX 5 1 9 2 4 3 10 4 3 5 11 6 6 7 7 8 8 9 2 10 1 11 12 12
REMARK H PARENT 12 13
REMARK Flexibility Score: inf
ROOT
ATOM      1  C   UNL     1     -19.764 -37.817  -3.661  1.00  0.00     0.001 A 
ATOM      2  C   UNL     1     -18.701 -37.224  -4.361  1.00  0.00     0.014 A 
ATOM      3  C   UNL     1     -19.528 -38.340  -2.377  1.00  0.00     0.060 A 
ATOM      4  C   UNL     1     -17.429 -37.155  -3.790  1.00  0.00     0.051 A 
ATOM      5  C   UNL     1     -18.246 -38.274  -1.795  1.00  0.00     0.161 A 
ATOM      6  C   UNL     1     -17.196 -37.675  -2.515  1.00  0.00     0.157 A 
ENDROOT
BRANCH   1   7
ATOM      7  C   UNL     1     -21.113 -37.892  -4.263  1.00  0.00     0.072 C 
ATOM      8  O   UNL     1     -21.385 -38.776  -5.119  1.00  0.00    -0.545 OA
ATOM      9  O   UNL     1     -22.102 -36.987  -3.894  1.00  0.00    -0.545 OA
ENDBRANCH   1   7
BRANCH   5  10
ATOM     10  O   UNL     1     -17.982 -38.788  -0.516  1.00  0.00    -0.493 OA
ATOM     11  C   UNL     1     -18.552 -38.289   0.690  1.00  0.00     0.278 C 
ENDBRANCH   5  10
BRANCH   6  12
ATOM     12  O   UNL     1     -15.912 -37.588  -1.976  1.00  0.00    -0.504 OA
ATOM     13  H   UNL     1     -15.735 -37.670  -0.983  1.00  0.00     0.293 HD
ENDBRANCH   6  12
TORSDOF 3
ENDMDL
MODEL 4
REMARK VINA RESULT:    -4.164      1.196      2.820
REMARK INTER + INTRA:          -4.864
REMARK INTER:                  -4.780
REMARK INTRA:                  -0.084
REMARK UNBOUND:                -0.091
REMARK SMILES COc1cc(C(=O)[O-])ccc1O
REMARK SMILES IDX 5 1 9 2 4 3 10 4 3 5 11 6 6 7 7 8 8 9 2 10 1 11 12 12
REMARK H PARENT 12 13
REMARK Flexibility Score: inf
ROOT
ATOM      1  C   UNL     1     -12.072 -34.771 -14.021  1.00  0.00     0.001 A 
ATOM      2  C   UNL     1     -12.082 -33.369 -14.094  1.00  0.00     0.014 A 
ATOM      3  C   UNL     1     -12.434 -35.517 -15.158  1.00  0.00     0.060 A 
ATOM      4  C   UNL     1     -12.447 -32.725 -15.277  1.00  0.00     0.051 A 
ATOM      5  C   UNL     1     -12.803 -34.871 -16.356  1.00  0.00     0.161 A 
ATOM      6  C   UNL     1     -12.806 -33.466 -16.405  1.00  0.00     0.157 A 
ENDROOT
BRANCH   1   7
ATOM      7  C   UNL     1     -11.686 -35.457 -12.768  1.00  0.00     0.072 C 
ATOM      8  O   UNL     1     -10.505 -35.860 -12.595  1.00  0.00    -0.545 OA
ATOM      9  O   UNL     1     -12.622 -35.668 -11.762  1.00  0.00    -0.545 OA
ENDBRANCH   1   7
BRANCH   5  10
ATOM     10  O   UNL     1     -13.169 -35.590 -17.505  1.00  0.00    -0.493 OA
ATOM     11  C   UNL     1     -12.384 -36.619 -18.100  1.00  0.00     0.278 C 
ENDBRANCH   5  10
BRANCH   6  12
ATOM     12  O   UNL     1     -13.165 -32.787 -17.571  1.00  0.00    -0.504 OA
ATOM     13  H   UNL     1     -13.584 -31.866 -17.552  1.00  0.00     0.293 HD
ENDBRANCH   6  12
TORSDOF 3
ENDMDL
MODEL 5
REMARK VINA RESULT:    -4.158      1.784      4.840
REMARK INTER + INTRA:          -4.858
REMARK INTER:                  -4.769
REMARK INTRA:                  -0.088
REMARK UNBOUND:                -0.091
REMARK SMILES COc1cc(C(=O)[O-])ccc1O
REMARK SMILES IDX 5 1 9 2 4 3 10 4 3 5 11 6 6 7 7 8 8 9 2 10 1 11 12 12
REMARK H PARENT 12 13
REMARK Flexibility Score: inf
ROOT
ATOM      1  C   UNL     1     -12.632 -32.199 -16.983  1.00  0.00     0.001 A 
ATOM      2  C   UNL     1     -12.253 -32.172 -15.631  1.00  0.00     0.014 A 
ATOM      3  C   UNL     1     -12.909 -33.437 -17.589  1.00  0.00     0.060 A 
ATOM      4  C   UNL     1     -12.153 -33.357 -14.901  1.00  0.00     0.051 A 
ATOM      5  C   UNL     1     -12.810 -34.638 -16.857  1.00  0.00     0.161 A 
ATOM      6  C   UNL     1     -12.429 -34.586 -15.504  1.00  0.00     0.157 A 
ENDROOT
BRANCH   1   7
ATOM      7  C   UNL     1     -12.738 -30.944 -17.760  1.00  0.00     0.072 C 
ATOM      8  O   UNL     1     -13.864 -30.495 -18.102  1.00  0.00    -0.545 OA
ATOM      9  O   UNL     1     -11.595 -30.242 -18.125  1.00  0.00    -0.545 OA
ENDBRANCH   1   7
BRANCH   5  10
ATOM     10  O   UNL     1     -13.081 -35.887 -17.436  1.00  0.00    -0.493 OA
ATOM     11  C   UNL     1     -12.119 -36.691 -18.113  1.00  0.00     0.278 C 
ENDBRANCH   5  10
BRANCH   6  12
ATOM     12  O   UNL     1     -12.319 -35.750 -14.742  1.00  0.00    -0.504 OA
ATOM     13  H   UNL     1     -13.128 -36.286 -14.454  1.00  0.00     0.293 HD
ENDBRANCH   6  12
TORSDOF 3
ENDMDL
MODEL 6
REMARK VINA RESULT:    -4.084     12.142     14.200
REMARK INTER + INTRA:          -4.772
REMARK INTER:                  -4.709
REMARK INTRA:                  -0.063
REMARK UNBOUND:                -0.091
REMARK SMILES COc1cc(C(=O)[O-])ccc1O
REMARK SMILES IDX 5 1 9 2 4 3 10 4 3 5 11 6 6 7 7 8 8 9 2 10 1 11 12 12
REMARK H PARENT 12 13
REMARK Flexibility Score: inf
ROOT
ATOM      1  C   UNL     1     -19.929 -38.249  -4.503  1.00  0.00     0.001 A 
ATOM      2  C   UNL     1     -19.463 -38.560  -5.791  1.00  0.00     0.014 A 
ATOM      3  C   UNL     1     -18.995 -37.981  -3.486  1.00  0.00     0.060 A 
ATOM      4  C   UNL     1     -18.094 -38.603  -6.056  1.00  0.00     0.051 A 
ATOM      5  C   UNL     1     -17.611 -38.023  -3.748  1.00  0.00     0.161 A 
ATOM      6  C   UNL     1     -17.167 -38.336  -5.046  1.00  0.00     0.157 A 
ENDROOT
BRANCH   1   7
ATOM      7  C   UNL     1     -21.380 -38.203  -4.218  1.00  0.00     0.072 C 
ATOM      8  O   UNL     1     -22.220 -38.353  -5.145  1.00  0.00    -0.545 OA
ATOM      9  O   UNL     1     -21.838 -37.995  -2.922  1.00  0.00    -0.545 OA
ENDBRANCH   1   7
BRANCH   5  10
ATOM     10  O   UNL     1     -16.656 -37.760  -2.752  1.00  0.00    -0.493 OA
ATOM     11  C   UNL     1     -15.995 -38.759  -1.983  1.00  0.00     0.278 C 
ENDBRANCH   5  10
BRANCH   6  12
ATOM     12  O   UNL     1     -15.806 -38.388  -5.349  1.00  0.00    -0.504 OA
ATOM     13  H   UNL     1     -15.407 -39.123  -5.920  1.00  0.00     0.293 HD
ENDBRANCH   6  12
TORSDOF 3
ENDMDL
MODEL 7
REMARK VINA RESULT:    -4.075     11.719     13.504
REMARK INTER + INTRA:          -4.762
REMARK INTER:                  -4.670
REMARK INTRA:                  -0.091
REMARK UNBOUND:                -0.091
REMARK SMILES COc1cc(C(=O)[O-])ccc1O
REMARK SMILES IDX 5 1 9 2 4 3 10 4 3 5 11 6 6 7 7 8 8 9 2 10 1 11 12 12
REMARK H PARENT 12 13
REMARK Flexibility Score: inf
ROOT
ATOM      1  C   UNL     1     -18.077 -38.289  -5.011  1.00  0.00     0.001 A 
ATOM      2  C   UNL     1     -18.653 -37.827  -3.816  1.00  0.00     0.014 A 
ATOM      3  C   UNL     1     -16.705 -38.599  -5.032  1.00  0.00     0.060 A 
ATOM      4  C   UNL     1     -17.875 -37.678  -2.668  1.00  0.00     0.051 A 
ATOM      5  C   UNL     1     -15.914 -38.450  -3.874  1.00  0.00     0.161 A 
ATOM      6  C   UNL     1     -16.513 -37.986  -2.689  1.00  0.00     0.157 A 
ENDROOT
BRANCH   1   7
ATOM      7  C   UNL     1     -18.898 -38.448  -6.231  1.00  0.00     0.072 C 
ATOM      8  O   UNL     1     -19.998 -39.062  -6.188  1.00  0.00    -0.545 OA
ATOM      9  O   UNL     1     -18.469 -37.922  -7.444  1.00  0.00    -0.545 OA
ENDBRANCH   1   7
BRANCH   5  10
ATOM     10  O   UNL     1     -14.543 -38.752  -3.866  1.00  0.00    -0.493 OA
ATOM     11  C   UNL     1     -13.567 -38.100  -4.672  1.00  0.00     0.278 C 
ENDBRANCH   5  10
BRANCH   6  12
ATOM     12  O   UNL     1     -15.767 -37.825  -1.521  1.00  0.00    -0.504 OA
ATOM     13  H   UNL     1     -15.679 -36.930  -1.055  1.00  0.00     0.293 HD
ENDBRANCH   6  12
TORSDOF 3
ENDMDL
MODEL 8
REMARK VINA RESULT:    -4.067      2.274      3.346
REMARK INTER + INTRA:          -4.753
REMARK INTER:                  -4.663
REMARK INTRA:                  -0.090
REMARK UNBOUND:                -0.091
REMARK SMILES COc1cc(C(=O)[O-])ccc1O
REMARK SMILES IDX 5 1 9 2 4 3 10 4 3 5 11 6 6 7 7 8 8 9 2 10 1 11 12 12
REMARK H PARENT 12 13
REMARK Flexibility Score: inf
ROOT
ATOM      1  C   UNL     1     -11.729 -32.900 -15.859  1.00  0.00     0.001 A 
ATOM      2  C   UNL     1     -12.742 -32.009 -16.249  1.00  0.00     0.014 A 
ATOM      3  C   UNL     1     -10.401 -32.631 -16.236  1.00  0.00     0.060 A 
ATOM      4  C   UNL     1     -12.435 -30.874 -17.000  1.00  0.00     0.051 A 
ATOM      5  C   UNL     1     -10.085 -31.486 -16.995  1.00  0.00     0.161 A 
ATOM      6  C   UNL     1     -11.116 -30.608 -17.374  1.00  0.00     0.157 A 
ENDROOT
BRANCH   1   7
ATOM      7  C   UNL     1     -12.051 -34.105 -15.063  1.00  0.00     0.072 C 
ATOM      8  O   UNL     1     -12.337 -35.192 -15.633  1.00  0.00    -0.545 OA
ATOM      9  O   UNL     1     -12.044 -34.056 -13.674  1.00  0.00    -0.545 OA
ENDBRANCH   1   7
BRANCH   5  10
ATOM     10  O   UNL     1      -8.769 -31.192 -17.386  1.00  0.00    -0.493 OA
ATOM     11  C   UNL     1      -7.700 -30.917 -16.486  1.00  0.00     0.278 C 
ENDBRANCH   5  10
BRANCH   6  12
ATOM     12  O   UNL     1     -10.848 -29.462 -18.125  1.00  0.00    -0.504 OA
ATOM     13  H   UNL     1     -11.457 -28.654 -18.114  1.00  0.00     0.293 HD
ENDBRANCH   6  12
TORSDOF 3
ENDMDL
MODEL 9
REMARK VINA RESULT:    -3.953     13.123     14.605
REMARK INTER + INTRA:          -4.622
REMARK INTER:                  -4.530
REMARK INTRA:                  -0.092
REMARK UNBOUND:                -0.091
REMARK SMILES COc1cc(C(=O)[O-])ccc1O
REMARK SMILES IDX 5 1 9 2 4 3 10 4 3 5 11 6 6 7 7 8 8 9 2 10 1 11 12 12
REMARK H PARENT 12 13
REMARK Flexibility Score: inf
ROOT
ATOM      1  C   UNL     1     -18.581 -38.413  -4.098  1.00  0.00     0.001 A 
ATOM      2  C   UNL     1     -18.787 -39.004  -5.354  1.00  0.00     0.014 A 
ATOM      3  C   UNL     1     -19.691 -37.944  -3.373  1.00  0.00     0.060 A 
ATOM      4  C   UNL     1     -20.076 -39.124  -5.876  1.00  0.00     0.051 A 
ATOM      5  C   UNL     1     -20.996 -38.062  -3.896  1.00  0.00     0.161 A 
ATOM      6  C   UNL     1     -21.178 -38.659  -5.156  1.00  0.00     0.157 A 
ENDROOT
BRANCH   1   7
ATOM      7  C   UNL     1     -17.216 -38.283  -3.541  1.00  0.00     0.072 C 
ATOM      8  O   UNL     1     -17.040 -38.136  -2.303  1.00  0.00    -0.545 OA
ATOM      9  O   UNL     1     -16.106 -38.321  -4.378  1.00  0.00    -0.545 OA
ENDBRANCH   1   7
BRANCH   5  10
ATOM     10  O   UNL     1     -22.122 -37.603  -3.195  1.00  0.00    -0.493 OA
ATOM     11  C   UNL     1     -22.480 -38.016  -1.879  1.00  0.00     0.278 C 
ENDBRANCH   5  10
BRANCH   6  12
ATOM     12  O   UNL     1     -22.451 -38.797  -5.710  1.00  0.00    -0.504 OA
ATOM     13  H   UNL     1     -22.798 -39.683  -6.056  1.00  0.00     0.293 HD
ENDBRANCH   6  12
TORSDOF 3
ENDMDL
