MODEL 1
REMARK VINA RESULT:    -4.780      0.000      0.000
REMARK INTER + INTRA:         -10.064
REMARK INTER:                  -8.133
REMARK INTRA:                  -1.931
REMARK UNBOUND:                -1.931
REMARK SMILES CCCCCCCCCCCCCC(=O)[O-]
REMARK SMILES IDX 8 1 9 2 10 3 11 4 12 5 13 6 14 7 15 8 16 9 7 10 6 11 5 12
REMARK SMILES IDX 4 13 3 14 2 15 1 16
REMARK H PARENT
REMARK Flexibility Score: inf
ROOT
ATOM      1  C   UNL     1     135.488 137.085 112.192  1.00  0.00     0.000 C 
ENDROOT
BRANCH   1   2
ATOM      2  C   UNL     1     136.951 137.454 111.892  1.00  0.00     0.000 C 
BRANCH   2   3
ATOM      3  C   UNL     1     137.774 137.685 113.170  1.00  0.00     0.000 C 
BRANCH   3   4
ATOM      4  C   UNL     1     136.927 137.575 114.448  1.00  0.00     0.000 C 
BRANCH   4   5
ATOM      5  C   UNL     1     137.317 136.366 115.316  1.00  0.00     0.006 C 
BRANCH   5   6
ATOM      6  C   UNL     1     136.272 136.069 116.399  1.00  0.00     0.053 C 
BRANCH   6   7
ATOM      7  C   UNL     1     136.421 134.685 116.952  1.00  0.00     0.041 C 
ATOM      8  O   UNL     1     136.912 133.768 116.241  1.00  0.00    -0.550 OA
ATOM      9  O   UNL     1     135.992 134.401 118.242  1.00  0.00    -0.550 OA
ENDBRANCH   6   7
ENDBRANCH   5   6
ENDBRANCH   4   5
ENDBRANCH   3   4
ENDBRANCH   2   3
ENDBRANCH   1   2
BRANCH   1  10
ATOM     10  C   UNL     1     134.930 136.031 111.220  1.00  0.00     0.000 C 
BRANCH  10  11
ATOM     11  C   UNL     1     135.337 134.600 111.607  1.00  0.00    -0.000 C 
BRANCH  11  12
ATOM     12  C   UNL     1     135.335 134.378 113.130  1.00  0.00    -0.000 C 
BRANCH  12  13
ATOM     13  C   UNL     1     134.070 133.633 113.607  1.00  0.00    -0.000 C 
BRANCH  13  14
ATOM     14  C   UNL     1     133.420 134.260 114.852  1.00  0.00    -0.000 C 
BRANCH  14  15
ATOM     15  C   UNL     1     133.040 135.733 114.650  1.00  0.00    -0.003 C 
ATOM     16  C   UNL     1     131.834 135.867 113.724  1.00  0.00     0.004 C 
ENDBRANCH  14  15
ENDBRANCH  13  14
ENDBRANCH  12  13
ENDBRANCH  11  12
ENDBRANCH  10  11
ENDBRANCH   1  10
TORSDOF 12
ENDMDL
MODEL 2
REMARK VINA RESULT:    -4.693      5.847      8.358
REMARK INTER + INTRA:          -9.917
REMARK INTER:                  -8.278
REMARK INTRA:                  -1.639
REMARK UNBOUND:                -1.931
REMARK SMILES CCCCCCCCCCCCCC(=O)[O-]
REMARK SMILES IDX 8 1 9 2 10 3 11 4 12 5 13 6 14 7 15 8 16 9 7 10 6 11 5 12
REMARK SMILES IDX 4 13 3 14 2 15 1 16
REMARK H PARENT
REMARK Flexibility Score: inf
ROOT
ATOM      1  C   UNL     1     138.909 139.235 113.075  1.00  0.00     0.000 C 
ENDROOT
BRANCH   1   2
ATOM      2  C   UNL     1     138.708 139.358 114.595  1.00  0.00     0.000 C 
BRANCH   2   3
ATOM      3  C   UNL     1     139.870 140.090 115.286  1.00  0.00     0.000 C 
BRANCH   3   4
ATOM      4  C   UNL     1     139.548 141.564 115.584  1.00  0.00     0.000 C 
BRANCH   4   5
ATOM      5  C   UNL     1     139.966 141.987 117.002  1.00  0.00     0.006 C 
BRANCH   5   6
ATOM      6  C   UNL     1     139.362 141.076 118.080  1.00  0.00     0.053 C 
BRANCH   6   7
ATOM      7  C   UNL     1     140.383 140.662 119.094  1.00  0.00     0.041 C 
ATOM      8  O   UNL     1     141.526 140.282 118.725  1.00  0.00    -0.550 OA
ATOM      9  O   UNL     1     140.063 140.666 120.446  1.00  0.00    -0.550 OA
ENDBRANCH   6   7
ENDBRANCH   5   6
ENDBRANCH   4   5
ENDBRANCH   3   4
ENDBRANCH   2   3
ENDBRANCH   1   2
BRANCH   1  10
ATOM     10  C   UNL     1     140.333 139.611 112.632  1.00  0.00     0.000 C 
BRANCH  10  11
ATOM     11  C   UNL     1     140.345 140.487 111.369  1.00  0.00    -0.000 C 
BRANCH  11  12
ATOM     12  C   UNL     1     140.943 141.882 111.623  1.00  0.00    -0.000 C 
BRANCH  12  13
ATOM     13  C   UNL     1     142.261 141.812 112.421  1.00  0.00    -0.000 C 
BRANCH  13  14
ATOM     14  C   UNL     1     142.254 142.669 113.699  1.00  0.00    -0.000 C 
BRANCH  14  15
ATOM     15  C   UNL     1     143.256 142.178 114.752  1.00  0.00    -0.003 C 
ATOM     16  C   UNL     1     143.372 140.656 114.733  1.00  0.00     0.004 C 
ENDBRANCH  14  15
ENDBRANCH  13  14
ENDBRANCH  12  13
ENDBRANCH  11  12
ENDBRANCH  10  11
ENDBRANCH   1  10
TORSDOF 12
ENDMDL
MODEL 3
REMARK VINA RESULT:    -4.676      6.653      8.741
REMARK INTER + INTRA:          -9.887
REMARK INTER:                  -8.229
REMARK INTRA:                  -1.658
REMARK UNBOUND:                -1.931
REMARK SMILES CCCCCCCCCCCCCC(=O)[O-]
REMARK SMILES IDX 8 1 9 2 10 3 11 4 12 5 13 6 14 7 15 8 16 9 7 10 6 11 5 12
REMARK SMILES IDX 4 13 3 14 2 15 1 16
REMARK H PARENT
REMARK Flexibility Score: inf
ROOT
ATOM      1  C   UNL     1     140.445 139.309 113.079  1.00  0.00     0.000 C 
ENDROOT
BRANCH   1   2
ATOM      2  C   UNL     1     139.762 140.537 113.704  1.00  0.00     0.000 C 
BRANCH   2   3
ATOM      3  C   UNL     1     139.119 140.225 115.065  1.00  0.00     0.000 C 
BRANCH   3   4
ATOM      4  C   UNL     1     140.139 140.226 116.216  1.00  0.00     0.000 C 
BRANCH   4   5
ATOM      5  C   UNL     1     139.966 141.428 117.160  1.00  0.00     0.006 C 
BRANCH   5   6
ATOM      6  C   UNL     1     139.363 141.021 118.511  1.00  0.00     0.053 C 
BRANCH   6   7
ATOM      7  C   UNL     1     140.422 140.687 119.515  1.00  0.00     0.041 C 
ATOM      8  O   UNL     1     140.116 140.505 120.724  1.00  0.00    -0.550 OA
ATOM      9  O   UNL     1     141.752 140.605 119.123  1.00  0.00    -0.550 OA
ENDBRANCH   6   7
ENDBRANCH   5   6
ENDBRANCH   4   5
ENDBRANCH   3   4
ENDBRANCH   2   3
ENDBRANCH   1   2
BRANCH   1  10
ATOM     10  C   UNL     1     141.972 139.321 113.264  1.00  0.00     0.000 C 
BRANCH  10  11
ATOM     11  C   UNL     1     142.663 140.373 112.381  1.00  0.00    -0.000 C 
BRANCH  11  12
ATOM     12  C   UNL     1     143.641 141.258 113.174  1.00  0.00    -0.000 C 
BRANCH  12  13
ATOM     13  C   UNL     1     143.354 141.229 114.689  1.00  0.00    -0.000 C 
BRANCH  13  14
ATOM     14  C   UNL     1     142.838 142.568 115.244  1.00  0.00    -0.000 C 
BRANCH  14  15
ATOM     15  C   UNL     1     142.130 143.420 114.182  1.00  0.00    -0.003 C 
ATOM     16  C   UNL     1     140.751 143.865 114.664  1.00  0.00     0.004 C 
ENDBRANCH  14  15
ENDBRANCH  13  14
ENDBRANCH  12  13
ENDBRANCH  11  12
ENDBRANCH  10  11
ENDBRANCH   1  10
TORSDOF 12
ENDMDL
MODEL 4
REMARK VINA RESULT:    -4.651      1.462      2.102
REMARK INTER + INTRA:          -9.845
REMARK INTER:                  -8.090
REMARK INTRA:                  -1.755
REMARK UNBOUND:                -1.931
REMARK SMILES CCCCCCCCCCCCCC(=O)[O-]
REMARK SMILES IDX 8 1 9 2 10 3 11 4 12 5 13 6 14 7 15 8 16 9 7 10 6 11 5 12
REMARK SMILES IDX 4 13 3 14 2 15 1 16
REMARK H PARENT
REMARK Flexibility Score: inf
ROOT
ATOM      1  C   UNL     1     135.403 137.341 113.839  1.00  0.00     0.000 C 
ENDROOT
BRANCH   1   2
ATOM      2  C   UNL     1     136.842 137.788 114.145  1.00  0.00     0.000 C 
BRANCH   2   3
ATOM      3  C   UNL     1     137.688 136.665 114.766  1.00  0.00     0.000 C 
BRANCH   3   4
ATOM      4  C   UNL     1     136.853 135.425 115.128  1.00  0.00     0.000 C 
BRANCH   4   5
ATOM      5  C   UNL     1     136.941 135.066 116.621  1.00  0.00     0.006 C 
BRANCH   5   6
ATOM      6  C   UNL     1     135.567 134.735 117.219  1.00  0.00     0.053 C 
BRANCH   6   7
ATOM      7  C   UNL     1     134.938 135.931 117.864  1.00  0.00     0.041 C 
ATOM      8  O   UNL     1     135.021 136.096 119.110  1.00  0.00    -0.550 OA
ATOM      9  O   UNL     1     134.234 136.848 117.094  1.00  0.00    -0.550 OA
ENDBRANCH   6   7
ENDBRANCH   5   6
ENDBRANCH   4   5
ENDBRANCH   3   4
ENDBRANCH   2   3
ENDBRANCH   1   2
BRANCH   1  10
ATOM     10  C   UNL     1     135.077 137.378 112.336  1.00  0.00     0.000 C 
BRANCH  10  11
ATOM     11  C   UNL     1     135.924 136.385 111.525  1.00  0.00    -0.000 C 
BRANCH  11  12
ATOM     12  C   UNL     1     135.539 134.920 111.797  1.00  0.00    -0.000 C 
BRANCH  12  13
ATOM     13  C   UNL     1     134.051 134.772 112.180  1.00  0.00    -0.000 C 
BRANCH  13  14
ATOM     14  C   UNL     1     133.824 133.962 113.468  1.00  0.00    -0.000 C 
BRANCH  14  15
ATOM     15  C   UNL     1     133.030 134.738 114.528  1.00  0.00    -0.003 C 
ATOM     16  C   UNL     1     132.081 135.742 113.878  1.00  0.00     0.004 C 
ENDBRANCH  14  15
ENDBRANCH  13  14
ENDBRANCH  12  13
ENDBRANCH  11  12
ENDBRANCH  10  11
ENDBRANCH   1  10
TORSDOF 12
ENDMDL
MODEL 5
REMARK VINA RESULT:    -4.581      6.353      8.434
REMARK INTER + INTRA:          -9.727
REMARK INTER:                  -8.278
REMARK INTRA:                  -1.449
REMARK UNBOUND:                -1.931
REMARK SMILES CCCCCCCCCCCCCC(=O)[O-]
REMARK SMILES IDX 8 1 9 2 10 3 11 4 12 5 13 6 14 7 15 8 16 9 7 10 6 11 5 12
REMARK SMILES IDX 4 13 3 14 2 15 1 16
REMARK H PARENT
REMARK Flexibility Score: inf
ROOT
ATOM      1  C   UNL     1     142.871 142.598 115.097  1.00  0.00     0.000 C 
ENDROOT
BRANCH   1   2
ATOM      2  C   UNL     1     141.918 143.414 114.207  1.00  0.00     0.000 C 
BRANCH   2   3
ATOM      3  C   UNL     1     140.493 143.484 114.778  1.00  0.00     0.000 C 
BRANCH   3   4
ATOM      4  C   UNL     1     139.987 142.120 115.276  1.00  0.00     0.000 C 
BRANCH   4   5
ATOM      5  C   UNL     1     139.799 142.077 116.802  1.00  0.00     0.006 C 
BRANCH   5   6
ATOM      6  C   UNL     1     139.927 140.655 117.362  1.00  0.00     0.053 C 
BRANCH   6   7
ATOM      7  C   UNL     1     141.330 140.349 117.789  1.00  0.00     0.041 C 
ATOM      8  O   UNL     1     141.752 140.742 118.909  1.00  0.00    -0.550 OA
ATOM      9  O   UNL     1     142.181 139.655 116.938  1.00  0.00    -0.550 OA
ENDBRANCH   6   7
ENDBRANCH   5   6
ENDBRANCH   4   5
ENDBRANCH   3   4
ENDBRANCH   2   3
ENDBRANCH   1   2
BRANCH   1  10
ATOM     10  C   UNL     1     143.625 141.508 114.316  1.00  0.00     0.000 C 
BRANCH  10  11
ATOM     11  C   UNL     1     142.998 141.229 112.940  1.00  0.00    -0.000 C 
BRANCH  11  12
ATOM     12  C   UNL     1     143.344 139.828 112.407  1.00  0.00    -0.000 C 
BRANCH  12  13
ATOM     13  C   UNL     1     142.102 138.917 112.317  1.00  0.00    -0.000 C 
BRANCH  13  14
ATOM     14  C   UNL     1     141.081 139.155 113.443  1.00  0.00    -0.000 C 
BRANCH  14  15
ATOM     15  C   UNL     1     139.666 139.429 112.917  1.00  0.00    -0.003 C 
ATOM     16  C   UNL     1     139.467 138.822 111.531  1.00  0.00     0.004 C 
ENDBRANCH  14  15
ENDBRANCH  13  14
ENDBRANCH  12  13
ENDBRANCH  11  12
ENDBRANCH  10  11
ENDBRANCH   1  10
TORSDOF 12
ENDMDL
MODEL 6
REMARK VINA RESULT:    -4.567      1.326      2.161
REMARK INTER + INTRA:          -9.701
REMARK INTER:                  -7.841
REMARK INTRA:                  -1.860
REMARK UNBOUND:                -1.931
REMARK SMILES CCCCCCCCCCCCCC(=O)[O-]
REMARK SMILES IDX 8 1 9 2 10 3 11 4 12 5 13 6 14 7 15 8 16 9 7 10 6 11 5 12
REMARK SMILES IDX 4 13 3 14 2 15 1 16
REMARK H PARENT
REMARK Flexibility Score: inf
ROOT
ATOM      1  C   UNL     1     135.767 136.209 112.065  1.00  0.00     0.000 C 
ENDROOT
BRANCH   1   2
ATOM      2  C   UNL     1     137.038 137.027 112.352  1.00  0.00     0.000 C 
BRANCH   2   3
ATOM      3  C   UNL     1     137.496 136.910 113.815  1.00  0.00     0.000 C 
BRANCH   3   4
ATOM      4  C   UNL     1     136.339 136.586 114.774  1.00  0.00     0.000 C 
BRANCH   4   5
ATOM      5  C   UNL     1     136.825 136.055 116.133  1.00  0.00     0.006 C 
BRANCH   5   6
ATOM      6  C   UNL     1     135.748 136.173 117.220  1.00  0.00     0.053 C 
BRANCH   6   7
ATOM      7  C   UNL     1     135.912 135.128 118.281  1.00  0.00     0.041 C 
ATOM      8  O   UNL     1     135.651 133.922 118.029  1.00  0.00    -0.550 OA
ATOM      9  O   UNL     1     136.325 135.491 119.557  1.00  0.00    -0.550 OA
ENDBRANCH   6   7
ENDBRANCH   5   6
ENDBRANCH   4   5
ENDBRANCH   3   4
ENDBRANCH   2   3
ENDBRANCH   1   2
BRANCH   1  10
ATOM     10  C   UNL     1     134.553 137.095 111.735  1.00  0.00     0.000 C 
BRANCH  10  11
ATOM     11  C   UNL     1     133.274 136.629 112.449  1.00  0.00    -0.000 C 
BRANCH  11  12
ATOM     12  C   UNL     1     133.312 135.135 112.815  1.00  0.00    -0.000 C 
BRANCH  12  13
ATOM     13  C   UNL     1     132.998 134.894 114.306  1.00  0.00    -0.000 C 
BRANCH  13  14
ATOM     14  C   UNL     1     133.876 133.809 114.953  1.00  0.00    -0.000 C 
BRANCH  14  15
ATOM     15  C   UNL     1     134.990 133.310 114.023  1.00  0.00    -0.003 C 
ATOM     16  C   UNL     1     136.139 132.697 114.819  1.00  0.00     0.004 C 
ENDBRANCH  14  15
ENDBRANCH  13  14
ENDBRANCH  12  13
ENDBRANCH  11  12
ENDBRANCH  10  11
ENDBRANCH   1  10
TORSDOF 12
ENDMDL
MODEL 7
REMARK VINA RESULT:    -4.514      5.817      8.667
REMARK INTER + INTRA:          -9.612
REMARK INTER:                  -7.991
REMARK INTRA:                  -1.622
REMARK UNBOUND:                -1.931
REMARK SMILES CCCCCCCCCCCCCC(=O)[O-]
REMARK SMILES IDX 8 1 9 2 10 3 11 4 12 5 13 6 14 7 15 8 16 9 7 10 6 11 5 12
REMARK SMILES IDX 4 13 3 14 2 15 1 16
REMARK H PARENT
REMARK Flexibility Score: inf
ROOT
ATOM      1  C   UNL     1     139.655 139.924 111.332  1.00  0.00     0.000 C 
ENDROOT
BRANCH   1   2
ATOM      2  C   UNL     1     139.211 138.622 112.020  1.00  0.00     0.000 C 
BRANCH   2   3
ATOM      3  C   UNL     1     138.387 138.879 113.292  1.00  0.00     0.000 C 
BRANCH   3   4
ATOM      4  C   UNL     1     139.258 138.955 114.556  1.00  0.00     0.000 C 
BRANCH   4   5
ATOM      5  C   UNL     1     139.305 140.368 115.160  1.00  0.00     0.006 C 
BRANCH   5   6
ATOM      6  C   UNL     1     140.194 140.436 116.409  1.00  0.00     0.053 C 
BRANCH   6   7
ATOM      7  C   UNL     1     140.047 141.742 117.127  1.00  0.00     0.041 C 
ATOM      8  O   UNL     1     140.097 141.783 118.385  1.00  0.00    -0.550 OA
ATOM      9  O   UNL     1     139.826 142.910 116.408  1.00  0.00    -0.550 OA
ENDBRANCH   6   7
ENDBRANCH   5   6
ENDBRANCH   4   5
ENDBRANCH   3   4
ENDBRANCH   2   3
ENDBRANCH   1   2
BRANCH   1  10
ATOM     10  C   UNL     1     141.141 140.244 111.570  1.00  0.00     0.000 C 
BRANCH  10  11
ATOM     11  C   UNL     1     141.411 141.755 111.659  1.00  0.00    -0.000 C 
BRANCH  11  12
ATOM     12  C   UNL     1     141.214 142.307 113.082  1.00  0.00    -0.000 C 
BRANCH  12  13
ATOM     13  C   UNL     1     142.511 142.920 113.652  1.00  0.00    -0.000 C 
BRANCH  13  14
ATOM     14  C   UNL     1     143.059 142.170 114.878  1.00  0.00    -0.000 C 
BRANCH  14  15
ATOM     15  C   UNL     1     143.377 140.698 114.585  1.00  0.00    -0.003 C 
ATOM     16  C   UNL     1     144.666 140.565 113.778  1.00  0.00     0.004 C 
ENDBRANCH  14  15
ENDBRANCH  13  14
ENDBRANCH  12  13
ENDBRANCH  11  12
ENDBRANCH  10  11
ENDBRANCH   1  10
TORSDOF 12
ENDMDL
MODEL 8
REMARK VINA RESULT:    -4.402      4.705      7.632
REMARK INTER + INTRA:          -9.422
REMARK INTER:                  -7.651
REMARK INTRA:                  -1.770
REMARK UNBOUND:                -1.931
REMARK SMILES CCCCCCCCCCCCCC(=O)[O-]
REMARK SMILES IDX 8 1 9 2 10 3 11 4 12 5 13 6 14 7 15 8 16 9 7 10 6 11 5 12
REMARK SMILES IDX 4 13 3 14 2 15 1 16
REMARK H PARENT
REMARK Flexibility Score: inf
ROOT
ATOM      1  C   UNL     1     140.857 141.565 112.586  1.00  0.00     0.000 C 
ENDROOT
BRANCH   1   2
ATOM      2  C   UNL     1     141.288 140.093 112.477  1.00  0.00     0.000 C 
BRANCH   2   3
ATOM      3  C   UNL     1     140.171 139.119 112.889  1.00  0.00     0.000 C 
BRANCH   3   4
ATOM      4  C   UNL     1     139.101 139.785 113.770  1.00  0.00     0.000 C 
BRANCH   4   5
ATOM      5  C   UNL     1     138.327 138.772 114.629  1.00  0.00     0.006 C 
BRANCH   5   6
ATOM      6  C   UNL     1     137.358 137.925 113.794  1.00  0.00     0.053 C 
BRANCH   6   7
ATOM      7  C   UNL     1     136.602 136.947 114.640  1.00  0.00     0.041 C 
ATOM      8  O   UNL     1     135.351 137.039 114.751  1.00  0.00    -0.550 OA
ATOM      9  O   UNL     1     137.282 135.951 115.330  1.00  0.00    -0.550 OA
ENDBRANCH   6   7
ENDBRANCH   5   6
ENDBRANCH   4   5
ENDBRANCH   3   4
ENDBRANCH   2   3
ENDBRANCH   1   2
BRANCH   1  10
ATOM     10  C   UNL     1     142.015 142.495 112.986  1.00  0.00     0.000 C 
BRANCH  10  11
ATOM     11  C   UNL     1     141.816 143.118 114.377  1.00  0.00    -0.000 C 
BRANCH  11  12
ATOM     12  C   UNL     1     140.338 143.411 114.686  1.00  0.00    -0.000 C 
BRANCH  12  13
ATOM     13  C   UNL     1     139.816 142.575 115.874  1.00  0.00    -0.000 C 
BRANCH  13  14
ATOM     14  C   UNL     1     140.928 142.092 116.822  1.00  0.00    -0.000 C 
BRANCH  14  15
ATOM     15  C   UNL     1     140.908 140.573 117.038  1.00  0.00    -0.003 C 
ATOM     16  C   UNL     1     141.963 139.881 116.179  1.00  0.00     0.004 C 
ENDBRANCH  14  15
ENDBRANCH  13  14
ENDBRANCH  12  13
ENDBRANCH  11  12
ENDBRANCH  10  11
ENDBRANCH   1  10
TORSDOF 12
ENDMDL
MODEL 9
REMARK VINA RESULT:    -4.362      4.441      7.326
REMARK INTER + INTRA:          -9.353
REMARK INTER:                  -7.876
REMARK INTRA:                  -1.477
REMARK UNBOUND:                -1.931
REMARK SMILES CCCCCCCCCCCCCC(=O)[O-]
REMARK SMILES IDX 8 1 9 2 10 3 11 4 12 5 13 6 14 7 15 8 16 9 7 10 6 11 5 12
REMARK SMILES IDX 4 13 3 14 2 15 1 16
REMARK H PARENT
REMARK Flexibility Score: inf
ROOT
ATOM      1  C   UNL     1     140.766 141.152 112.152  1.00  0.00     0.000 C 
ENDROOT
BRANCH   1   2
ATOM      2  C   UNL     1     140.143 139.829 112.628  1.00  0.00     0.000 C 
BRANCH   2   3
ATOM      3  C   UNL     1     139.168 140.024 113.800  1.00  0.00     0.000 C 
BRANCH   3   4
ATOM      4  C   UNL     1     138.949 138.734 114.608  1.00  0.00     0.000 C 
BRANCH   4   5
ATOM      5  C   UNL     1     138.124 137.687 113.841  1.00  0.00     0.006 C 
BRANCH   5   6
ATOM      6  C   UNL     1     136.813 137.342 114.561  1.00  0.00     0.053 C 
BRANCH   6   7
ATOM      7  C   UNL     1     136.824 135.943 115.097  1.00  0.00     0.041 C 
ATOM      8  O   UNL     1     137.120 135.729 116.302  1.00  0.00    -0.550 OA
ATOM      9  O   UNL     1     136.536 134.874 114.258  1.00  0.00    -0.550 OA
ENDBRANCH   6   7
ENDBRANCH   5   6
ENDBRANCH   4   5
ENDBRANCH   3   4
ENDBRANCH   2   3
ENDBRANCH   1   2
BRANCH   1  10
ATOM     10  C   UNL     1     140.967 142.159 113.298  1.00  0.00     0.000 C 
BRANCH  10  11
ATOM     11  C   UNL     1     142.452 142.443 113.578  1.00  0.00    -0.000 C 
BRANCH  11  12
ATOM     12  C   UNL     1     142.879 142.012 114.992  1.00  0.00    -0.000 C 
BRANCH  12  13
ATOM     13  C   UNL     1     142.587 140.520 115.258  1.00  0.00    -0.000 C 
BRANCH  13  14
ATOM     14  C   UNL     1     141.873 140.261 116.595  1.00  0.00    -0.000 C 
BRANCH  14  15
ATOM     15  C   UNL     1     140.835 141.339 116.935  1.00  0.00    -0.003 C 
ATOM     16  C   UNL     1     139.808 140.817 117.937  1.00  0.00     0.004 C 
ENDBRANCH  14  15
ENDBRANCH  13  14
ENDBRANCH  12  13
ENDBRANCH  11  12
ENDBRANCH  10  11
ENDBRANCH   1  10
TORSDOF 12
ENDMDL
