MODEL 1
REMARK VINA RESULT:    -3.484      0.000      0.000
REMARK INTER + INTRA:          -8.647
REMARK INTER:                  -6.335
REMARK INTRA:                  -2.313
REMARK UNBOUND:                -2.313
REMARK SMILES CCCCCCCCCCCCCCCCC
REMARK SMILES IDX 9 1 8 2 7 3 6 4 5 5 4 6 3 7 2 8 1 9 10 10 11 11 12 12 13 13
REMARK SMILES IDX 14 14 15 15 16 16 17 17
REMARK H PARENT
REMARK Flexibility Score: inf
ROOT
ATOM      1  C   UNL     1      42.999  21.013  -3.144  1.00  0.00    -0.000 C 
ENDROOT
BRANCH   1   2
ATOM      2  C   UNL     1      42.802  20.216  -4.445  1.00  0.00    -0.000 C 
BRANCH   2   3
ATOM      3  C   UNL     1      44.118  19.633  -4.990  1.00  0.00    -0.000 C 
BRANCH   3   4
ATOM      4  C   UNL     1      44.115  18.104  -5.192  1.00  0.00    -0.000 C 
BRANCH   4   5
ATOM      5  C   UNL     1      45.486  17.419  -5.027  1.00  0.00    -0.000 C 
BRANCH   5   6
ATOM      6  C   UNL     1      45.638  16.572  -3.751  1.00  0.00    -0.000 C 
BRANCH   6   7
ATOM      7  C   UNL     1      44.450  16.732  -2.787  1.00  0.00    -0.000 C 
BRANCH   7   8
ATOM      8  C   UNL     1      43.654  15.430  -2.614  1.00  0.00    -0.003 C 
ATOM      9  C   UNL     1      44.413  14.203  -3.121  1.00  0.00     0.004 C 
ENDBRANCH   7   8
ENDBRANCH   6   7
ENDBRANCH   5   6
ENDBRANCH   4   5
ENDBRANCH   3   4
ENDBRANCH   2   3
ENDBRANCH   1   2
BRANCH   1  10
ATOM     10  C   UNL     1      43.360  20.116  -1.949  1.00  0.00    -0.000 C 
BRANCH  10  11
ATOM     11  C   UNL     1      42.667  20.561  -0.649  1.00  0.00    -0.000 C 
BRANCH  11  12
ATOM     12  C   UNL     1      41.269  21.152  -0.898  1.00  0.00    -0.000 C 
BRANCH  12  13
ATOM     13  C   UNL     1      40.158  20.355  -0.193  1.00  0.00    -0.000 C 
BRANCH  13  14
ATOM     14  C   UNL     1      39.145  19.743  -1.178  1.00  0.00    -0.000 C 
BRANCH  14  15
ATOM     15  C   UNL     1      39.742  19.250  -2.512  1.00  0.00    -0.000 C 
BRANCH  15  16
ATOM     16  C   UNL     1      40.433  17.877  -2.447  1.00  0.00    -0.003 C 
ATOM     17  C   UNL     1      40.666  17.262  -3.826  1.00  0.00     0.004 C 
ENDBRANCH  15  16
ENDBRANCH  14  15
ENDBRANCH  13  14
ENDBRANCH  12  13
ENDBRANCH  11  12
ENDBRANCH  10  11
ENDBRANCH   1  10
TORSDOF 14
ENDMDL
MODEL 2
REMARK VINA RESULT:    -3.430      0.753      5.527
REMARK INTER + INTRA:          -8.549
REMARK INTER:                  -6.516
REMARK INTRA:                  -2.033
REMARK UNBOUND:                -2.313
REMARK SMILES CCCCCCCCCCCCCCCCC
REMARK SMILES IDX 9 1 8 2 7 3 6 4 5 5 4 6 3 7 2 8 1 9 10 10 11 11 12 12 13 13
REMARK SMILES IDX 14 14 15 15 16 16 17 17
REMARK H PARENT
REMARK Flexibility Score: inf
ROOT
ATOM      1  C   UNL     1      42.879  20.915  -3.215  1.00  0.00    -0.000 C 
ENDROOT
BRANCH   1   2
ATOM      2  C   UNL     1      43.661  20.571  -1.935  1.00  0.00    -0.000 C 
BRANCH   2   3
ATOM      3  C   UNL     1      42.752  20.442  -0.700  1.00  0.00    -0.000 C 
BRANCH   3   4
ATOM      4  C   UNL     1      41.351  21.069  -0.858  1.00  0.00    -0.000 C 
BRANCH   4   5
ATOM      5  C   UNL     1      40.206  20.292  -0.178  1.00  0.00    -0.000 C 
BRANCH   5   6
ATOM      6  C   UNL     1      39.088  19.826  -1.126  1.00  0.00    -0.000 C 
BRANCH   6   7
ATOM      7  C   UNL     1      39.623  19.348  -2.487  1.00  0.00    -0.000 C 
BRANCH   7   8
ATOM      8  C   UNL     1      39.919  17.841  -2.505  1.00  0.00    -0.003 C 
ATOM      9  C   UNL     1      41.417  17.535  -2.563  1.00  0.00     0.004 C 
ENDBRANCH   7   8
ENDBRANCH   6   7
ENDBRANCH   5   6
ENDBRANCH   4   5
ENDBRANCH   3   4
ENDBRANCH   2   3
ENDBRANCH   1   2
BRANCH   1  10
ATOM     10  C   UNL     1      43.734  20.784  -4.485  1.00  0.00    -0.000 C 
BRANCH  10  11
ATOM     11  C   UNL     1      43.523  19.438  -5.201  1.00  0.00    -0.000 C 
BRANCH  11  12
ATOM     12  C   UNL     1      44.756  19.001  -6.009  1.00  0.00    -0.000 C 
BRANCH  12  13
ATOM     13  C   UNL     1      45.543  17.873  -5.320  1.00  0.00    -0.000 C 
BRANCH  13  14
ATOM     14  C   UNL     1      44.635  16.886  -4.564  1.00  0.00    -0.000 C 
BRANCH  14  15
ATOM     15  C   UNL     1      44.955  16.716  -3.065  1.00  0.00    -0.000 C 
BRANCH  15  16
ATOM     16  C   UNL     1      45.075  15.258  -2.588  1.00  0.00    -0.003 C 
ATOM     17  C   UNL     1      43.906  14.384  -3.042  1.00  0.00     0.004 C 
ENDBRANCH  15  16
ENDBRANCH  14  15
ENDBRANCH  13  14
ENDBRANCH  12  13
ENDBRANCH  11  12
ENDBRANCH  10  11
ENDBRANCH   1  10
TORSDOF 14
ENDMDL
MODEL 3
REMARK VINA RESULT:    -3.389      1.031      4.862
REMARK INTER + INTRA:          -8.475
REMARK INTER:                  -6.361
REMARK INTRA:                  -2.114
REMARK UNBOUND:                -2.313
REMARK SMILES CCCCCCCCCCCCCCCCC
REMARK SMILES IDX 9 1 8 2 7 3 6 4 5 5 4 6 3 7 2 8 1 9 10 10 11 11 12 12 13 13
REMARK SMILES IDX 14 14 15 15 16 16 17 17
REMARK H PARENT
REMARK Flexibility Score: inf
ROOT
ATOM      1  C   UNL     1      44.457  18.547  -5.686  1.00  0.00    -0.000 C 
ENDROOT
BRANCH   1   2
ATOM      2  C   UNL     1      43.288  19.347  -5.084  1.00  0.00    -0.000 C 
BRANCH   2   3
ATOM      3  C   UNL     1      43.753  20.625  -4.363  1.00  0.00    -0.000 C 
BRANCH   3   4
ATOM      4  C   UNL     1      42.926  21.003  -3.117  1.00  0.00    -0.000 C 
BRANCH   4   5
ATOM      5  C   UNL     1      43.374  20.330  -1.804  1.00  0.00    -0.000 C 
BRANCH   5   6
ATOM      6  C   UNL     1      42.513  20.669  -0.576  1.00  0.00    -0.000 C 
BRANCH   6   7
ATOM      7  C   UNL     1      41.334  19.699  -0.389  1.00  0.00    -0.000 C 
BRANCH   7   8
ATOM      8  C   UNL     1      40.003  20.291  -0.874  1.00  0.00    -0.003 C 
ATOM      9  C   UNL     1      39.077  20.683   0.278  1.00  0.00     0.004 C 
ENDBRANCH   7   8
ENDBRANCH   6   7
ENDBRANCH   5   6
ENDBRANCH   4   5
ENDBRANCH   3   4
ENDBRANCH   2   3
ENDBRANCH   1   2
BRANCH   1  10
ATOM     10  C   UNL     1      44.482  17.086  -5.210  1.00  0.00    -0.000 C 
BRANCH  10  11
ATOM     11  C   UNL     1      45.512  16.849  -4.091  1.00  0.00    -0.000 C 
BRANCH  11  12
ATOM     12  C   UNL     1      44.851  16.525  -2.741  1.00  0.00    -0.000 C 
BRANCH  12  13
ATOM     13  C   UNL     1      43.415  15.997  -2.900  1.00  0.00    -0.000 C 
BRANCH  13  14
ATOM     14  C   UNL     1      42.411  16.704  -1.972  1.00  0.00    -0.000 C 
BRANCH  14  15
ATOM     15  C   UNL     1      40.937  16.293  -2.165  1.00  0.00    -0.000 C 
BRANCH  15  16
ATOM     16  C   UNL     1      40.346  16.620  -3.547  1.00  0.00    -0.003 C 
ATOM     17  C   UNL     1      40.236  18.122  -3.808  1.00  0.00     0.004 C 
ENDBRANCH  15  16
ENDBRANCH  14  15
ENDBRANCH  13  14
ENDBRANCH  12  13
ENDBRANCH  11  12
ENDBRANCH  10  11
ENDBRANCH   1  10
TORSDOF 14
ENDMDL
MODEL 4
REMARK VINA RESULT:    -3.359      1.209      3.777
REMARK INTER + INTRA:          -8.420
REMARK INTER:                  -5.942
REMARK INTRA:                  -2.479
REMARK UNBOUND:                -2.313
REMARK SMILES CCCCCCCCCCCCCCCCC
REMARK SMILES IDX 9 1 8 2 7 3 6 4 5 5 4 6 3 7 2 8 1 9 10 10 11 11 12 12 13 13
REMARK SMILES IDX 14 14 15 15 16 16 17 17
REMARK H PARENT
REMARK Flexibility Score: inf
ROOT
ATOM      1  C   UNL     1      40.619  17.988  -4.135  1.00  0.00    -0.000 C 
ENDROOT
BRANCH   1   2
ATOM      2  C   UNL     1      41.637  16.840  -4.268  1.00  0.00    -0.000 C 
BRANCH   2   3
ATOM      3  C   UNL     1      41.846  16.077  -2.947  1.00  0.00    -0.000 C 
BRANCH   3   4
ATOM      4  C   UNL     1      42.923  16.672  -2.018  1.00  0.00    -0.000 C 
BRANCH   4   5
ATOM      5  C   UNL     1      44.283  16.953  -2.688  1.00  0.00    -0.000 C 
BRANCH   5   6
ATOM      6  C   UNL     1      45.021  15.705  -3.201  1.00  0.00    -0.000 C 
BRANCH   6   7
ATOM      7  C   UNL     1      45.169  15.689  -4.732  1.00  0.00    -0.000 C 
BRANCH   7   8
ATOM      8  C   UNL     1      45.786  16.986  -5.277  1.00  0.00    -0.003 C 
ATOM      9  C   UNL     1      47.284  17.094  -4.987  1.00  0.00     0.004 C 
ENDBRANCH   7   8
ENDBRANCH   6   7
ENDBRANCH   5   6
ENDBRANCH   4   5
ENDBRANCH   3   4
ENDBRANCH   2   3
ENDBRANCH   1   2
BRANCH   1  10
ATOM     10  C   UNL     1      41.241  19.365  -4.415  1.00  0.00    -0.000 C 
BRANCH  10  11
ATOM     11  C   UNL     1      42.677  19.264  -4.959  1.00  0.00    -0.000 C 
BRANCH  11  12
ATOM     12  C   UNL     1      43.645  20.227  -4.251  1.00  0.00    -0.000 C 
BRANCH  12  13
ATOM     13  C   UNL     1      42.982  20.972  -3.079  1.00  0.00    -0.000 C 
BRANCH  13  14
ATOM     14  C   UNL     1      43.409  20.425  -1.705  1.00  0.00    -0.000 C 
BRANCH  14  15
ATOM     15  C   UNL     1      42.419  20.697  -0.554  1.00  0.00    -0.000 C 
BRANCH  15  16
ATOM     16  C   UNL     1      41.150  19.827  -0.569  1.00  0.00    -0.003 C 
ATOM     17  C   UNL     1      39.883  20.618  -0.247  1.00  0.00     0.004 C 
ENDBRANCH  15  16
ENDBRANCH  14  15
ENDBRANCH  13  14
ENDBRANCH  12  13
ENDBRANCH  11  12
ENDBRANCH  10  11
ENDBRANCH   1  10
TORSDOF 14
ENDMDL
MODEL 5
REMARK VINA RESULT:    -3.355      1.228      4.035
REMARK INTER + INTRA:          -8.414
REMARK INTER:                  -6.622
REMARK INTRA:                  -1.792
REMARK UNBOUND:                -2.313
REMARK SMILES CCCCCCCCCCCCCCCCC
REMARK SMILES IDX 9 1 8 2 7 3 6 4 5 5 4 6 3 7 2 8 1 9 10 10 11 11 12 12 13 13
REMARK SMILES IDX 14 14 15 15 16 16 17 17
REMARK H PARENT
REMARK Flexibility Score: inf
ROOT
ATOM      1  C   UNL     1      45.626  17.562  -6.125  1.00  0.00    -0.000 C 
ENDROOT
BRANCH   1   2
ATOM      2  C   UNL     1      47.020  17.130  -5.636  1.00  0.00    -0.000 C 
BRANCH   2   3
ATOM      3  C   UNL     1      46.980  16.448  -4.257  1.00  0.00    -0.000 C 
BRANCH   3   4
ATOM      4  C   UNL     1      46.031  15.237  -4.159  1.00  0.00    -0.000 C 
BRANCH   4   5
ATOM      5  C   UNL     1      45.265  15.110  -2.827  1.00  0.00    -0.000 C 
BRANCH   5   6
ATOM      6  C   UNL     1      44.535  16.387  -2.377  1.00  0.00    -0.000 C 
BRANCH   6   7
ATOM      7  C   UNL     1      43.005  16.231  -2.383  1.00  0.00    -0.000 C 
BRANCH   7   8
ATOM      8  C   UNL     1      42.399  16.436  -3.780  1.00  0.00    -0.003 C 
ATOM      9  C   UNL     1      41.132  17.292  -3.754  1.00  0.00     0.004 C 
ENDBRANCH   7   8
ENDBRANCH   6   7
ENDBRANCH   5   6
ENDBRANCH   4   5
ENDBRANCH   3   4
ENDBRANCH   2   3
ENDBRANCH   1   2
BRANCH   1  10
ATOM     10  C   UNL     1      44.904  18.478  -5.123  1.00  0.00    -0.000 C 
BRANCH  10  11
ATOM     11  C   UNL     1      44.442  19.799  -5.760  1.00  0.00    -0.000 C 
BRANCH  11  12
ATOM     12  C   UNL     1      43.793  20.750  -4.740  1.00  0.00    -0.000 C 
BRANCH  12  13
ATOM     13  C   UNL     1      43.470  20.053  -3.408  1.00  0.00    -0.000 C 
BRANCH  13  14
ATOM     14  C   UNL     1      42.591  20.912  -2.481  1.00  0.00    -0.000 C 
BRANCH  14  15
ATOM     15  C   UNL     1      42.706  20.585  -0.978  1.00  0.00    -0.000 C 
BRANCH  15  16
ATOM     16  C   UNL     1      41.544  19.756  -0.403  1.00  0.00    -0.003 C 
ATOM     17  C   UNL     1      40.246  20.553  -0.283  1.00  0.00     0.004 C 
ENDBRANCH  15  16
ENDBRANCH  14  15
ENDBRANCH  13  14
ENDBRANCH  12  13
ENDBRANCH  11  12
ENDBRANCH  10  11
ENDBRANCH   1  10
TORSDOF 14
ENDMDL
MODEL 6
REMARK VINA RESULT:    -3.355      1.086      4.584
REMARK INTER + INTRA:          -8.413
REMARK INTER:                  -5.724
REMARK INTRA:                  -2.689
REMARK UNBOUND:                -2.313
REMARK SMILES CCCCCCCCCCCCCCCCC
REMARK SMILES IDX 9 1 8 2 7 3 6 4 5 5 4 6 3 7 2 8 1 9 10 10 11 11 12 12 13 13
REMARK SMILES IDX 14 14 15 15 16 16 17 17
REMARK H PARENT
REMARK Flexibility Score: inf
ROOT
ATOM      1  C   UNL     1      41.583  19.693  -0.483  1.00  0.00    -0.000 C 
ENDROOT
BRANCH   1   2
ATOM      2  C   UNL     1      40.290  20.499  -0.266  1.00  0.00    -0.000 C 
BRANCH   2   3
ATOM      3  C   UNL     1      39.130  20.012  -1.153  1.00  0.00    -0.000 C 
BRANCH   3   4
ATOM      4  C   UNL     1      39.384  18.674  -1.875  1.00  0.00    -0.000 C 
BRANCH   4   5
ATOM      5  C   UNL     1      39.616  18.783  -3.395  1.00  0.00    -0.000 C 
BRANCH   5   6
ATOM      6  C   UNL     1      40.747  17.895  -3.943  1.00  0.00    -0.000 C 
BRANCH   6   7
ATOM      7  C   UNL     1      41.502  17.142  -2.835  1.00  0.00    -0.000 C 
BRANCH   7   8
ATOM      8  C   UNL     1      42.696  16.343  -3.376  1.00  0.00    -0.003 C 
ATOM      9  C   UNL     1      43.968  16.553  -2.553  1.00  0.00     0.004 C 
ENDBRANCH   7   8
ENDBRANCH   6   7
ENDBRANCH   5   6
ENDBRANCH   4   5
ENDBRANCH   3   4
ENDBRANCH   2   3
ENDBRANCH   1   2
BRANCH   1  10
ATOM     10  C   UNL     1      42.789  20.587  -0.813  1.00  0.00    -0.000 C 
BRANCH  10  11
ATOM     11  C   UNL     1      43.250  20.438  -2.274  1.00  0.00    -0.000 C 
BRANCH  11  12
ATOM     12  C   UNL     1      42.338  21.190  -3.258  1.00  0.00    -0.000 C 
BRANCH  12  13
ATOM     13  C   UNL     1      42.662  20.864  -4.726  1.00  0.00    -0.000 C 
BRANCH  13  14
ATOM     14  C   UNL     1      44.055  20.235  -4.905  1.00  0.00    -0.000 C 
BRANCH  14  15
ATOM     15  C   UNL     1      44.068  18.849  -5.581  1.00  0.00    -0.000 C 
BRANCH  15  16
ATOM     16  C   UNL     1      45.419  18.113  -5.529  1.00  0.00    -0.003 C 
ATOM     17  C   UNL     1      45.355  16.708  -6.125  1.00  0.00     0.004 C 
ENDBRANCH  15  16
ENDBRANCH  14  15
ENDBRANCH  13  14
ENDBRANCH  12  13
ENDBRANCH  11  12
ENDBRANCH  10  11
ENDBRANCH   1  10
TORSDOF 14
ENDMDL
MODEL 7
REMARK VINA RESULT:    -3.297      1.160      3.590
REMARK INTER + INTRA:          -8.307
REMARK INTER:                  -6.314
REMARK INTRA:                  -1.993
REMARK UNBOUND:                -2.313
REMARK SMILES CCCCCCCCCCCCCCCCC
REMARK SMILES IDX 9 1 8 2 7 3 6 4 5 5 4 6 3 7 2 8 1 9 10 10 11 11 12 12 13 13
REMARK SMILES IDX 14 14 15 15 16 16 17 17
REMARK H PARENT
REMARK Flexibility Score: inf
ROOT
ATOM      1  C   UNL     1      40.349  17.946  -2.340  1.00  0.00    -0.000 C 
ENDROOT
BRANCH   1   2
ATOM      2  C   UNL     1      40.847  17.622  -3.760  1.00  0.00    -0.000 C 
BRANCH   2   3
ATOM      3  C   UNL     1      42.198  16.884  -3.761  1.00  0.00    -0.000 C 
BRANCH   3   4
ATOM      4  C   UNL     1      42.999  16.995  -2.448  1.00  0.00    -0.000 C 
BRANCH   4   5
ATOM      5  C   UNL     1      44.403  16.359  -2.482  1.00  0.00    -0.000 C 
BRANCH   5   6
ATOM      6  C   UNL     1      44.672  15.449  -3.692  1.00  0.00    -0.000 C 
BRANCH   6   7
ATOM      7  C   UNL     1      45.553  16.122  -4.759  1.00  0.00    -0.000 C 
BRANCH   7   8
ATOM      8  C   UNL     1      47.042  16.110  -4.385  1.00  0.00    -0.003 C 
ATOM      9  C   UNL     1      47.848  17.169  -5.138  1.00  0.00     0.004 C 
ENDBRANCH   7   8
ENDBRANCH   6   7
ENDBRANCH   5   6
ENDBRANCH   4   5
ENDBRANCH   3   4
ENDBRANCH   2   3
ENDBRANCH   1   2
BRANCH   1  10
ATOM     10  C   UNL     1      39.714  19.342  -2.239  1.00  0.00    -0.000 C 
BRANCH  10  11
ATOM     11  C   UNL     1      39.981  20.013  -0.880  1.00  0.00    -0.000 C 
BRANCH  11  12
ATOM     12  C   UNL     1      41.417  19.783  -0.381  1.00  0.00    -0.000 C 
BRANCH  12  13
ATOM     13  C   UNL     1      42.377  20.906  -0.810  1.00  0.00    -0.000 C 
BRANCH  13  14
ATOM     14  C   UNL     1      43.362  20.464  -1.907  1.00  0.00    -0.000 C 
BRANCH  14  15
ATOM     15  C   UNL     1      42.953  20.838  -3.346  1.00  0.00    -0.000 C 
BRANCH  15  16
ATOM     16  C   UNL     1      43.769  20.149  -4.454  1.00  0.00    -0.003 C 
ATOM     17  C   UNL     1      44.158  21.097  -5.586  1.00  0.00     0.004 C 
ENDBRANCH  15  16
ENDBRANCH  14  15
ENDBRANCH  13  14
ENDBRANCH  12  13
ENDBRANCH  11  12
ENDBRANCH  10  11
ENDBRANCH   1  10
TORSDOF 14
ENDMDL
MODEL 8
REMARK VINA RESULT:    -3.278      1.606      3.740
REMARK INTER + INTRA:          -8.273
REMARK INTER:                  -6.312
REMARK INTRA:                  -1.961
REMARK UNBOUND:                -2.313
REMARK SMILES CCCCCCCCCCCCCCCCC
REMARK SMILES IDX 9 1 8 2 7 3 6 4 5 5 4 6 3 7 2 8 1 9 10 10 11 11 12 12 13 13
REMARK SMILES IDX 14 14 15 15 16 16 17 17
REMARK H PARENT
REMARK Flexibility Score: inf
ROOT
ATOM      1  C   UNL     1      42.168  16.598  -2.118  1.00  0.00    -0.000 C 
ENDROOT
BRANCH   1   2
ATOM      2  C   UNL     1      43.308  15.782  -2.754  1.00  0.00    -0.000 C 
BRANCH   2   3
ATOM      3  C   UNL     1      44.675  16.481  -2.638  1.00  0.00    -0.000 C 
BRANCH   3   4
ATOM      4  C   UNL     1      45.321  16.869  -3.983  1.00  0.00    -0.000 C 
BRANCH   4   5
ATOM      5  C   UNL     1      46.795  16.449  -4.147  1.00  0.00    -0.000 C 
BRANCH   5   6
ATOM      6  C   UNL     1      47.024  14.936  -4.306  1.00  0.00    -0.000 C 
BRANCH   6   7
ATOM      7  C   UNL     1      48.001  14.369  -3.262  1.00  0.00    -0.000 C 
BRANCH   7   8
ATOM      8  C   UNL     1      47.279  13.722  -2.071  1.00  0.00    -0.003 C 
ATOM      9  C   UNL     1      46.035  12.938  -2.491  1.00  0.00     0.004 C 
ENDBRANCH   7   8
ENDBRANCH   6   7
ENDBRANCH   5   6
ENDBRANCH   4   5
ENDBRANCH   3   4
ENDBRANCH   2   3
ENDBRANCH   1   2
BRANCH   1  10
ATOM     10  C   UNL     1      41.163  17.119  -3.158  1.00  0.00    -0.000 C 
BRANCH  10  11
ATOM     11  C   UNL     1      41.794  18.130  -4.131  1.00  0.00    -0.000 C 
BRANCH  11  12
ATOM     12  C   UNL     1      41.438  19.585  -3.782  1.00  0.00    -0.000 C 
BRANCH  12  13
ATOM     13  C   UNL     1      42.678  20.428  -3.439  1.00  0.00    -0.000 C 
BRANCH  13  14
ATOM     14  C   UNL     1      43.299  20.053  -2.081  1.00  0.00    -0.000 C 
BRANCH  14  15
ATOM     15  C   UNL     1      42.592  20.652  -0.848  1.00  0.00    -0.000 C 
BRANCH  15  16
ATOM     16  C   UNL     1      41.430  19.811  -0.292  1.00  0.00    -0.003 C 
ATOM     17  C   UNL     1      40.099  20.562  -0.289  1.00  0.00     0.004 C 
ENDBRANCH  15  16
ENDBRANCH  14  15
ENDBRANCH  13  14
ENDBRANCH  12  13
ENDBRANCH  11  12
ENDBRANCH  10  11
ENDBRANCH   1  10
TORSDOF 14
ENDMDL
MODEL 9
REMARK VINA RESULT:    -3.240      1.128      2.282
REMARK INTER + INTRA:          -8.205
REMARK INTER:                  -5.825
REMARK INTRA:                  -2.380
REMARK UNBOUND:                -2.313
REMARK SMILES CCCCCCCCCCCCCCCCC
REMARK SMILES IDX 9 1 8 2 7 3 6 4 5 5 4 6 3 7 2 8 1 9 10 10 11 11 12 12 13 13
REMARK SMILES IDX 14 14 15 15 16 16 17 17
REMARK H PARENT
REMARK Flexibility Score: inf
ROOT
ATOM      1  C   UNL     1      44.428  19.534  -5.298  1.00  0.00    -0.000 C 
ENDROOT
BRANCH   1   2
ATOM      2  C   UNL     1      44.078  18.282  -6.123  1.00  0.00    -0.000 C 
BRANCH   2   3
ATOM      3  C   UNL     1      45.192  17.221  -6.095  1.00  0.00    -0.000 C 
BRANCH   3   4
ATOM      4  C   UNL     1      46.062  17.228  -4.821  1.00  0.00    -0.000 C 
BRANCH   4   5
ATOM      5  C   UNL     1      46.155  15.877  -4.085  1.00  0.00    -0.000 C 
BRANCH   5   6
ATOM      6  C   UNL     1      45.130  15.683  -2.954  1.00  0.00    -0.000 C 
BRANCH   6   7
ATOM      7  C   UNL     1      44.401  16.986  -2.583  1.00  0.00    -0.000 C 
BRANCH   7   8
ATOM      8  C   UNL     1      42.895  16.921  -2.877  1.00  0.00    -0.003 C 
ATOM      9  C   UNL     1      42.066  16.584  -1.638  1.00  0.00     0.004 C 
ENDBRANCH   7   8
ENDBRANCH   6   7
ENDBRANCH   5   6
ENDBRANCH   4   5
ENDBRANCH   3   4
ENDBRANCH   2   3
ENDBRANCH   1   2
BRANCH   1  10
ATOM     10  C   UNL     1      43.217  20.102  -4.541  1.00  0.00    -0.000 C 
BRANCH  10  11
ATOM     11  C   UNL     1      43.585  20.604  -3.134  1.00  0.00    -0.000 C 
BRANCH  11  12
ATOM     12  C   UNL     1      42.349  20.977  -2.299  1.00  0.00    -0.000 C 
BRANCH  12  13
ATOM     13  C   UNL     1      42.428  20.441  -0.859  1.00  0.00    -0.000 C 
BRANCH  13  14
ATOM     14  C   UNL     1      41.072  19.938  -0.333  1.00  0.00    -0.000 C 
BRANCH  14  15
ATOM     15  C   UNL     1      39.871  20.191  -1.267  1.00  0.00    -0.000 C 
BRANCH  15  16
ATOM     16  C   UNL     1      39.344  18.945  -2.001  1.00  0.00    -0.003 C 
ATOM     17  C   UNL     1      39.423  19.072  -3.522  1.00  0.00     0.004 C 
ENDBRANCH  15  16
ENDBRANCH  14  15
ENDBRANCH  13  14
ENDBRANCH  12  13
ENDBRANCH  11  12
ENDBRANCH  10  11
ENDBRANCH   1  10
TORSDOF 14
ENDMDL
