MODEL 1
REMARK VINA RESULT:    -6.347      0.000      0.000
REMARK INTER + INTRA:          -7.070
REMARK INTER:                  -6.718
REMARK INTRA:                  -0.353
REMARK UNBOUND:                -0.353
REMARK SMILES CC1=CC[C@H]2[C@H]3[C@@H]1[C@]2(C)CC[C@H]3C(C)C
REMARK SMILES IDX 1 1 2 2 3 3 4 4 5 5 6 6 7 7 8 8 10 9 11 10 12 11 9 12 13 13
REMARK SMILES IDX 14 14 15 15
REMARK H PARENT
REMARK Flexibility Score: inf
ROOT
ATOM      1  C   UNL     1       0.474  12.598  -1.133  1.00  0.00     0.039 C 
ATOM      2  C   UNL     1       0.467  13.447   0.103  1.00  0.00    -0.073 C 
ATOM      3  C   UNL     1      -0.679  13.981   0.604  1.00  0.00    -0.027 C 
ATOM      4  C   UNL     1      -0.607  14.813   1.888  1.00  0.00     0.031 C 
ATOM      5  C   UNL     1       0.855  14.840   2.439  1.00  0.00     0.003 C 
ATOM      6  C   UNL     1       1.398  13.387   2.391  1.00  0.00     0.004 C 
ATOM      7  C   UNL     1       1.747  13.668   0.912  1.00  0.00     0.024 C 
ATOM      8  C   UNL     1       1.880  15.154   1.319  1.00  0.00    -0.022 C 
ATOM      9  C   UNL     1       3.297  15.391   1.924  1.00  0.00     0.008 C 
ATOM     10  C   UNL     1       3.554  14.535   3.194  1.00  0.00     0.005 C 
ATOM     11  C   UNL     1       2.713  13.221   3.211  1.00  0.00    -0.005 C 
ATOM     12  C   UNL     1       1.538  16.237   0.270  1.00  0.00     0.012 C 
ENDROOT
BRANCH  11  13
ATOM     13  C   UNL     1       2.454  12.642   4.634  1.00  0.00    -0.014 C 
ATOM     14  C   UNL     1       3.037  13.549   5.728  1.00  0.00     0.007 C 
ATOM     15  C   UNL     1       0.976  12.331   4.930  1.00  0.00     0.007 C 
ENDBRANCH  11  13
TORSDOF 1
ENDMDL
MODEL 2
REMARK VINA RESULT:    -6.271      1.751      4.036
REMARK INTER + INTRA:          -6.991
REMARK INTER:                  -6.579
REMARK INTRA:                  -0.411
REMARK UNBOUND:                -0.353
REMARK SMILES CC1=CC[C@H]2[C@H]3[C@@H]1[C@]2(C)CC[C@H]3C(C)C
REMARK SMILES IDX 1 1 2 2 3 3 4 4 5 5 6 6 7 7 8 8 10 9 11 10 12 11 9 12 13 13
REMARK SMILES IDX 14 14 15 15
REMARK H PARENT
REMARK Flexibility Score: inf
ROOT
ATOM      1  C   UNL     1       4.920  15.256   3.487  1.00  0.00     0.039 C 
ATOM      2  C   UNL     1       3.933  14.127   3.497  1.00  0.00    -0.073 C 
ATOM      3  C   UNL     1       4.327  12.826   3.475  1.00  0.00    -0.027 C 
ATOM      4  C   UNL     1       3.257  11.731   3.516  1.00  0.00     0.031 C 
ATOM      5  C   UNL     1       1.833  12.362   3.642  1.00  0.00     0.003 C 
ATOM      6  C   UNL     1       1.905  13.458   4.739  1.00  0.00     0.004 C 
ATOM      7  C   UNL     1       2.433  14.398   3.631  1.00  0.00     0.024 C 
ATOM      8  C   UNL     1       1.635  13.525   2.635  1.00  0.00    -0.022 C 
ATOM      9  C   UNL     1       0.148  13.994   2.624  1.00  0.00     0.008 C 
ATOM     10  C   UNL     1      -0.530  13.854   4.015  1.00  0.00     0.005 C 
ATOM     11  C   UNL     1       0.491  13.934   5.191  1.00  0.00    -0.005 C 
ATOM     12  C   UNL     1       2.176  13.370   1.195  1.00  0.00     0.012 C 
ENDROOT
BRANCH  11  13
ATOM     13  C   UNL     1       0.021  13.232   6.500  1.00  0.00    -0.014 C 
ATOM     14  C   UNL     1      -0.879  12.023   6.201  1.00  0.00     0.007 C 
ATOM     15  C   UNL     1       1.167  12.824   7.444  1.00  0.00     0.007 C 
ENDBRANCH  11  13
TORSDOF 1
ENDMDL
MODEL 3
REMARK VINA RESULT:    -6.068      0.964      4.534
REMARK INTER + INTRA:          -6.776
REMARK INTER:                  -6.552
REMARK INTRA:                  -0.224
REMARK UNBOUND:                -0.353
REMARK SMILES CC1=CC[C@H]2[C@H]3[C@@H]1[C@]2(C)CC[C@H]3C(C)C
REMARK SMILES IDX 1 1 2 2 3 3 4 4 5 5 6 6 7 7 8 8 10 9 11 10 12 11 9 12 13 13
REMARK SMILES IDX 14 14 15 15
REMARK H PARENT
REMARK Flexibility Score: inf
ROOT
ATOM      1  C   UNL     1       1.763  13.387   6.214  1.00  0.00     0.039 C 
ATOM      2  C   UNL     1       2.222  13.177   4.802  1.00  0.00    -0.073 C 
ATOM      3  C   UNL     1       2.856  12.039   4.412  1.00  0.00    -0.027 C 
ATOM      4  C   UNL     1       3.267  11.890   2.944  1.00  0.00     0.031 C 
ATOM      5  C   UNL     1       2.798  13.129   2.116  1.00  0.00     0.003 C 
ATOM      6  C   UNL     1       1.326  13.424   2.513  1.00  0.00     0.004 C 
ATOM      7  C   UNL     1       1.907  14.206   3.713  1.00  0.00     0.024 C 
ATOM      8  C   UNL     1       3.152  14.459   2.832  1.00  0.00    -0.022 C 
ATOM      9  C   UNL     1       2.875  15.675   1.896  1.00  0.00     0.008 C 
ATOM     10  C   UNL     1       1.671  15.432   0.945  1.00  0.00     0.005 C 
ATOM     11  C   UNL     1       0.639  14.420   1.530  1.00  0.00    -0.005 C 
ATOM     12  C   UNL     1       4.528  14.596   3.524  1.00  0.00     0.012 C 
ENDROOT
BRANCH  11  13
ATOM     13  C   UNL     1      -0.226  13.691   0.458  1.00  0.00    -0.014 C 
ATOM     14  C   UNL     1      -1.243  14.643  -0.190  1.00  0.00     0.007 C 
ATOM     15  C   UNL     1       0.591  12.965  -0.625  1.00  0.00     0.007 C 
ENDBRANCH  11  13
TORSDOF 1
ENDMDL
MODEL 4
REMARK VINA RESULT:    -5.775      1.021      1.464
REMARK INTER + INTRA:          -6.465
REMARK INTER:                  -6.246
REMARK INTRA:                  -0.219
REMARK UNBOUND:                -0.353
REMARK SMILES CC1=CC[C@H]2[C@H]3[C@@H]1[C@]2(C)CC[C@H]3C(C)C
REMARK SMILES IDX 1 1 2 2 3 3 4 4 5 5 6 6 7 7 8 8 10 9 11 10 12 11 9 12 13 13
REMARK SMILES IDX 14 14 15 15
REMARK H PARENT
REMARK Flexibility Score: inf
ROOT
ATOM      1  C   UNL     1      -0.349  12.382  -1.447  1.00  0.00     0.039 C 
ATOM      2  C   UNL     1      -0.343  13.279  -0.244  1.00  0.00    -0.073 C 
ATOM      3  C   UNL     1      -1.468  13.521   0.479  1.00  0.00    -0.027 C 
ATOM      4  C   UNL     1      -1.372  14.425   1.712  1.00  0.00     0.031 C 
ATOM      5  C   UNL     1       0.106  14.876   1.945  1.00  0.00     0.003 C 
ATOM      6  C   UNL     1       1.005  13.619   1.799  1.00  0.00     0.004 C 
ATOM      7  C   UNL     1       0.963  13.884   0.277  1.00  0.00     0.024 C 
ATOM      8  C   UNL     1       0.763  15.376   0.632  1.00  0.00    -0.022 C 
ATOM      9  C   UNL     1       2.152  16.020   0.926  1.00  0.00     0.008 C 
ATOM     10  C   UNL     1       2.879  15.348   2.122  1.00  0.00     0.005 C 
ATOM     11  C   UNL     1       2.451  13.863   2.327  1.00  0.00    -0.005 C 
ATOM     12  C   UNL     1      -0.064  16.258  -0.332  1.00  0.00     0.012 C 
ENDROOT
BRANCH  11  13
ATOM     13  C   UNL     1       2.647  13.331   3.779  1.00  0.00    -0.014 C 
ATOM     14  C   UNL     1       1.341  12.760   4.353  1.00  0.00     0.007 C 
ATOM     15  C   UNL     1       3.788  12.308   3.927  1.00  0.00     0.007 C 
ENDBRANCH  11  13
TORSDOF 1
ENDMDL
MODEL 5
REMARK VINA RESULT:    -5.712      1.233      2.806
REMARK INTER + INTRA:          -6.399
REMARK INTER:                  -6.095
REMARK INTRA:                  -0.304
REMARK UNBOUND:                -0.353
REMARK SMILES CC1=CC[C@H]2[C@H]3[C@@H]1[C@]2(C)CC[C@H]3C(C)C
REMARK SMILES IDX 1 1 2 2 3 3 4 4 5 5 6 6 7 7 8 8 10 9 11 10 12 11 9 12 13 13
REMARK SMILES IDX 14 14 15 15
REMARK H PARENT
REMARK Flexibility Score: inf
ROOT
ATOM      1  C   UNL     1       2.874  16.758  -0.390  1.00  0.00     0.039 C 
ATOM      2  C   UNL     1       2.094  15.513  -0.088  1.00  0.00    -0.073 C 
ATOM      3  C   UNL     1       2.108  14.436  -0.917  1.00  0.00    -0.027 C 
ATOM      4  C   UNL     1       1.307  13.191  -0.522  1.00  0.00     0.031 C 
ATOM      5  C   UNL     1       0.633  13.395   0.874  1.00  0.00     0.003 C 
ATOM      6  C   UNL     1       1.703  13.997   1.824  1.00  0.00     0.004 C 
ATOM      7  C   UNL     1       1.322  15.371   1.226  1.00  0.00     0.024 C 
ATOM      8  C   UNL     1      -0.079  14.769   0.967  1.00  0.00    -0.022 C 
ATOM      9  C   UNL     1      -0.923  14.861   2.275  1.00  0.00     0.008 C 
ATOM     10  C   UNL     1      -0.286  14.072   3.451  1.00  0.00     0.005 C 
ATOM     11  C   UNL     1       1.263  13.943   3.318  1.00  0.00    -0.005 C 
ATOM     12  C   UNL     1      -0.886  15.280  -0.249  1.00  0.00     0.012 C 
ENDROOT
BRANCH  11  13
ATOM     13  C   UNL     1       1.874  12.723   4.070  1.00  0.00    -0.014 C 
ATOM     14  C   UNL     1       3.195  12.268   3.430  1.00  0.00     0.007 C 
ATOM     15  C   UNL     1       2.061  12.942   5.582  1.00  0.00     0.007 C 
ENDBRANCH  11  13
TORSDOF 1
ENDMDL
MODEL 6
REMARK VINA RESULT:    -5.194      1.981      5.008
REMARK INTER + INTRA:          -5.850
REMARK INTER:                  -5.634
REMARK INTRA:                  -0.216
REMARK UNBOUND:                -0.353
REMARK SMILES CC1=CC[C@H]2[C@H]3[C@@H]1[C@]2(C)CC[C@H]3C(C)C
REMARK SMILES IDX 1 1 2 2 3 3 4 4 5 5 6 6 7 7 8 8 10 9 11 10 12 11 9 12 13 13
REMARK SMILES IDX 14 14 15 15
REMARK H PARENT
REMARK Flexibility Score: inf
ROOT
ATOM      1  C   UNL     1      -2.035  14.991   6.749  1.00  0.00     0.039 C 
ATOM      2  C   UNL     1      -1.193  13.944   6.085  1.00  0.00    -0.073 C 
ATOM      3  C   UNL     1      -1.484  12.619   6.178  1.00  0.00    -0.027 C 
ATOM      4  C   UNL     1      -0.591  11.613   5.445  1.00  0.00     0.031 C 
ATOM      5  C   UNL     1       0.519  12.357   4.635  1.00  0.00     0.003 C 
ATOM      6  C   UNL     1      -0.163  13.528   3.877  1.00  0.00     0.004 C 
ATOM      7  C   UNL     1      -0.016  14.335   5.187  1.00  0.00     0.024 C 
ATOM      8  C   UNL     1       1.213  13.448   5.491  1.00  0.00    -0.022 C 
ATOM      9  C   UNL     1       2.454  14.024   4.742  1.00  0.00     0.008 C 
ATOM     10  C   UNL     1       2.262  14.045   3.200  1.00  0.00     0.005 C 
ATOM     11  C   UNL     1       0.762  14.142   2.784  1.00  0.00    -0.005 C 
ATOM     12  C   UNL     1       1.552  13.141   6.968  1.00  0.00     0.012 C 
ENDROOT
BRANCH  11  13
ATOM     13  C   UNL     1       0.452  13.581   1.363  1.00  0.00    -0.014 C 
ATOM     14  C   UNL     1      -0.573  14.455   0.623  1.00  0.00     0.007 C 
ATOM     15  C   UNL     1       1.697  13.359   0.486  1.00  0.00     0.007 C 
ENDBRANCH  11  13
TORSDOF 1
ENDMDL
MODEL 7
REMARK VINA RESULT:    -4.913      1.362      2.039
REMARK INTER + INTRA:          -5.553
REMARK INTER:                  -5.376
REMARK INTRA:                  -0.177
REMARK UNBOUND:                -0.353
REMARK SMILES CC1=CC[C@H]2[C@H]3[C@@H]1[C@]2(C)CC[C@H]3C(C)C
REMARK SMILES IDX 1 1 2 2 3 3 4 4 5 5 6 6 7 7 8 8 10 9 11 10 12 11 9 12 13 13
REMARK SMILES IDX 14 14 15 15
REMARK H PARENT
REMARK Flexibility Score: inf
ROOT
ATOM      1  C   UNL     1      -1.899  12.476  -1.169  1.00  0.00     0.039 C 
ATOM      2  C   UNL     1      -1.522  13.429  -0.075  1.00  0.00    -0.073 C 
ATOM      3  C   UNL     1      -2.407  13.811   0.884  1.00  0.00    -0.027 C 
ATOM      4  C   UNL     1      -1.935  14.766   1.985  1.00  0.00     0.031 C 
ATOM      5  C   UNL     1      -0.416  15.091   1.813  1.00  0.00     0.003 C 
ATOM      6  C   UNL     1       0.319  13.750   1.542  1.00  0.00     0.004 C 
ATOM      7  C   UNL     1      -0.085  13.938   0.062  1.00  0.00     0.024 C 
ATOM      8  C   UNL     1      -0.075  15.458   0.346  1.00  0.00    -0.022 C 
ATOM      9  C   UNL     1       1.388  15.987   0.239  1.00  0.00     0.008 C 
ATOM     10  C   UNL     1       2.340  15.314   1.266  1.00  0.00     0.005 C 
ATOM     11  C   UNL     1       1.865  13.887   1.679  1.00  0.00    -0.005 C 
ATOM     12  C   UNL     1      -1.048  16.361  -0.447  1.00  0.00     0.012 C 
ENDROOT
BRANCH  11  13
ATOM     13  C   UNL     1       2.380  13.415   3.072  1.00  0.00    -0.014 C 
ATOM     14  C   UNL     1       3.722  14.072   3.429  1.00  0.00     0.007 C 
ATOM     15  C   UNL     1       1.370  13.609   4.217  1.00  0.00     0.007 C 
ENDBRANCH  11  13
TORSDOF 1
ENDMDL
MODEL 8
REMARK VINA RESULT:    -4.867      1.328      4.621
REMARK INTER + INTRA:          -5.504
REMARK INTER:                  -5.086
REMARK INTRA:                  -0.418
REMARK UNBOUND:                -0.353
REMARK SMILES CC1=CC[C@H]2[C@H]3[C@@H]1[C@]2(C)CC[C@H]3C(C)C
REMARK SMILES IDX 1 1 2 2 3 3 4 4 5 5 6 6 7 7 8 8 10 9 11 10 12 11 9 12 13 13
REMARK SMILES IDX 14 14 15 15
REMARK H PARENT
REMARK Flexibility Score: inf
ROOT
ATOM      1  C   UNL     1       3.627  11.222   3.499  1.00  0.00     0.039 C 
ATOM      2  C   UNL     1       3.141  12.615   3.230  1.00  0.00    -0.073 C 
ATOM      3  C   UNL     1       3.950  13.699   3.364  1.00  0.00    -0.027 C 
ATOM      4  C   UNL     1       3.385  15.086   3.041  1.00  0.00     0.031 C 
ATOM      5  C   UNL     1       1.911  14.971   2.534  1.00  0.00     0.003 C 
ATOM      6  C   UNL     1       1.866  13.822   1.492  1.00  0.00     0.004 C 
ATOM      7  C   UNL     1       1.728  12.863   2.696  1.00  0.00     0.024 C 
ATOM      8  C   UNL     1       1.067  14.043   3.445  1.00  0.00    -0.022 C 
ATOM      9  C   UNL     1      -0.441  14.115   3.053  1.00  0.00     0.008 C 
ATOM     10  C   UNL     1      -0.650  14.352   1.532  1.00  0.00     0.005 C 
ATOM     11  C   UNL     1       0.539  13.820   0.673  1.00  0.00    -0.005 C 
ATOM     12  C   UNL     1       1.244  14.133   4.979  1.00  0.00     0.012 C 
ENDROOT
BRANCH  11  13
ATOM     13  C   UNL     1       0.696  14.519  -0.710  1.00  0.00    -0.014 C 
ATOM     14  C   UNL     1       0.164  15.960  -0.679  1.00  0.00     0.007 C 
ATOM     15  C   UNL     1       2.129  14.491  -1.272  1.00  0.00     0.007 C 
ENDBRANCH  11  13
TORSDOF 1
ENDMDL
MODEL 9
REMARK VINA RESULT:    -4.826      1.180      4.409
REMARK INTER + INTRA:          -5.461
REMARK INTER:                  -5.178
REMARK INTRA:                  -0.284
REMARK UNBOUND:                -0.353
REMARK SMILES CC1=CC[C@H]2[C@H]3[C@@H]1[C@]2(C)CC[C@H]3C(C)C
REMARK SMILES IDX 1 1 2 2 3 3 4 4 5 5 6 6 7 7 8 8 10 9 11 10 12 11 9 12 13 13
REMARK SMILES IDX 14 14 15 15
REMARK H PARENT
REMARK Flexibility Score: inf
ROOT
ATOM      1  C   UNL     1       0.972  13.726   5.266  1.00  0.00     0.039 C 
ATOM      2  C   UNL     1       1.440  13.598   3.847  1.00  0.00    -0.073 C 
ATOM      3  C   UNL     1       2.108  12.500   3.405  1.00  0.00    -0.027 C 
ATOM      4  C   UNL     1       2.526  12.434   1.932  1.00  0.00     0.031 C 
ATOM      5  C   UNL     1       2.020  13.697   1.163  1.00  0.00     0.003 C 
ATOM      6  C   UNL     1       0.540  13.928   1.569  1.00  0.00     0.004 C 
ATOM      7  C   UNL     1       1.094  14.668   2.808  1.00  0.00     0.024 C 
ATOM      8  C   UNL     1       2.332  15.001   1.943  1.00  0.00    -0.022 C 
ATOM      9  C   UNL     1       2.019  16.252   1.066  1.00  0.00     0.008 C 
ATOM     10  C   UNL     1       0.825  16.019   0.101  1.00  0.00     0.005 C 
ATOM     11  C   UNL     1      -0.176  14.948   0.634  1.00  0.00    -0.005 C 
ATOM     12  C   UNL     1       3.702  15.146   2.645  1.00  0.00     0.012 C 
ENDROOT
BRANCH  11  13
ATOM     13  C   UNL     1      -1.017  14.245  -0.475  1.00  0.00    -0.014 C 
ATOM     14  C   UNL     1      -0.121  13.668  -1.582  1.00  0.00     0.007 C 
ATOM     15  C   UNL     1      -1.978  13.165   0.052  1.00  0.00     0.007 C 
ENDBRANCH  11  13
TORSDOF 1
ENDMDL
