MODEL 1
REMARK VINA RESULT:    -5.472      0.000      0.000
REMARK INTER + INTRA:          -5.587
REMARK INTER:                  -5.791
REMARK INTRA:                   0.204
REMARK UNBOUND:                 0.204
REMARK SMILES CC(C)[C@@H]1CC[C@H](C)[C@H]2C=C[C@@H](C)C[C@@H]21
REMARK SMILES IDX 8 1 7 2 6 3 5 4 4 5 15 6 9 7 10 8 11 9 12 10 14 11 13 12
REMARK SMILES IDX 2 13 1 14 3 15
REMARK H PARENT
REMARK Flexibility Score: inf
ROOT
ATOM      1  C   UNL     1      27.211  23.747  13.373  1.00  0.00     0.008 C 
ATOM      2  C   UNL     1      28.692  24.166  13.298  1.00  0.00    -0.007 C 
ATOM      3  C   UNL     1      29.569  22.900  13.352  1.00  0.00     0.004 C 
ATOM      4  C   UNL     1      31.064  23.236  13.272  1.00  0.00     0.004 C 
ATOM      5  C   UNL     1      31.430  24.017  11.982  1.00  0.00    -0.005 C 
ATOM      6  C   UNL     1      30.537  25.306  11.956  1.00  0.00    -0.000 C 
ATOM      7  C   UNL     1      29.015  24.991  12.020  1.00  0.00     0.018 C 
ATOM      8  C   UNL     1      28.198  26.273  11.953  1.00  0.00    -0.027 C 
ATOM      9  C   UNL     1      28.657  27.413  11.408  1.00  0.00    -0.028 C 
ATOM     10  C   UNL     1      30.086  27.604  10.957  1.00  0.00     0.008 C 
ATOM     11  C   UNL     1      30.828  26.262  10.789  1.00  0.00     0.012 C 
ATOM     12  C   UNL     1      30.816  28.552  11.917  1.00  0.00     0.012 C 
ENDROOT
BRANCH   5  13
ATOM     13  C   UNL     1      31.423  23.155  10.654  1.00  0.00    -0.014 C 
ATOM     14  C   UNL     1      32.122  23.894   9.490  1.00  0.00     0.007 C 
ATOM     15  C   UNL     1      32.125  21.785  10.783  1.00  0.00     0.007 C 
ENDBRANCH   5  13
TORSDOF 1
ENDMDL
MODEL 2
REMARK VINA RESULT:    -5.223      1.108      1.571
REMARK INTER + INTRA:          -5.325
REMARK INTER:                  -5.671
REMARK INTRA:                   0.346
REMARK UNBOUND:                 0.204
REMARK SMILES CC(C)[C@@H]1CC[C@H](C)[C@H]2C=C[C@@H](C)C[C@@H]21
REMARK SMILES IDX 8 1 7 2 6 3 5 4 4 5 15 6 9 7 10 8 11 9 12 10 14 11 13 12
REMARK SMILES IDX 2 13 1 14 3 15
REMARK H PARENT
REMARK Flexibility Score: inf
ROOT
ATOM      1  C   UNL     1      27.250  24.004  12.004  1.00  0.00     0.008 C 
ATOM      2  C   UNL     1      28.587  24.310  12.708  1.00  0.00    -0.007 C 
ATOM      3  C   UNL     1      29.104  23.019  13.370  1.00  0.00     0.004 C 
ATOM      4  C   UNL     1      30.443  23.241  14.086  1.00  0.00     0.004 C 
ATOM      5  C   UNL     1      31.548  23.765  13.131  1.00  0.00    -0.005 C 
ATOM      6  C   UNL     1      31.005  25.085  12.481  1.00  0.00    -0.000 C 
ATOM      7  C   UNL     1      29.656  24.883  11.734  1.00  0.00     0.018 C 
ATOM      8  C   UNL     1      29.197  26.184  11.092  1.00  0.00    -0.027 C 
ATOM      9  C   UNL     1      30.036  27.183  10.768  1.00  0.00    -0.028 C 
ATOM     10  C   UNL     1      31.496  27.203  11.155  1.00  0.00     0.008 C 
ATOM     11  C   UNL     1      32.008  25.807  11.568  1.00  0.00     0.012 C 
ATOM     12  C   UNL     1      31.733  28.253  12.248  1.00  0.00     0.012 C 
ENDROOT
BRANCH   5  13
ATOM     13  C   UNL     1      32.123  22.691  12.120  1.00  0.00    -0.014 C 
ATOM     14  C   UNL     1      32.070  21.264  12.711  1.00  0.00     0.007 C 
ATOM     15  C   UNL     1      31.378  22.630  10.768  1.00  0.00     0.007 C 
ENDBRANCH   5  13
TORSDOF 1
ENDMDL
MODEL 3
REMARK VINA RESULT:    -5.099      1.402      5.373
REMARK INTER + INTRA:          -5.193
REMARK INTER:                  -5.151
REMARK INTRA:                  -0.042
REMARK UNBOUND:                 0.204
REMARK SMILES CC(C)[C@@H]1CC[C@H](C)[C@H]2C=C[C@@H](C)C[C@@H]21
REMARK SMILES IDX 8 1 7 2 6 3 5 4 4 5 15 6 9 7 10 8 11 9 12 10 14 11 13 12
REMARK SMILES IDX 2 13 1 14 3 15
REMARK H PARENT
REMARK Flexibility Score: inf
ROOT
ATOM      1  C   UNL     1      32.124  23.749   9.251  1.00  0.00     0.008 C 
ATOM      2  C   UNL     1      31.777  23.970  10.736  1.00  0.00    -0.007 C 
ATOM      3  C   UNL     1      30.935  25.255  10.861  1.00  0.00     0.004 C 
ATOM      4  C   UNL     1      30.539  25.540  12.316  1.00  0.00     0.004 C 
ATOM      5  C   UNL     1      29.733  24.375  12.951  1.00  0.00    -0.005 C 
ATOM      6  C   UNL     1      30.614  23.084  12.825  1.00  0.00    -0.000 C 
ATOM      7  C   UNL     1      31.015  22.765  11.357  1.00  0.00     0.018 C 
ATOM      8  C   UNL     1      31.834  21.484  11.290  1.00  0.00    -0.027 C 
ATOM      9  C   UNL     1      31.777  20.522  12.227  1.00  0.00    -0.028 C 
ATOM     10  C   UNL     1      31.030  20.673  13.531  1.00  0.00     0.008 C 
ATOM     11  C   UNL     1      30.015  21.835  13.490  1.00  0.00     0.012 C 
ATOM     12  C   UNL     1      32.024  20.815  14.691  1.00  0.00     0.012 C 
ENDROOT
BRANCH   5  13
ATOM     13  C   UNL     1      28.241  24.238  12.439  1.00  0.00    -0.014 C 
ATOM     14  C   UNL     1      27.297  23.740  13.558  1.00  0.00     0.007 C 
ATOM     15  C   UNL     1      27.629  25.552  11.906  1.00  0.00     0.007 C 
ENDBRANCH   5  13
TORSDOF 1
ENDMDL
MODEL 4
REMARK VINA RESULT:    -4.702      1.380      4.414
REMARK INTER + INTRA:          -4.773
REMARK INTER:                  -5.190
REMARK INTRA:                   0.417
REMARK UNBOUND:                 0.204
REMARK SMILES CC(C)[C@@H]1CC[C@H](C)[C@H]2C=C[C@@H](C)C[C@@H]21
REMARK SMILES IDX 8 1 7 2 6 3 5 4 4 5 15 6 9 7 10 8 11 9 12 10 14 11 13 12
REMARK SMILES IDX 2 13 1 14 3 15
REMARK H PARENT
REMARK Flexibility Score: inf
ROOT
ATOM      1  C   UNL     1      27.524  23.749  13.891  1.00  0.00     0.008 C 
ATOM      2  C   UNL     1      28.440  23.662  12.655  1.00  0.00    -0.007 C 
ATOM      3  C   UNL     1      28.512  25.051  11.993  1.00  0.00     0.004 C 
ATOM      4  C   UNL     1      29.418  25.048  10.754  1.00  0.00     0.004 C 
ATOM      5  C   UNL     1      30.867  24.597  11.079  1.00  0.00    -0.005 C 
ATOM      6  C   UNL     1      30.770  23.178  11.738  1.00  0.00    -0.000 C 
ATOM      7  C   UNL     1      29.869  23.157  13.005  1.00  0.00     0.018 C 
ATOM      8  C   UNL     1      29.842  21.767  13.624  1.00  0.00    -0.027 C 
ATOM      9  C   UNL     1      30.816  20.859  13.440  1.00  0.00    -0.028 C 
ATOM     10  C   UNL     1      31.958  21.047  12.469  1.00  0.00     0.008 C 
ATOM     11  C   UNL     1      32.125  22.522  12.045  1.00  0.00     0.012 C 
ATOM     12  C   UNL     1      31.779  20.116  11.264  1.00  0.00     0.012 C 
ENDROOT
BRANCH   5  13
ATOM     13  C   UNL     1      31.736  25.659  11.869  1.00  0.00    -0.014 C 
ATOM     14  C   UNL     1      31.233  27.101  11.628  1.00  0.00     0.007 C 
ATOM     15  C   UNL     1      31.752  25.453  13.400  1.00  0.00     0.007 C 
ENDBRANCH   5  13
TORSDOF 1
ENDMDL
MODEL 5
REMARK VINA RESULT:    -4.679      1.139      3.742
REMARK INTER + INTRA:          -4.749
REMARK INTER:                  -5.361
REMARK INTRA:                   0.612
REMARK UNBOUND:                 0.204
REMARK SMILES CC(C)[C@@H]1CC[C@H](C)[C@H]2C=C[C@@H](C)C[C@@H]21
REMARK SMILES IDX 8 1 7 2 6 3 5 4 4 5 15 6 9 7 10 8 11 9 12 10 14 11 13 12
REMARK SMILES IDX 2 13 1 14 3 15
REMARK H PARENT
REMARK Flexibility Score: inf
ROOT
ATOM      1  C   UNL     1      31.193  27.216  10.346  1.00  0.00     0.008 C 
ATOM      2  C   UNL     1      30.827  25.719  10.383  1.00  0.00    -0.007 C 
ATOM      3  C   UNL     1      32.124  24.891  10.313  1.00  0.00     0.004 C 
ATOM      4  C   UNL     1      31.843  23.383  10.355  1.00  0.00     0.004 C 
ATOM      5  C   UNL     1      31.072  22.958  11.633  1.00  0.00    -0.005 C 
ATOM      6  C   UNL     1      29.752  23.802  11.676  1.00  0.00    -0.000 C 
ATOM      7  C   UNL     1      30.011  25.335  11.651  1.00  0.00     0.018 C 
ATOM      8  C   UNL     1      28.700  26.104  11.733  1.00  0.00    -0.027 C 
ATOM      9  C   UNL     1      27.576  25.591  12.262  1.00  0.00    -0.028 C 
ATOM     10  C   UNL     1      27.436  24.145  12.678  1.00  0.00     0.008 C 
ATOM     11  C   UNL     1      28.804  23.448  12.832  1.00  0.00     0.012 C 
ATOM     12  C   UNL     1      26.518  23.405  11.697  1.00  0.00     0.012 C 
ENDROOT
BRANCH   5  13
ATOM     13  C   UNL     1      31.930  22.963  12.964  1.00  0.00    -0.014 C 
ATOM     14  C   UNL     1      31.730  24.269  13.767  1.00  0.00     0.007 C 
ATOM     15  C   UNL     1      31.607  21.803  13.931  1.00  0.00     0.007 C 
ENDBRANCH   5  13
TORSDOF 1
ENDMDL
MODEL 6
REMARK VINA RESULT:    -4.424      1.447      3.325
REMARK INTER + INTRA:          -4.479
REMARK INTER:                  -4.760
REMARK INTRA:                   0.281
REMARK UNBOUND:                 0.204
REMARK SMILES CC(C)[C@@H]1CC[C@H](C)[C@H]2C=C[C@@H](C)C[C@@H]21
REMARK SMILES IDX 8 1 7 2 6 3 5 4 4 5 15 6 9 7 10 8 11 9 12 10 14 11 13 12
REMARK SMILES IDX 2 13 1 14 3 15
REMARK H PARENT
REMARK Flexibility Score: inf
ROOT
ATOM      1  C   UNL     1      32.125  23.954  14.181  1.00  0.00     0.008 C 
ATOM      2  C   UNL     1      31.446  24.194  12.819  1.00  0.00    -0.007 C 
ATOM      3  C   UNL     1      30.475  23.031  12.538  1.00  0.00     0.004 C 
ATOM      4  C   UNL     1      29.749  23.203  11.196  1.00  0.00     0.004 C 
ATOM      5  C   UNL     1      28.944  24.527  11.123  1.00  0.00    -0.005 C 
ATOM      6  C   UNL     1      29.952  25.696  11.399  1.00  0.00    -0.000 C 
ATOM      7  C   UNL     1      30.690  25.552  12.760  1.00  0.00     0.018 C 
ATOM      8  C   UNL     1      31.625  26.730  12.992  1.00  0.00    -0.027 C 
ATOM      9  C   UNL     1      31.462  27.928  12.405  1.00  0.00    -0.028 C 
ATOM     10  C   UNL     1      30.440  28.194  11.324  1.00  0.00     0.008 C 
ATOM     11  C   UNL     1      29.350  27.104  11.273  1.00  0.00     0.012 C 
ATOM     12  C   UNL     1      31.143  28.373   9.972  1.00  0.00     0.012 C 
ENDROOT
BRANCH   5  13
ATOM     13  C   UNL     1      27.617  24.552  11.989  1.00  0.00    -0.014 C 
ATOM     14  C   UNL     1      26.508  23.680  11.357  1.00  0.00     0.007 C 
ATOM     15  C   UNL     1      27.796  24.047  13.438  1.00  0.00     0.007 C 
ENDBRANCH   5  13
TORSDOF 1
ENDMDL
MODEL 7
REMARK VINA RESULT:    -3.947      1.405      4.299
REMARK INTER + INTRA:          -3.974
REMARK INTER:                  -4.659
REMARK INTRA:                   0.685
REMARK UNBOUND:                 0.204
REMARK SMILES CC(C)[C@@H]1CC[C@H](C)[C@H]2C=C[C@@H](C)C[C@@H]21
REMARK SMILES IDX 8 1 7 2 6 3 5 4 4 5 15 6 9 7 10 8 11 9 12 10 14 11 13 12
REMARK SMILES IDX 2 13 1 14 3 15
REMARK H PARENT
REMARK Flexibility Score: inf
ROOT
ATOM      1  C   UNL     1      27.353  25.048  12.029  1.00  0.00     0.008 C 
ATOM      2  C   UNL     1      28.778  24.819  11.487  1.00  0.00    -0.007 C 
ATOM      3  C   UNL     1      29.294  26.138  10.881  1.00  0.00     0.004 C 
ATOM      4  C   UNL     1      30.718  25.993  10.326  1.00  0.00     0.004 C 
ATOM      5  C   UNL     1      31.732  25.533  11.406  1.00  0.00    -0.005 C 
ATOM      6  C   UNL     1      31.194  24.185  11.998  1.00  0.00    -0.000 C 
ATOM      7  C   UNL     1      29.758  24.309  12.582  1.00  0.00     0.018 C 
ATOM      8  C   UNL     1      29.302  22.984  13.176  1.00  0.00    -0.027 C 
ATOM      9  C   UNL     1      30.154  22.035  13.602  1.00  0.00    -0.028 C 
ATOM     10  C   UNL     1      31.648  22.099  13.387  1.00  0.00     0.008 C 
ATOM     11  C   UNL     1      32.124  23.522  13.026  1.00  0.00     0.012 C 
ATOM     12  C   UNL     1      32.070  21.064  12.335  1.00  0.00     0.012 C 
ENDROOT
BRANCH   5  13
ATOM     13  C   UNL     1      32.124  26.639  12.470  1.00  0.00    -0.014 C 
ATOM     14  C   UNL     1      31.612  28.037  12.055  1.00  0.00     0.007 C 
ATOM     15  C   UNL     1      31.572  26.377  13.889  1.00  0.00     0.007 C 
ENDBRANCH   5  13
TORSDOF 1
ENDMDL
MODEL 8
REMARK VINA RESULT:    -3.445      1.441      5.271
REMARK INTER + INTRA:          -3.442
REMARK INTER:                  -3.663
REMARK INTRA:                   0.221
REMARK UNBOUND:                 0.204
REMARK SMILES CC(C)[C@@H]1CC[C@H](C)[C@H]2C=C[C@@H](C)C[C@@H]21
REMARK SMILES IDX 8 1 7 2 6 3 5 4 4 5 15 6 9 7 10 8 11 9 12 10 14 11 13 12
REMARK SMILES IDX 2 13 1 14 3 15
REMARK H PARENT
REMARK Flexibility Score: inf
ROOT
ATOM      1  C   UNL     1      32.116  28.105   8.905  1.00  0.00     0.008 C 
ATOM      2  C   UNL     1      31.625  27.850  10.343  1.00  0.00    -0.007 C 
ATOM      3  C   UNL     1      30.564  28.909  10.699  1.00  0.00     0.004 C 
ATOM      4  C   UNL     1      30.016  28.715  12.120  1.00  0.00     0.004 C 
ATOM      5  C   UNL     1      29.382  27.314  12.325  1.00  0.00    -0.005 C 
ATOM      6  C   UNL     1      30.482  26.254  11.971  1.00  0.00    -0.000 C 
ATOM      7  C   UNL     1      31.042  26.419  10.530  1.00  0.00     0.018 C 
ATOM      8  C   UNL     1      32.076  25.344  10.228  1.00  0.00    -0.027 C 
ATOM      9  C   UNL     1      32.118  24.162  10.866  1.00  0.00    -0.028 C 
ATOM     10  C   UNL     1      31.260  23.831  12.065  1.00  0.00     0.008 C 
ATOM     11  C   UNL     1      30.064  24.795  12.209  1.00  0.00     0.012 C 
ATOM     12  C   UNL     1      32.125  23.791  13.332  1.00  0.00     0.012 C 
ENDROOT
BRANCH   5  13
ATOM     13  C   UNL     1      27.979  27.105  11.620  1.00  0.00    -0.014 C 
ATOM     14  C   UNL     1      27.274  25.823  12.121  1.00  0.00     0.007 C 
ATOM     15  C   UNL     1      26.982  28.264  11.836  1.00  0.00     0.007 C 
ENDBRANCH   5  13
TORSDOF 1
ENDMDL
MODEL 9
REMARK VINA RESULT:    -2.534      1.023      4.259
REMARK INTER + INTRA:          -2.479
REMARK INTER:                  -2.409
REMARK INTRA:                  -0.070
REMARK UNBOUND:                 0.204
REMARK SMILES CC(C)[C@@H]1CC[C@H](C)[C@H]2C=C[C@@H](C)C[C@@H]21
REMARK SMILES IDX 8 1 7 2 6 3 5 4 4 5 15 6 9 7 10 8 11 9 12 10 14 11 13 12
REMARK SMILES IDX 2 13 1 14 3 15
REMARK H PARENT
REMARK Flexibility Score: inf
ROOT
ATOM      1  C   UNL     1      26.874  24.130  13.243  1.00  0.00     0.008 C 
ATOM      2  C   UNL     1      27.918  24.549  12.190  1.00  0.00    -0.007 C 
ATOM      3  C   UNL     1      27.738  26.048  11.884  1.00  0.00     0.004 C 
ATOM      4  C   UNL     1      28.753  26.546  10.846  1.00  0.00     0.004 C 
ATOM      5  C   UNL     1      30.221  26.322  11.296  1.00  0.00    -0.005 C 
ATOM      6  C   UNL     1      30.384  24.790  11.588  1.00  0.00    -0.000 C 
ATOM      7  C   UNL     1      29.376  24.264  12.649  1.00  0.00     0.018 C 
ATOM      8  C   UNL     1      29.604  22.784  12.920  1.00  0.00    -0.027 C 
ATOM      9  C   UNL     1      30.777  22.166  12.699  1.00  0.00    -0.028 C 
ATOM     10  C   UNL     1      31.946  22.822  12.001  1.00  0.00     0.008 C 
ATOM     11  C   UNL     1      31.811  24.358  11.958  1.00  0.00     0.012 C 
ATOM     12  C   UNL     1      32.125  22.218  10.602  1.00  0.00     0.012 C 
ENDROOT
BRANCH   5  13
ATOM     13  C   UNL     1      30.725  27.293  12.441  1.00  0.00    -0.014 C 
ATOM     14  C   UNL     1      32.124  27.871  12.124  1.00  0.00     0.007 C 
ATOM     15  C   UNL     1      29.802  28.504  12.697  1.00  0.00     0.007 C 
ENDBRANCH   5  13
TORSDOF 1
ENDMDL
