MODEL 1
REMARK VINA RESULT:    -6.157      0.000      0.000
REMARK INTER + INTRA:          -9.633
REMARK INTER:                  -8.497
REMARK INTRA:                  -1.136
REMARK UNBOUND:                -1.136
REMARK SMILES O=C([O-])[C@@H]1O[C@@H](Oc2cc3oc(-c4ccccc4)cc(=O)c3c(O)c2O)[C@H](O)[C@@H](O)[C@H]1O
REMARK SMILES IDX 7 1 6 2 4 3 31 4 5 5 29 6 27 7 2 8 1 9 3 10 32 11 30 13
REMARK SMILES IDX 28 15 8 17 25 18 9 19 23 20 10 21 22 22 11 23 20 24 12 25
REMARK SMILES IDX 19 26 21 27 26 28 24 30 13 32 14 33 18 34 15 35 17 36 16 37
REMARK H PARENT 32 12 30 14 28 16 26 29 24 31
REMARK Flexibility Score: inf
ROOT
ATOM      1  O   UNL     1      -3.877 -20.462 -17.404  1.00  0.00    -0.458 OA
ENDROOT
BRANCH   1   2
ATOM      2  C   UNL     1      -5.222 -20.019 -17.625  1.00  0.00     0.339 C 
ATOM      3  C   UNL     1      -6.736 -18.178 -17.230  1.00  0.00     0.199 C 
ATOM      4  C   UNL     1      -7.755 -19.143 -17.909  1.00  0.00     0.180 C 
ATOM      5  O   UNL     1      -5.359 -18.614 -17.428  1.00  0.00    -0.328 OA
ATOM      6  C   UNL     1      -7.667 -20.597 -17.278  1.00  0.00     0.181 C 
ATOM      7  C   UNL     1      -6.235 -20.840 -16.741  1.00  0.00     0.214 C 
BRANCH   3   8
ATOM      8  C   UNL     1      -6.843 -16.728 -17.625  1.00  0.00     0.073 C 
ATOM      9  O   UNL     1      -5.923 -16.178 -18.285  1.00  0.00    -0.547 OA
ATOM     10  O   UNL     1      -7.975 -16.003 -17.269  1.00  0.00    -0.547 OA
ENDBRANCH   3   8
BRANCH   4  11
ATOM     11  O   UNL     1      -9.036 -18.572 -17.977  1.00  0.00    -0.387 OA
ATOM     12  H   UNL     1      -9.367 -18.326 -17.067  1.00  0.00     0.211 HD
ENDBRANCH   4  11
BRANCH   6  13
ATOM     13  O   UNL     1      -8.618 -20.719 -16.215  1.00  0.00    -0.387 OA
ATOM     14  H   UNL     1      -9.540 -20.782 -16.606  1.00  0.00     0.211 HD
ENDBRANCH   6  13
BRANCH   7  15
ATOM     15  O   UNL     1      -5.971 -22.215 -16.660  1.00  0.00    -0.384 OA
ATOM     16  H   UNL     1      -5.001 -22.358 -16.498  1.00  0.00     0.211 HD
ENDBRANCH   7  15
ENDBRANCH   1   2
BRANCH   1  17
ATOM     17  C   UNL     1      -3.111 -20.240 -16.239  1.00  0.00     0.172 A 
ATOM     18  C   UNL     1      -2.533 -18.973 -16.013  1.00  0.00     0.201 A 
ATOM     19  C   UNL     1      -2.980 -21.211 -15.232  1.00  0.00     0.098 A 
ATOM     20  C   UNL     1      -1.735 -18.726 -14.874  1.00  0.00     0.176 A 
ATOM     21  C   UNL     1      -2.215 -20.989 -14.099  1.00  0.00     0.146 A 
ATOM     22  C   UNL     1      -1.534 -19.760 -13.913  1.00  0.00     0.111 A 
ATOM     23  O   UNL     1      -2.189 -21.929 -13.164  1.00  0.00    -0.456 OA
ATOM     24  C   UNL     1      -0.735 -19.647 -12.742  1.00  0.00     0.197 A 
ATOM     25  C   UNL     1      -1.555 -21.797 -12.003  1.00  0.00     0.138 A 
ATOM     26  C   UNL     1      -0.785 -20.653 -11.768  1.00  0.00     0.100 A 
ATOM     27  O   UNL     1       0.117 -18.740 -12.620  1.00  0.00    -0.289 OA
BRANCH  18  28
ATOM     28  O   UNL     1      -2.752 -17.966 -16.954  1.00  0.00    -0.502 OA
ATOM     29  H   UNL     1      -2.683 -16.971 -16.688  1.00  0.00     0.293 HD
ENDBRANCH  18  28
BRANCH  20  30
ATOM     30  O   UNL     1      -1.250 -17.421 -14.692  1.00  0.00    -0.504 OA
ATOM     31  H   UNL     1      -1.059 -16.758 -15.440  1.00  0.00     0.293 HD
ENDBRANCH  20  30
BRANCH  25  32
ATOM     32  C   UNL     1      -1.672 -22.896 -11.004  1.00  0.00     0.017 A 
ATOM     33  C   UNL     1      -2.820 -23.713 -10.936  1.00  0.00     0.012 A 
ATOM     34  C   UNL     1      -0.561 -23.199 -10.193  1.00  0.00     0.012 A 
ATOM     35  C   UNL     1      -2.855 -24.810 -10.065  1.00  0.00     0.001 A 
ATOM     36  C   UNL     1      -0.591 -24.314  -9.349  1.00  0.00     0.001 A 
ATOM     37  C   UNL     1      -1.740 -25.116  -9.279  1.00  0.00     0.000 A 
ENDBRANCH  25  32
ENDBRANCH   1  17
TORSDOF 9
ENDMDL
MODEL 2
REMARK VINA RESULT:    -6.047      1.394      2.196
REMARK INTER + INTRA:          -9.481
REMARK INTER:                  -8.372
REMARK INTRA:                  -1.108
REMARK UNBOUND:                -1.136
REMARK SMILES O=C([O-])[C@@H]1O[C@@H](Oc2cc3oc(-c4ccccc4)cc(=O)c3c(O)c2O)[C@H](O)[C@@H](O)[C@H]1O
REMARK SMILES IDX 7 1 6 2 4 3 31 4 5 5 29 6 27 7 2 8 1 9 3 10 32 11 30 13
REMARK SMILES IDX 28 15 8 17 25 18 9 19 23 20 10 21 22 22 11 23 20 24 12 25
REMARK SMILES IDX 19 26 21 27 26 28 24 30 13 32 14 33 18 34 15 35 17 36 16 37
REMARK H PARENT 32 12 30 14 28 16 26 29 24 31
REMARK Flexibility Score: inf
ROOT
ATOM      1  O   UNL     1      -2.662 -20.001 -17.397  1.00  0.00    -0.458 OA
ENDROOT
BRANCH   1   2
ATOM      2  C   UNL     1      -3.999 -20.484 -17.580  1.00  0.00     0.339 C 
ATOM      3  C   UNL     1      -6.256 -20.269 -16.746  1.00  0.00     0.199 C 
ATOM      4  C   UNL     1      -6.525 -21.402 -17.783  1.00  0.00     0.180 C 
ATOM      5  O   UNL     1      -4.960 -19.636 -16.954  1.00  0.00    -0.328 OA
ATOM      6  C   UNL     1      -5.451 -22.562 -17.647  1.00  0.00     0.181 C 
ATOM      7  C   UNL     1      -4.127 -21.978 -17.095  1.00  0.00     0.214 C 
BRANCH   3   8
ATOM      8  C   UNL     1      -7.308 -19.194 -16.663  1.00  0.00     0.073 C 
ATOM      9  O   UNL     1      -7.142 -18.093 -17.251  1.00  0.00    -0.547 OA
ATOM     10  O   UNL     1      -8.475 -19.431 -15.943  1.00  0.00    -0.547 OA
ENDBRANCH   3   8
BRANCH   4  11
ATOM     11  O   UNL     1      -7.872 -21.798 -17.774  1.00  0.00    -0.387 OA
ATOM     12  H   UNL     1      -8.474 -21.021 -17.959  1.00  0.00     0.211 HD
ENDBRANCH   4  11
BRANCH   6  13
ATOM     13  O   UNL     1      -5.946 -23.576 -16.764  1.00  0.00    -0.387 OA
ATOM     14  H   UNL     1      -5.177 -24.132 -16.441  1.00  0.00     0.211 HD
ENDBRANCH   6  13
BRANCH   7  15
ATOM     15  O   UNL     1      -3.048 -22.805 -17.437  1.00  0.00    -0.384 OA
ATOM     16  H   UNL     1      -3.240 -23.262 -18.299  1.00  0.00     0.211 HD
ENDBRANCH   7  15
ENDBRANCH   1   2
BRANCH   1  17
ATOM     17  C   UNL     1      -2.074 -19.628 -16.170  1.00  0.00     0.172 A 
ATOM     18  C   UNL     1      -1.868 -18.263 -15.880  1.00  0.00     0.201 A 
ATOM     19  C   UNL     1      -1.772 -20.565 -15.167  1.00  0.00     0.098 A 
ATOM     20  C   UNL     1      -1.254 -17.855 -14.675  1.00  0.00     0.176 A 
ATOM     21  C   UNL     1      -1.182 -20.190 -13.971  1.00  0.00     0.146 A 
ATOM     22  C   UNL     1      -0.864 -18.833 -13.713  1.00  0.00     0.111 A 
ATOM     23  O   UNL     1      -0.982 -21.122 -13.050  1.00  0.00    -0.456 OA
ATOM     24  C   UNL     1      -0.216 -18.556 -12.478  1.00  0.00     0.197 A 
ATOM     25  C   UNL     1      -0.497 -20.870 -11.837  1.00  0.00     0.138 A 
ATOM     26  C   UNL     1      -0.075 -19.573 -11.524  1.00  0.00     0.100 A 
ATOM     27  O   UNL     1       0.356 -17.463 -12.274  1.00  0.00    -0.289 OA
BRANCH  18  28
ATOM     28  O   UNL     1      -2.270 -17.316 -16.823  1.00  0.00    -0.502 OA
ATOM     29  H   UNL     1      -1.659 -16.520 -17.066  1.00  0.00     0.293 HD
ENDBRANCH  18  28
BRANCH  20  30
ATOM     30  O   UNL     1      -1.144 -16.476 -14.436  1.00  0.00    -0.504 OA
ATOM     31  H   UNL     1      -0.286 -15.992 -14.181  1.00  0.00     0.293 HD
ENDBRANCH  20  30
BRANCH  25  32
ATOM     32  C   UNL     1      -0.399 -21.994 -10.866  1.00  0.00     0.017 A 
ATOM     33  C   UNL     1       0.585 -22.014  -9.856  1.00  0.00     0.012 A 
ATOM     34  C   UNL     1      -1.388 -22.997 -10.884  1.00  0.00     0.012 A 
ATOM     35  C   UNL     1       0.583 -23.026  -8.886  1.00  0.00     0.001 A 
ATOM     36  C   UNL     1      -1.404 -23.985  -9.895  1.00  0.00     0.001 A 
ATOM     37  C   UNL     1      -0.415 -24.005  -8.900  1.00  0.00     0.000 A 
ENDBRANCH  25  32
ENDBRANCH   1  17
TORSDOF 9
ENDMDL
MODEL 3
REMARK VINA RESULT:    -6.036      1.159      2.765
REMARK INTER + INTRA:          -9.465
REMARK INTER:                  -8.138
REMARK INTRA:                  -1.327
REMARK UNBOUND:                -1.136
REMARK SMILES O=C([O-])[C@@H]1O[C@@H](Oc2cc3oc(-c4ccccc4)cc(=O)c3c(O)c2O)[C@H](O)[C@@H](O)[C@H]1O
REMARK SMILES IDX 7 1 6 2 4 3 31 4 5 5 29 6 27 7 2 8 1 9 3 10 32 11 30 13
REMARK SMILES IDX 28 15 8 17 25 18 9 19 23 20 10 21 22 22 11 23 20 24 12 25
REMARK SMILES IDX 19 26 21 27 26 28 24 30 13 32 14 33 18 34 15 35 17 36 16 37
REMARK H PARENT 32 12 30 14 28 16 26 29 24 31
REMARK Flexibility Score: inf
ROOT
ATOM      1  O   UNL     1      -3.021 -19.733 -16.620  1.00  0.00    -0.458 OA
ENDROOT
BRANCH   1   2
ATOM      2  C   UNL     1      -4.363 -19.271 -16.827  1.00  0.00     0.339 C 
ATOM      3  C   UNL     1      -6.444 -19.823 -17.923  1.00  0.00     0.199 C 
ATOM      4  C   UNL     1      -6.871 -18.437 -17.352  1.00  0.00     0.180 C 
ATOM      5  O   UNL     1      -5.213 -20.308 -17.312  1.00  0.00    -0.328 OA
ATOM      6  C   UNL     1      -5.772 -17.333 -17.657  1.00  0.00     0.181 C 
ATOM      7  C   UNL     1      -4.381 -18.006 -17.767  1.00  0.00     0.214 C 
BRANCH   3   8
ATOM      8  C   UNL     1      -7.482 -20.912 -17.845  1.00  0.00     0.073 C 
ATOM      9  O   UNL     1      -7.400 -21.924 -18.590  1.00  0.00    -0.547 OA
ATOM     10  O   UNL     1      -8.525 -20.800 -16.932  1.00  0.00    -0.547 OA
ENDBRANCH   3   8
BRANCH   4  11
ATOM     11  O   UNL     1      -8.190 -18.117 -17.712  1.00  0.00    -0.387 OA
ATOM     12  H   UNL     1      -8.329 -17.127 -17.716  1.00  0.00     0.211 HD
ENDBRANCH   4  11
BRANCH   6  13
ATOM     13  O   UNL     1      -6.090 -16.663 -18.882  1.00  0.00    -0.387 OA
ATOM     14  H   UNL     1      -5.735 -15.726 -18.844  1.00  0.00     0.211 HD
ENDBRANCH   6  13
BRANCH   7  15
ATOM     15  O   UNL     1      -3.366 -17.072 -17.521  1.00  0.00    -0.384 OA
ATOM     16  H   UNL     1      -3.136 -17.077 -16.554  1.00  0.00     0.211 HD
ENDBRANCH   7  15
ENDBRANCH   1   2
BRANCH   1  17
ATOM     17  C   UNL     1      -2.403 -19.956 -15.371  1.00  0.00     0.172 A 
ATOM     18  C   UNL     1      -1.592 -18.950 -14.804  1.00  0.00     0.201 A 
ATOM     19  C   UNL     1      -2.644 -21.113 -14.611  1.00  0.00     0.098 A 
ATOM     20  C   UNL     1      -0.933 -19.151 -13.571  1.00  0.00     0.176 A 
ATOM     21  C   UNL     1      -2.021 -21.327 -13.393  1.00  0.00     0.146 A 
ATOM     22  C   UNL     1      -1.114 -20.376 -12.863  1.00  0.00     0.111 A 
ATOM     23  O   UNL     1      -2.345 -22.414 -12.705  1.00  0.00    -0.456 OA
ATOM     24  C   UNL     1      -0.489 -20.711 -11.630  1.00  0.00     0.197 A 
ATOM     25  C   UNL     1      -1.873 -22.687 -11.492  1.00  0.00     0.138 A 
ATOM     26  C   UNL     1      -0.906 -21.848 -10.927  1.00  0.00     0.100 A 
ATOM     27  O   UNL     1       0.519 -20.094 -11.223  1.00  0.00    -0.289 OA
BRANCH  18  28
ATOM     28  O   UNL     1      -1.438 -17.750 -15.499  1.00  0.00    -0.502 OA
ATOM     29  H   UNL     1      -1.655 -16.847 -15.049  1.00  0.00     0.293 HD
ENDBRANCH  18  28
BRANCH  20  30
ATOM     30  O   UNL     1      -0.197 -18.077 -13.046  1.00  0.00    -0.504 OA
ATOM     31  H   UNL     1      -0.523 -17.443 -12.320  1.00  0.00     0.293 HD
ENDBRANCH  20  30
BRANCH  25  32
ATOM     32  C   UNL     1      -2.380 -23.900 -10.792  1.00  0.00     0.017 A 
ATOM     33  C   UNL     1      -1.516 -24.758 -10.079  1.00  0.00     0.012 A 
ATOM     34  C   UNL     1      -3.770 -24.126 -10.742  1.00  0.00     0.012 A 
ATOM     35  C   UNL     1      -2.035 -25.827  -9.337  1.00  0.00     0.001 A 
ATOM     36  C   UNL     1      -4.283 -25.174  -9.973  1.00  0.00     0.001 A 
ATOM     37  C   UNL     1      -3.417 -26.029  -9.276  1.00  0.00     0.000 A 
ENDBRANCH  25  32
ENDBRANCH   1  17
TORSDOF 9
ENDMDL
MODEL 4
REMARK VINA RESULT:    -5.984      1.277      2.872
REMARK INTER + INTRA:          -9.393
REMARK INTER:                  -8.141
REMARK INTRA:                  -1.253
REMARK UNBOUND:                -1.136
REMARK SMILES O=C([O-])[C@@H]1O[C@@H](Oc2cc3oc(-c4ccccc4)cc(=O)c3c(O)c2O)[C@H](O)[C@@H](O)[C@H]1O
REMARK SMILES IDX 7 1 6 2 4 3 31 4 5 5 29 6 27 7 2 8 1 9 3 10 32 11 30 13
REMARK SMILES IDX 28 15 8 17 25 18 9 19 23 20 10 21 22 22 11 23 20 24 12 25
REMARK SMILES IDX 19 26 21 27 26 28 24 30 13 32 14 33 18 34 15 35 17 36 16 37
REMARK H PARENT 32 12 30 14 28 16 26 29 24 31
REMARK Flexibility Score: inf
ROOT
ATOM      1  O   UNL     1      -3.054 -19.770 -16.751  1.00  0.00    -0.458 OA
ENDROOT
BRANCH   1   2
ATOM      2  C   UNL     1      -4.436 -20.146 -16.800  1.00  0.00     0.339 C 
ATOM      3  C   UNL     1      -5.993 -21.627 -17.905  1.00  0.00     0.199 C 
ATOM      4  C   UNL     1      -7.027 -20.852 -17.032  1.00  0.00     0.180 C 
ATOM      5  O   UNL     1      -4.623 -21.395 -17.462  1.00  0.00    -0.328 OA
ATOM      6  C   UNL     1      -6.797 -19.285 -17.137  1.00  0.00     0.181 C 
ATOM      7  C   UNL     1      -5.306 -19.001 -17.444  1.00  0.00     0.214 C 
BRANCH   3   8
ATOM      8  C   UNL     1      -6.216 -23.112 -18.021  1.00  0.00     0.073 C 
ATOM      9  O   UNL     1      -5.697 -23.902 -17.189  1.00  0.00    -0.547 OA
ATOM     10  O   UNL     1      -7.013 -23.607 -19.048  1.00  0.00    -0.547 OA
ENDBRANCH   3   8
BRANCH   4  11
ATOM     11  O   UNL     1      -8.335 -21.306 -17.262  1.00  0.00    -0.387 OA
ATOM     12  H   UNL     1      -8.647 -21.892 -16.514  1.00  0.00     0.211 HD
ENDBRANCH   4  11
BRANCH   6  13
ATOM     13  O   UNL     1      -7.624 -18.747 -18.175  1.00  0.00    -0.387 OA
ATOM     14  H   UNL     1      -8.432 -19.331 -18.286  1.00  0.00     0.211 HD
ENDBRANCH   6  13
BRANCH   7  15
ATOM     15  O   UNL     1      -4.965 -17.702 -17.044  1.00  0.00    -0.384 OA
ATOM     16  H   UNL     1      -4.092 -17.719 -16.568  1.00  0.00     0.211 HD
ENDBRANCH   7  15
ENDBRANCH   1   2
BRANCH   1  17
ATOM     17  C   UNL     1      -2.276 -19.613 -15.584  1.00  0.00     0.172 A 
ATOM     18  C   UNL     1      -1.704 -18.358 -15.288  1.00  0.00     0.201 A 
ATOM     19  C   UNL     1      -2.128 -20.642 -14.638  1.00  0.00     0.098 A 
ATOM     20  C   UNL     1      -0.894 -18.174 -14.145  1.00  0.00     0.176 A 
ATOM     21  C   UNL     1      -1.351 -20.482 -13.502  1.00  0.00     0.146 A 
ATOM     22  C   UNL     1      -0.676 -19.262 -13.250  1.00  0.00     0.111 A 
ATOM     23  O   UNL     1      -1.309 -21.477 -12.626  1.00  0.00    -0.456 OA
ATOM     24  C   UNL     1       0.135 -19.214 -12.083  1.00  0.00     0.197 A 
ATOM     25  C   UNL     1      -0.663 -21.411 -11.465  1.00  0.00     0.138 A 
ATOM     26  C   UNL     1       0.103 -20.277 -11.171  1.00  0.00     0.100 A 
ATOM     27  O   UNL     1       0.982 -18.310 -11.916  1.00  0.00    -0.289 OA
BRANCH  18  28
ATOM     28  O   UNL     1      -1.940 -17.298 -16.164  1.00  0.00    -0.502 OA
ATOM     29  H   UNL     1      -1.848 -16.319 -15.847  1.00  0.00     0.293 HD
ENDBRANCH  18  28
BRANCH  20  30
ATOM     30  O   UNL     1      -0.416 -16.879 -13.891  1.00  0.00    -0.504 OA
ATOM     31  H   UNL     1       0.556 -16.588 -13.969  1.00  0.00     0.293 HD
ENDBRANCH  20  30
BRANCH  25  32
ATOM     32  C   UNL     1      -0.762 -22.568 -10.533  1.00  0.00     0.017 A 
ATOM     33  C   UNL     1      -1.846 -23.469 -10.586  1.00  0.00     0.012 A 
ATOM     34  C   UNL     1       0.313 -22.834  -9.663  1.00  0.00     0.012 A 
ATOM     35  C   UNL     1      -1.856 -24.611  -9.775  1.00  0.00     0.001 A 
ATOM     36  C   UNL     1       0.312 -23.993  -8.880  1.00  0.00     0.001 A 
ATOM     37  C   UNL     1      -0.774 -24.878  -8.930  1.00  0.00     0.000 A 
ENDBRANCH  25  32
ENDBRANCH   1  17
TORSDOF 9
ENDMDL
MODEL 5
REMARK VINA RESULT:    -5.970      6.243      9.657
REMARK INTER + INTRA:          -9.375
REMARK INTER:                  -8.213
REMARK INTRA:                  -1.162
REMARK UNBOUND:                -1.136
REMARK SMILES O=C([O-])[C@@H]1O[C@@H](Oc2cc3oc(-c4ccccc4)cc(=O)c3c(O)c2O)[C@H](O)[C@@H](O)[C@H]1O
REMARK SMILES IDX 7 1 6 2 4 3 31 4 5 5 29 6 27 7 2 8 1 9 3 10 32 11 30 13
REMARK SMILES IDX 28 15 8 17 25 18 9 19 23 20 10 21 22 22 11 23 20 24 12 25
REMARK SMILES IDX 19 26 21 27 26 28 24 30 13 32 14 33 18 34 15 35 17 36 16 37
REMARK H PARENT 32 12 30 14 28 16 26 29 24 31
REMARK Flexibility Score: inf
ROOT
ATOM      1  O   UNL     1      -7.156 -22.652 -23.023  1.00  0.00    -0.458 OA
ENDROOT
BRANCH   1   2
ATOM      2  C   UNL     1      -7.852 -23.702 -23.707  1.00  0.00     0.339 C 
ATOM      3  C   UNL     1      -7.516 -25.658 -25.086  1.00  0.00     0.199 C 
ATOM      4  C   UNL     1      -9.075 -25.657 -25.103  1.00  0.00     0.180 C 
ATOM      5  O   UNL     1      -6.982 -24.778 -24.054  1.00  0.00    -0.328 OA
ATOM      6  C   UNL     1      -9.639 -24.211 -25.433  1.00  0.00     0.181 C 
ATOM      7  C   UNL     1      -8.624 -23.140 -24.961  1.00  0.00     0.214 C 
BRANCH   3   8
ATOM      8  C   UNL     1      -6.862 -27.008 -24.952  1.00  0.00     0.073 C 
ATOM      9  O   UNL     1      -7.028 -27.887 -25.838  1.00  0.00    -0.547 OA
ATOM     10  O   UNL     1      -6.059 -27.274 -23.848  1.00  0.00    -0.547 OA
ENDBRANCH   3   8
BRANCH   4  11
ATOM     11  O   UNL     1      -9.581 -26.714 -25.877  1.00  0.00    -0.387 OA
ATOM     12  H   UNL     1      -8.845 -27.318 -26.180  1.00  0.00     0.211 HD
ENDBRANCH   4  11
BRANCH   6  13
ATOM     13  O   UNL     1      -9.858 -24.091 -26.843  1.00  0.00    -0.387 OA
ATOM     14  H   UNL     1      -9.177 -24.645 -27.328  1.00  0.00     0.211 HD
ENDBRANCH   6  13
BRANCH   7  15
ATOM     15  O   UNL     1      -9.268 -21.913 -24.757  1.00  0.00    -0.384 OA
ATOM     16  H   UNL     1      -8.848 -21.217 -25.330  1.00  0.00     0.211 HD
ENDBRANCH   7  15
ENDBRANCH   1   2
BRANCH   1  17
ATOM     17  C   UNL     1      -6.907 -22.587 -21.636  1.00  0.00     0.172 A 
ATOM     18  C   UNL     1      -5.890 -23.385 -21.071  1.00  0.00     0.201 A 
ATOM     19  C   UNL     1      -7.569 -21.676 -20.796  1.00  0.00     0.098 A 
ATOM     20  C   UNL     1      -5.634 -23.370 -19.681  1.00  0.00     0.176 A 
ATOM     21  C   UNL     1      -7.327 -21.630 -19.433  1.00  0.00     0.146 A 
ATOM     22  C   UNL     1      -6.389 -22.507 -18.833  1.00  0.00     0.111 A 
ATOM     23  O   UNL     1      -7.946 -20.703 -18.716  1.00  0.00    -0.456 OA
ATOM     24  C   UNL     1      -6.247 -22.416 -17.421  1.00  0.00     0.197 A 
ATOM     25  C   UNL     1      -7.735 -20.511 -17.417  1.00  0.00     0.138 A 
ATOM     26  C   UNL     1      -6.890 -21.386 -16.723  1.00  0.00     0.100 A 
ATOM     27  O   UNL     1      -5.674 -23.314 -16.765  1.00  0.00    -0.289 OA
BRANCH  18  28
ATOM     28  O   UNL     1      -5.147 -24.212 -21.916  1.00  0.00    -0.502 OA
ATOM     29  H   UNL     1      -5.132 -24.048 -22.935  1.00  0.00     0.293 HD
ENDBRANCH  18  28
BRANCH  20  30
ATOM     30  O   UNL     1      -4.563 -24.145 -19.210  1.00  0.00    -0.504 OA
ATOM     31  H   UNL     1      -4.457 -24.477 -18.253  1.00  0.00     0.293 HD
ENDBRANCH  20  30
BRANCH  25  32
ATOM     32  C   UNL     1      -8.434 -19.381 -16.745  1.00  0.00     0.017 A 
ATOM     33  C   UNL     1      -8.852 -19.464 -15.401  1.00  0.00     0.012 A 
ATOM     34  C   UNL     1      -8.569 -18.159 -17.434  1.00  0.00     0.012 A 
ATOM     35  C   UNL     1      -9.404 -18.346 -14.761  1.00  0.00     0.001 A 
ATOM     36  C   UNL     1      -9.090 -17.039 -16.780  1.00  0.00     0.001 A 
ATOM     37  C   UNL     1      -9.514 -17.133 -15.446  1.00  0.00     0.000 A 
ENDBRANCH  25  32
ENDBRANCH   1  17
TORSDOF 9
ENDMDL
MODEL 6
REMARK VINA RESULT:    -5.961      2.225      8.535
REMARK INTER + INTRA:          -9.362
REMARK INTER:                  -8.214
REMARK INTRA:                  -1.147
REMARK UNBOUND:                -1.136
REMARK SMILES O=C([O-])[C@@H]1O[C@@H](Oc2cc3oc(-c4ccccc4)cc(=O)c3c(O)c2O)[C@H](O)[C@@H](O)[C@H]1O
REMARK SMILES IDX 7 1 6 2 4 3 31 4 5 5 29 6 27 7 2 8 1 9 3 10 32 11 30 13
REMARK SMILES IDX 28 15 8 17 25 18 9 19 23 20 10 21 22 22 11 23 20 24 12 25
REMARK SMILES IDX 19 26 21 27 26 28 24 30 13 32 14 33 18 34 15 35 17 36 16 37
REMARK H PARENT 32 12 30 14 28 16 26 29 24 31
REMARK Flexibility Score: inf
ROOT
ATOM      1  O   UNL     1      -1.695 -21.716 -15.845  1.00  0.00    -0.458 OA
ENDROOT
BRANCH   1   2
ATOM      2  C   UNL     1      -1.340 -21.761 -14.456  1.00  0.00     0.339 C 
ATOM      3  C   UNL     1      -2.058 -22.606 -12.310  1.00  0.00     0.199 C 
ATOM      4  C   UNL     1      -0.806 -21.819 -11.815  1.00  0.00     0.180 C 
ATOM      5  O   UNL     1      -2.057 -22.777 -13.758  1.00  0.00    -0.328 OA
ATOM      6  C   UNL     1      -0.781 -20.353 -12.423  1.00  0.00     0.181 C 
ATOM      7  C   UNL     1      -1.517 -20.346 -13.786  1.00  0.00     0.214 C 
BRANCH   3   8
ATOM      8  C   UNL     1      -2.283 -23.951 -11.668  1.00  0.00     0.073 C 
ATOM      9  O   UNL     1      -1.304 -24.652 -11.298  1.00  0.00    -0.547 OA
ATOM     10  O   UNL     1      -3.582 -24.407 -11.471  1.00  0.00    -0.547 OA
ENDBRANCH   3   8
BRANCH   4  11
ATOM     11  O   UNL     1      -0.655 -21.918 -10.423  1.00  0.00    -0.387 OA
ATOM     12  H   UNL     1       0.271 -22.208 -10.184  1.00  0.00     0.211 HD
ENDBRANCH   4  11
BRANCH   6  13
ATOM     13  O   UNL     1      -1.418 -19.446 -11.517  1.00  0.00    -0.387 OA
ATOM     14  H   UNL     1      -0.809 -18.666 -11.352  1.00  0.00     0.211 HD
ENDBRANCH   6  13
BRANCH   7  15
ATOM     15  O   UNL     1      -1.088 -19.264 -14.566  1.00  0.00    -0.384 OA
ATOM     16  H   UNL     1      -0.096 -19.276 -14.636  1.00  0.00     0.211 HD
ENDBRANCH   7  15
ENDBRANCH   1   2
BRANCH   1  17
ATOM     17  C   UNL     1      -3.001 -21.812 -16.371  1.00  0.00     0.172 A 
ATOM     18  C   UNL     1      -3.410 -23.000 -17.012  1.00  0.00     0.201 A 
ATOM     19  C   UNL     1      -3.957 -20.797 -16.195  1.00  0.00     0.098 A 
ATOM     20  C   UNL     1      -4.699 -23.120 -17.578  1.00  0.00     0.176 A 
ATOM     21  C   UNL     1      -5.232 -20.896 -16.729  1.00  0.00     0.146 A 
ATOM     22  C   UNL     1      -5.620 -22.037 -17.474  1.00  0.00     0.111 A 
ATOM     23  O   UNL     1      -6.098 -19.926 -16.469  1.00  0.00    -0.456 OA
ATOM     24  C   UNL     1      -6.933 -22.022 -18.021  1.00  0.00     0.197 A 
ATOM     25  C   UNL     1      -7.369 -19.947 -16.859  1.00  0.00     0.138 A 
ATOM     26  C   UNL     1      -7.818 -20.993 -17.673  1.00  0.00     0.100 A 
ATOM     27  O   UNL     1      -7.275 -22.827 -18.914  1.00  0.00    -0.289 OA
BRANCH  18  28
ATOM     28  O   UNL     1      -2.503 -24.058 -17.091  1.00  0.00    -0.502 OA
ATOM     29  H   UNL     1      -1.946 -24.340 -16.269  1.00  0.00     0.293 HD
ENDBRANCH  18  28
BRANCH  20  30
ATOM     30  O   UNL     1      -5.048 -24.358 -18.140  1.00  0.00    -0.504 OA
ATOM     31  H   UNL     1      -4.561 -25.235 -17.973  1.00  0.00     0.293 HD
ENDBRANCH  20  30
BRANCH  25  32
ATOM     32  C   UNL     1      -8.259 -18.833 -16.431  1.00  0.00     0.017 A 
ATOM     33  C   UNL     1      -8.980 -18.887 -15.220  1.00  0.00     0.012 A 
ATOM     34  C   UNL     1      -8.285 -17.651 -17.196  1.00  0.00     0.012 A 
ATOM     35  C   UNL     1      -9.720 -17.778 -14.788  1.00  0.00     0.001 A 
ATOM     36  C   UNL     1      -8.999 -16.537 -16.743  1.00  0.00     0.001 A 
ATOM     37  C   UNL     1      -9.722 -16.602 -15.543  1.00  0.00     0.000 A 
ENDBRANCH  25  32
ENDBRANCH   1  17
TORSDOF 9
ENDMDL
MODEL 7
REMARK VINA RESULT:    -5.778      2.724      4.583
REMARK INTER + INTRA:          -9.110
REMARK INTER:                  -8.109
REMARK INTRA:                  -1.001
REMARK UNBOUND:                -1.136
REMARK SMILES O=C([O-])[C@@H]1O[C@@H](Oc2cc3oc(-c4ccccc4)cc(=O)c3c(O)c2O)[C@H](O)[C@@H](O)[C@H]1O
REMARK SMILES IDX 7 1 6 2 4 3 31 4 5 5 29 6 27 7 2 8 1 9 3 10 32 11 30 13
REMARK SMILES IDX 28 15 8 17 25 18 9 19 23 20 10 21 22 22 11 23 20 24 12 25
REMARK SMILES IDX 19 26 21 27 26 28 24 30 13 32 14 33 18 34 15 35 17 36 16 37
REMARK H PARENT 32 12 30 14 28 16 26 29 24 31
REMARK Flexibility Score: inf
ROOT
ATOM      1  O   UNL     1      -7.716 -21.053 -17.574  1.00  0.00    -0.458 OA
ENDROOT
BRANCH   1   2
ATOM      2  C   UNL     1      -8.291 -19.741 -17.511  1.00  0.00     0.339 C 
ATOM      3  C   UNL     1      -7.832 -17.411 -17.956  1.00  0.00     0.199 C 
ATOM      4  C   UNL     1      -9.251 -17.228 -17.338  1.00  0.00     0.180 C 
ATOM      5  O   UNL     1      -7.561 -18.803 -18.298  1.00  0.00    -0.328 OA
ATOM      6  C   UNL     1      -9.389 -18.042 -15.982  1.00  0.00     0.181 C 
ATOM      7  C   UNL     1      -8.441 -19.267 -16.016  1.00  0.00     0.214 C 
BRANCH   3   8
ATOM      8  C   UNL     1      -7.523 -16.553 -19.155  1.00  0.00     0.073 C 
ATOM      9  O   UNL     1      -8.432 -16.251 -19.973  1.00  0.00    -0.547 OA
ATOM     10  O   UNL     1      -6.229 -16.081 -19.345  1.00  0.00    -0.547 OA
ENDBRANCH   3   8
BRANCH   4  11
ATOM     11  O   UNL     1      -9.621 -15.875 -17.291  1.00  0.00    -0.387 OA
ATOM     12  H   UNL     1     -10.017 -15.583 -18.161  1.00  0.00     0.211 HD
ENDBRANCH   4  11
BRANCH   6  13
ATOM     13  O   UNL     1      -9.055 -17.194 -14.876  1.00  0.00    -0.387 OA
ATOM     14  H   UNL     1      -9.857 -16.642 -14.635  1.00  0.00     0.211 HD
ENDBRANCH   6  13
BRANCH   7  15
ATOM     15  O   UNL     1      -8.886 -20.252 -15.124  1.00  0.00    -0.384 OA
ATOM     16  H   UNL     1      -9.849 -20.110 -14.924  1.00  0.00     0.211 HD
ENDBRANCH   7  15
ENDBRANCH   1   2
BRANCH   1  17
ATOM     17  C   UNL     1      -6.346 -21.366 -17.445  1.00  0.00     0.172 A 
ATOM     18  C   UNL     1      -5.722 -22.184 -18.410  1.00  0.00     0.201 A 
ATOM     19  C   UNL     1      -5.541 -20.808 -16.437  1.00  0.00     0.098 A 
ATOM     20  C   UNL     1      -4.361 -22.544 -18.295  1.00  0.00     0.176 A 
ATOM     21  C   UNL     1      -4.201 -21.133 -16.310  1.00  0.00     0.146 A 
ATOM     22  C   UNL     1      -3.587 -22.045 -17.206  1.00  0.00     0.111 A 
ATOM     23  O   UNL     1      -3.492 -20.521 -15.372  1.00  0.00    -0.456 OA
ATOM     24  C   UNL     1      -2.219 -22.351 -16.963  1.00  0.00     0.197 A 
ATOM     25  C   UNL     1      -2.183 -20.692 -15.206  1.00  0.00     0.138 A 
ATOM     26  C   UNL     1      -1.511 -21.637 -15.988  1.00  0.00     0.100 A 
ATOM     27  O   UNL     1      -1.668 -23.336 -17.501  1.00  0.00    -0.289 OA
BRANCH  18  28
ATOM     28  O   UNL     1      -6.487 -22.651 -19.480  1.00  0.00    -0.502 OA
ATOM     29  H   UNL     1      -6.061 -22.800 -20.409  1.00  0.00     0.293 HD
ENDBRANCH  18  28
BRANCH  20  30
ATOM     30  O   UNL     1      -3.801 -23.308 -19.331  1.00  0.00    -0.504 OA
ATOM     31  H   UNL     1      -2.951 -23.862 -19.256  1.00  0.00     0.293 HD
ENDBRANCH  20  30
BRANCH  25  32
ATOM     32  C   UNL     1      -1.490 -19.881 -14.167  1.00  0.00     0.017 A 
ATOM     33  C   UNL     1      -1.016 -18.580 -14.440  1.00  0.00     0.012 A 
ATOM     34  C   UNL     1      -1.415 -20.380 -12.852  1.00  0.00     0.012 A 
ATOM     35  C   UNL     1      -0.470 -17.797 -13.413  1.00  0.00     0.001 A 
ATOM     36  C   UNL     1      -0.899 -19.582 -11.827  1.00  0.00     0.001 A 
ATOM     37  C   UNL     1      -0.420 -18.293 -12.107  1.00  0.00     0.000 A 
ENDBRANCH  25  32
ENDBRANCH   1  17
TORSDOF 9
ENDMDL
MODEL 8
REMARK VINA RESULT:    -5.764      2.671      5.411
REMARK INTER + INTRA:          -9.090
REMARK INTER:                  -7.765
REMARK INTRA:                  -1.325
REMARK UNBOUND:                -1.136
REMARK SMILES O=C([O-])[C@@H]1O[C@@H](Oc2cc3oc(-c4ccccc4)cc(=O)c3c(O)c2O)[C@H](O)[C@@H](O)[C@H]1O
REMARK SMILES IDX 7 1 6 2 4 3 31 4 5 5 29 6 27 7 2 8 1 9 3 10 32 11 30 13
REMARK SMILES IDX 28 15 8 17 25 18 9 19 23 20 10 21 22 22 11 23 20 24 12 25
REMARK SMILES IDX 19 26 21 27 26 28 24 30 13 32 14 33 18 34 15 35 17 36 16 37
REMARK H PARENT 32 12 30 14 28 16 26 29 24 31
REMARK Flexibility Score: inf
ROOT
ATOM      1  O   UNL     1      -0.587 -17.993 -12.797  1.00  0.00    -0.458 OA
ENDROOT
BRANCH   1   2
ATOM      2  C   UNL     1      -0.920 -17.919 -14.190  1.00  0.00     0.339 C 
ATOM      3  C   UNL     1      -1.951 -19.154 -15.993  1.00  0.00     0.199 C 
ATOM      4  C   UNL     1      -1.500 -17.913 -16.822  1.00  0.00     0.180 C 
ATOM      5  O   UNL     1      -1.883 -18.905 -14.558  1.00  0.00    -0.328 OA
ATOM      6  C   UNL     1       0.014 -17.546 -16.518  1.00  0.00     0.181 C 
ATOM      7  C   UNL     1       0.376 -18.000 -15.081  1.00  0.00     0.214 C 
BRANCH   3   8
ATOM      8  C   UNL     1      -3.315 -19.702 -16.321  1.00  0.00     0.073 C 
ATOM      9  O   UNL     1      -3.640 -20.863 -15.958  1.00  0.00    -0.547 OA
ATOM     10  O   UNL     1      -4.222 -18.909 -17.017  1.00  0.00    -0.547 OA
ENDBRANCH   3   8
BRANCH   4  11
ATOM     11  O   UNL     1      -1.848 -18.046 -18.175  1.00  0.00    -0.387 OA
ATOM     12  H   UNL     1      -1.663 -18.972 -18.503  1.00  0.00     0.211 HD
ENDBRANCH   4  11
BRANCH   6  13
ATOM     13  O   UNL     1       0.867 -18.196 -17.467  1.00  0.00    -0.387 OA
ATOM     14  H   UNL     1       1.710 -17.663 -17.568  1.00  0.00     0.211 HD
ENDBRANCH   6  13
BRANCH   7  15
ATOM     15  O   UNL     1       1.471 -17.268 -14.601  1.00  0.00    -0.384 OA
ATOM     16  H   UNL     1       2.281 -17.845 -14.598  1.00  0.00     0.211 HD
ENDBRANCH   7  15
ENDBRANCH   1   2
BRANCH   1  17
ATOM     17  C   UNL     1      -0.132 -19.139 -12.112  1.00  0.00     0.172 A 
ATOM     18  C   UNL     1       1.196 -19.189 -11.637  1.00  0.00     0.201 A 
ATOM     19  C   UNL     1      -0.985 -20.208 -11.789  1.00  0.00     0.098 A 
ATOM     20  C   UNL     1       1.694 -20.333 -10.974  1.00  0.00     0.176 A 
ATOM     21  C   UNL     1      -0.525 -21.335 -11.128  1.00  0.00     0.146 A 
ATOM     22  C   UNL     1       0.835 -21.448 -10.746  1.00  0.00     0.111 A 
ATOM     23  O   UNL     1      -1.403 -22.276 -10.805  1.00  0.00    -0.456 OA
ATOM     24  C   UNL     1       1.219 -22.664 -10.116  1.00  0.00     0.197 A 
ATOM     25  C   UNL     1      -1.095 -23.363 -10.103  1.00  0.00     0.138 A 
ATOM     26  C   UNL     1       0.240 -23.600  -9.758  1.00  0.00     0.100 A 
ATOM     27  O   UNL     1       2.422 -22.983  -9.998  1.00  0.00    -0.289 OA
BRANCH  18  28
ATOM     28  O   UNL     1       2.020 -18.083 -11.852  1.00  0.00    -0.502 OA
ATOM     29  H   UNL     1       3.013 -18.103 -11.572  1.00  0.00     0.293 HD
ENDBRANCH  18  28
BRANCH  20  30
ATOM     30  O   UNL     1       3.005 -20.276 -10.478  1.00  0.00    -0.504 OA
ATOM     31  H   UNL     1       3.380 -19.528  -9.898  1.00  0.00     0.293 HD
ENDBRANCH  20  30
BRANCH  25  32
ATOM     32  C   UNL     1      -2.191 -24.302  -9.736  1.00  0.00     0.017 A 
ATOM     33  C   UNL     1      -3.546 -23.919  -9.808  1.00  0.00     0.012 A 
ATOM     34  C   UNL     1      -1.867 -25.637  -9.426  1.00  0.00     0.012 A 
ATOM     35  C   UNL     1      -4.559 -24.857  -9.567  1.00  0.00     0.001 A 
ATOM     36  C   UNL     1      -2.882 -26.575  -9.218  1.00  0.00     0.001 A 
ATOM     37  C   UNL     1      -4.228 -26.185  -9.281  1.00  0.00     0.000 A 
ENDBRANCH  25  32
ENDBRANCH   1  17
TORSDOF 9
ENDMDL
MODEL 9
REMARK VINA RESULT:    -5.729      5.946      9.680
REMARK INTER + INTRA:          -9.042
REMARK INTER:                  -8.039
REMARK INTRA:                  -1.004
REMARK UNBOUND:                -1.136
REMARK SMILES O=C([O-])[C@@H]1O[C@@H](Oc2cc3oc(-c4ccccc4)cc(=O)c3c(O)c2O)[C@H](O)[C@@H](O)[C@H]1O
REMARK SMILES IDX 7 1 6 2 4 3 31 4 5 5 29 6 27 7 2 8 1 9 3 10 32 11 30 13
REMARK SMILES IDX 28 15 8 17 25 18 9 19 23 20 10 21 22 22 11 23 20 24 12 25
REMARK SMILES IDX 19 26 21 27 26 28 24 30 13 32 14 33 18 34 15 35 17 36 16 37
REMARK H PARENT 32 12 30 14 28 16 26 29 24 31
REMARK Flexibility Score: inf
ROOT
ATOM      1  O   UNL     1      -7.645 -21.112 -17.142  1.00  0.00    -0.458 OA
ENDROOT
BRANCH   1   2
ATOM      2  C   UNL     1      -8.176 -19.783 -17.231  1.00  0.00     0.339 C 
ATOM      3  C   UNL     1      -7.582 -17.502 -17.760  1.00  0.00     0.199 C 
ATOM      4  C   UNL     1      -9.058 -17.239 -17.333  1.00  0.00     0.180 C 
ATOM      5  O   UNL     1      -7.322 -18.920 -17.979  1.00  0.00    -0.328 OA
ATOM      6  C   UNL     1      -9.388 -17.956 -15.957  1.00  0.00     0.181 C 
ATOM      7  C   UNL     1      -8.488 -19.207 -15.798  1.00  0.00     0.214 C 
BRANCH   3   8
ATOM      8  C   UNL     1      -7.100 -16.733 -18.963  1.00  0.00     0.073 C 
ATOM      9  O   UNL     1      -5.904 -16.345 -19.034  1.00  0.00    -0.547 OA
ATOM     10  O   UNL     1      -7.982 -16.468 -20.005  1.00  0.00    -0.547 OA
ENDBRANCH   3   8
BRANCH   4  11
ATOM     11  O   UNL     1      -9.381 -15.875 -17.416  1.00  0.00    -0.387 OA
ATOM     12  H   UNL     1      -8.790 -15.407 -18.072  1.00  0.00     0.211 HD
ENDBRANCH   4  11
BRANCH   6  13
ATOM     13  O   UNL     1      -9.160 -17.048 -14.873  1.00  0.00    -0.387 OA
ATOM     14  H   UNL     1      -8.176 -16.874 -14.794  1.00  0.00     0.211 HD
ENDBRANCH   6  13
BRANCH   7  15
ATOM     15  O   UNL     1      -9.073 -20.119 -14.908  1.00  0.00    -0.384 OA
ATOM     16  H   UNL     1      -9.337 -20.941 -15.400  1.00  0.00     0.211 HD
ENDBRANCH   7  15
ENDBRANCH   1   2
BRANCH   1  17
ATOM     17  C   UNL     1      -7.257 -21.926 -18.228  1.00  0.00     0.172 A 
ATOM     18  C   UNL     1      -6.347 -22.983 -18.019  1.00  0.00     0.201 A 
ATOM     19  C   UNL     1      -7.824 -21.790 -19.507  1.00  0.00     0.098 A 
ATOM     20  C   UNL     1      -5.913 -23.797 -19.089  1.00  0.00     0.176 A 
ATOM     21  C   UNL     1      -7.426 -22.585 -20.569  1.00  0.00     0.146 A 
ATOM     22  C   UNL     1      -6.428 -23.575 -20.400  1.00  0.00     0.111 A 
ATOM     23  O   UNL     1      -8.049 -22.438 -21.731  1.00  0.00    -0.456 OA
ATOM     24  C   UNL     1      -6.054 -24.306 -21.562  1.00  0.00     0.197 A 
ATOM     25  C   UNL     1      -7.810 -23.195 -22.797  1.00  0.00     0.138 A 
ATOM     26  C   UNL     1      -6.780 -24.142 -22.749  1.00  0.00     0.100 A 
ATOM     27  O   UNL     1      -5.007 -24.989 -21.592  1.00  0.00    -0.289 OA
BRANCH  18  28
ATOM     28  O   UNL     1      -5.865 -23.199 -16.727  1.00  0.00    -0.502 OA
ATOM     29  H   UNL     1      -4.852 -23.299 -16.551  1.00  0.00     0.293 HD
ENDBRANCH  18  28
BRANCH  20  30
ATOM     30  O   UNL     1      -5.055 -24.866 -18.785  1.00  0.00    -0.504 OA
ATOM     31  H   UNL     1      -4.186 -25.077 -19.271  1.00  0.00     0.293 HD
ENDBRANCH  20  30
BRANCH  25  32
ATOM     32  C   UNL     1      -8.637 -22.983 -24.017  1.00  0.00     0.017 A 
ATOM     33  C   UNL     1      -8.814 -24.001 -24.977  1.00  0.00     0.012 A 
ATOM     34  C   UNL     1      -9.356 -21.778 -24.150  1.00  0.00     0.012 A 
ATOM     35  C   UNL     1      -9.689 -23.812 -26.055  1.00  0.00     0.001 A 
ATOM     36  C   UNL     1     -10.251 -21.608 -25.210  1.00  0.00     0.001 A 
ATOM     37  C   UNL     1     -10.414 -22.621 -26.167  1.00  0.00     0.000 A 
ENDBRANCH  25  32
ENDBRANCH   1  17
TORSDOF 9
ENDMDL
