MODEL 1
REMARK VINA RESULT:    -3.405      0.000      0.000
REMARK INTER + INTRA:          -8.919
REMARK INTER:                  -6.192
REMARK INTRA:                  -2.727
REMARK UNBOUND:                -2.727
REMARK SMILES CCCCCC=CCC=CCCCCCCCC(=O)[O-]
REMARK SMILES IDX 11 1 12 2 13 3 14 4 15 5 16 6 17 7 18 8 19 9 20 10 10 11
REMARK SMILES IDX 9 12 8 13 7 14 6 15 5 16 4 17 3 18 2 19 1 20
REMARK H PARENT
REMARK Flexibility Score: inf
ROOT
ATOM      1  C   UNL     1      61.154  35.354  59.095  1.00  0.00     0.027 C 
ENDROOT
BRANCH   1   2
ATOM      2  C   UNL     1      60.415  34.009  59.078  1.00  0.00     0.004 C 
BRANCH   2   3
ATOM      3  C   UNL     1      61.269  32.874  58.493  1.00  0.00     0.000 C 
BRANCH   3   4
ATOM      4  C   UNL     1      61.312  31.636  59.405  1.00  0.00     0.000 C 
BRANCH   4   5
ATOM      5  C   UNL     1      60.921  31.950  60.860  1.00  0.00     0.000 C 
BRANCH   5   6
ATOM      6  C   UNL     1      60.970  30.747  61.823  1.00  0.00     0.006 C 
BRANCH   6   7
ATOM      7  C   UNL     1      62.179  29.817  61.621  1.00  0.00     0.053 C 
BRANCH   7   8
ATOM      8  C   UNL     1      61.760  28.427  61.249  1.00  0.00     0.041 C 
ATOM      9  O   UNL     1      62.456  27.440  61.603  1.00  0.00    -0.550 OA
ATOM     10  O   UNL     1      60.624  28.226  60.477  1.00  0.00    -0.550 OA
ENDBRANCH   7   8
ENDBRANCH   6   7
ENDBRANCH   5   6
ENDBRANCH   4   5
ENDBRANCH   3   4
ENDBRANCH   2   3
ENDBRANCH   1   2
BRANCH   1  11
ATOM     11  C   UNL     1      61.432  35.799  60.509  1.00  0.00    -0.031 C 
ATOM     12  C   UNL     1      62.636  35.737  61.103  1.00  0.00    -0.027 C 
BRANCH  12  13
ATOM     13  C   UNL     1      63.869  35.172  60.439  1.00  0.00     0.054 C 
BRANCH  13  14
ATOM     14  C   UNL     1      64.141  33.775  60.918  1.00  0.00    -0.027 C 
ATOM     15  C   UNL     1      64.602  32.829  60.085  1.00  0.00    -0.031 C 
BRANCH  15  16
ATOM     16  C   UNL     1      64.872  31.425  60.553  1.00  0.00     0.027 C 
BRANCH  16  17
ATOM     17  C   UNL     1      65.458  30.530  59.445  1.00  0.00     0.004 C 
BRANCH  17  18
ATOM     18  C   UNL     1      64.413  30.023  58.435  1.00  0.00     0.000 C 
BRANCH  18  19
ATOM     19  C   UNL     1      64.199  28.504  58.500  1.00  0.00    -0.003 C 
ATOM     20  C   UNL     1      65.213  27.845  59.432  1.00  0.00     0.004 C 
ENDBRANCH  18  19
ENDBRANCH  17  18
ENDBRANCH  16  17
ENDBRANCH  15  16
ENDBRANCH  13  14
ENDBRANCH  12  13
ENDBRANCH   1  11
TORSDOF 14
ENDMDL
MODEL 2
REMARK VINA RESULT:    -3.372     10.503     12.122
REMARK INTER + INTRA:          -8.858
REMARK INTER:                  -6.308
REMARK INTRA:                  -2.550
REMARK UNBOUND:                -2.727
REMARK SMILES CCCCCC=CCC=CCCCCCCCC(=O)[O-]
REMARK SMILES IDX 11 1 12 2 13 3 14 4 15 5 16 6 17 7 18 8 19 9 20 10 10 11
REMARK SMILES IDX 9 12 8 13 7 14 6 15 5 16 4 17 3 18 2 19 1 20
REMARK H PARENT
REMARK Flexibility Score: inf
ROOT
ATOM      1  C   UNL     1      53.293  27.288  50.729  1.00  0.00     0.027 C 
ENDROOT
BRANCH   1   2
ATOM      2  C   UNL     1      53.797  26.338  49.634  1.00  0.00     0.004 C 
BRANCH   2   3
ATOM      3  C   UNL     1      54.967  25.461  50.106  1.00  0.00     0.000 C 
BRANCH   3   4
ATOM      4  C   UNL     1      54.827  25.032  51.576  1.00  0.00     0.000 C 
BRANCH   4   5
ATOM      5  C   UNL     1      56.163  25.068  52.340  1.00  0.00     0.000 C 
BRANCH   5   6
ATOM      6  C   UNL     1      57.421  25.122  51.451  1.00  0.00     0.006 C 
BRANCH   6   7
ATOM      7  C   UNL     1      58.746  25.237  52.224  1.00  0.00     0.053 C 
BRANCH   7   8
ATOM      8  C   UNL     1      59.774  24.270  51.722  1.00  0.00     0.041 C 
ATOM      9  O   UNL     1      60.613  23.769  52.515  1.00  0.00    -0.550 OA
ATOM     10  O   UNL     1      59.829  23.952  50.372  1.00  0.00    -0.550 OA
ENDBRANCH   7   8
ENDBRANCH   6   7
ENDBRANCH   5   6
ENDBRANCH   4   5
ENDBRANCH   3   4
ENDBRANCH   2   3
ENDBRANCH   1   2
BRANCH   1  11
ATOM     11  C   UNL     1      53.554  28.727  50.358  1.00  0.00    -0.031 C 
ATOM     12  C   UNL     1      54.642  29.422  50.730  1.00  0.00    -0.027 C 
BRANCH  12  13
ATOM     13  C   UNL     1      55.736  28.860  51.607  1.00  0.00     0.054 C 
BRANCH  13  14
ATOM     14  C   UNL     1      56.960  28.540  50.796  1.00  0.00    -0.027 C 
ATOM     15  C   UNL     1      57.786  29.507  50.367  1.00  0.00    -0.031 C 
BRANCH  15  16
ATOM     16  C   UNL     1      59.010  29.197  49.549  1.00  0.00     0.027 C 
BRANCH  16  17
ATOM     17  C   UNL     1      59.318  27.690  49.485  1.00  0.00     0.004 C 
BRANCH  17  18
ATOM     18  C   UNL     1      60.819  27.358  49.553  1.00  0.00     0.000 C 
BRANCH  18  19
ATOM     19  C   UNL     1      61.415  27.546  50.956  1.00  0.00    -0.003 C 
ATOM     20  C   UNL     1      62.583  26.590  51.190  1.00  0.00     0.004 C 
ENDBRANCH  18  19
ENDBRANCH  17  18
ENDBRANCH  16  17
ENDBRANCH  15  16
ENDBRANCH  13  14
ENDBRANCH  12  13
ENDBRANCH   1  11
TORSDOF 14
ENDMDL
MODEL 3
REMARK VINA RESULT:    -3.359      2.468      5.211
REMARK INTER + INTRA:          -8.835
REMARK INTER:                  -6.535
REMARK INTRA:                  -2.300
REMARK UNBOUND:                -2.727
REMARK SMILES CCCCCC=CCC=CCCCCCCCC(=O)[O-]
REMARK SMILES IDX 11 1 12 2 13 3 14 4 15 5 16 6 17 7 18 8 19 9 20 10 10 11
REMARK SMILES IDX 9 12 8 13 7 14 6 15 5 16 4 17 3 18 2 19 1 20
REMARK H PARENT
REMARK Flexibility Score: inf
ROOT
ATOM      1  C   UNL     1      62.773  29.773  61.181  1.00  0.00     0.027 C 
ENDROOT
BRANCH   1   2
ATOM      2  C   UNL     1      62.536  28.261  61.063  1.00  0.00     0.004 C 
BRANCH   2   3
ATOM      3  C   UNL     1      62.419  27.794  59.604  1.00  0.00     0.000 C 
BRANCH   3   4
ATOM      4  C   UNL     1      60.973  27.851  59.080  1.00  0.00     0.000 C 
BRANCH   4   5
ATOM      5  C   UNL     1      59.926  27.624  60.186  1.00  0.00     0.000 C 
BRANCH   5   6
ATOM      6  C   UNL     1      58.567  28.310  59.946  1.00  0.00     0.006 C 
BRANCH   6   7
ATOM      7  C   UNL     1      57.808  28.689  61.230  1.00  0.00     0.053 C 
BRANCH   7   8
ATOM      8  C   UNL     1      56.647  27.776  61.484  1.00  0.00     0.041 C 
ATOM      9  O   UNL     1      56.249  26.992  60.585  1.00  0.00    -0.550 OA
ATOM     10  O   UNL     1      55.982  27.822  62.702  1.00  0.00    -0.550 OA
ENDBRANCH   7   8
ENDBRANCH   6   7
ENDBRANCH   5   6
ENDBRANCH   4   5
ENDBRANCH   3   4
ENDBRANCH   2   3
ENDBRANCH   1   2
BRANCH   1  11
ATOM     11  C   UNL     1      61.670  30.433  61.970  1.00  0.00    -0.031 C 
ATOM     12  C   UNL     1      60.699  31.190  61.433  1.00  0.00    -0.027 C 
BRANCH  12  13
ATOM     13  C   UNL     1      60.607  31.514  59.961  1.00  0.00     0.054 C 
BRANCH  13  14
ATOM     14  C   UNL     1      61.244  32.842  59.666  1.00  0.00    -0.027 C 
ATOM     15  C   UNL     1      60.804  33.971  60.243  1.00  0.00    -0.031 C 
BRANCH  15  16
ATOM     16  C   UNL     1      61.430  35.307  59.950  1.00  0.00     0.027 C 
BRANCH  16  17
ATOM     17  C   UNL     1      62.499  35.705  60.985  1.00  0.00     0.004 C 
BRANCH  17  18
ATOM     18  C   UNL     1      63.940  35.390  60.544  1.00  0.00     0.000 C 
BRANCH  18  19
ATOM     19  C   UNL     1      64.515  34.134  61.216  1.00  0.00    -0.003 C 
ATOM     20  C   UNL     1      64.631  32.982  60.221  1.00  0.00     0.004 C 
ENDBRANCH  18  19
ENDBRANCH  17  18
ENDBRANCH  16  17
ENDBRANCH  15  16
ENDBRANCH  13  14
ENDBRANCH  12  13
ENDBRANCH   1  11
TORSDOF 14
ENDMDL
MODEL 4
REMARK VINA RESULT:    -3.344      1.512      4.448
REMARK INTER + INTRA:          -8.807
REMARK INTER:                  -5.743
REMARK INTRA:                  -3.064
REMARK UNBOUND:                -2.727
REMARK SMILES CCCCCC=CCC=CCCCCCCCC(=O)[O-]
REMARK SMILES IDX 11 1 12 2 13 3 14 4 15 5 16 6 17 7 18 8 19 9 20 10 10 11
REMARK SMILES IDX 9 12 8 13 7 14 6 15 5 16 4 17 3 18 2 19 1 20
REMARK H PARENT
REMARK Flexibility Score: inf
ROOT
ATOM      1  C   UNL     1      63.839  32.439  57.975  1.00  0.00     0.027 C 
ENDROOT
BRANCH   1   2
ATOM      2  C   UNL     1      62.315  32.524  57.819  1.00  0.00     0.004 C 
BRANCH   2   3
ATOM      3  C   UNL     1      61.598  31.268  58.336  1.00  0.00     0.000 C 
BRANCH   3   4
ATOM      4  C   UNL     1      60.411  31.601  59.256  1.00  0.00     0.000 C 
BRANCH   4   5
ATOM      5  C   UNL     1      60.848  31.988  60.681  1.00  0.00     0.000 C 
BRANCH   5   6
ATOM      6  C   UNL     1      60.839  30.832  61.701  1.00  0.00     0.006 C 
BRANCH   6   7
ATOM      7  C   UNL     1      62.169  30.065  61.810  1.00  0.00     0.053 C 
BRANCH   7   8
ATOM      8  C   UNL     1      62.149  28.795  61.015  1.00  0.00     0.041 C 
ATOM      9  O   UNL     1      61.097  28.108  60.944  1.00  0.00    -0.550 OA
ATOM     10  O   UNL     1      63.305  28.351  60.387  1.00  0.00    -0.550 OA
ENDBRANCH   7   8
ENDBRANCH   6   7
ENDBRANCH   5   6
ENDBRANCH   4   5
ENDBRANCH   3   4
ENDBRANCH   2   3
ENDBRANCH   1   2
BRANCH   1  11
ATOM     11  C   UNL     1      64.213  31.855  59.314  1.00  0.00    -0.031 C 
ATOM     12  C   UNL     1      64.517  32.581  60.402  1.00  0.00    -0.027 C 
BRANCH  12  13
ATOM     13  C   UNL     1      64.561  34.091  60.416  1.00  0.00     0.054 C 
BRANCH  13  14
ATOM     14  C   UNL     1      63.286  34.658  60.971  1.00  0.00    -0.027 C 
ATOM     15  C   UNL     1      62.447  35.372  60.204  1.00  0.00    -0.031 C 
BRANCH  15  16
ATOM     16  C   UNL     1      61.171  35.950  60.751  1.00  0.00     0.027 C 
BRANCH  16  17
ATOM     17  C   UNL     1      60.170  36.334  59.646  1.00  0.00     0.004 C 
BRANCH  17  18
ATOM     18  C   UNL     1      59.444  35.132  59.017  1.00  0.00     0.000 C 
BRANCH  18  19
ATOM     19  C   UNL     1      59.477  35.143  57.481  1.00  0.00    -0.003 C 
ATOM     20  C   UNL     1      60.740  35.826  56.963  1.00  0.00     0.004 C 
ENDBRANCH  18  19
ENDBRANCH  17  18
ENDBRANCH  16  17
ENDBRANCH  15  16
ENDBRANCH  13  14
ENDBRANCH  12  13
ENDBRANCH   1  11
TORSDOF 14
ENDMDL
MODEL 5
REMARK VINA RESULT:    -3.299     10.294     12.846
REMARK INTER + INTRA:          -8.725
REMARK INTER:                  -6.076
REMARK INTRA:                  -2.649
REMARK UNBOUND:                -2.727
REMARK SMILES CCCCCC=CCC=CCCCCCCCC(=O)[O-]
REMARK SMILES IDX 11 1 12 2 13 3 14 4 15 5 16 6 17 7 18 8 19 9 20 10 10 11
REMARK SMILES IDX 9 12 8 13 7 14 6 15 5 16 4 17 3 18 2 19 1 20
REMARK H PARENT
REMARK Flexibility Score: inf
ROOT
ATOM      1  C   UNL     1      59.771  26.179  51.162  1.00  0.00     0.027 C 
ENDROOT
BRANCH   1   2
ATOM      2  C   UNL     1      59.298  26.664  49.785  1.00  0.00     0.004 C 
BRANCH   2   3
ATOM      3  C   UNL     1      59.891  28.029  49.405  1.00  0.00     0.000 C 
BRANCH   3   4
ATOM      4  C   UNL     1      58.915  29.190  49.663  1.00  0.00     0.000 C 
BRANCH   4   5
ATOM      5  C   UNL     1      57.531  28.714  50.139  1.00  0.00     0.000 C 
BRANCH   5   6
ATOM      6  C   UNL     1      57.189  29.063  51.602  1.00  0.00     0.006 C 
BRANCH   6   7
ATOM      7  C   UNL     1      58.202  29.993  52.290  1.00  0.00     0.053 C 
BRANCH   7   8
ATOM      8  C   UNL     1      57.533  31.159  52.952  1.00  0.00     0.041 C 
ATOM      9  O   UNL     1      56.296  31.131  53.185  1.00  0.00    -0.550 OA
ATOM     10  O   UNL     1      58.269  32.291  53.275  1.00  0.00    -0.550 OA
ENDBRANCH   7   8
ENDBRANCH   6   7
ENDBRANCH   5   6
ENDBRANCH   4   5
ENDBRANCH   3   4
ENDBRANCH   2   3
ENDBRANCH   1   2
BRANCH   1  11
ATOM     11  C   UNL     1      59.324  24.761  51.418  1.00  0.00    -0.031 C 
ATOM     12  C   UNL     1      58.153  24.423  51.982  1.00  0.00    -0.027 C 
BRANCH  12  13
ATOM     13  C   UNL     1      57.139  25.428  52.474  1.00  0.00     0.054 C 
BRANCH  13  14
ATOM     14  C   UNL     1      55.840  25.284  51.733  1.00  0.00    -0.027 C 
ATOM     15  C   UNL     1      55.738  25.608  50.434  1.00  0.00    -0.031 C 
BRANCH  15  16
ATOM     16  C   UNL     1      54.441  25.473  49.684  1.00  0.00     0.027 C 
BRANCH  16  17
ATOM     17  C   UNL     1      53.395  26.520  50.110  1.00  0.00     0.004 C 
BRANCH  17  18
ATOM     18  C   UNL     1      53.888  27.974  49.998  1.00  0.00     0.000 C 
BRANCH  18  19
ATOM     19  C   UNL     1      53.418  28.861  51.160  1.00  0.00    -0.003 C 
ATOM     20  C   UNL     1      53.626  28.165  52.502  1.00  0.00     0.004 C 
ENDBRANCH  18  19
ENDBRANCH  17  18
ENDBRANCH  16  17
ENDBRANCH  15  16
ENDBRANCH  13  14
ENDBRANCH  12  13
ENDBRANCH   1  11
TORSDOF 14
ENDMDL
MODEL 6
REMARK VINA RESULT:    -3.260     10.353     12.370
REMARK INTER + INTRA:          -8.655
REMARK INTER:                  -6.049
REMARK INTRA:                  -2.605
REMARK UNBOUND:                -2.727
REMARK SMILES CCCCCC=CCC=CCCCCCCCC(=O)[O-]
REMARK SMILES IDX 11 1 12 2 13 3 14 4 15 5 16 6 17 7 18 8 19 9 20 10 10 11
REMARK SMILES IDX 9 12 8 13 7 14 6 15 5 16 4 17 3 18 2 19 1 20
REMARK H PARENT
REMARK Flexibility Score: inf
ROOT
ATOM      1  C   UNL     1      53.791  28.556  51.244  1.00  0.00     0.027 C 
ENDROOT
BRANCH   1   2
ATOM      2  C   UNL     1      54.975  29.441  50.832  1.00  0.00     0.004 C 
BRANCH   2   3
ATOM      3  C   UNL     1      55.966  29.675  51.983  1.00  0.00     0.000 C 
BRANCH   3   4
ATOM      4  C   UNL     1      57.418  29.360  51.585  1.00  0.00     0.000 C 
BRANCH   4   5
ATOM      5  C   UNL     1      57.618  29.280  50.061  1.00  0.00     0.000 C 
BRANCH   5   6
ATOM      6  C   UNL     1      59.088  29.275  49.595  1.00  0.00     0.006 C 
BRANCH   6   7
ATOM      7  C   UNL     1      60.118  29.179  50.733  1.00  0.00     0.053 C 
BRANCH   7   8
ATOM      8  C   UNL     1      60.945  27.934  50.637  1.00  0.00     0.041 C 
ATOM      9  O   UNL     1      61.136  27.385  49.520  1.00  0.00    -0.550 OA
ATOM     10  O   UNL     1      61.472  27.359  51.785  1.00  0.00    -0.550 OA
ENDBRANCH   7   8
ENDBRANCH   6   7
ENDBRANCH   5   6
ENDBRANCH   4   5
ENDBRANCH   3   4
ENDBRANCH   2   3
ENDBRANCH   1   2
BRANCH   1  11
ATOM     11  C   UNL     1      53.144  27.924  50.038  1.00  0.00    -0.031 C 
ATOM     12  C   UNL     1      53.275  26.632  49.693  1.00  0.00    -0.027 C 
BRANCH  12  13
ATOM     13  C   UNL     1      54.127  25.645  50.454  1.00  0.00     0.054 C 
BRANCH  13  14
ATOM     14  C   UNL     1      55.527  25.616  49.910  1.00  0.00    -0.027 C 
ATOM     15  C   UNL     1      56.594  25.691  50.721  1.00  0.00    -0.031 C 
BRANCH  15  16
ATOM     16  C   UNL     1      57.999  25.669  50.186  1.00  0.00     0.027 C 
BRANCH  16  17
ATOM     17  C   UNL     1      58.938  24.771  51.013  1.00  0.00     0.004 C 
BRANCH  17  18
ATOM     18  C   UNL     1      58.434  24.490  52.440  1.00  0.00     0.000 C 
BRANCH  18  19
ATOM     19  C   UNL     1      59.202  25.272  53.516  1.00  0.00    -0.003 C 
ATOM     20  C   UNL     1      58.572  26.641  53.755  1.00  0.00     0.004 C 
ENDBRANCH  18  19
ENDBRANCH  17  18
ENDBRANCH  16  17
ENDBRANCH  15  16
ENDBRANCH  13  14
ENDBRANCH  12  13
ENDBRANCH   1  11
TORSDOF 14
ENDMDL
MODEL 7
REMARK VINA RESULT:    -3.245     10.157     12.196
REMARK INTER + INTRA:          -8.628
REMARK INTER:                  -5.904
REMARK INTRA:                  -2.723
REMARK UNBOUND:                -2.727
REMARK SMILES CCCCCC=CCC=CCCCCCCCC(=O)[O-]
REMARK SMILES IDX 11 1 12 2 13 3 14 4 15 5 16 6 17 7 18 8 19 9 20 10 10 11
REMARK SMILES IDX 9 12 8 13 7 14 6 15 5 16 4 17 3 18 2 19 1 20
REMARK H PARENT
REMARK Flexibility Score: inf
ROOT
ATOM      1  C   UNL     1      60.505  27.157  50.199  1.00  0.00     0.027 C 
ENDROOT
BRANCH   1   2
ATOM      2  C   UNL     1      59.971  25.738  50.433  1.00  0.00     0.004 C 
BRANCH   2   3
ATOM      3  C   UNL     1      58.516  25.571  49.967  1.00  0.00     0.000 C 
BRANCH   3   4
ATOM      4  C   UNL     1      57.503  25.789  51.104  1.00  0.00     0.000 C 
BRANCH   4   5
ATOM      5  C   UNL     1      58.044  25.357  52.479  1.00  0.00     0.000 C 
BRANCH   5   6
ATOM      6  C   UNL     1      57.915  26.416  53.592  1.00  0.00     0.006 C 
BRANCH   6   7
ATOM      7  C   UNL     1      56.485  26.941  53.811  1.00  0.00     0.053 C 
BRANCH   7   8
ATOM      8  C   UNL     1      55.540  25.847  54.204  1.00  0.00     0.041 C 
ATOM      9  O   UNL     1      54.670  25.440  53.391  1.00  0.00    -0.550 OA
ATOM     10  O   UNL     1      55.595  25.307  55.482  1.00  0.00    -0.550 OA
ENDBRANCH   7   8
ENDBRANCH   6   7
ENDBRANCH   5   6
ENDBRANCH   4   5
ENDBRANCH   3   4
ENDBRANCH   2   3
ENDBRANCH   1   2
BRANCH   1  11
ATOM     11  C   UNL     1      59.598  27.931  49.275  1.00  0.00    -0.031 C 
ATOM     12  C   UNL     1      58.875  29.002  49.641  1.00  0.00    -0.027 C 
BRANCH  12  13
ATOM     13  C   UNL     1      58.846  29.553  51.047  1.00  0.00     0.054 C 
BRANCH  13  14
ATOM     14  C   UNL     1      57.432  29.697  51.535  1.00  0.00    -0.027 C 
ATOM     15  C   UNL     1      56.387  29.431  50.736  1.00  0.00    -0.031 C 
BRANCH  15  16
ATOM     16  C   UNL     1      54.968  29.579  51.213  1.00  0.00     0.027 C 
BRANCH  16  17
ATOM     17  C   UNL     1      54.204  28.242  51.234  1.00  0.00     0.004 C 
BRANCH  17  18
ATOM     18  C   UNL     1      54.560  27.303  50.067  1.00  0.00     0.000 C 
BRANCH  18  19
ATOM     19  C   UNL     1      53.474  26.255  49.783  1.00  0.00    -0.003 C 
ATOM     20  C   UNL     1      54.050  24.842  49.820  1.00  0.00     0.004 C 
ENDBRANCH  18  19
ENDBRANCH  17  18
ENDBRANCH  16  17
ENDBRANCH  15  16
ENDBRANCH  13  14
ENDBRANCH  12  13
ENDBRANCH   1  11
TORSDOF 14
ENDMDL
MODEL 8
REMARK VINA RESULT:    -3.209      2.924      6.230
REMARK INTER + INTRA:          -8.562
REMARK INTER:                  -5.788
REMARK INTRA:                  -2.773
REMARK UNBOUND:                -2.727
REMARK SMILES CCCCCC=CCC=CCCCCCCCC(=O)[O-]
REMARK SMILES IDX 11 1 12 2 13 3 14 4 15 5 16 6 17 7 18 8 19 9 20 10 10 11
REMARK SMILES IDX 9 12 8 13 7 14 6 15 5 16 4 17 3 18 2 19 1 20
REMARK H PARENT
REMARK Flexibility Score: inf
ROOT
ATOM      1  C   UNL     1      62.580  29.247  61.125  1.00  0.00     0.027 C 
ENDROOT
BRANCH   1   2
ATOM      2  C   UNL     1      63.638  29.811  60.167  1.00  0.00     0.004 C 
BRANCH   2   3
ATOM      3  C   UNL     1      64.486  30.919  60.811  1.00  0.00     0.000 C 
BRANCH   3   4
ATOM      4  C   UNL     1      64.609  32.164  59.915  1.00  0.00     0.000 C 
BRANCH   4   5
ATOM      5  C   UNL     1      64.402  33.479  60.686  1.00  0.00     0.000 C 
BRANCH   5   6
ATOM      6  C   UNL     1      62.937  33.948  60.795  1.00  0.00     0.006 C 
BRANCH   6   7
ATOM      7  C   UNL     1      62.744  35.471  60.702  1.00  0.00     0.053 C 
BRANCH   7   8
ATOM      8  C   UNL     1      61.490  35.834  59.967  1.00  0.00     0.041 C 
ATOM      9  O   UNL     1      60.366  35.629  60.494  1.00  0.00    -0.550 OA
ATOM     10  O   UNL     1      61.564  36.361  58.685  1.00  0.00    -0.550 OA
ENDBRANCH   7   8
ENDBRANCH   6   7
ENDBRANCH   5   6
ENDBRANCH   4   5
ENDBRANCH   3   4
ENDBRANCH   2   3
ENDBRANCH   1   2
BRANCH   1  11
ATOM     11  C   UNL     1      61.921  30.351  61.913  1.00  0.00    -0.031 C 
ATOM     12  C   UNL     1      60.815  31.008  61.523  1.00  0.00    -0.027 C 
BRANCH  12  13
ATOM     13  C   UNL     1      60.104  30.749  60.216  1.00  0.00     0.054 C 
BRANCH  13  14
ATOM     14  C   UNL     1      60.274  31.909  59.277  1.00  0.00    -0.027 C 
ATOM     15  C   UNL     1      61.219  31.903  58.324  1.00  0.00    -0.031 C 
BRANCH  15  16
ATOM     16  C   UNL     1      61.402  33.062  57.382  1.00  0.00     0.027 C 
BRANCH  16  17
ATOM     17  C   UNL     1      60.346  33.092  56.262  1.00  0.00     0.004 C 
BRANCH  17  18
ATOM     18  C   UNL     1      59.569  34.418  56.173  1.00  0.00     0.000 C 
BRANCH  18  19
ATOM     19  C   UNL     1      58.743  34.719  57.433  1.00  0.00    -0.003 C 
ATOM     20  C   UNL     1      57.559  33.764  57.555  1.00  0.00     0.004 C 
ENDBRANCH  18  19
ENDBRANCH  17  18
ENDBRANCH  16  17
ENDBRANCH  15  16
ENDBRANCH  13  14
ENDBRANCH  12  13
ENDBRANCH   1  11
TORSDOF 14
ENDMDL
MODEL 9
REMARK VINA RESULT:    -3.170      2.714      5.814
REMARK INTER + INTRA:          -8.490
REMARK INTER:                  -5.823
REMARK INTRA:                  -2.667
REMARK UNBOUND:                -2.727
REMARK SMILES CCCCCC=CCC=CCCCCCCCC(=O)[O-]
REMARK SMILES IDX 11 1 12 2 13 3 14 4 15 5 16 6 17 7 18 8 19 9 20 10 10 11
REMARK SMILES IDX 9 12 8 13 7 14 6 15 5 16 4 17 3 18 2 19 1 20
REMARK H PARENT
REMARK Flexibility Score: inf
ROOT
ATOM      1  C   UNL     1      62.958  30.050  60.695  1.00  0.00     0.027 C 
ENDROOT
BRANCH   1   2
ATOM      2  C   UNL     1      64.217  30.760  61.211  1.00  0.00     0.004 C 
BRANCH   2   3
ATOM      3  C   UNL     1      64.503  32.072  60.465  1.00  0.00     0.000 C 
BRANCH   3   4
ATOM      4  C   UNL     1      65.230  31.845  59.128  1.00  0.00     0.000 C 
BRANCH   4   5
ATOM      5  C   UNL     1      64.915  32.931  58.083  1.00  0.00     0.000 C 
BRANCH   5   6
ATOM      6  C   UNL     1      63.420  33.090  57.740  1.00  0.00     0.006 C 
BRANCH   6   7
ATOM      7  C   UNL     1      62.780  31.854  57.084  1.00  0.00     0.053 C 
BRANCH   7   8
ATOM      8  C   UNL     1      62.516  32.067  55.625  1.00  0.00     0.041 C 
ATOM      9  O   UNL     1      61.479  31.592  55.093  1.00  0.00    -0.550 OA
ATOM     10  O   UNL     1      63.435  32.756  54.845  1.00  0.00    -0.550 OA
ENDBRANCH   7   8
ENDBRANCH   6   7
ENDBRANCH   5   6
ENDBRANCH   4   5
ENDBRANCH   3   4
ENDBRANCH   2   3
ENDBRANCH   1   2
BRANCH   1  11
ATOM     11  C   UNL     1      61.792  30.278  61.623  1.00  0.00    -0.031 C 
ATOM     12  C   UNL     1      60.808  31.167  61.405  1.00  0.00    -0.027 C 
BRANCH  12  13
ATOM     13  C   UNL     1      60.764  32.090  60.210  1.00  0.00     0.054 C 
BRANCH  13  14
ATOM     14  C   UNL     1      61.314  33.443  60.559  1.00  0.00    -0.027 C 
ATOM     15  C   UNL     1      60.709  34.569  60.150  1.00  0.00    -0.031 C 
BRANCH  15  16
ATOM     16  C   UNL     1      61.255  35.930  60.488  1.00  0.00     0.027 C 
BRANCH  16  17
ATOM     17  C   UNL     1      62.715  35.881  60.977  1.00  0.00     0.004 C 
BRANCH  17  18
ATOM     18  C   UNL     1      63.754  36.072  59.858  1.00  0.00     0.000 C 
BRANCH  18  19
ATOM     19  C   UNL     1      65.203  35.997  60.361  1.00  0.00    -0.003 C 
ATOM     20  C   UNL     1      65.258  35.533  61.814  1.00  0.00     0.004 C 
ENDBRANCH  18  19
ENDBRANCH  17  18
ENDBRANCH  16  17
ENDBRANCH  15  16
ENDBRANCH  13  14
ENDBRANCH  12  13
ENDBRANCH   1  11
TORSDOF 14
ENDMDL
