MODEL 1
REMARK VINA RESULT:    -4.248      0.000      0.000
REMARK INTER + INTRA:          -6.204
REMARK INTER:                  -5.738
REMARK INTRA:                  -0.466
REMARK UNBOUND:                -0.466
REMARK SMILES CCCCCCCC(=O)[O-]
REMARK SMILES IDX 5 1 6 2 7 3 8 4 9 5 10 6 4 7 3 8 2 9 1 10
REMARK H PARENT
REMARK Flexibility Score: inf
ROOT
ATOM      1  C   UNL     1      10.592  -0.280  33.734  1.00  0.00     0.000 C 
ENDROOT
BRANCH   1   2
ATOM      2  C   UNL     1       9.119   0.058  34.011  1.00  0.00     0.006 C 
BRANCH   2   3
ATOM      3  C   UNL     1       8.948   1.460  34.611  1.00  0.00     0.053 C 
BRANCH   3   4
ATOM      4  C   UNL     1       8.508   1.403  36.042  1.00  0.00     0.041 C 
ATOM      5  O   UNL     1       7.359   0.977  36.335  1.00  0.00    -0.550 OA
ATOM      6  O   UNL     1       9.378   1.786  37.055  1.00  0.00    -0.550 OA
ENDBRANCH   3   4
ENDBRANCH   2   3
ENDBRANCH   1   2
BRANCH   1   7
ATOM      7  C   UNL     1      11.494   0.933  34.004  1.00  0.00     0.000 C 
BRANCH   7   8
ATOM      8  C   UNL     1      12.729   0.584  34.851  1.00  0.00    -0.000 C 
BRANCH   8   9
ATOM      9  C   UNL     1      13.049   1.630  35.940  1.00  0.00    -0.003 C 
ATOM     10  C   UNL     1      12.483   3.009  35.605  1.00  0.00     0.004 C 
ENDBRANCH   8   9
ENDBRANCH   7   8
ENDBRANCH   1   7
TORSDOF 6
ENDMDL
MODEL 2
REMARK VINA RESULT:    -4.246      2.153      4.009
REMARK INTER + INTRA:          -6.201
REMARK INTER:                  -5.660
REMARK INTRA:                  -0.541
REMARK UNBOUND:                -0.466
REMARK SMILES CCCCCCCC(=O)[O-]
REMARK SMILES IDX 5 1 6 2 7 3 8 4 9 5 10 6 4 7 3 8 2 9 1 10
REMARK H PARENT
REMARK Flexibility Score: inf
ROOT
ATOM      1  C   UNL     1      11.351   0.897  33.868  1.00  0.00     0.000 C 
ENDROOT
BRANCH   1   2
ATOM      2  C   UNL     1      12.665   0.453  34.528  1.00  0.00     0.006 C 
BRANCH   2   3
ATOM      3  C   UNL     1      13.122   1.426  35.623  1.00  0.00     0.053 C 
BRANCH   3   4
ATOM      4  C   UNL     1      12.965   2.854  35.199  1.00  0.00     0.041 C 
ATOM      5  O   UNL     1      12.186   3.619  35.828  1.00  0.00    -0.550 OA
ATOM      6  O   UNL     1      13.705   3.350  34.133  1.00  0.00    -0.550 OA
ENDBRANCH   3   4
ENDBRANCH   2   3
ENDBRANCH   1   2
BRANCH   1   7
ATOM      7  C   UNL     1      10.297  -0.217  33.937  1.00  0.00     0.000 C 
BRANCH   7   8
ATOM      8  C   UNL     1       9.093   0.152  34.818  1.00  0.00    -0.000 C 
BRANCH   8   9
ATOM      9  C   UNL     1       9.160   1.584  35.392  1.00  0.00    -0.003 C 
ATOM     10  C   UNL     1       9.461   1.596  36.890  1.00  0.00     0.004 C 
ENDBRANCH   8   9
ENDBRANCH   7   8
ENDBRANCH   1   7
TORSDOF 6
ENDMDL
MODEL 3
REMARK VINA RESULT:    -4.241      2.413      3.901
REMARK INTER + INTRA:          -6.195
REMARK INTER:                  -5.573
REMARK INTRA:                  -0.622
REMARK UNBOUND:                -0.466
REMARK SMILES CCCCCCCC(=O)[O-]
REMARK SMILES IDX 5 1 6 2 7 3 8 4 9 5 10 6 4 7 3 8 2 9 1 10
REMARK H PARENT
REMARK Flexibility Score: inf
ROOT
ATOM      1  C   UNL     1      12.230   0.282  34.511  1.00  0.00     0.000 C 
ENDROOT
BRANCH   1   2
ATOM      2  C   UNL     1      13.120   1.525  34.355  1.00  0.00     0.006 C 
BRANCH   2   3
ATOM      3  C   UNL     1      13.103   2.410  35.609  1.00  0.00     0.053 C 
BRANCH   3   4
ATOM      4  C   UNL     1      12.463   3.739  35.343  1.00  0.00     0.041 C 
ATOM      5  O   UNL     1      11.950   3.981  34.218  1.00  0.00    -0.550 OA
ATOM      6  O   UNL     1      12.402   4.696  36.347  1.00  0.00    -0.550 OA
ENDBRANCH   3   4
ENDBRANCH   2   3
ENDBRANCH   1   2
BRANCH   1   7
ATOM      7  C   UNL     1      10.884   0.477  33.798  1.00  0.00     0.000 C 
BRANCH   7   8
ATOM      8  C   UNL     1       9.678   0.272  34.729  1.00  0.00    -0.000 C 
BRANCH   8   9
ATOM      9  C   UNL     1       9.187   1.572  35.401  1.00  0.00    -0.003 C 
ATOM     10  C   UNL     1       9.621   1.671  36.863  1.00  0.00     0.004 C 
ENDBRANCH   8   9
ENDBRANCH   7   8
ENDBRANCH   1   7
TORSDOF 6
ENDMDL
MODEL 4
REMARK VINA RESULT:    -4.211      2.544      4.149
REMARK INTER + INTRA:          -6.154
REMARK INTER:                  -5.722
REMARK INTRA:                  -0.432
REMARK UNBOUND:                -0.466
REMARK SMILES CCCCCCCC(=O)[O-]
REMARK SMILES IDX 5 1 6 2 7 3 8 4 9 5 10 6 4 7 3 8 2 9 1 10
REMARK H PARENT
REMARK Flexibility Score: inf
ROOT
ATOM      1  C   UNL     1      10.136  -0.338  33.736  1.00  0.00     0.000 C 
ENDROOT
BRANCH   1   2
ATOM      2  C   UNL     1      11.016   0.914  33.874  1.00  0.00     0.006 C 
BRANCH   2   3
ATOM      3  C   UNL     1      12.231   0.672  34.779  1.00  0.00     0.053 C 
BRANCH   3   4
ATOM      4  C   UNL     1      13.168   1.842  34.777  1.00  0.00     0.041 C 
ATOM      5  O   UNL     1      13.723   2.206  33.706  1.00  0.00    -0.550 OA
ATOM      6  O   UNL     1      13.400   2.551  35.948  1.00  0.00    -0.550 OA
ENDBRANCH   3   4
ENDBRANCH   2   3
ENDBRANCH   1   2
BRANCH   1   7
ATOM      7  C   UNL     1       8.681  -0.032  34.118  1.00  0.00     0.000 C 
BRANCH   7   8
ATOM      8  C   UNL     1       8.423  -0.148  35.630  1.00  0.00    -0.000 C 
BRANCH   8   9
ATOM      9  C   UNL     1       8.181   1.211  36.322  1.00  0.00    -0.003 C 
ATOM     10  C   UNL     1       9.418   1.714  37.065  1.00  0.00     0.004 C 
ENDBRANCH   8   9
ENDBRANCH   7   8
ENDBRANCH   1   7
TORSDOF 6
ENDMDL
MODEL 5
REMARK VINA RESULT:    -4.180     17.729     18.254
REMARK INTER + INTRA:          -6.113
REMARK INTER:                  -5.459
REMARK INTRA:                  -0.654
REMARK UNBOUND:                -0.466
REMARK SMILES CCCCCCCC(=O)[O-]
REMARK SMILES IDX 5 1 6 2 7 3 8 4 9 5 10 6 4 7 3 8 2 9 1 10
REMARK H PARENT
REMARK Flexibility Score: inf
ROOT
ATOM      1  C   UNL     1      13.773 -12.382  48.030  1.00  0.00     0.000 C 
ENDROOT
BRANCH   1   2
ATOM      2  C   UNL     1      12.566 -12.429  47.080  1.00  0.00     0.006 C 
BRANCH   2   3
ATOM      3  C   UNL     1      12.382 -11.114  46.311  1.00  0.00     0.053 C 
BRANCH   3   4
ATOM      4  C   UNL     1      11.330 -10.248  46.934  1.00  0.00     0.041 C 
ATOM      5  O   UNL     1      11.600  -9.061  47.262  1.00  0.00    -0.550 OA
ATOM      6  O   UNL     1      10.044 -10.737  47.119  1.00  0.00    -0.550 OA
ENDBRANCH   3   4
ENDBRANCH   2   3
ENDBRANCH   1   2
BRANCH   1   7
ATOM      7  C   UNL     1      13.317 -12.261  49.491  1.00  0.00     0.000 C 
BRANCH   7   8
ATOM      8  C   UNL     1      13.312 -10.809  49.998  1.00  0.00    -0.000 C 
BRANCH   8   9
ATOM      9  C   UNL     1      11.944 -10.349  50.545  1.00  0.00    -0.003 C 
ATOM     10  C   UNL     1      10.881 -11.442  50.449  1.00  0.00     0.004 C 
ENDBRANCH   8   9
ENDBRANCH   7   8
ENDBRANCH   1   7
TORSDOF 6
ENDMDL
MODEL 6
REMARK VINA RESULT:    -4.177      2.734      4.565
REMARK INTER + INTRA:          -6.108
REMARK INTER:                  -5.732
REMARK INTRA:                  -0.376
REMARK UNBOUND:                -0.466
REMARK SMILES CCCCCCCC(=O)[O-]
REMARK SMILES IDX 5 1 6 2 7 3 8 4 9 5 10 6 4 7 3 8 2 9 1 10
REMARK H PARENT
REMARK Flexibility Score: inf
ROOT
ATOM      1  C   UNL     1       9.520   1.527  36.914  1.00  0.00     0.000 C 
ENDROOT
BRANCH   1   2
ATOM      2  C   UNL     1      10.609   2.189  36.055  1.00  0.00     0.006 C 
BRANCH   2   3
ATOM      3  C   UNL     1      11.931   1.413  36.095  1.00  0.00     0.053 C 
BRANCH   3   4
ATOM      4  C   UNL     1      13.024   2.136  35.367  1.00  0.00     0.041 C 
ATOM      5  O   UNL     1      13.553   3.160  35.875  1.00  0.00    -0.550 OA
ATOM      6  O   UNL     1      13.481   1.659  34.145  1.00  0.00    -0.550 OA
ENDBRANCH   3   4
ENDBRANCH   2   3
ENDBRANCH   1   2
BRANCH   1   7
ATOM      7  C   UNL     1       8.285   1.185  36.067  1.00  0.00     0.000 C 
BRANCH   7   8
ATOM      8  C   UNL     1       8.380  -0.199  35.404  1.00  0.00    -0.000 C 
BRANCH   8   9
ATOM      9  C   UNL     1       8.672  -0.141  33.889  1.00  0.00    -0.003 C 
ATOM     10  C   UNL     1      10.153  -0.346  33.575  1.00  0.00     0.004 C 
ENDBRANCH   8   9
ENDBRANCH   7   8
ENDBRANCH   1   7
TORSDOF 6
ENDMDL
MODEL 7
REMARK VINA RESULT:    -4.092      0.648      1.237
REMARK INTER + INTRA:          -5.993
REMARK INTER:                  -5.446
REMARK INTRA:                  -0.547
REMARK UNBOUND:                -0.466
REMARK SMILES CCCCCCCC(=O)[O-]
REMARK SMILES IDX 5 1 6 2 7 3 8 4 9 5 10 6 4 7 3 8 2 9 1 10
REMARK H PARENT
REMARK Flexibility Score: inf
ROOT
ATOM      1  C   UNL     1      11.236   0.013  34.123  1.00  0.00     0.000 C 
ENDROOT
BRANCH   1   2
ATOM      2  C   UNL     1       9.750   0.343  33.916  1.00  0.00     0.006 C 
BRANCH   2   3
ATOM      3  C   UNL     1       9.347   1.656  34.600  1.00  0.00     0.053 C 
BRANCH   3   4
ATOM      4  C   UNL     1       8.897   1.433  36.012  1.00  0.00     0.041 C 
ATOM      5  O   UNL     1       9.692   1.633  36.969  1.00  0.00    -0.550 OA
ATOM      6  O   UNL     1       7.591   1.039  36.274  1.00  0.00    -0.550 OA
ENDBRANCH   3   4
ENDBRANCH   2   3
ENDBRANCH   1   2
BRANCH   1   7
ATOM      7  C   UNL     1      12.082   1.293  34.170  1.00  0.00     0.000 C 
BRANCH   7   8
ATOM      8  C   UNL     1      13.097   1.297  35.325  1.00  0.00    -0.000 C 
BRANCH   8   9
ATOM      9  C   UNL     1      13.287   2.682  35.979  1.00  0.00    -0.003 C 
ATOM     10  C   UNL     1      12.399   3.751  35.343  1.00  0.00     0.004 C 
ENDBRANCH   8   9
ENDBRANCH   7   8
ENDBRANCH   1   7
TORSDOF 6
ENDMDL
MODEL 8
REMARK VINA RESULT:    -4.064     17.922     18.506
REMARK INTER + INTRA:          -5.956
REMARK INTER:                  -5.458
REMARK INTRA:                  -0.498
REMARK UNBOUND:                -0.466
REMARK SMILES CCCCCCCC(=O)[O-]
REMARK SMILES IDX 5 1 6 2 7 3 8 4 9 5 10 6 4 7 3 8 2 9 1 10
REMARK H PARENT
REMARK Flexibility Score: inf
ROOT
ATOM      1  C   UNL     1      13.785 -12.348  47.873  1.00  0.00     0.000 C 
ENDROOT
BRANCH   1   2
ATOM      2  C   UNL     1      13.066 -12.225  49.226  1.00  0.00     0.006 C 
BRANCH   2   3
ATOM      3  C   UNL     1      13.201 -10.822  49.829  1.00  0.00     0.053 C 
BRANCH   3   4
ATOM      4  C   UNL     1      11.945 -10.392  50.525  1.00  0.00     0.041 C 
ATOM      5  O   UNL     1      10.926 -11.132  50.507  1.00  0.00    -0.550 OA
ATOM      6  O   UNL     1      11.911  -9.192  51.224  1.00  0.00    -0.550 OA
ENDBRANCH   3   4
ENDBRANCH   2   3
ENDBRANCH   1   2
BRANCH   1   7
ATOM      7  C   UNL     1      13.124 -11.451  46.816  1.00  0.00     0.000 C 
BRANCH   7   8
ATOM      8  C   UNL     1      11.605 -11.670  46.712  1.00  0.00    -0.000 C 
BRANCH   8   9
ATOM      9  C   UNL     1      10.775 -10.398  46.988  1.00  0.00    -0.003 C 
ATOM     10  C   UNL     1       9.342 -10.719  47.408  1.00  0.00     0.004 C 
ENDBRANCH   8   9
ENDBRANCH   7   8
ENDBRANCH   1   7
TORSDOF 6
ENDMDL
MODEL 9
REMARK VINA RESULT:    -4.042      2.009      2.546
REMARK INTER + INTRA:          -5.925
REMARK INTER:                  -5.589
REMARK INTRA:                  -0.336
REMARK UNBOUND:                -0.466
REMARK SMILES CCCCCCCC(=O)[O-]
REMARK SMILES IDX 5 1 6 2 7 3 8 4 9 5 10 6 4 7 3 8 2 9 1 10
REMARK H PARENT
REMARK Flexibility Score: inf
ROOT
ATOM      1  C   UNL     1       9.815   1.255  36.710  1.00  0.00     0.000 C 
ENDROOT
BRANCH   1   2
ATOM      2  C   UNL     1       8.466   1.115  35.986  1.00  0.00     0.006 C 
BRANCH   2   3
ATOM      3  C   UNL     1       8.625   1.105  34.460  1.00  0.00     0.053 C 
BRANCH   3   4
ATOM      4  C   UNL     1       8.981  -0.257  33.947  1.00  0.00     0.041 C 
ATOM      5  O   UNL     1       8.086  -1.130  33.794  1.00  0.00    -0.550 OA
ATOM      6  O   UNL     1      10.294  -0.550  33.603  1.00  0.00    -0.550 OA
ENDBRANCH   3   4
ENDBRANCH   2   3
ENDBRANCH   1   2
BRANCH   1   7
ATOM      7  C   UNL     1      10.759   2.187  35.937  1.00  0.00     0.000 C 
BRANCH   7   8
ATOM      8  C   UNL     1      12.159   1.584  35.732  1.00  0.00    -0.000 C 
BRANCH   8   9
ATOM      9  C   UNL     1      13.294   2.631  35.760  1.00  0.00    -0.003 C 
ATOM     10  C   UNL     1      12.764   4.060  35.870  1.00  0.00     0.004 C 
ENDBRANCH   8   9
ENDBRANCH   7   8
ENDBRANCH   1   7
TORSDOF 6
ENDMDL
