MODEL 1
REMARK VINA RESULT:   138.870      0.000      0.000
REMARK INTER + INTRA:         150.584
REMARK INTER:                 151.048
REMARK INTRA:                  -0.464
REMARK UNBOUND:                -0.464
REMARK SMILES C=C(C)[C@@H]1CC[C@@]2(C)CC[C@@]3(C)[C@H](CC[C@@H]4[C@@]5(C)CC[C@@H](O)C(C)(C)[C@@H]5CC[C@@]43C)[C@@H]12
REMARK SMILES IDX 4 1 5 2 6 3 7 4 31 5 13 6 14 7 15 8 16 9 17 10 19 11 20 12
REMARK SMILES IDX 21 13 23 14 26 15 27 16 28 17 29 18 11 19 10 20 9 21 12 22
REMARK SMILES IDX 30 23 24 24 25 25 18 26 8 27 2 28 3 29 1 30 22 31
REMARK H PARENT 22 32
REMARK Flexibility Score: inf
ROOT
ATOM      1  C   UNL     1     -31.221  29.140 -18.462  1.00  0.00     0.018 C 
ATOM      2  C   UNL     1     -31.681  30.607 -18.440  1.00  0.00     0.009 C 
ATOM      3  C   UNL     1     -30.972  31.276 -17.266  1.00  0.00     0.008 C 
ATOM      4  C   UNL     1     -30.438  30.156 -16.349  1.00  0.00    -0.029 C 
ATOM      5  C   UNL     1     -30.181  28.989 -17.325  1.00  0.00     0.006 C 
ATOM      6  C   UNL     1     -30.096  27.546 -16.697  1.00  0.00    -0.000 C 
ATOM      7  C   UNL     1     -28.617  27.181 -16.373  1.00  0.00     0.005 C 
ATOM      8  C   UNL     1     -28.318  26.981 -14.897  1.00  0.00     0.005 C 
ATOM      9  C   UNL     1     -29.173  25.870 -14.252  1.00  0.00     0.002 C 
ATOM     10  C   UNL     1     -28.397  24.462 -14.195  1.00  0.00    -0.026 C 
ATOM     11  C   UNL     1     -27.278  24.555 -13.077  1.00  0.00     0.010 C 
ATOM     12  C   UNL     1     -27.319  23.443 -12.028  1.00  0.00     0.033 C 
ATOM     13  C   UNL     1     -27.465  22.082 -12.712  1.00  0.00     0.120 C 
ATOM     14  C   UNL     1     -28.876  21.930 -13.379  1.00  0.00    -0.006 C 
ATOM     15  C   UNL     1     -29.442  23.343 -13.858  1.00  0.00     0.003 C 
ATOM     16  C   UNL     1     -30.539  23.246 -14.958  1.00  0.00     0.005 C 
ATOM     17  C   UNL     1     -30.960  24.597 -15.588  1.00  0.00     0.008 C 
ATOM     18  C   UNL     1     -30.713  25.869 -14.713  1.00  0.00    -0.024 C 
ATOM     19  C   UNL     1     -31.140  27.211 -15.542  1.00  0.00    -0.024 C 
ATOM     20  C   UNL     1     -31.281  28.447 -14.584  1.00  0.00     0.008 C 
ATOM     21  C   UNL     1     -31.507  29.801 -15.290  1.00  0.00     0.007 C 
ATOM     22  C   UNL     1     -32.549  26.975 -16.208  1.00  0.00     0.012 C 
ATOM     23  C   UNL     1     -31.642  25.737 -13.437  1.00  0.00     0.012 C 
ATOM     24  C   UNL     1     -28.753  20.889 -14.526  1.00  0.00     0.014 C 
ATOM     25  C   UNL     1     -29.879  21.332 -12.348  1.00  0.00     0.014 C 
ATOM     26  C   UNL     1     -27.676  24.104 -15.536  1.00  0.00     0.012 C 
ATOM     27  C   UNL     1     -29.147  30.660 -15.659  1.00  0.00     0.011 C 
ENDROOT
BRANCH   1  28
ATOM     28  C   UNL     1     -30.689  28.695 -19.825  1.00  0.00    -0.077 C 
ATOM     29  C   UNL     1     -31.066  27.340 -20.373  1.00  0.00     0.039 C 
ATOM     30  C   UNL     1     -29.887  29.485 -20.562  1.00  0.00     0.008 C 
ENDBRANCH   1  28
BRANCH  13  31
ATOM     31  O   UNL     1     -27.237  21.060 -11.771  1.00  0.00    -0.393 OA
ATOM     32  H   UNL     1     -27.070  20.223 -12.279  1.00  0.00     0.210 HD
ENDBRANCH  13  31
TORSDOF 2
ENDMDL
