MODEL 1
REMARK VINA RESULT:    -3.925      0.000      0.000
REMARK INTER + INTRA:          -6.286
REMARK INTER:                  -5.990
REMARK INTRA:                  -0.297
REMARK UNBOUND:                -0.297
REMARK SMILES CC1=CCC[C@H](C)C(=O)C[C@@H](C(C)C)C(=O)C1
REMARK SMILES IDX 8 1 9 2 6 3 7 4 5 5 4 6 3 7 2 8 1 9 10 11 11 12 15 13 16 14
REMARK SMILES IDX 17 15 12 17 13 18 14 19
REMARK H PARENT
REMARK Flexibility Score: 70.00
ROOT
ATOM      1  C   UNL     1     -25.150   3.291  -2.443  1.00  0.00     0.136 C 
ATOM      2  O   UNL     1     -26.250   3.537  -2.921  1.00  0.00    -0.299 OA
ENDROOT
BRANCH   1   3
ATOM      3  C   UNL     1     -24.656   4.151  -1.285  1.00  0.00     0.053 C 
ATOM      4  C   UNL     1     -25.450   5.465  -1.214  1.00  0.00     0.016 C 
BRANCH   3   5
ATOM      5  C   UNL     1     -24.755   3.401   0.064  1.00  0.00     0.015 C 
BRANCH   5   6
ATOM      6  C   UNL     1     -23.395   3.070   0.702  1.00  0.00     0.028 C 
BRANCH   6   7
ATOM      7  C   UNL     1     -23.353   1.663   1.250  1.00  0.00    -0.028 C 
ATOM      8  C   UNL     1     -22.984   0.550   0.571  1.00  0.00    -0.070 CG0
ATOM      9  C   UNL     1     -22.992  -0.761   1.318  1.00  0.00     0.039 C 
ATOM     10  G   UNL     1     -22.521   0.550  -0.877  1.00  0.00     0.000 G0
ENDBRANCH   6   7
ENDBRANCH   5   6
ENDBRANCH   3   5
ENDBRANCH   1   3
BRANCH   1  11
ATOM     11  C   UNL     1     -24.428   2.058  -2.959  1.00  0.00     0.087 C 
BRANCH  11  12
ATOM     12  C   UNL     1     -24.745   0.687  -2.302  1.00  0.00     0.066 C 
BRANCH  12  13
ATOM     13  C   UNL     1     -23.511  -0.079  -1.836  1.00  0.00     0.140 C 
ATOM     14  O   UNL     1     -23.346  -1.245  -2.162  1.00  0.00    -0.299 OA
BRANCH  13  15
ATOM     15  C   UNL     1     -22.509   0.554  -0.898  1.00  0.00     0.106 CG0
ATOM     16  G   UNL     1     -23.002   0.534   0.539  1.00  0.00     0.000 G0
ENDBRANCH  13  15
ENDBRANCH  12  13
BRANCH  12  17
ATOM     17  C   UNL     1     -25.814  -0.143  -3.093  1.00  0.00    -0.006 C 
ATOM     18  C   UNL     1     -27.226  -0.128  -2.481  1.00  0.00     0.008 C 
ATOM     19  C   UNL     1     -25.866   0.255  -4.578  1.00  0.00     0.008 C 
ENDBRANCH  12  17
ENDBRANCH  11  12
ENDBRANCH   1  11
TORSDOF 1
ENDMDL
MODEL 2
REMARK VINA RESULT:    -3.786      2.196      4.096
REMARK INTER + INTRA:          -6.074
REMARK INTER:                  -5.784
REMARK INTRA:                  -0.291
REMARK UNBOUND:                -0.297
REMARK SMILES CC1=CCC[C@H](C)C(=O)C[C@@H](C(C)C)C(=O)C1
REMARK SMILES IDX 8 1 9 2 6 3 7 4 5 5 4 6 3 7 2 8 1 9 10 11 11 12 15 13 16 14
REMARK SMILES IDX 17 15 12 17 13 18 14 19
REMARK H PARENT
REMARK Flexibility Score: 70.00
ROOT
ATOM      1  C   UNL     1     -24.497   0.894   0.624  1.00  0.00     0.136 C 
ATOM      2  O   UNL     1     -24.847   1.253   1.740  1.00  0.00    -0.299 OA
ENDROOT
BRANCH   1   3
ATOM      3  C   UNL     1     -23.310  -0.056   0.509  1.00  0.00     0.053 C 
ATOM      4  C   UNL     1     -23.125  -0.510  -0.948  1.00  0.00     0.016 C 
BRANCH   3   5
ATOM      5  C   UNL     1     -22.006   0.594   1.027  1.00  0.00     0.015 C 
BRANCH   5   6
ATOM      6  C   UNL     1     -21.536   1.806   0.205  1.00  0.00     0.028 C 
BRANCH   6   7
ATOM      7  C   UNL     1     -21.780   3.110   0.926  1.00  0.00    -0.028 C 
ATOM      8  C   UNL     1     -22.437   4.187   0.432  1.00  0.00    -0.070 CG0
ATOM      9  C   UNL     1     -22.590   5.388   1.334  1.00  0.00     0.039 C 
ATOM     10  G   UNL     1     -23.067   4.241  -0.950  1.00  0.00     0.000 G0
ENDBRANCH   6   7
ENDBRANCH   5   6
ENDBRANCH   3   5
ENDBRANCH   1   3
BRANCH   1  11
ATOM     11  C   UNL     1     -25.365   1.320  -0.549  1.00  0.00     0.087 C 
BRANCH  11  12
ATOM     12  C   UNL     1     -24.779   2.330  -1.573  1.00  0.00     0.066 C 
BRANCH  12  13
ATOM     13  C   UNL     1     -24.481   3.706  -0.987  1.00  0.00     0.140 C 
ATOM     14  O   UNL     1     -25.389   4.419  -0.587  1.00  0.00    -0.299 OA
BRANCH  13  15
ATOM     15  C   UNL     1     -23.072   4.253  -0.961  1.00  0.00     0.106 CG0
ATOM     16  G   UNL     1     -22.473   4.179   0.434  1.00  0.00     0.000 G0
ENDBRANCH  13  15
ENDBRANCH  12  13
BRANCH  12  17
ATOM     17  C   UNL     1     -25.526   2.313  -2.950  1.00  0.00    -0.006 C 
ATOM     18  C   UNL     1     -24.627   2.554  -4.176  1.00  0.00     0.008 C 
ATOM     19  C   UNL     1     -26.360   1.034  -3.137  1.00  0.00     0.008 C 
ENDBRANCH  12  17
ENDBRANCH  11  12
ENDBRANCH   1  11
TORSDOF 1
ENDMDL
MODEL 3
REMARK VINA RESULT:    -3.583      2.504      3.389
REMARK INTER + INTRA:          -5.764
REMARK INTER:                  -5.604
REMARK INTRA:                  -0.161
REMARK UNBOUND:                -0.297
REMARK SMILES CC1=CCC[C@H](C)C(=O)C[C@@H](C(C)C)C(=O)C1
REMARK SMILES IDX 8 1 9 2 6 3 7 4 5 5 4 6 3 7 2 8 1 9 10 11 11 12 15 13 16 14
REMARK SMILES IDX 17 15 12 17 13 18 14 19
REMARK H PARENT
REMARK Flexibility Score: 70.00
ROOT
ATOM      1  C   UNL     1     -24.393   3.740  -1.446  1.00  0.00     0.136 C 
ATOM      2  O   UNL     1     -25.387   3.267  -1.979  1.00  0.00    -0.299 OA
ENDROOT
BRANCH   1   3
ATOM      3  C   UNL     1     -24.495   5.131  -0.828  1.00  0.00     0.053 C 
ATOM      4  C   UNL     1     -25.905   5.706  -1.030  1.00  0.00     0.016 C 
BRANCH   3   5
ATOM      5  C   UNL     1     -24.144   5.112   0.678  1.00  0.00     0.015 C 
BRANCH   5   6
ATOM      6  C   UNL     1     -22.831   5.832   1.029  1.00  0.00     0.028 C 
BRANCH   6   7
ATOM      7  C   UNL     1     -22.100   5.159   2.166  1.00  0.00    -0.028 C 
ATOM      8  C   UNL     1     -21.247   4.111   2.062  1.00  0.00    -0.070 CG0
ATOM      9  C   UNL     1     -20.604   3.604   3.329  1.00  0.00     0.039 C 
ATOM     10  G   UNL     1     -20.867   3.450   0.747  1.00  0.00     0.000 G0
ENDBRANCH   6   7
ENDBRANCH   5   6
ENDBRANCH   3   5
ENDBRANCH   1   3
BRANCH   1  11
ATOM     11  C   UNL     1     -23.174   2.841  -1.324  1.00  0.00     0.087 C 
BRANCH  11  12
ATOM     12  C   UNL     1     -22.968   2.049  -0.004  1.00  0.00     0.066 C 
BRANCH  12  13
ATOM     13  C   UNL     1     -21.549   2.123   0.550  1.00  0.00     0.140 C 
ATOM     14  O   UNL     1     -20.971   1.108   0.910  1.00  0.00    -0.299 OA
BRANCH  13  15
ATOM     15  C   UNL     1     -20.855   3.451   0.741  1.00  0.00     0.106 CG0
ATOM     16  G   UNL     1     -21.239   4.094   2.064  1.00  0.00     0.000 G0
ENDBRANCH  13  15
ENDBRANCH  12  13
BRANCH  12  17
ATOM     17  C   UNL     1     -23.626   0.627  -0.030  1.00  0.00    -0.006 C 
ATOM     18  C   UNL     1     -25.048   0.562   0.556  1.00  0.00     0.008 C 
ATOM     19  C   UNL     1     -23.593   0.004  -1.436  1.00  0.00     0.008 C 
ENDBRANCH  12  17
ENDBRANCH  11  12
ENDBRANCH   1  11
TORSDOF 1
ENDMDL
MODEL 4
REMARK VINA RESULT:    -3.465      2.017      3.925
REMARK INTER + INTRA:          -5.585
REMARK INTER:                  -5.465
REMARK INTRA:                  -0.120
REMARK UNBOUND:                -0.297
REMARK SMILES CC1=CCC[C@H](C)C(=O)C[C@@H](C(C)C)C(=O)C1
REMARK SMILES IDX 8 1 9 2 6 3 7 4 5 5 4 6 3 7 2 8 1 9 10 11 11 12 15 13 16 14
REMARK SMILES IDX 17 15 12 17 13 18 14 19
REMARK H PARENT
REMARK Flexibility Score: 70.00
ROOT
ATOM      1  C   UNL     1     -25.132   0.563   0.427  1.00  0.00     0.136 C 
ATOM      2  O   UNL     1     -26.104   1.074   0.966  1.00  0.00    -0.299 OA
ENDROOT
BRANCH   1   3
ATOM      3  C   UNL     1     -23.818   0.515   1.200  1.00  0.00     0.053 C 
ATOM      4  C   UNL     1     -22.856  -0.499   0.559  1.00  0.00     0.016 C 
BRANCH   3   5
ATOM      5  C   UNL     1     -23.147   1.906   1.271  1.00  0.00     0.015 C 
BRANCH   5   6
ATOM      6  C   UNL     1     -22.957   2.585  -0.096  1.00  0.00     0.028 C 
BRANCH   6   7
ATOM      7  C   UNL     1     -23.936   3.715  -0.309  1.00  0.00    -0.028 C 
ATOM      8  C   UNL     1     -24.627   3.973  -1.446  1.00  0.00    -0.070 CG0
ATOM      9  C   UNL     1     -25.575   5.147  -1.437  1.00  0.00     0.039 C 
ATOM     10  G   UNL     1     -24.539   3.128  -2.706  1.00  0.00     0.000 G0
ENDBRANCH   6   7
ENDBRANCH   5   6
ENDBRANCH   3   5
ENDBRANCH   1   3
BRANCH   1  11
ATOM     11  C   UNL     1     -25.354  -0.106  -0.919  1.00  0.00     0.087 C 
BRANCH  11  12
ATOM     12  C   UNL     1     -24.713   0.537  -2.179  1.00  0.00     0.066 C 
BRANCH  12  13
ATOM     13  C   UNL     1     -25.361   1.852  -2.602  1.00  0.00     0.140 C 
ATOM     14  O   UNL     1     -26.541   1.888  -2.917  1.00  0.00    -0.299 OA
BRANCH  13  15
ATOM     15  C   UNL     1     -24.546   3.119  -2.721  1.00  0.00     0.106 CG0
ATOM     16  G   UNL     1     -24.636   3.958  -1.457  1.00  0.00     0.000 G0
ENDBRANCH  13  15
ENDBRANCH  12  13
BRANCH  12  17
ATOM     17  C   UNL     1     -24.435  -0.495  -3.325  1.00  0.00    -0.006 C 
ATOM     18  C   UNL     1     -23.200  -1.387  -3.105  1.00  0.00     0.008 C 
ATOM     19  C   UNL     1     -25.672  -1.355  -3.636  1.00  0.00     0.008 C 
ENDBRANCH  12  17
ENDBRANCH  11  12
ENDBRANCH   1  11
TORSDOF 1
ENDMDL
MODEL 5
REMARK VINA RESULT:    -3.461      3.279      5.310
REMARK INTER + INTRA:          -5.578
REMARK INTER:                  -5.635
REMARK INTRA:                   0.057
REMARK UNBOUND:                -0.297
REMARK SMILES CC1=CCC[C@H](C)C(=O)C[C@@H](C(C)C)C(=O)C1
REMARK SMILES IDX 8 1 9 2 6 3 7 4 5 5 4 6 3 7 2 8 1 9 10 11 11 12 15 13 16 14
REMARK SMILES IDX 17 15 12 17 13 18 14 19
REMARK H PARENT
REMARK Flexibility Score: 70.00
ROOT
ATOM      1  C   UNL     1     -24.694   2.902  -0.210  1.00  0.00     0.136 C 
ATOM      2  O   UNL     1     -25.293   1.854  -0.411  1.00  0.00    -0.299 OA
ENDROOT
BRANCH   1   3
ATOM      3  C   UNL     1     -24.576   3.900  -1.358  1.00  0.00     0.053 C 
ATOM      4  C   UNL     1     -25.351   3.399  -2.587  1.00  0.00     0.016 C 
BRANCH   3   5
ATOM      5  C   UNL     1     -25.084   5.302  -0.949  1.00  0.00     0.015 C 
BRANCH   5   6
ATOM      6  C   UNL     1     -23.975   6.357  -0.805  1.00  0.00     0.028 C 
BRANCH   6   7
ATOM      7  C   UNL     1     -23.852   6.862   0.613  1.00  0.00    -0.028 C 
ATOM      8  C   UNL     1     -22.949   6.449   1.535  1.00  0.00    -0.070 CG0
ATOM      9  C   UNL     1     -22.985   7.105   2.893  1.00  0.00     0.039 C 
ATOM     10  G   UNL     1     -21.877   5.405   1.269  1.00  0.00     0.000 G0
ENDBRANCH   6   7
ENDBRANCH   5   6
ENDBRANCH   3   5
ENDBRANCH   1   3
BRANCH   1  11
ATOM     11  C   UNL     1     -24.237   3.181   1.212  1.00  0.00     0.087 C 
BRANCH  11  12
ATOM     12  C   UNL     1     -22.744   2.939   1.569  1.00  0.00     0.066 C 
BRANCH  12  13
ATOM     13  C   UNL     1     -22.028   4.172   2.109  1.00  0.00     0.140 C 
ATOM     14  O   UNL     1     -21.636   4.204   3.266  1.00  0.00    -0.299 OA
BRANCH  13  15
ATOM     15  C   UNL     1     -21.855   5.408   1.257  1.00  0.00     0.106 CG0
ATOM     16  G   UNL     1     -22.948   6.429   1.531  1.00  0.00     0.000 G0
ENDBRANCH  13  15
ENDBRANCH  12  13
BRANCH  12  17
ATOM     17  C   UNL     1     -21.976   2.116   0.479  1.00  0.00    -0.006 C 
ATOM     18  C   UNL     1     -20.496   2.500   0.303  1.00  0.00     0.008 C 
ATOM     19  C   UNL     1     -22.118   0.599   0.698  1.00  0.00     0.008 C 
ENDBRANCH  12  17
ENDBRANCH  11  12
ENDBRANCH   1  11
TORSDOF 1
ENDMDL
MODEL 6
REMARK VINA RESULT:    -3.432      1.842      4.357
REMARK INTER + INTRA:          -5.535
REMARK INTER:                  -5.794
REMARK INTRA:                   0.259
REMARK UNBOUND:                -0.297
REMARK SMILES CC1=CCC[C@H](C)C(=O)C[C@@H](C(C)C)C(=O)C1
REMARK SMILES IDX 8 1 9 2 6 3 7 4 5 5 4 6 3 7 2 8 1 9 10 11 11 12 15 13 16 14
REMARK SMILES IDX 17 15 12 17 13 18 14 19
REMARK H PARENT
REMARK Flexibility Score: 70.00
ROOT
ATOM      1  C   UNL     1     -22.454   3.079   0.318  1.00  0.00     0.136 C 
ATOM      2  O   UNL     1     -21.374   2.514   0.209  1.00  0.00    -0.299 OA
ENDROOT
BRANCH   1   3
ATOM      3  C   UNL     1     -23.238   2.899   1.613  1.00  0.00     0.053 C 
ATOM      4  C   UNL     1     -23.965   4.201   1.986  1.00  0.00     0.016 C 
BRANCH   3   5
ATOM      5  C   UNL     1     -24.256   1.739   1.508  1.00  0.00     0.015 C 
BRANCH   5   6
ATOM      6  C   UNL     1     -23.857   0.640   0.509  1.00  0.00     0.028 C 
BRANCH   6   7
ATOM      7  C   UNL     1     -24.992   0.277  -0.420  1.00  0.00    -0.028 C 
ATOM      8  C   UNL     1     -25.208   0.787  -1.656  1.00  0.00    -0.070 CG0
ATOM      9  C   UNL     1     -26.396   0.267  -2.429  1.00  0.00     0.039 C 
ATOM     10  G   UNL     1     -24.306   1.810  -2.326  1.00  0.00     0.000 G0
ENDBRANCH   6   7
ENDBRANCH   5   6
ENDBRANCH   3   5
ENDBRANCH   1   3
BRANCH   1  11
ATOM     11  C   UNL     1     -22.860   4.025  -0.800  1.00  0.00     0.087 C 
BRANCH  11  12
ATOM     12  C   UNL     1     -24.370   4.170  -1.134  1.00  0.00     0.066 C 
BRANCH  12  13
ATOM     13  C   UNL     1     -24.859   3.220  -2.223  1.00  0.00     0.140 C 
ATOM     14  O   UNL     1     -25.756   3.557  -2.982  1.00  0.00    -0.299 OA
BRANCH  13  15
ATOM     15  C   UNL     1     -24.308   1.818  -2.339  1.00  0.00     0.106 CG0
ATOM     16  G   UNL     1     -25.205   0.808  -1.642  1.00  0.00     0.000 G0
ENDBRANCH  13  15
ENDBRANCH  12  13
BRANCH  12  17
ATOM     17  C   UNL     1     -24.832   5.662  -1.261  1.00  0.00    -0.006 C 
ATOM     18  C   UNL     1     -26.248   5.948  -0.728  1.00  0.00     0.008 C 
ATOM     19  C   UNL     1     -23.815   6.634  -0.638  1.00  0.00     0.008 C 
ENDBRANCH  12  17
ENDBRANCH  11  12
ENDBRANCH   1  11
TORSDOF 1
ENDMDL
MODEL 7
REMARK VINA RESULT:    -3.342      6.462      9.229
REMARK INTER + INTRA:          -5.398
REMARK INTER:                  -5.609
REMARK INTRA:                   0.211
REMARK UNBOUND:                -0.297
REMARK SMILES CC1=CCC[C@H](C)C(=O)C[C@@H](C(C)C)C(=O)C1
REMARK SMILES IDX 8 1 9 2 6 3 7 4 5 5 4 6 3 7 2 8 1 9 10 11 11 12 15 13 16 14
REMARK SMILES IDX 17 15 12 17 13 18 14 19
REMARK H PARENT
REMARK Flexibility Score: 70.00
ROOT
ATOM      1  C   UNL     1     -27.031  -3.231  -4.952  1.00  0.00     0.136 C 
ATOM      2  O   UNL     1     -25.919  -3.651  -4.663  1.00  0.00    -0.299 OA
ENDROOT
BRANCH   1   3
ATOM      3  C   UNL     1     -27.260  -1.724  -4.950  1.00  0.00     0.053 C 
ATOM      4  C   UNL     1     -26.408  -1.053  -3.860  1.00  0.00     0.016 C 
BRANCH   3   5
ATOM      5  C   UNL     1     -26.942  -1.097  -6.327  1.00  0.00     0.015 C 
BRANCH   5   6
ATOM      6  C   UNL     1     -27.993  -1.391  -7.411  1.00  0.00     0.028 C 
BRANCH   6   7
ATOM      7  C   UNL     1     -27.383  -2.034  -8.634  1.00  0.00    -0.028 C 
ATOM      8  C   UNL     1     -27.572  -3.310  -9.045  1.00  0.00    -0.070 CG0
ATOM      9  C   UNL     1     -26.882  -3.745 -10.315  1.00  0.00     0.039 C 
ATOM     10  G   UNL     1     -28.467  -4.311  -8.334  1.00  0.00     0.000 G0
ENDBRANCH   6   7
ENDBRANCH   5   6
ENDBRANCH   3   5
ENDBRANCH   1   3
BRANCH   1  11
ATOM     11  C   UNL     1     -28.058  -4.248  -5.424  1.00  0.00     0.087 C 
BRANCH  11  12
ATOM     12  C   UNL     1     -27.555  -5.512  -6.173  1.00  0.00     0.066 C 
BRANCH  12  13
ATOM     13  C   UNL     1     -27.701  -5.434  -7.690  1.00  0.00     0.140 C 
ATOM     14  O   UNL     1     -27.127  -6.238  -8.409  1.00  0.00    -0.299 OA
BRANCH  13  15
ATOM     15  C   UNL     1     -28.488  -4.321  -8.340  1.00  0.00     0.106 CG0
ATOM     16  G   UNL     1     -27.572  -3.317  -9.021  1.00  0.00     0.000 G0
ENDBRANCH  13  15
ENDBRANCH  12  13
BRANCH  12  17
ATOM     17  C   UNL     1     -28.019  -6.851  -5.503  1.00  0.00    -0.006 C 
ATOM     18  C   UNL     1     -27.013  -8.011  -5.613  1.00  0.00     0.008 C 
ATOM     19  C   UNL     1     -28.445  -6.643  -4.040  1.00  0.00     0.008 C 
ENDBRANCH  12  17
ENDBRANCH  11  12
ENDBRANCH   1  11
TORSDOF 1
ENDMDL
MODEL 8
REMARK VINA RESULT:    -3.332      2.644      4.933
REMARK INTER + INTRA:          -5.381
REMARK INTER:                  -5.549
REMARK INTRA:                   0.168
REMARK UNBOUND:                -0.297
REMARK SMILES CC1=CCC[C@H](C)C(=O)C[C@@H](C(C)C)C(=O)C1
REMARK SMILES IDX 8 1 9 2 6 3 7 4 5 5 4 6 3 7 2 8 1 9 10 11 11 12 15 13 16 14
REMARK SMILES IDX 17 15 12 17 13 18 14 19
REMARK H PARENT
REMARK Flexibility Score: 70.00
ROOT
ATOM      1  C   UNL     1     -24.052   2.414  -1.177  1.00  0.00     0.136 C 
ATOM      2  O   UNL     1     -23.558   2.846  -2.210  1.00  0.00    -0.299 OA
ENDROOT
BRANCH   1   3
ATOM      3  C   UNL     1     -23.795   0.957  -0.805  1.00  0.00     0.053 C 
ATOM      4  C   UNL     1     -23.699   0.090  -2.070  1.00  0.00     0.016 C 
BRANCH   3   5
ATOM      5  C   UNL     1     -22.509   0.802   0.039  1.00  0.00     0.015 C 
BRANCH   5   6
ATOM      6  C   UNL     1     -21.587   2.033   0.015  1.00  0.00     0.028 C 
BRANCH   6   7
ATOM      7  C   UNL     1     -21.209   2.486   1.406  1.00  0.00    -0.028 C 
ATOM      8  C   UNL     1     -21.292   3.750   1.886  1.00  0.00    -0.070 CG0
ATOM      9  C   UNL     1     -20.881   3.982   3.320  1.00  0.00     0.039 C 
ATOM     10  G   UNL     1     -21.814   4.932   1.087  1.00  0.00     0.000 G0
ENDBRANCH   6   7
ENDBRANCH   5   6
ENDBRANCH   3   5
ENDBRANCH   1   3
BRANCH   1  11
ATOM     11  C   UNL     1     -24.768   3.409  -0.279  1.00  0.00     0.087 C 
BRANCH  11  12
ATOM     12  C   UNL     1     -24.168   4.834  -0.129  1.00  0.00     0.066 C 
BRANCH  12  13
ATOM     13  C   UNL     1     -23.329   5.026   1.130  1.00  0.00     0.140 C 
ATOM     14  O   UNL     1     -23.861   5.318   2.191  1.00  0.00    -0.299 OA
BRANCH  13  15
ATOM     15  C   UNL     1     -21.822   4.939   1.083  1.00  0.00     0.106 CG0
ATOM     16  G   UNL     1     -21.306   3.761   1.893  1.00  0.00     0.000 G0
ENDBRANCH  13  15
ENDBRANCH  12  13
BRANCH  12  17
ATOM     17  C   UNL     1     -25.196   5.972  -0.453  1.00  0.00    -0.006 C 
ATOM     18  C   UNL     1     -24.569   7.353  -0.715  1.00  0.00     0.008 C 
ATOM     19  C   UNL     1     -26.142   5.582  -1.603  1.00  0.00     0.008 C 
ENDBRANCH  12  17
ENDBRANCH  11  12
ENDBRANCH   1  11
TORSDOF 1
ENDMDL
MODEL 9
REMARK VINA RESULT:    -3.238      1.666      4.063
REMARK INTER + INTRA:          -5.238
REMARK INTER:                  -5.542
REMARK INTRA:                   0.304
REMARK UNBOUND:                -0.297
REMARK SMILES CC1=CCC[C@H](C)C(=O)C[C@@H](C(C)C)C(=O)C1
REMARK SMILES IDX 8 1 9 2 6 3 7 4 5 5 4 6 3 7 2 8 1 9 10 11 11 12 15 13 16 14
REMARK SMILES IDX 17 15 12 17 13 18 14 19
REMARK H PARENT
REMARK Flexibility Score: 70.00
ROOT
ATOM      1  C   UNL     1     -25.157   2.063  -3.448  1.00  0.00     0.136 C 
ATOM      2  O   UNL     1     -24.746   2.738  -4.382  1.00  0.00    -0.299 OA
ENDROOT
BRANCH   1   3
ATOM      3  C   UNL     1     -25.172   0.546  -3.602  1.00  0.00     0.053 C 
ATOM      4  C   UNL     1     -25.596   0.156  -5.027  1.00  0.00     0.016 C 
BRANCH   3   5
ATOM      5  C   UNL     1     -23.794  -0.074  -3.274  1.00  0.00     0.015 C 
BRANCH   5   6
ATOM      6  C   UNL     1     -23.795  -0.994  -2.041  1.00  0.00     0.028 C 
BRANCH   6   7
ATOM      7  C   UNL     1     -22.845  -0.510  -0.971  1.00  0.00    -0.028 C 
ATOM      8  C   UNL     1     -23.157   0.297   0.071  1.00  0.00    -0.070 CG0
ATOM      9  C   UNL     1     -22.056   0.643   1.043  1.00  0.00     0.039 C 
ATOM     10  G   UNL     1     -24.552   0.834   0.345  1.00  0.00     0.000 G0
ENDBRANCH   6   7
ENDBRANCH   5   6
ENDBRANCH   3   5
ENDBRANCH   1   3
BRANCH   1  11
ATOM     11  C   UNL     1     -25.490   2.792  -2.156  1.00  0.00     0.087 C 
BRANCH  11  12
ATOM     12  C   UNL     1     -24.353   3.027  -1.125  1.00  0.00     0.066 C 
BRANCH  12  13
ATOM     13  C   UNL     1     -24.582   2.343   0.219  1.00  0.00     0.140 C 
ATOM     14  O   UNL     1     -24.731   3.007   1.234  1.00  0.00    -0.299 OA
BRANCH  13  15
ATOM     15  C   UNL     1     -24.550   0.838   0.343  1.00  0.00     0.106 CG0
ATOM     16  G   UNL     1     -23.157   0.287   0.086  1.00  0.00     0.000 G0
ENDBRANCH  13  15
ENDBRANCH  12  13
BRANCH  12  17
ATOM     17  C   UNL     1     -23.871   4.517  -1.068  1.00  0.00    -0.006 C 
ATOM     18  C   UNL     1     -24.937   5.523  -0.599  1.00  0.00     0.008 C 
ATOM     19  C   UNL     1     -22.582   4.673  -0.242  1.00  0.00     0.008 C 
ENDBRANCH  12  17
ENDBRANCH  11  12
ENDBRANCH   1  11
TORSDOF 1
ENDMDL
