MODEL 1
REMARK VINA RESULT:   137.741      0.000      0.000
REMARK INTER + INTRA:         141.767
REMARK INTER:                 141.767
REMARK INTRA:                   0.000
REMARK UNBOUND:                 0.000
REMARK SMILES C[C@H]1CC[C@]2(OC1)O[C@@H]1C[C@@H]3[C@@H]4CC=C5C[C@H](O)CC[C@]5(C)[C@@H]4CC[C@@]3(C)[C@@H]1[C@H]2C
REMARK SMILES IDX 1 1 2 2 3 3 4 4 5 5 29 6 28 7 9 8 8 9 10 10 11 11 26 12
REMARK SMILES IDX 25 13 24 14 23 15 12 16 13 17 14 18 15 19 21 20 20 21 19 22
REMARK SMILES IDX 17 23 16 24 22 25 27 26 30 27 6 28 7 29 18 30
REMARK H PARENT 18 31
REMARK Flexibility Score: inf
ROOT
ATOM      1  C   UNL     1     -36.653  24.342 -20.438  1.00  0.00     0.010 C 
ATOM      2  C   UNL     1     -36.871  25.597 -21.288  1.00  0.00     0.012 C 
ATOM      3  C   UNL     1     -38.140  25.466 -22.140  1.00  0.00     0.011 C 
ATOM      4  C   UNL     1     -38.410  26.775 -22.883  1.00  0.00     0.066 C 
ATOM      5  C   UNL     1     -38.398  27.978 -21.909  1.00  0.00     0.171 C 
ATOM      6  C   UNL     1     -38.590  29.299 -22.704  1.00  0.00     0.052 C 
ATOM      7  C   UNL     1     -39.578  30.094 -21.847  1.00  0.00     0.033 C 
ATOM      8  C   UNL     1     -39.819  29.187 -20.638  1.00  0.00     0.126 C 
ATOM      9  O   UNL     1     -39.486  27.872 -21.009  1.00  0.00    -0.346 OA
ATOM     10  C   UNL     1     -41.308  29.302 -20.263  1.00  0.00     0.037 C 
ATOM     11  C   UNL     1     -41.778  30.495 -21.084  1.00  0.00     0.002 C 
ATOM     12  C   UNL     1     -41.004  30.403 -22.405  1.00  0.00    -0.024 C 
ATOM     13  C   UNL     1     -41.119  31.773 -23.104  1.00  0.00     0.008 C 
ATOM     14  C   UNL     1     -42.598  32.161 -23.336  1.00  0.00     0.005 C 
ATOM     15  C   UNL     1     -43.478  32.142 -22.038  1.00  0.00     0.003 C 
ATOM     16  C   UNL     1     -43.284  30.835 -21.188  1.00  0.00     0.000 C 
ATOM     17  C   UNL     1     -44.236  29.658 -21.560  1.00  0.00     0.031 C 
ATOM     18  C   UNL     1     -45.150  29.932 -22.729  1.00  0.00    -0.027 C 
ATOM     19  C   UNL     1     -45.536  31.172 -23.103  1.00  0.00    -0.065 C 
ATOM     20  C   UNL     1     -45.001  32.396 -22.342  1.00  0.00    -0.008 C 
ATOM     21  C   UNL     1     -45.189  33.757 -23.110  1.00  0.00     0.014 C 
ATOM     22  C   UNL     1     -45.489  33.604 -24.601  1.00  0.00     0.033 C 
ATOM     23  C   UNL     1     -46.715  32.709 -24.777  1.00  0.00     0.118 C 
ATOM     24  C   UNL     1     -46.377  31.276 -24.362  1.00  0.00     0.063 C 
ATOM     25  C   UNL     1     -45.800  32.523 -21.018  1.00  0.00     0.016 C 
ATOM     26  C   UNL     1     -41.527  29.278 -23.352  1.00  0.00     0.012 C 
ATOM     27  C   UNL     1     -37.284  30.076 -22.946  1.00  0.00     0.014 C 
ATOM     28  O   UNL     1     -37.169  28.015 -21.184  1.00  0.00    -0.349 OA
ATOM     29  C   UNL     1     -36.980  26.849 -20.402  1.00  0.00     0.167 C 
ENDROOT
BRANCH  23  30
ATOM     30  O   UNL     1     -47.125  32.716 -26.119  1.00  0.00    -0.393 OA
ATOM     31  H   UNL     1     -47.812  32.005 -26.213  1.00  0.00     0.210 HD
ENDBRANCH  23  30
TORSDOF 1
ENDMDL
MODEL 2
REMARK VINA RESULT:   138.147      3.908      5.930
REMARK INTER + INTRA:         142.185
REMARK INTER:                 142.185
REMARK INTRA:                   0.000
REMARK UNBOUND:                 0.000
REMARK SMILES C[C@H]1CC[C@]2(OC1)O[C@@H]1C[C@@H]3[C@@H]4CC=C5C[C@H](O)CC[C@]5(C)[C@@H]4CC[C@@]3(C)[C@@H]1[C@H]2C
REMARK SMILES IDX 1 1 2 2 3 3 4 4 5 5 29 6 28 7 9 8 8 9 10 10 11 11 26 12
REMARK SMILES IDX 25 13 24 14 23 15 12 16 13 17 14 18 15 19 21 20 20 21 19 22
REMARK SMILES IDX 17 23 16 24 22 25 27 26 30 27 6 28 7 29 18 30
REMARK H PARENT 18 31
REMARK Flexibility Score: inf
ROOT
ATOM      1  C   UNL     1     -30.038  29.878 -17.961  1.00  0.00     0.010 C 
ATOM      2  C   UNL     1     -31.434  30.351 -17.543  1.00  0.00     0.012 C 
ATOM      3  C   UNL     1     -32.076  31.196 -18.650  1.00  0.00     0.011 C 
ATOM      4  C   UNL     1     -33.515  31.552 -18.270  1.00  0.00     0.066 C 
ATOM      5  C   UNL     1     -34.310  30.287 -17.868  1.00  0.00     0.171 C 
ATOM      6  C   UNL     1     -35.738  30.690 -17.406  1.00  0.00     0.052 C 
ATOM      7  C   UNL     1     -36.639  29.641 -18.063  1.00  0.00     0.033 C 
ATOM      8  C   UNL     1     -35.652  28.723 -18.790  1.00  0.00     0.126 C 
ATOM      9  O   UNL     1     -34.461  29.442 -18.994  1.00  0.00    -0.346 OA
ATOM     10  C   UNL     1     -36.298  28.320 -20.129  1.00  0.00     0.037 C 
ATOM     11  C   UNL     1     -37.740  28.781 -19.968  1.00  0.00     0.002 C 
ATOM     12  C   UNL     1     -37.658  30.083 -19.162  1.00  0.00    -0.024 C 
ATOM     13  C   UNL     1     -39.071  30.380 -18.621  1.00  0.00     0.008 C 
ATOM     14  C   UNL     1     -40.100  30.486 -19.770  1.00  0.00     0.005 C 
ATOM     15  C   UNL     1     -40.137  29.236 -20.716  1.00  0.00     0.003 C 
ATOM     16  C   UNL     1     -38.707  28.776 -21.176  1.00  0.00     0.000 C 
ATOM     17  C   UNL     1     -38.186  29.447 -22.483  1.00  0.00     0.031 C 
ATOM     18  C   UNL     1     -39.108  30.490 -23.066  1.00  0.00    -0.027 C 
ATOM     19  C   UNL     1     -40.443  30.509 -22.860  1.00  0.00    -0.065 C 
ATOM     20  C   UNL     1     -41.086  29.448 -21.953  1.00  0.00    -0.008 C 
ATOM     21  C   UNL     1     -42.540  29.814 -21.474  1.00  0.00     0.014 C 
ATOM     22  C   UNL     1     -42.909  31.287 -21.644  1.00  0.00     0.033 C 
ATOM     23  C   UNL     1     -42.701  31.691 -23.102  1.00  0.00     0.118 C 
ATOM     24  C   UNL     1     -41.209  31.686 -23.438  1.00  0.00     0.063 C 
ATOM     25  C   UNL     1     -41.209  28.133 -22.769  1.00  0.00     0.016 C 
ATOM     26  C   UNL     1     -37.141  31.297 -19.996  1.00  0.00     0.012 C 
ATOM     27  C   UNL     1     -35.913  30.721 -15.878  1.00  0.00     0.014 C 
ATOM     28  O   UNL     1     -33.635  29.589 -16.822  1.00  0.00    -0.349 OA
ATOM     29  C   UNL     1     -32.346  29.156 -17.221  1.00  0.00     0.167 C 
ENDROOT
BRANCH  23  30
ATOM     30  O   UNL     1     -43.218  32.977 -23.322  1.00  0.00    -0.393 OA
ATOM     31  H   UNL     1     -44.208  32.892 -23.330  1.00  0.00     0.210 HD
ENDBRANCH  23  30
TORSDOF 1
ENDMDL
MODEL 3
REMARK VINA RESULT:   140.498      2.148      8.496
REMARK INTER + INTRA:         144.605
REMARK INTER:                 144.605
REMARK INTRA:                   0.000
REMARK UNBOUND:                 0.000
REMARK SMILES C[C@H]1CC[C@]2(OC1)O[C@@H]1C[C@@H]3[C@@H]4CC=C5C[C@H](O)CC[C@]5(C)[C@@H]4CC[C@@]3(C)[C@@H]1[C@H]2C
REMARK SMILES IDX 1 1 2 2 3 3 4 4 5 5 29 6 28 7 9 8 8 9 10 10 11 11 26 12
REMARK SMILES IDX 25 13 24 14 23 15 12 16 13 17 14 18 15 19 21 20 20 21 19 22
REMARK SMILES IDX 17 23 16 24 22 25 27 26 30 27 6 28 7 29 18 30
REMARK H PARENT 18 31
REMARK Flexibility Score: inf
ROOT
ATOM      1  C   UNL     1     -47.125  33.357 -23.416  1.00  0.00     0.010 C 
ATOM      2  C   UNL     1     -45.938  33.130 -22.474  1.00  0.00     0.012 C 
ATOM      3  C   UNL     1     -45.961  31.707 -21.901  1.00  0.00     0.011 C 
ATOM      4  C   UNL     1     -44.703  31.458 -21.068  1.00  0.00     0.066 C 
ATOM      5  C   UNL     1     -43.427  31.821 -21.866  1.00  0.00     0.171 C 
ATOM      6  C   UNL     1     -42.174  31.638 -20.966  1.00  0.00     0.052 C 
ATOM      7  C   UNL     1     -41.163  30.956 -21.890  1.00  0.00     0.033 C 
ATOM      8  C   UNL     1     -41.905  30.854 -23.224  1.00  0.00     0.126 C 
ATOM      9  O   UNL     1     -43.284  30.935 -22.962  1.00  0.00    -0.346 OA
ATOM     10  C   UNL     1     -41.535  29.500 -23.857  1.00  0.00     0.037 C 
ATOM     11  C   UNL     1     -40.370  29.027 -23.000  1.00  0.00     0.002 C 
ATOM     12  C   UNL     1     -40.701  29.496 -21.578  1.00  0.00    -0.024 C 
ATOM     13  C   UNL     1     -39.402  29.414 -20.751  1.00  0.00     0.008 C 
ATOM     14  C   UNL     1     -38.824  27.981 -20.756  1.00  0.00     0.005 C 
ATOM     15  C   UNL     1     -38.588  27.389 -22.190  1.00  0.00     0.003 C 
ATOM     16  C   UNL     1     -39.821  27.587 -23.142  1.00  0.00     0.000 C 
ATOM     17  C   UNL     1     -40.874  26.438 -23.105  1.00  0.00     0.031 C 
ATOM     18  C   UNL     1     -40.581  25.346 -22.106  1.00  0.00    -0.027 C 
ATOM     19  C   UNL     1     -39.339  25.051 -21.662  1.00  0.00    -0.065 C 
ATOM     20  C   UNL     1     -38.141  25.881 -22.151  1.00  0.00    -0.008 C 
ATOM     21  C   UNL     1     -36.847  25.713 -21.271  1.00  0.00     0.014 C 
ATOM     22  C   UNL     1     -37.095  25.098 -19.894  1.00  0.00     0.033 C 
ATOM     23  C   UNL     1     -37.811  23.759 -20.065  1.00  0.00     0.118 C 
ATOM     24  C   UNL     1     -39.232  23.990 -20.581  1.00  0.00     0.063 C 
ATOM     25  C   UNL     1     -37.771  25.392 -23.577  1.00  0.00     0.016 C 
ATOM     26  C   UNL     1     -41.822  28.653 -20.893  1.00  0.00     0.012 C 
ATOM     27  C   UNL     1     -41.627  32.955 -20.387  1.00  0.00     0.014 C 
ATOM     28  O   UNL     1     -43.504  33.166 -22.335  1.00  0.00    -0.349 OA
ATOM     29  C   UNL     1     -44.605  33.363 -23.205  1.00  0.00     0.167 C 
ENDROOT
BRANCH  23  30
ATOM     30  O   UNL     1     -37.872  23.087 -18.835  1.00  0.00    -0.393 OA
ATOM     31  H   UNL     1     -36.988  22.653 -18.700  1.00  0.00     0.210 HD
ENDBRANCH  23  30
TORSDOF 1
ENDMDL
