MODEL 1
REMARK VINA RESULT:    -4.714      0.000      0.000
REMARK INTER + INTRA:          -4.852
REMARK INTER:                  -4.852
REMARK INTRA:                   0.000
REMARK UNBOUND:                 0.000
REMARK SMILES O=c1ccc2ccc(O)cc2o1
REMARK SMILES IDX 6 1 7 2 8 3 10 4 11 5 5 6 4 7 3 8 2 9 1 10 12 11 9 12
REMARK H PARENT 9 13
REMARK Flexibility Score: inf
ROOT
ATOM      1  C   UNL     1       0.225 -14.659  -5.628  1.00  0.00     0.016 A 
ATOM      2  C   UNL     1      -0.892 -14.051  -6.209  1.00  0.00     0.047 A 
ATOM      3  C   UNL     1      -1.503 -14.623  -7.336  1.00  0.00     0.119 A 
ATOM      4  C   UNL     1      -0.993 -15.807  -7.881  1.00  0.00     0.094 A 
ATOM      5  C   UNL     1       0.125 -16.422  -7.307  1.00  0.00     0.142 A 
ATOM      6  C   UNL     1       0.738 -15.844  -6.172  1.00  0.00     0.018 A 
ATOM      7  C   UNL     1       1.853 -16.482  -5.620  1.00  0.00     0.019 A 
ATOM      8  C   UNL     1       2.325 -17.660  -6.199  1.00  0.00     0.094 A 
ATOM      9  C   UNL     1       1.667 -18.174  -7.322  1.00  0.00     0.336 A 
ATOM     10  O   UNL     1       2.077 -19.236  -7.859  1.00  0.00    -0.246 OA
ATOM     11  O   UNL     1       0.607 -17.547  -7.828  1.00  0.00    -0.423 OA
ENDROOT
BRANCH   3  12
ATOM     12  O   UNL     1      -2.616 -14.023  -7.920  1.00  0.00    -0.508 OA
ATOM     13  H   UNL     1      -2.683 -13.017  -8.022  1.00  0.00     0.293 HD
ENDBRANCH   3  12
TORSDOF 1
ENDMDL
MODEL 2
REMARK VINA RESULT:    -4.695      2.697      3.924
REMARK INTER + INTRA:          -4.832
REMARK INTER:                  -4.832
REMARK INTRA:                   0.000
REMARK UNBOUND:                 0.000
REMARK SMILES O=c1ccc2ccc(O)cc2o1
REMARK SMILES IDX 6 1 7 2 8 3 10 4 11 5 5 6 4 7 3 8 2 9 1 10 12 11 9 12
REMARK H PARENT 9 13
REMARK Flexibility Score: inf
ROOT
ATOM      1  C   UNL     1       0.101 -16.320  -7.454  1.00  0.00     0.016 A 
ATOM      2  C   UNL     1       0.083 -15.130  -6.719  1.00  0.00     0.047 A 
ATOM      3  C   UNL     1      -1.068 -14.328  -6.699  1.00  0.00     0.119 A 
ATOM      4  C   UNL     1      -2.205 -14.720  -7.417  1.00  0.00     0.094 A 
ATOM      5  C   UNL     1      -2.195 -15.909  -8.155  1.00  0.00     0.142 A 
ATOM      6  C   UNL     1      -1.034 -16.714  -8.173  1.00  0.00     0.018 A 
ATOM      7  C   UNL     1      -1.055 -17.897  -8.919  1.00  0.00     0.019 A 
ATOM      8  C   UNL     1      -2.211 -18.245  -9.619  1.00  0.00     0.094 A 
ATOM      9  C   UNL     1      -3.323 -17.398  -9.555  1.00  0.00     0.336 A 
ATOM     10  O   UNL     1      -4.375 -17.694 -10.178  1.00  0.00    -0.246 OA
ATOM     11  O   UNL     1      -3.276 -16.278  -8.836  1.00  0.00    -0.423 OA
ENDROOT
BRANCH   3  12
ATOM     12  O   UNL     1      -1.093 -13.142  -5.970  1.00  0.00    -0.508 OA
ATOM     13  H   UNL     1      -0.597 -13.050  -5.092  1.00  0.00     0.293 HD
ENDBRANCH   3  12
TORSDOF 1
ENDMDL
MODEL 3
REMARK VINA RESULT:    -4.669      1.280      1.599
REMARK INTER + INTRA:          -4.806
REMARK INTER:                  -4.806
REMARK INTRA:                   0.000
REMARK UNBOUND:                 0.000
REMARK SMILES O=c1ccc2ccc(O)cc2o1
REMARK SMILES IDX 6 1 7 2 8 3 10 4 11 5 5 6 4 7 3 8 2 9 1 10 12 11 9 12
REMARK H PARENT 9 13
REMARK Flexibility Score: inf
ROOT
ATOM      1  C   UNL     1       0.623 -15.583  -6.668  1.00  0.00     0.016 A 
ATOM      2  C   UNL     1      -0.400 -14.655  -6.887  1.00  0.00     0.047 A 
ATOM      3  C   UNL     1      -1.524 -15.007  -7.650  1.00  0.00     0.119 A 
ATOM      4  C   UNL     1      -1.623 -16.293  -8.194  1.00  0.00     0.094 A 
ATOM      5  C   UNL     1      -0.604 -17.229  -7.980  1.00  0.00     0.142 A 
ATOM      6  C   UNL     1       0.527 -16.870  -7.212  1.00  0.00     0.018 A 
ATOM      7  C   UNL     1       1.528 -17.826  -7.015  1.00  0.00     0.019 A 
ATOM      8  C   UNL     1       1.385 -19.094  -7.578  1.00  0.00     0.094 A 
ATOM      9  C   UNL     1       0.238 -19.377  -8.327  1.00  0.00     0.336 A 
ATOM     10  O   UNL     1       0.089 -20.515  -8.843  1.00  0.00    -0.246 OA
ATOM     11  O   UNL     1      -0.701 -18.449  -8.499  1.00  0.00    -0.423 OA
ENDROOT
BRANCH   3  12
ATOM     12  O   UNL     1      -2.546 -14.088  -7.872  1.00  0.00    -0.508 OA
ATOM     13  H   UNL     1      -2.354 -13.157  -8.223  1.00  0.00     0.293 HD
ENDBRANCH   3  12
TORSDOF 1
ENDMDL
MODEL 4
REMARK VINA RESULT:    -4.627      2.461      4.633
REMARK INTER + INTRA:          -4.762
REMARK INTER:                  -4.762
REMARK INTRA:                   0.000
REMARK UNBOUND:                 0.000
REMARK SMILES O=c1ccc2ccc(O)cc2o1
REMARK SMILES IDX 6 1 7 2 8 3 10 4 11 5 5 6 4 7 3 8 2 9 1 10 12 11 9 12
REMARK H PARENT 9 13
REMARK Flexibility Score: inf
ROOT
ATOM      1  C   UNL     1      -2.101 -16.161  -7.009  1.00  0.00     0.016 A 
ATOM      2  C   UNL     1      -1.316 -16.554  -8.098  1.00  0.00     0.047 A 
ATOM      3  C   UNL     1      -0.150 -15.844  -8.423  1.00  0.00     0.119 A 
ATOM      4  C   UNL     1       0.231 -14.738  -7.654  1.00  0.00     0.094 A 
ATOM      5  C   UNL     1      -0.549 -14.337  -6.563  1.00  0.00     0.142 A 
ATOM      6  C   UNL     1      -1.723 -15.054  -6.239  1.00  0.00     0.018 A 
ATOM      7  C   UNL     1      -2.480 -14.630  -5.142  1.00  0.00     0.019 A 
ATOM      8  C   UNL     1      -2.061 -13.522  -4.407  1.00  0.00     0.094 A 
ATOM      9  C   UNL     1      -0.888 -12.861  -4.788  1.00  0.00     0.336 A 
ATOM     10  O   UNL     1      -0.492 -11.859  -4.137  1.00  0.00    -0.246 OA
ATOM     11  O   UNL     1      -0.185 -13.285  -5.835  1.00  0.00    -0.423 OA
ENDROOT
BRANCH   3  12
ATOM     12  O   UNL     1       0.636 -16.230  -9.506  1.00  0.00    -0.508 OA
ATOM     13  H   UNL     1       1.357 -16.936  -9.412  1.00  0.00     0.293 HD
ENDBRANCH   3  12
TORSDOF 1
ENDMDL
MODEL 5
REMARK VINA RESULT:    -4.590      0.772      4.218
REMARK INTER + INTRA:          -4.724
REMARK INTER:                  -4.724
REMARK INTRA:                   0.000
REMARK UNBOUND:                 0.000
REMARK SMILES O=c1ccc2ccc(O)cc2o1
REMARK SMILES IDX 6 1 7 2 8 3 10 4 11 5 5 6 4 7 3 8 2 9 1 10 12 11 9 12
REMARK H PARENT 9 13
REMARK Flexibility Score: inf
ROOT
ATOM      1  C   UNL     1       1.827 -16.318  -5.582  1.00  0.00     0.016 A 
ATOM      2  C   UNL     1       2.415 -17.520  -5.991  1.00  0.00     0.047 A 
ATOM      3  C   UNL     1       1.866 -18.249  -7.057  1.00  0.00     0.119 A 
ATOM      4  C   UNL     1       0.727 -17.773  -7.716  1.00  0.00     0.094 A 
ATOM      5  C   UNL     1       0.131 -16.572  -7.314  1.00  0.00     0.142 A 
ATOM      6  C   UNL     1       0.686 -15.840  -6.239  1.00  0.00     0.018 A 
ATOM      7  C   UNL     1       0.069 -14.643  -5.860  1.00  0.00     0.019 A 
ATOM      8  C   UNL     1      -1.065 -14.210  -6.546  1.00  0.00     0.094 A 
ATOM      9  C   UNL     1      -1.558 -14.987  -7.600  1.00  0.00     0.336 A 
ATOM     10  O   UNL     1      -2.580 -14.613  -8.232  1.00  0.00    -0.246 OA
ATOM     11  O   UNL     1      -0.951 -16.122  -7.941  1.00  0.00    -0.423 OA
ENDROOT
BRANCH   3  12
ATOM     12  O   UNL     1       2.447 -19.446  -7.470  1.00  0.00    -0.508 OA
ATOM     13  H   UNL     1       2.427 -20.273  -6.885  1.00  0.00     0.293 HD
ENDBRANCH   3  12
TORSDOF 1
ENDMDL
MODEL 6
REMARK VINA RESULT:    -4.553      1.575      2.370
REMARK INTER + INTRA:          -4.686
REMARK INTER:                  -4.686
REMARK INTRA:                   0.000
REMARK UNBOUND:                 0.000
REMARK SMILES O=c1ccc2ccc(O)cc2o1
REMARK SMILES IDX 6 1 7 2 8 3 10 4 11 5 5 6 4 7 3 8 2 9 1 10 12 11 9 12
REMARK H PARENT 9 13
REMARK Flexibility Score: inf
ROOT
ATOM      1  C   UNL     1      -1.011 -17.333  -8.321  1.00  0.00     0.016 A 
ATOM      2  C   UNL     1      -1.921 -16.278  -8.441  1.00  0.00     0.047 A 
ATOM      3  C   UNL     1      -1.695 -15.068  -7.766  1.00  0.00     0.119 A 
ATOM      4  C   UNL     1      -0.554 -14.915  -6.971  1.00  0.00     0.094 A 
ATOM      5  C   UNL     1       0.363 -15.965  -6.844  1.00  0.00     0.142 A 
ATOM      6  C   UNL     1       0.132 -17.182  -7.525  1.00  0.00     0.018 A 
ATOM      7  C   UNL     1       1.066 -18.213  -7.380  1.00  0.00     0.019 A 
ATOM      8  C   UNL     1       2.188 -18.013  -6.576  1.00  0.00     0.094 A 
ATOM      9  C   UNL     1       2.350 -16.782  -5.933  1.00  0.00     0.336 A 
ATOM     10  O   UNL     1       3.355 -16.581  -5.203  1.00  0.00    -0.246 OA
ATOM     11  O   UNL     1       1.446 -15.816  -6.088  1.00  0.00    -0.423 OA
ENDROOT
BRANCH   3  12
ATOM     12  O   UNL     1      -2.598 -14.014  -7.881  1.00  0.00    -0.508 OA
ATOM     13  H   UNL     1      -2.408 -13.217  -8.477  1.00  0.00     0.293 HD
ENDBRANCH   3  12
TORSDOF 1
ENDMDL
MODEL 7
REMARK VINA RESULT:    -4.367      1.782      2.889
REMARK INTER + INTRA:          -4.495
REMARK INTER:                  -4.495
REMARK INTRA:                   0.000
REMARK UNBOUND:                 0.000
REMARK SMILES O=c1ccc2ccc(O)cc2o1
REMARK SMILES IDX 6 1 7 2 8 3 10 4 11 5 5 6 4 7 3 8 2 9 1 10 12 11 9 12
REMARK H PARENT 9 13
REMARK Flexibility Score: inf
ROOT
ATOM      1  C   UNL     1      -2.810 -17.630  -8.653  1.00  0.00     0.016 A 
ATOM      2  C   UNL     1      -3.185 -16.298  -8.447  1.00  0.00     0.047 A 
ATOM      3  C   UNL     1      -2.241 -15.358  -8.009  1.00  0.00     0.119 A 
ATOM      4  C   UNL     1      -0.917 -15.751  -7.778  1.00  0.00     0.094 A 
ATOM      5  C   UNL     1      -0.533 -17.082  -7.980  1.00  0.00     0.142 A 
ATOM      6  C   UNL     1      -1.487 -18.027  -8.421  1.00  0.00     0.018 A 
ATOM      7  C   UNL     1      -1.073 -19.349  -8.616  1.00  0.00     0.019 A 
ATOM      8  C   UNL     1       0.256 -19.694  -8.371  1.00  0.00     0.094 A 
ATOM      9  C   UNL     1       1.144 -18.704  -7.936  1.00  0.00     0.336 A 
ATOM     10  O   UNL     1       2.347 -18.995  -7.710  1.00  0.00    -0.246 OA
ATOM     11  O   UNL     1       0.724 -17.453  -7.759  1.00  0.00    -0.423 OA
ENDROOT
BRANCH   3  12
ATOM     12  O   UNL     1      -2.607 -14.030  -7.802  1.00  0.00    -0.508 OA
ATOM     13  H   UNL     1      -3.202 -13.536  -8.457  1.00  0.00     0.293 HD
ENDBRANCH   3  12
TORSDOF 1
ENDMDL
MODEL 8
REMARK VINA RESULT:    -4.365      1.522      4.414
REMARK INTER + INTRA:          -4.492
REMARK INTER:                  -4.492
REMARK INTRA:                   0.000
REMARK UNBOUND:                 0.000
REMARK SMILES O=c1ccc2ccc(O)cc2o1
REMARK SMILES IDX 6 1 7 2 8 3 10 4 11 5 5 6 4 7 3 8 2 9 1 10 12 11 9 12
REMARK H PARENT 9 13
REMARK Flexibility Score: inf
ROOT
ATOM      1  C   UNL     1       1.607 -17.780  -6.926  1.00  0.00     0.016 A 
ATOM      2  C   UNL     1       1.584 -19.083  -7.434  1.00  0.00     0.047 A 
ATOM      3  C   UNL     1       0.521 -19.507  -8.246  1.00  0.00     0.119 A 
ATOM      4  C   UNL     1      -0.521 -18.623  -8.550  1.00  0.00     0.094 A 
ATOM      5  C   UNL     1      -0.506 -17.317  -8.046  1.00  0.00     0.142 A 
ATOM      6  C   UNL     1       0.566 -16.894  -7.229  1.00  0.00     0.018 A 
ATOM      7  C   UNL     1       0.553 -15.583  -6.741  1.00  0.00     0.019 A 
ATOM      8  C   UNL     1      -0.507 -14.739  -7.071  1.00  0.00     0.094 A 
ATOM      9  C   UNL     1      -1.534 -15.228  -7.885  1.00  0.00     0.336 A 
ATOM     10  O   UNL     1      -2.499 -14.483  -8.195  1.00  0.00    -0.246 OA
ATOM     11  O   UNL     1      -1.498 -16.480  -8.337  1.00  0.00    -0.423 OA
ENDROOT
BRANCH   3  12
ATOM     12  O   UNL     1       0.491 -20.803  -8.755  1.00  0.00    -0.508 OA
ATOM     13  H   UNL     1       0.345 -21.605  -8.153  1.00  0.00     0.293 HD
ENDBRANCH   3  12
TORSDOF 1
ENDMDL
MODEL 9
REMARK VINA RESULT:    -4.344      1.700      4.646
REMARK INTER + INTRA:          -4.471
REMARK INTER:                  -4.471
REMARK INTRA:                   0.000
REMARK UNBOUND:                 0.000
REMARK SMILES O=c1ccc2ccc(O)cc2o1
REMARK SMILES IDX 6 1 7 2 8 3 10 4 11 5 5 6 4 7 3 8 2 9 1 10 12 11 9 12
REMARK H PARENT 9 13
REMARK Flexibility Score: inf
ROOT
ATOM      1  C   UNL     1      -0.037 -17.228  -8.390  1.00  0.00     0.016 A 
ATOM      2  C   UNL     1       0.876 -18.263  -8.163  1.00  0.00     0.047 A 
ATOM      3  C   UNL     1       1.734 -18.218  -7.054  1.00  0.00     0.119 A 
ATOM      4  C   UNL     1       1.677 -17.135  -6.170  1.00  0.00     0.094 A 
ATOM      5  C   UNL     1       0.768 -16.094  -6.389  1.00  0.00     0.142 A 
ATOM      6  C   UNL     1      -0.096 -16.142  -7.507  1.00  0.00     0.018 A 
ATOM      7  C   UNL     1      -0.994 -15.088  -7.700  1.00  0.00     0.019 A 
ATOM      8  C   UNL     1      -1.013 -14.029  -6.792  1.00  0.00     0.094 A 
ATOM      9  C   UNL     1      -0.129 -14.049  -5.709  1.00  0.00     0.336 A 
ATOM     10  O   UNL     1      -0.130 -13.104  -4.878  1.00  0.00    -0.246 OA
ATOM     11  O   UNL     1       0.716 -15.066  -5.548  1.00  0.00    -0.423 OA
ENDROOT
BRANCH   3  12
ATOM     12  O   UNL     1       2.646 -19.246  -6.821  1.00  0.00    -0.508 OA
ATOM     13  H   UNL     1       2.756 -19.658  -5.902  1.00  0.00     0.293 HD
ENDBRANCH   3  12
TORSDOF 1
ENDMDL
