MODEL 1
REMARK VINA RESULT:    -7.189      0.000      0.000
REMARK INTER + INTRA:         -11.939
REMARK INTER:                 -10.551
REMARK INTRA:                  -1.388
REMARK UNBOUND:                -1.388
REMARK SMILES Cc1cc2c(C(C)C)c(O)c(O)c(C=O)c2c(O)c1-c1c(C)cc2c(C(C)C)c(O)c(O)c(C=O)c2c1O
REMARK SMILES IDX 1 1 2 2 3 3 4 4 16 5 13 6 11 7 9 8 5 9 17 10 19 11 20 12
REMARK SMILES IDX 37 13 21 14 36 15 23 16 22 17 24 18 33 19 25 20 31 21 29 22
REMARK SMILES IDX 38 23 34 25 35 26 26 27 27 28 28 29 32 30 30 32 18 34 6 36
REMARK SMILES IDX 7 37 8 38 14 39 15 40 10 41 12 43
REMARK H PARENT 38 24 32 31 30 33 18 35 10 42 12 44
REMARK Flexibility Score: inf
ROOT
ATOM      1  C   UNL     1     133.858 137.644 125.843  1.00  0.00     0.045 C 
ATOM      2  C   UNL     1     133.057 136.464 126.337  1.00  0.00    -0.039 A 
ATOM      3  C   UNL     1     133.554 135.173 126.144  1.00  0.00     0.013 A 
ATOM      4  C   UNL     1     132.831 134.026 126.550  1.00  0.00    -0.006 A 
ATOM      5  C   UNL     1     131.590 134.208 127.230  1.00  0.00     0.039 A 
ATOM      6  C   UNL     1     130.847 133.061 127.624  1.00  0.00     0.072 A 
ATOM      7  C   UNL     1     131.440 131.791 127.569  1.00  0.00     0.169 A 
ATOM      8  C   UNL     1     132.717 131.628 127.001  1.00  0.00     0.162 A 
ATOM      9  C   UNL     1     133.341 132.708 126.336  1.00  0.00     0.008 A 
ATOM     10  C   UNL     1     131.160 135.528 127.547  1.00  0.00     0.132 A 
ATOM     11  C   UNL     1     131.863 136.646 127.053  1.00  0.00     0.031 A 
ENDROOT
BRANCH  11  12
ATOM     12  C   UNL     1     131.363 138.020 127.322  1.00  0.00     0.031 A 
ATOM     13  C   UNL     1     131.751 138.702 128.494  1.00  0.00     0.132 A 
ATOM     14  C   UNL     1     130.498 138.640 126.405  1.00  0.00    -0.039 A 
ATOM     15  C   UNL     1     131.321 140.040 128.722  1.00  0.00     0.039 A 
ATOM     16  C   UNL     1     129.962 139.895 126.705  1.00  0.00     0.013 A 
ATOM     17  C   UNL     1     130.102 137.951 125.123  1.00  0.00     0.045 C 
ATOM     18  C   UNL     1     130.300 140.583 127.892  1.00  0.00    -0.006 A 
ATOM     19  C   UNL     1     131.852 140.839 129.774  1.00  0.00     0.072 A 
ATOM     20  C   UNL     1     129.662 141.809 128.251  1.00  0.00     0.008 A 
ATOM     21  C   UNL     1     131.289 142.094 130.061  1.00  0.00     0.169 A 
ATOM     22  C   UNL     1     130.227 142.595 129.281  1.00  0.00     0.162 A 
BRANCH  13  23
ATOM     23  O   UNL     1     132.516 138.037 129.460  1.00  0.00    -0.507 OA
ATOM     24  H   UNL     1     132.775 137.060 129.397  1.00  0.00     0.293 HD
ENDBRANCH  13  23
BRANCH  19  25
ATOM     25  C   UNL     1     133.075 140.473 130.524  1.00  0.00     0.264 C 
ATOM     26  O   UNL     1     133.008 140.109 131.728  1.00  0.00    -0.298 OA
ENDBRANCH  19  25
BRANCH  20  27
ATOM     27  C   UNL     1     128.388 142.292 127.533  1.00  0.00     0.017 C 
ATOM     28  C   UNL     1     127.397 141.140 127.341  1.00  0.00     0.012 C 
ATOM     29  C   UNL     1     128.664 143.023 126.206  1.00  0.00     0.012 C 
ENDBRANCH  20  27
BRANCH  21  30
ATOM     30  O   UNL     1     131.815 142.824 131.134  1.00  0.00    -0.504 OA
ATOM     31  H   UNL     1     132.147 142.414 131.996  1.00  0.00     0.293 HD
ENDBRANCH  21  30
BRANCH  22  32
ATOM     32  O   UNL     1     129.747 143.893 129.481  1.00  0.00    -0.504 OA
ATOM     33  H   UNL     1     129.158 144.394 128.832  1.00  0.00     0.293 HD
ENDBRANCH  22  32
ENDBRANCH  11  12
BRANCH  10  34
ATOM     34  O   UNL     1     130.071 135.725 128.405  1.00  0.00    -0.507 OA
ATOM     35  H   UNL     1     129.207 136.170 128.125  1.00  0.00     0.293 HD
ENDBRANCH  10  34
BRANCH   9  36
ATOM     36  C   UNL     1     134.580 132.451 125.458  1.00  0.00     0.017 C 
ATOM     37  C   UNL     1     135.826 132.232 126.322  1.00  0.00     0.012 C 
ATOM     38  C   UNL     1     134.397 131.308 124.441  1.00  0.00     0.012 C 
ENDBRANCH   9  36
BRANCH   6  39
ATOM     39  C   UNL     1     129.419 133.120 128.013  1.00  0.00     0.264 C 
ATOM     40  O   UNL     1     129.061 132.865 129.192  1.00  0.00    -0.298 OA
ENDBRANCH   6  39
BRANCH   8  41
ATOM     41  O   UNL     1     133.386 130.404 127.093  1.00  0.00    -0.504 OA
ATOM     42  H   UNL     1     132.985 129.567 127.492  1.00  0.00     0.293 HD
ENDBRANCH   8  41
BRANCH   7  43
ATOM     43  O   UNL     1     130.713 130.693 128.047  1.00  0.00    -0.504 OA
ATOM     44  H   UNL     1     129.793 130.436 127.718  1.00  0.00     0.293 HD
ENDBRANCH   7  43
TORSDOF 11
ENDMDL
MODEL 2
REMARK VINA RESULT:    -7.034      6.347     10.103
REMARK INTER + INTRA:         -11.711
REMARK INTER:                 -10.254
REMARK INTRA:                  -1.457
REMARK UNBOUND:                -1.388
REMARK SMILES Cc1cc2c(C(C)C)c(O)c(O)c(C=O)c2c(O)c1-c1c(C)cc2c(C(C)C)c(O)c(O)c(C=O)c2c1O
REMARK SMILES IDX 1 1 2 2 3 3 4 4 16 5 13 6 11 7 9 8 5 9 17 10 19 11 20 12
REMARK SMILES IDX 37 13 21 14 36 15 23 16 22 17 24 18 33 19 25 20 31 21 29 22
REMARK SMILES IDX 38 23 34 25 35 26 26 27 27 28 28 29 32 30 30 32 18 34 6 36
REMARK SMILES IDX 7 37 8 38 14 39 15 40 10 41 12 43
REMARK H PARENT 38 24 32 31 30 33 18 35 10 42 12 44
REMARK Flexibility Score: inf
ROOT
ATOM      1  C   UNL     1     137.002 141.233 128.824  1.00  0.00     0.045 C 
ATOM      2  C   UNL     1     137.909 141.213 127.616  1.00  0.00    -0.039 A 
ATOM      3  C   UNL     1     138.977 142.110 127.549  1.00  0.00     0.013 A 
ATOM      4  C   UNL     1     139.837 142.164 126.427  1.00  0.00    -0.006 A 
ATOM      5  C   UNL     1     139.635 141.230 125.368  1.00  0.00     0.039 A 
ATOM      6  C   UNL     1     140.483 141.290 124.226  1.00  0.00     0.072 A 
ATOM      7  C   UNL     1     141.641 142.081 124.257  1.00  0.00     0.169 A 
ATOM      8  C   UNL     1     141.899 142.919 125.357  1.00  0.00     0.162 A 
ATOM      9  C   UNL     1     140.920 143.096 126.361  1.00  0.00     0.008 A 
ATOM     10  C   UNL     1     138.633 140.228 125.508  1.00  0.00     0.132 A 
ATOM     11  C   UNL     1     137.742 140.258 126.600  1.00  0.00     0.031 A 
ENDROOT
BRANCH  11  12
ATOM     12  C   UNL     1     136.648 139.255 126.698  1.00  0.00     0.031 A 
ATOM     13  C   UNL     1     135.370 139.542 126.176  1.00  0.00     0.132 A 
ATOM     14  C   UNL     1     136.891 138.017 127.315  1.00  0.00    -0.039 A 
ATOM     15  C   UNL     1     134.341 138.559 126.214  1.00  0.00     0.039 A 
ATOM     16  C   UNL     1     135.838 137.114 127.483  1.00  0.00     0.013 A 
ATOM     17  C   UNL     1     138.260 137.667 127.844  1.00  0.00     0.045 C 
ATOM     18  C   UNL     1     134.537 137.393 127.008  1.00  0.00    -0.006 A 
ATOM     19  C   UNL     1     133.110 138.720 125.518  1.00  0.00     0.072 A 
ATOM     20  C   UNL     1     133.439 136.522 127.282  1.00  0.00     0.008 A 
ATOM     21  C   UNL     1     132.064 137.803 125.711  1.00  0.00     0.169 A 
ATOM     22  C   UNL     1     132.239 136.689 126.556  1.00  0.00     0.162 A 
BRANCH  13  23
ATOM     23  O   UNL     1     135.102 140.819 125.668  1.00  0.00    -0.507 OA
ATOM     24  H   UNL     1     135.707 141.618 125.807  1.00  0.00     0.293 HD
ENDBRANCH  13  23
BRANCH  19  25
ATOM     25  C   UNL     1     132.903 139.754 124.478  1.00  0.00     0.264 C 
ATOM     26  O   UNL     1     132.175 140.757 124.703  1.00  0.00    -0.298 OA
ENDBRANCH  19  25
BRANCH  20  27
ATOM     27  C   UNL     1     133.545 135.406 128.339  1.00  0.00     0.017 C 
ATOM     28  C   UNL     1     133.607 134.027 127.677  1.00  0.00     0.012 C 
ATOM     29  C   UNL     1     132.443 135.466 129.413  1.00  0.00     0.012 C 
ENDBRANCH  20  27
BRANCH  21  30
ATOM     30  O   UNL     1     130.856 138.028 125.039  1.00  0.00    -0.504 OA
ATOM     31  H   UNL     1     130.255 138.825 125.195  1.00  0.00     0.293 HD
ENDBRANCH  21  30
BRANCH  22  32
ATOM     32  O   UNL     1     131.248 135.707 126.653  1.00  0.00    -0.504 OA
ATOM     33  H   UNL     1     130.544 135.671 127.376  1.00  0.00     0.293 HD
ENDBRANCH  22  32
ENDBRANCH  11  12
BRANCH  10  34
ATOM     34  O   UNL     1     138.566 139.169 124.595  1.00  0.00    -0.507 OA
ATOM     35  H   UNL     1     137.808 138.500 124.563  1.00  0.00     0.293 HD
ENDBRANCH  10  34
BRANCH   9  36
ATOM     36  C   UNL     1     141.074 144.233 127.387  1.00  0.00     0.017 C 
ATOM     37  C   UNL     1     139.814 145.105 127.430  1.00  0.00     0.012 C 
ATOM     38  C   UNL     1     141.469 143.752 128.797  1.00  0.00     0.012 C 
ENDBRANCH   9  36
BRANCH   6  39
ATOM     39  C   UNL     1     140.158 140.622 122.945  1.00  0.00     0.264 C 
ATOM     40  O   UNL     1     140.800 139.607 122.567  1.00  0.00    -0.298 OA
ENDBRANCH   6  39
BRANCH   8  41
ATOM     41  O   UNL     1     143.125 143.580 125.475  1.00  0.00    -0.504 OA
ATOM     42  H   UNL     1     143.420 144.086 126.298  1.00  0.00     0.293 HD
ENDBRANCH   8  41
BRANCH   7  43
ATOM     43  O   UNL     1     142.500 142.049 123.151  1.00  0.00    -0.504 OA
ATOM     44  H   UNL     1     143.480 141.812 123.200  1.00  0.00     0.293 HD
ENDBRANCH   7  43
TORSDOF 11
ENDMDL
MODEL 3
REMARK VINA RESULT:    -6.979      6.570      8.976
REMARK INTER + INTRA:         -11.631
REMARK INTER:                 -10.205
REMARK INTRA:                  -1.426
REMARK UNBOUND:                -1.388
REMARK SMILES Cc1cc2c(C(C)C)c(O)c(O)c(C=O)c2c(O)c1-c1c(C)cc2c(C(C)C)c(O)c(O)c(C=O)c2c1O
REMARK SMILES IDX 1 1 2 2 3 3 4 4 16 5 13 6 11 7 9 8 5 9 17 10 19 11 20 12
REMARK SMILES IDX 37 13 21 14 36 15 23 16 22 17 24 18 33 19 25 20 31 21 29 22
REMARK SMILES IDX 38 23 34 25 35 26 26 27 27 28 28 29 32 30 30 32 18 34 6 36
REMARK SMILES IDX 7 37 8 38 14 39 15 40 10 41 12 43
REMARK H PARENT 38 24 32 31 30 33 18 35 10 42 12 44
REMARK Flexibility Score: inf
ROOT
ATOM      1  C   UNL     1     138.234 138.025 127.837  1.00  0.00     0.045 C 
ATOM      2  C   UNL     1     136.950 138.422 127.148  1.00  0.00    -0.039 A 
ATOM      3  C   UNL     1     135.883 137.521 127.121  1.00  0.00     0.013 A 
ATOM      4  C   UNL     1     134.669 137.822 126.459  1.00  0.00    -0.006 A 
ATOM      5  C   UNL     1     134.521 139.107 125.858  1.00  0.00     0.039 A 
ATOM      6  C   UNL     1     133.311 139.410 125.172  1.00  0.00     0.072 A 
ATOM      7  C   UNL     1     132.202 138.561 125.303  1.00  0.00     0.169 A 
ATOM      8  C   UNL     1     132.319 137.343 125.996  1.00  0.00     0.162 A 
ATOM      9  C   UNL     1     133.587 136.888 126.426  1.00  0.00     0.008 A 
ATOM     10  C   UNL     1     135.560 140.069 126.011  1.00  0.00     0.132 A 
ATOM     11  C   UNL     1     136.786 139.706 126.604  1.00  0.00     0.031 A 
ENDROOT
BRANCH  11  12
ATOM     12  C   UNL     1     137.895 140.694 126.689  1.00  0.00     0.031 A 
ATOM     13  C   UNL     1     138.907 140.714 125.707  1.00  0.00     0.132 A 
ATOM     14  C   UNL     1     137.932 141.610 127.753  1.00  0.00    -0.039 A 
ATOM     15  C   UNL     1     139.934 141.699 125.755  1.00  0.00     0.039 A 
ATOM     16  C   UNL     1     139.021 142.477 127.877  1.00  0.00     0.013 A 
ATOM     17  C   UNL     1     136.839 141.638 128.793  1.00  0.00     0.045 C 
ATOM     18  C   UNL     1     140.071 142.489 126.932  1.00  0.00    -0.006 A 
ATOM     19  C   UNL     1     140.849 141.895 124.683  1.00  0.00     0.072 A 
ATOM     20  C   UNL     1     141.237 143.292 127.122  1.00  0.00     0.008 A 
ATOM     21  C   UNL     1     141.940 142.766 124.835  1.00  0.00     0.169 A 
ATOM     22  C   UNL     1     142.113 143.491 126.031  1.00  0.00     0.162 A 
BRANCH  13  23
ATOM     23  O   UNL     1     138.929 139.726 124.716  1.00  0.00    -0.507 OA
ATOM     24  H   UNL     1     139.675 139.050 124.612  1.00  0.00     0.293 HD
ENDBRANCH  13  23
BRANCH  19  25
ATOM     25  C   UNL     1     140.645 141.316 123.335  1.00  0.00     0.264 C 
ATOM     26  O   UNL     1     141.321 140.325 122.950  1.00  0.00    -0.298 OA
ENDBRANCH  19  25
BRANCH  20  27
ATOM     27  C   UNL     1     141.546 143.949 128.480  1.00  0.00     0.017 C 
ATOM     28  C   UNL     1     141.570 142.907 129.602  1.00  0.00     0.012 C 
ATOM     29  C   UNL     1     140.613 145.125 128.826  1.00  0.00     0.012 C 
ENDBRANCH  20  27
BRANCH  21  30
ATOM     30  O   UNL     1     142.839 142.891 123.768  1.00  0.00    -0.504 OA
ATOM     31  H   UNL     1     143.311 143.748 123.516  1.00  0.00     0.293 HD
ENDBRANCH  21  30
BRANCH  22  32
ATOM     32  O   UNL     1     143.123 144.451 126.142  1.00  0.00    -0.504 OA
ATOM     33  H   UNL     1     143.022 145.340 126.609  1.00  0.00     0.293 HD
ENDBRANCH  22  32
ENDBRANCH  11  12
BRANCH  10  34
ATOM     34  O   UNL     1     135.347 141.399 125.631  1.00  0.00    -0.507 OA
ATOM     35  H   UNL     1     134.548 141.948 125.923  1.00  0.00     0.293 HD
ENDBRANCH  10  34
BRANCH   9  36
ATOM     36  C   UNL     1     133.756 135.434 126.902  1.00  0.00     0.017 C 
ATOM     37  C   UNL     1     132.965 135.185 128.191  1.00  0.00     0.012 C 
ATOM     38  C   UNL     1     133.417 134.383 125.827  1.00  0.00     0.012 C 
ENDBRANCH   9  36
BRANCH   6  39
ATOM     39  C   UNL     1     133.181 140.549 124.234  1.00  0.00     0.264 C 
ATOM     40  O   UNL     1     132.512 141.569 124.548  1.00  0.00    -0.298 OA
ENDBRANCH   6  39
BRANCH   8  41
ATOM     41  O   UNL     1     131.187 136.573 126.277  1.00  0.00    -0.504 OA
ATOM     42  H   UNL     1     130.692 136.021 125.590  1.00  0.00     0.293 HD
ENDBRANCH   8  41
BRANCH   7  43
ATOM     43  O   UNL     1     131.001 138.934 124.687  1.00  0.00    -0.504 OA
ATOM     44  H   UNL     1     130.085 138.705 125.046  1.00  0.00     0.293 HD
ENDBRANCH   7  43
TORSDOF 11
ENDMDL
MODEL 4
REMARK VINA RESULT:    -6.914      0.539      9.023
REMARK INTER + INTRA:         -11.536
REMARK INTER:                 -10.387
REMARK INTRA:                  -1.149
REMARK UNBOUND:                -1.388
REMARK SMILES Cc1cc2c(C(C)C)c(O)c(O)c(C=O)c2c(O)c1-c1c(C)cc2c(C(C)C)c(O)c(O)c(C=O)c2c1O
REMARK SMILES IDX 1 1 2 2 3 3 4 4 16 5 13 6 11 7 9 8 5 9 17 10 19 11 20 12
REMARK SMILES IDX 37 13 21 14 36 15 23 16 22 17 24 18 33 19 25 20 31 21 29 22
REMARK SMILES IDX 38 23 34 25 35 26 26 27 27 28 28 29 32 30 30 32 18 34 6 36
REMARK SMILES IDX 7 37 8 38 14 39 15 40 10 41 12 43
REMARK H PARENT 38 24 32 31 30 33 18 35 10 42 12 44
REMARK Flexibility Score: inf
ROOT
ATOM      1  C   UNL     1     129.751 138.093 125.364  1.00  0.00     0.045 C 
ATOM      2  C   UNL     1     130.387 138.722 126.580  1.00  0.00    -0.039 A 
ATOM      3  C   UNL     1     129.964 139.986 126.996  1.00  0.00     0.013 A 
ATOM      4  C   UNL     1     130.549 140.642 128.105  1.00  0.00    -0.006 A 
ATOM      5  C   UNL     1     131.556 139.958 128.848  1.00  0.00     0.039 A 
ATOM      6  C   UNL     1     132.164 140.618 129.953  1.00  0.00     0.072 A 
ATOM      7  C   UNL     1     131.610 141.807 130.447  1.00  0.00     0.169 A 
ATOM      8  C   UNL     1     130.538 142.424 129.776  1.00  0.00     0.162 A 
ATOM      9  C   UNL     1     130.119 141.943 128.515  1.00  0.00     0.008 A 
ATOM     10  C   UNL     1     131.881 138.615 128.503  1.00  0.00     0.132 A 
ATOM     11  C   UNL     1     131.339 138.025 127.343  1.00  0.00     0.031 A 
ENDROOT
BRANCH  11  12
ATOM     12  C   UNL     1     131.745 136.651 126.946  1.00  0.00     0.031 A 
ATOM     13  C   UNL     1     131.087 135.529 127.491  1.00  0.00     0.132 A 
ATOM     14  C   UNL     1     132.789 136.471 126.024  1.00  0.00    -0.039 A 
ATOM     15  C   UNL     1     131.434 134.215 127.065  1.00  0.00     0.039 A 
ATOM     16  C   UNL     1     133.225 135.178 125.721  1.00  0.00     0.013 A 
ATOM     17  C   UNL     1     133.481 137.654 125.392  1.00  0.00     0.045 C 
ATOM     18  C   UNL     1     132.613 134.037 126.286  1.00  0.00    -0.006 A 
ATOM     19  C   UNL     1     130.664 133.073 127.422  1.00  0.00     0.072 A 
ATOM     20  C   UNL     1     133.133 132.725 126.066  1.00  0.00     0.008 A 
ATOM     21  C   UNL     1     131.128 131.784 127.114  1.00  0.00     0.169 A 
ATOM     22  C   UNL     1     132.334 131.610 126.406  1.00  0.00     0.162 A 
BRANCH  13  23
ATOM     23  O   UNL     1     130.129 135.710 128.495  1.00  0.00    -0.507 OA
ATOM     24  H   UNL     1     130.081 135.147 129.335  1.00  0.00     0.293 HD
ENDBRANCH  13  23
BRANCH  19  25
ATOM     25  C   UNL     1     129.305 133.168 128.004  1.00  0.00     0.264 C 
ATOM     26  O   UNL     1     129.096 132.856 129.206  1.00  0.00    -0.298 OA
ENDBRANCH  19  25
BRANCH  20  27
ATOM     27  C   UNL     1     134.532 132.508 125.460  1.00  0.00     0.017 C 
ATOM     28  C   UNL     1     134.500 131.422 124.381  1.00  0.00     0.012 C 
ATOM     29  C   UNL     1     135.624 132.227 126.509  1.00  0.00     0.012 C 
ENDBRANCH  20  27
BRANCH  21  30
ATOM     30  O   UNL     1     130.358 130.689 127.526  1.00  0.00    -0.504 OA
ATOM     31  H   UNL     1     129.455 130.449 127.142  1.00  0.00     0.293 HD
ENDBRANCH  21  30
BRANCH  22  32
ATOM     32  O   UNL     1     132.737 130.338 125.987  1.00  0.00    -0.504 OA
ATOM     33  H   UNL     1     133.126 129.630 126.593  1.00  0.00     0.293 HD
ENDBRANCH  22  32
ENDBRANCH  11  12
BRANCH  10  34
ATOM     34  O   UNL     1     132.693 137.849 129.349  1.00  0.00    -0.507 OA
ATOM     35  H   UNL     1     133.091 138.195 130.212  1.00  0.00     0.293 HD
ENDBRANCH  10  34
BRANCH   9  36
ATOM     36  C   UNL     1     129.169 142.791 127.651  1.00  0.00     0.017 C 
ATOM     37  C   UNL     1     129.793 143.090 126.283  1.00  0.00     0.012 C 
ATOM     38  C   UNL     1     127.757 142.191 127.502  1.00  0.00     0.012 C 
ENDBRANCH   9  36
BRANCH   6  39
ATOM     39  C   UNL     1     133.431 140.159 130.568  1.00  0.00     0.264 C 
ATOM     40  O   UNL     1     133.440 139.642 131.716  1.00  0.00    -0.298 OA
ENDBRANCH   6  39
BRANCH   8  41
ATOM     41  O   UNL     1     129.872 143.511 130.348  1.00  0.00    -0.504 OA
ATOM     42  H   UNL     1     128.872 143.650 130.306  1.00  0.00     0.293 HD
ENDBRANCH   8  41
BRANCH   7  43
ATOM     43  O   UNL     1     132.180 142.385 131.589  1.00  0.00    -0.504 OA
ATOM     44  H   UNL     1     132.032 143.343 131.874  1.00  0.00     0.293 HD
ENDBRANCH   7  43
TORSDOF 11
ENDMDL
MODEL 5
REMARK VINA RESULT:    -6.904      6.512     10.183
REMARK INTER + INTRA:         -11.521
REMARK INTER:                 -10.061
REMARK INTRA:                  -1.460
REMARK UNBOUND:                -1.388
REMARK SMILES Cc1cc2c(C(C)C)c(O)c(O)c(C=O)c2c(O)c1-c1c(C)cc2c(C(C)C)c(O)c(O)c(C=O)c2c1O
REMARK SMILES IDX 1 1 2 2 3 3 4 4 16 5 13 6 11 7 9 8 5 9 17 10 19 11 20 12
REMARK SMILES IDX 37 13 21 14 36 15 23 16 22 17 24 18 33 19 25 20 31 21 29 22
REMARK SMILES IDX 38 23 34 25 35 26 26 27 27 28 28 29 32 30 30 32 18 34 6 36
REMARK SMILES IDX 7 37 8 38 14 39 15 40 10 41 12 43
REMARK H PARENT 38 24 32 31 30 33 18 35 10 42 12 44
REMARK Flexibility Score: inf
ROOT
ATOM      1  C   UNL     1     137.272 141.208 128.912  1.00  0.00     0.045 C 
ATOM      2  C   UNL     1     138.108 141.143 127.656  1.00  0.00    -0.039 A 
ATOM      3  C   UNL     1     139.145 142.061 127.478  1.00  0.00     0.013 A 
ATOM      4  C   UNL     1     139.938 142.074 126.307  1.00  0.00    -0.006 A 
ATOM      5  C   UNL     1     139.702 141.077 125.313  1.00  0.00     0.039 A 
ATOM      6  C   UNL     1     140.481 141.095 124.122  1.00  0.00     0.072 A 
ATOM      7  C   UNL     1     141.616 141.915 124.042  1.00  0.00     0.169 A 
ATOM      8  C   UNL     1     141.914 142.819 125.078  1.00  0.00     0.162 A 
ATOM      9  C   UNL     1     140.988 143.027 126.127  1.00  0.00     0.008 A 
ATOM     10  C   UNL     1     138.738 140.060 125.566  1.00  0.00     0.132 A 
ATOM     11  C   UNL     1     137.910 140.129 126.705  1.00  0.00     0.031 A 
ENDROOT
BRANCH  11  12
ATOM     12  C   UNL     1     136.853 139.106 126.921  1.00  0.00     0.031 A 
ATOM     13  C   UNL     1     137.146 137.915 127.617  1.00  0.00     0.132 A 
ATOM     14  C   UNL     1     135.556 139.328 126.428  1.00  0.00    -0.039 A 
ATOM     15  C   UNL     1     136.120 136.963 127.877  1.00  0.00     0.039 A 
ATOM     16  C   UNL     1     134.590 138.327 126.557  1.00  0.00     0.013 A 
ATOM     17  C   UNL     1     135.204 140.612 125.719  1.00  0.00     0.045 C 
ATOM     18  C   UNL     1     134.869 137.106 127.211  1.00  0.00    -0.006 A 
ATOM     19  C   UNL     1     136.314 135.856 128.749  1.00  0.00     0.072 A 
ATOM     20  C   UNL     1     133.918 136.041 127.239  1.00  0.00     0.008 A 
ATOM     21  C   UNL     1     135.330 134.858 128.854  1.00  0.00     0.169 A 
ATOM     22  C   UNL     1     134.123 134.967 128.135  1.00  0.00     0.162 A 
BRANCH  13  23
ATOM     23  O   UNL     1     138.465 137.646 128.002  1.00  0.00    -0.507 OA
ATOM     24  H   UNL     1     138.991 138.222 128.648  1.00  0.00     0.293 HD
ENDBRANCH  13  23
BRANCH  19  25
ATOM     25  C   UNL     1     137.466 135.752 129.674  1.00  0.00     0.264 C 
ATOM     26  O   UNL     1     138.401 134.939 129.450  1.00  0.00    -0.298 OA
ENDBRANCH  19  25
BRANCH  20  27
ATOM     27  C   UNL     1     132.678 136.047 126.325  1.00  0.00     0.017 C 
ATOM     28  C   UNL     1     131.425 136.456 127.103  1.00  0.00     0.012 C 
ATOM     29  C   UNL     1     132.462 134.725 125.566  1.00  0.00     0.012 C 
ENDBRANCH  20  27
BRANCH  21  30
ATOM     30  O   UNL     1     135.586 133.765 129.691  1.00  0.00    -0.504 OA
ATOM     31  H   UNL     1     136.380 133.147 129.598  1.00  0.00     0.293 HD
ENDBRANCH  21  30
BRANCH  22  32
ATOM     32  O   UNL     1     133.092 134.044 128.331  1.00  0.00    -0.504 OA
ATOM     33  H   UNL     1     132.609 133.898 129.206  1.00  0.00     0.293 HD
ENDBRANCH  22  32
ENDBRANCH  11  12
BRANCH  10  34
ATOM     34  O   UNL     1     138.649 138.950 124.717  1.00  0.00    -0.507 OA
ATOM     35  H   UNL     1     137.780 138.487 124.485  1.00  0.00     0.293 HD
ENDBRANCH  10  34
BRANCH   9  36
ATOM     36  C   UNL     1     141.169 144.223 127.078  1.00  0.00     0.017 C 
ATOM     37  C   UNL     1     139.908 145.093 127.108  1.00  0.00     0.012 C 
ATOM     38  C   UNL     1     141.609 143.828 128.502  1.00  0.00     0.012 C 
ENDBRANCH   9  36
BRANCH   6  39
ATOM     39  C   UNL     1     140.103 140.348 122.901  1.00  0.00     0.264 C 
ATOM     40  O   UNL     1     140.731 139.312 122.558  1.00  0.00    -0.298 OA
ENDBRANCH   6  39
BRANCH   8  41
ATOM     41  O   UNL     1     143.125 143.516 125.088  1.00  0.00    -0.504 OA
ATOM     42  H   UNL     1     143.301 144.339 125.646  1.00  0.00     0.293 HD
ENDBRANCH   8  41
BRANCH   7  43
ATOM     43  O   UNL     1     142.411 141.843 122.891  1.00  0.00    -0.504 OA
ATOM     44  H   UNL     1     142.730 142.649 122.371  1.00  0.00     0.293 HD
ENDBRANCH   7  43
TORSDOF 11
ENDMDL
MODEL 6
REMARK VINA RESULT:    -6.785      3.189      4.578
REMARK INTER + INTRA:         -11.346
REMARK INTER:                 -10.297
REMARK INTRA:                  -1.049
REMARK UNBOUND:                -1.388
REMARK SMILES Cc1cc2c(C(C)C)c(O)c(O)c(C=O)c2c(O)c1-c1c(C)cc2c(C(C)C)c(O)c(O)c(C=O)c2c1O
REMARK SMILES IDX 1 1 2 2 3 3 4 4 16 5 13 6 11 7 9 8 5 9 17 10 19 11 20 12
REMARK SMILES IDX 37 13 21 14 36 15 23 16 22 17 24 18 33 19 25 20 31 21 29 22
REMARK SMILES IDX 38 23 34 25 35 26 26 27 27 28 28 29 32 30 30 32 18 34 6 36
REMARK SMILES IDX 7 37 8 38 14 39 15 40 10 41 12 43
REMARK H PARENT 38 24 32 31 30 33 18 35 10 42 12 44
REMARK Flexibility Score: inf
ROOT
ATOM      1  C   UNL     1     132.054 135.630 125.396  1.00  0.00     0.045 C 
ATOM      2  C   UNL     1     133.079 135.758 126.497  1.00  0.00    -0.039 A 
ATOM      3  C   UNL     1     133.933 134.686 126.763  1.00  0.00     0.013 A 
ATOM      4  C   UNL     1     134.888 134.733 127.806  1.00  0.00    -0.006 A 
ATOM      5  C   UNL     1     135.014 135.937 128.560  1.00  0.00     0.039 A 
ATOM      6  C   UNL     1     135.958 135.986 129.625  1.00  0.00     0.072 A 
ATOM      7  C   UNL     1     136.910 134.966 129.762  1.00  0.00     0.169 A 
ATOM      8  C   UNL     1     136.854 133.827 128.938  1.00  0.00     0.162 A 
ATOM      9  C   UNL     1     135.748 133.625 128.080  1.00  0.00     0.008 A 
ATOM     10  C   UNL     1     134.238 137.072 128.190  1.00  0.00     0.132 A 
ATOM     11  C   UNL     1     133.239 136.962 127.202  1.00  0.00     0.031 A 
ENDROOT
BRANCH  11  12
ATOM     12  C   UNL     1     132.379 138.131 126.877  1.00  0.00     0.031 A 
ATOM     13  C   UNL     1     132.875 139.178 126.074  1.00  0.00     0.132 A 
ATOM     14  C   UNL     1     131.067 138.191 127.375  1.00  0.00    -0.039 A 
ATOM     15  C   UNL     1     132.033 140.268 125.712  1.00  0.00     0.039 A 
ATOM     16  C   UNL     1     130.293 139.331 127.140  1.00  0.00     0.013 A 
ATOM     17  C   UNL     1     130.496 137.065 128.200  1.00  0.00     0.045 C 
ATOM     18  C   UNL     1     130.781 140.415 126.375  1.00  0.00    -0.006 A 
ATOM     19  C   UNL     1     132.416 141.234 124.740  1.00  0.00     0.072 A 
ATOM     20  C   UNL     1     130.035 141.624 126.234  1.00  0.00     0.008 A 
ATOM     21  C   UNL     1     131.625 142.375 124.529  1.00  0.00     0.169 A 
ATOM     22  C   UNL     1     130.422 142.552 125.241  1.00  0.00     0.162 A 
BRANCH  13  23
ATOM     23  O   UNL     1     134.218 139.170 125.679  1.00  0.00    -0.507 OA
ATOM     24  H   UNL     1     134.523 139.274 124.719  1.00  0.00     0.293 HD
ENDBRANCH  13  23
BRANCH  19  25
ATOM     25  C   UNL     1     133.562 141.041 123.822  1.00  0.00     0.264 C 
ATOM     26  O   UNL     1     134.637 141.675 123.992  1.00  0.00    -0.298 OA
ENDBRANCH  19  25
BRANCH  20  27
ATOM     27  C   UNL     1     128.820 141.926 127.131  1.00  0.00     0.017 C 
ATOM     28  C   UNL     1     129.255 142.199 128.573  1.00  0.00     0.012 C 
ATOM     29  C   UNL     1     127.722 140.848 127.069  1.00  0.00     0.012 C 
ENDBRANCH  20  27
BRANCH  21  30
ATOM     30  O   UNL     1     132.066 143.320 123.593  1.00  0.00    -0.504 OA
ATOM     31  H   UNL     1     132.252 144.290 123.805  1.00  0.00     0.293 HD
ENDBRANCH  21  30
BRANCH  22  32
ATOM     32  O   UNL     1     129.570 143.621 124.946  1.00  0.00    -0.504 OA
ATOM     33  H   UNL     1     128.587 143.652 125.175  1.00  0.00     0.293 HD
ENDBRANCH  22  32
ENDBRANCH  11  12
BRANCH  10  34
ATOM     34  O   UNL     1     134.505 138.322 128.762  1.00  0.00    -0.507 OA
ATOM     35  H   UNL     1     134.168 139.198 128.384  1.00  0.00     0.293 HD
ENDBRANCH  10  34
BRANCH   9  36
ATOM     36  C   UNL     1     135.536 132.251 127.419  1.00  0.00     0.017 C 
ATOM     37  C   UNL     1     134.421 131.471 128.124  1.00  0.00     0.012 C 
ATOM     38  C   UNL     1     135.295 132.321 125.899  1.00  0.00     0.012 C 
ENDBRANCH   9  36
BRANCH   6  39
ATOM     39  C   UNL     1     135.934 137.032 130.674  1.00  0.00     0.264 C 
ATOM     40  O   UNL     1     136.776 137.968 130.670  1.00  0.00    -0.298 OA
ENDBRANCH   6  39
BRANCH   8  41
ATOM     41  O   UNL     1     137.889 132.888 128.951  1.00  0.00    -0.504 OA
ATOM     42  H   UNL     1     138.163 132.357 129.765  1.00  0.00     0.293 HD
ENDBRANCH   8  41
BRANCH   7  43
ATOM     43  O   UNL     1     137.880 135.089 130.766  1.00  0.00    -0.504 OA
ATOM     44  H   UNL     1     138.543 134.365 131.005  1.00  0.00     0.293 HD
ENDBRANCH   7  43
TORSDOF 11
ENDMDL
MODEL 7
REMARK VINA RESULT:    -6.705      6.201      8.266
REMARK INTER + INTRA:         -11.228
REMARK INTER:                  -9.751
REMARK INTRA:                  -1.477
REMARK UNBOUND:                -1.388
REMARK SMILES Cc1cc2c(C(C)C)c(O)c(O)c(C=O)c2c(O)c1-c1c(C)cc2c(C(C)C)c(O)c(O)c(C=O)c2c1O
REMARK SMILES IDX 1 1 2 2 3 3 4 4 16 5 13 6 11 7 9 8 5 9 17 10 19 11 20 12
REMARK SMILES IDX 37 13 21 14 36 15 23 16 22 17 24 18 33 19 25 20 31 21 29 22
REMARK SMILES IDX 38 23 34 25 35 26 26 27 27 28 28 29 32 30 30 32 18 34 6 36
REMARK SMILES IDX 7 37 8 38 14 39 15 40 10 41 12 43
REMARK H PARENT 38 24 32 31 30 33 18 35 10 42 12 44
REMARK Flexibility Score: inf
ROOT
ATOM      1  C   UNL     1     138.763 137.476 128.972  1.00  0.00     0.045 C 
ATOM      2  C   UNL     1     137.422 137.283 128.306  1.00  0.00    -0.039 A 
ATOM      3  C   UNL     1     136.601 136.230 128.715  1.00  0.00     0.013 A 
ATOM      4  C   UNL     1     135.351 135.976 128.103  1.00  0.00    -0.006 A 
ATOM      5  C   UNL     1     134.900 136.864 127.082  1.00  0.00     0.039 A 
ATOM      6  C   UNL     1     133.653 136.604 126.446  1.00  0.00     0.072 A 
ATOM      7  C   UNL     1     132.780 135.649 126.985  1.00  0.00     0.169 A 
ATOM      8  C   UNL     1     133.184 134.849 128.070  1.00  0.00     0.162 A 
ATOM      9  C   UNL     1     134.524 134.887 128.520  1.00  0.00     0.008 A 
ATOM     10  C   UNL     1     135.678 138.015 126.769  1.00  0.00     0.132 A 
ATOM     11  C   UNL     1     136.955 138.189 127.339  1.00  0.00     0.031 A 
ENDROOT
BRANCH  11  12
ATOM     12  C   UNL     1     137.795 139.352 126.947  1.00  0.00     0.031 A 
ATOM     13  C   UNL     1     138.698 139.247 125.869  1.00  0.00     0.132 A 
ATOM     14  C   UNL     1     137.687 140.560 127.655  1.00  0.00    -0.039 A 
ATOM     15  C   UNL     1     139.457 140.378 125.455  1.00  0.00     0.039 A 
ATOM     16  C   UNL     1     138.539 141.621 127.340  1.00  0.00     0.013 A 
ATOM     17  C   UNL     1     136.698 140.713 128.784  1.00  0.00     0.045 C 
ATOM     18  C   UNL     1     139.484 141.529 126.294  1.00  0.00    -0.006 A 
ATOM     19  C   UNL     1     140.218 140.384 124.252  1.00  0.00     0.072 A 
ATOM     20  C   UNL     1     140.431 142.570 126.050  1.00  0.00     0.008 A 
ATOM     21  C   UNL     1     141.074 141.459 123.963  1.00  0.00     0.169 A 
ATOM     22  C   UNL     1     141.152 142.564 124.834  1.00  0.00     0.162 A 
BRANCH  13  23
ATOM     23  O   UNL     1     138.887 138.009 125.243  1.00  0.00    -0.507 OA
ATOM     24  H   UNL     1     138.402 137.162 125.514  1.00  0.00     0.293 HD
ENDBRANCH  13  23
BRANCH  19  25
ATOM     25  C   UNL     1     140.062 139.356 123.197  1.00  0.00     0.264 C 
ATOM     26  O   UNL     1     140.870 138.392 123.113  1.00  0.00    -0.298 OA
ENDBRANCH  19  25
BRANCH  20  27
ATOM     27  C   UNL     1     140.670 143.694 127.074  1.00  0.00     0.017 C 
ATOM     28  C   UNL     1     140.038 145.008 126.605  1.00  0.00     0.012 C 
ATOM     29  C   UNL     1     142.151 143.885 127.450  1.00  0.00     0.012 C 
ENDBRANCH  20  27
BRANCH  21  30
ATOM     30  O   UNL     1     141.836 141.398 122.789  1.00  0.00    -0.504 OA
ATOM     31  H   UNL     1     141.450 141.414 121.855  1.00  0.00     0.293 HD
ENDBRANCH  21  30
BRANCH  22  32
ATOM     32  O   UNL     1     141.905 143.690 124.490  1.00  0.00    -0.504 OA
ATOM     33  H   UNL     1     142.914 143.738 124.518  1.00  0.00     0.293 HD
ENDBRANCH  22  32
ENDBRANCH  11  12
BRANCH  10  34
ATOM     34  O   UNL     1     135.153 139.014 125.940  1.00  0.00    -0.507 OA
ATOM     35  H   UNL     1     134.922 138.873 124.965  1.00  0.00     0.293 HD
ENDBRANCH  10  34
BRANCH   9  36
ATOM     36  C   UNL     1     135.035 133.804 129.487  1.00  0.00     0.017 C 
ATOM     37  C   UNL     1     136.270 133.100 128.915  1.00  0.00     0.012 C 
ATOM     38  C   UNL     1     135.297 134.318 130.916  1.00  0.00     0.012 C 
ENDBRANCH   9  36
BRANCH   6  39
ATOM     39  C   UNL     1     133.254 137.235 125.167  1.00  0.00     0.264 C 
ATOM     40  O   UNL     1     132.399 138.159 125.143  1.00  0.00    -0.298 OA
ENDBRANCH   6  39
BRANCH   8  41
ATOM     41  O   UNL     1     132.269 134.016 128.720  1.00  0.00    -0.504 OA
ATOM     42  H   UNL     1     131.269 134.157 128.712  1.00  0.00     0.293 HD
ENDBRANCH   8  41
BRANCH   7  43
ATOM     43  O   UNL     1     131.524 135.480 126.387  1.00  0.00    -0.504 OA
ATOM     44  H   UNL     1     131.265 135.870 125.492  1.00  0.00     0.293 HD
ENDBRANCH   7  43
TORSDOF 11
ENDMDL
MODEL 8
REMARK VINA RESULT:    -6.635      6.327      8.532
REMARK INTER + INTRA:         -11.127
REMARK INTER:                  -9.793
REMARK INTRA:                  -1.333
REMARK UNBOUND:                -1.388
REMARK SMILES Cc1cc2c(C(C)C)c(O)c(O)c(C=O)c2c(O)c1-c1c(C)cc2c(C(C)C)c(O)c(O)c(C=O)c2c1O
REMARK SMILES IDX 1 1 2 2 3 3 4 4 16 5 13 6 11 7 9 8 5 9 17 10 19 11 20 12
REMARK SMILES IDX 37 13 21 14 36 15 23 16 22 17 24 18 33 19 25 20 31 21 29 22
REMARK SMILES IDX 38 23 34 25 35 26 26 27 27 28 28 29 32 30 30 32 18 34 6 36
REMARK SMILES IDX 7 37 8 38 14 39 15 40 10 41 12 43
REMARK H PARENT 38 24 32 31 30 33 18 35 10 42 12 44
REMARK Flexibility Score: inf
ROOT
ATOM      1  C   UNL     1     134.992 140.692 125.479  1.00  0.00     0.045 C 
ATOM      2  C   UNL     1     135.276 139.427 126.253  1.00  0.00    -0.039 A 
ATOM      3  C   UNL     1     134.288 138.444 126.341  1.00  0.00     0.013 A 
ATOM      4  C   UNL     1     134.481 137.255 127.083  1.00  0.00    -0.006 A 
ATOM      5  C   UNL     1     135.747 137.038 127.705  1.00  0.00     0.039 A 
ATOM      6  C   UNL     1     135.943 135.855 128.471  1.00  0.00     0.072 A 
ATOM      7  C   UNL     1     135.003 134.816 128.404  1.00  0.00     0.169 A 
ATOM      8  C   UNL     1     133.802 134.989 127.693  1.00  0.00     0.162 A 
ATOM      9  C   UNL     1     133.458 136.261 127.179  1.00  0.00     0.008 A 
ATOM     10  C   UNL     1     136.794 137.979 127.493  1.00  0.00     0.132 A 
ATOM     11  C   UNL     1     136.539 139.191 126.819  1.00  0.00     0.031 A 
ENDROOT
BRANCH  11  12
ATOM     12  C   UNL     1     137.619 140.203 126.671  1.00  0.00     0.031 A 
ATOM     13  C   UNL     1     138.594 140.062 125.663  1.00  0.00     0.132 A 
ATOM     14  C   UNL     1     137.665 141.305 127.541  1.00  0.00    -0.039 A 
ATOM     15  C   UNL     1     139.591 141.062 125.482  1.00  0.00     0.039 A 
ATOM     16  C   UNL     1     138.730 142.206 127.454  1.00  0.00     0.013 A 
ATOM     17  C   UNL     1     136.610 141.504 128.600  1.00  0.00     0.045 C 
ATOM     18  C   UNL     1     139.745 142.064 126.482  1.00  0.00    -0.006 A 
ATOM     19  C   UNL     1     140.461 141.072 124.356  1.00  0.00     0.072 A 
ATOM     20  C   UNL     1     140.891 142.916 126.470  1.00  0.00     0.008 A 
ATOM     21  C   UNL     1     141.530 141.982 124.297  1.00  0.00     0.169 A 
ATOM     22  C   UNL     1     141.722 142.925 125.327  1.00  0.00     0.162 A 
BRANCH  13  23
ATOM     23  O   UNL     1     138.612 138.904 124.876  1.00  0.00    -0.507 OA
ATOM     24  H   UNL     1     139.461 138.449 124.563  1.00  0.00     0.293 HD
ENDBRANCH  13  23
BRANCH  19  25
ATOM     25  C   UNL     1     140.228 140.244 123.151  1.00  0.00     0.264 C 
ATOM     26  O   UNL     1     140.870 139.176 122.969  1.00  0.00    -0.298 OA
ENDBRANCH  19  25
BRANCH  20  27
ATOM     27  C   UNL     1     141.228 143.826 127.667  1.00  0.00     0.017 C 
ATOM     28  C   UNL     1     141.218 143.034 128.978  1.00  0.00     0.012 C 
ATOM     29  C   UNL     1     140.338 145.079 127.760  1.00  0.00     0.012 C 
ENDBRANCH  20  27
BRANCH  21  30
ATOM     30  O   UNL     1     142.386 141.924 123.190  1.00  0.00    -0.504 OA
ATOM     31  H   UNL     1     142.110 142.136 122.242  1.00  0.00     0.293 HD
ENDBRANCH  21  30
BRANCH  22  32
ATOM     32  O   UNL     1     142.705 143.912 125.214  1.00  0.00    -0.504 OA
ATOM     33  H   UNL     1     142.543 144.848 124.871  1.00  0.00     0.293 HD
ENDBRANCH  22  32
ENDBRANCH  11  12
BRANCH  10  34
ATOM     34  O   UNL     1     138.101 137.679 127.898  1.00  0.00    -0.507 OA
ATOM     35  H   UNL     1     138.493 137.963 128.787  1.00  0.00     0.293 HD
ENDBRANCH  10  34
BRANCH   9  36
ATOM     36  C   UNL     1     132.026 136.521 126.680  1.00  0.00     0.017 C 
ATOM     37  C   UNL     1     131.761 135.778 125.365  1.00  0.00     0.012 C 
ATOM     38  C   UNL     1     130.935 136.213 127.725  1.00  0.00     0.012 C 
ENDBRANCH   9  36
BRANCH   6  39
ATOM     39  C   UNL     1     137.064 135.690 129.425  1.00  0.00     0.264 C 
ATOM     40  O   UNL     1     138.034 134.934 129.156  1.00  0.00    -0.298 OA
ENDBRANCH   6  39
BRANCH   8  41
ATOM     41  O   UNL     1     132.939 133.911 127.481  1.00  0.00    -0.504 OA
ATOM     42  H   UNL     1     131.934 133.963 127.567  1.00  0.00     0.293 HD
ENDBRANCH   8  41
BRANCH   7  43
ATOM     43  O   UNL     1     135.270 133.630 129.101  1.00  0.00    -0.504 OA
ATOM     44  H   UNL     1     136.191 133.230 129.207  1.00  0.00     0.293 HD
ENDBRANCH   7  43
TORSDOF 11
ENDMDL
MODEL 9
REMARK VINA RESULT:    -6.576      3.663      9.168
REMARK INTER + INTRA:         -11.040
REMARK INTER:                  -9.838
REMARK INTRA:                  -1.202
REMARK UNBOUND:                -1.388
REMARK SMILES Cc1cc2c(C(C)C)c(O)c(O)c(C=O)c2c(O)c1-c1c(C)cc2c(C(C)C)c(O)c(O)c(C=O)c2c1O
REMARK SMILES IDX 1 1 2 2 3 3 4 4 16 5 13 6 11 7 9 8 5 9 17 10 19 11 20 12
REMARK SMILES IDX 37 13 21 14 36 15 23 16 22 17 24 18 33 19 25 20 31 21 29 22
REMARK SMILES IDX 38 23 34 25 35 26 26 27 27 28 28 29 32 30 30 32 18 34 6 36
REMARK SMILES IDX 7 37 8 38 14 39 15 40 10 41 12 43
REMARK H PARENT 38 24 32 31 30 33 18 35 10 42 12 44
REMARK Flexibility Score: inf
ROOT
ATOM      1  C   UNL     1     135.850 134.864 128.449  1.00  0.00     0.045 C 
ATOM      2  C   UNL     1     134.876 135.699 127.653  1.00  0.00    -0.039 A 
ATOM      3  C   UNL     1     135.242 136.990 127.264  1.00  0.00     0.013 A 
ATOM      4  C   UNL     1     134.358 137.833 126.550  1.00  0.00    -0.006 A 
ATOM      5  C   UNL     1     133.083 137.318 126.169  1.00  0.00     0.039 A 
ATOM      6  C   UNL     1     132.180 138.166 125.469  1.00  0.00     0.072 A 
ATOM      7  C   UNL     1     132.630 139.388 124.948  1.00  0.00     0.169 A 
ATOM      8  C   UNL     1     133.931 139.844 125.230  1.00  0.00     0.162 A 
ATOM      9  C   UNL     1     134.736 139.158 126.168  1.00  0.00     0.008 A 
ATOM     10  C   UNL     1     132.774 135.956 126.446  1.00  0.00     0.132 A 
ATOM     11  C   UNL     1     133.644 135.173 127.232  1.00  0.00     0.031 A 
ENDROOT
BRANCH  11  12
ATOM     12  C   UNL     1     133.276 133.775 127.584  1.00  0.00     0.031 A 
ATOM     13  C   UNL     1     133.614 132.712 126.722  1.00  0.00     0.132 A 
ATOM     14  C   UNL     1     132.588 133.515 128.781  1.00  0.00    -0.039 A 
ATOM     15  C   UNL     1     133.317 131.368 127.088  1.00  0.00     0.039 A 
ATOM     16  C   UNL     1     132.169 132.213 129.065  1.00  0.00     0.013 A 
ATOM     17  C   UNL     1     132.253 134.629 129.742  1.00  0.00     0.045 C 
ATOM     18  C   UNL     1     132.455 131.135 128.198  1.00  0.00    -0.006 A 
ATOM     19  C   UNL     1     133.821 130.254 126.360  1.00  0.00     0.072 A 
ATOM     20  C   UNL     1     131.926 129.829 128.431  1.00  0.00     0.008 A 
ATOM     21  C   UNL     1     133.376 128.955 126.659  1.00  0.00     0.169 A 
ATOM     22  C   UNL     1     132.466 128.738 127.713  1.00  0.00     0.162 A 
BRANCH  13  23
ATOM     23  O   UNL     1     134.194 132.988 125.478  1.00  0.00    -0.507 OA
ATOM     24  H   UNL     1     133.829 132.644 124.599  1.00  0.00     0.293 HD
ENDBRANCH  13  23
BRANCH  19  25
ATOM     25  C   UNL     1     134.910 130.369 125.363  1.00  0.00     0.264 C 
ATOM     26  O   UNL     1     134.650 130.509 124.139  1.00  0.00    -0.298 OA
ENDBRANCH  19  25
BRANCH  20  27
ATOM     27  C   UNL     1     130.797 129.591 129.450  1.00  0.00     0.017 C 
ATOM     28  C   UNL     1     129.544 130.388 129.077  1.00  0.00     0.012 C 
ATOM     29  C   UNL     1     131.215 129.850 130.909  1.00  0.00     0.012 C 
ENDBRANCH  20  27
BRANCH  21  30
ATOM     30  O   UNL     1     133.866 127.895 125.886  1.00  0.00    -0.504 OA
ATOM     31  H   UNL     1     134.103 127.964 124.907  1.00  0.00     0.293 HD
ENDBRANCH  21  30
BRANCH  22  32
ATOM     32  O   UNL     1     132.117 127.439 128.096  1.00  0.00    -0.504 OA
ATOM     33  H   UNL     1     131.903 127.156 129.041  1.00  0.00     0.293 HD
ENDBRANCH  22  32
ENDBRANCH  11  12
BRANCH  10  34
ATOM     34  O   UNL     1     131.633 135.366 125.888  1.00  0.00    -0.507 OA
ATOM     35  H   UNL     1     131.542 135.134 124.907  1.00  0.00     0.293 HD
ENDBRANCH  10  34
BRANCH   9  36
ATOM     36  C   UNL     1     136.020 139.819 126.700  1.00  0.00     0.017 C 
ATOM     37  C   UNL     1     135.966 139.969 128.225  1.00  0.00     0.012 C 
ATOM     38  C   UNL     1     137.316 139.116 126.253  1.00  0.00     0.012 C 
ENDBRANCH   9  36
BRANCH   6  39
ATOM     39  C   UNL     1     130.736 137.866 125.332  1.00  0.00     0.264 C 
ATOM     40  O   UNL     1     129.870 138.619 125.850  1.00  0.00    -0.298 OA
ENDBRANCH   6  39
BRANCH   8  41
ATOM     41  O   UNL     1     134.445 140.971 124.583  1.00  0.00    -0.504 OA
ATOM     42  H   UNL     1     134.436 141.104 123.582  1.00  0.00     0.293 HD
ENDBRANCH   8  41
BRANCH   7  43
ATOM     43  O   UNL     1     131.739 140.158 124.188  1.00  0.00    -0.504 OA
ATOM     44  H   UNL     1     131.119 139.779 123.487  1.00  0.00     0.293 HD
ENDBRANCH   7  43
TORSDOF 11
ENDMDL
