MODEL 1
REMARK VINA RESULT:    -4.080      0.000      0.000
REMARK INTER + INTRA:          -7.737
REMARK INTER:                  -6.466
REMARK INTRA:                  -1.272
REMARK UNBOUND:                -1.272
REMARK SMILES CCCCCCCCCCCC(=O)[O-]
REMARK SMILES IDX 7 1 8 2 9 3 10 4 11 5 12 6 13 7 14 8 6 9 5 10 4 11 3 12 2 13
REMARK SMILES IDX 1 14
REMARK H PARENT
REMARK Flexibility Score: inf
ROOT
ATOM      1  C   UNL     1       1.595  51.580  22.242  1.00  0.00     0.000 C 
ENDROOT
BRANCH   1   2
ATOM      2  C   UNL     1       2.339  51.299  23.554  1.00  0.00     0.000 C 
BRANCH   2   3
ATOM      3  C   UNL     1       1.437  51.572  24.767  1.00  0.00     0.000 C 
BRANCH   3   4
ATOM      4  C   UNL     1       1.328  50.361  25.713  1.00  0.00     0.006 C 
BRANCH   4   5
ATOM      5  C   UNL     1       2.523  49.397  25.649  1.00  0.00     0.053 C 
BRANCH   5   6
ATOM      6  C   UNL     1       2.935  48.925  27.009  1.00  0.00     0.041 C 
ATOM      7  O   UNL     1       2.072  48.496  27.820  1.00  0.00    -0.550 OA
ATOM      8  O   UNL     1       4.268  48.990  27.393  1.00  0.00    -0.550 OA
ENDBRANCH   5   6
ENDBRANCH   4   5
ENDBRANCH   3   4
ENDBRANCH   2   3
ENDBRANCH   1   2
BRANCH   1   9
ATOM      9  C   UNL     1       1.840  50.458  21.222  1.00  0.00     0.000 C 
BRANCH   9  10
ATOM     10  C   UNL     1       2.152  49.108  21.887  1.00  0.00    -0.000 C 
BRANCH  10  11
ATOM     11  C   UNL     1       0.981  48.116  21.784  1.00  0.00    -0.000 C 
BRANCH  11  12
ATOM     12  C   UNL     1      -0.015  48.241  22.952  1.00  0.00    -0.000 C 
BRANCH  12  13
ATOM     13  C   UNL     1      -0.515  46.903  23.525  1.00  0.00    -0.003 C 
ATOM     14  C   UNL     1      -0.196  46.730  25.010  1.00  0.00     0.004 C 
ENDBRANCH  12  13
ENDBRANCH  11  12
ENDBRANCH  10  11
ENDBRANCH   9  10
ENDBRANCH   1   9
TORSDOF 10
ENDMDL
MODEL 2
REMARK VINA RESULT:    -4.076      2.309      4.511
REMARK INTER + INTRA:          -7.730
REMARK INTER:                  -6.661
REMARK INTRA:                  -1.069
REMARK UNBOUND:                -1.272
REMARK SMILES CCCCCCCCCCCC(=O)[O-]
REMARK SMILES IDX 7 1 8 2 9 3 10 4 11 5 12 6 13 7 14 8 6 9 5 10 4 11 3 12 2 13
REMARK SMILES IDX 1 14
REMARK H PARENT
REMARK Flexibility Score: inf
ROOT
ATOM      1  C   UNL     1       2.133  49.149  21.811  1.00  0.00     0.000 C 
ENDROOT
BRANCH   1   2
ATOM      2  C   UNL     1       1.033  48.098  21.612  1.00  0.00     0.000 C 
BRANCH   2   3
ATOM      3  C   UNL     1       0.116  48.023  22.842  1.00  0.00     0.000 C 
BRANCH   3   4
ATOM      4  C   UNL     1      -0.511  46.630  23.034  1.00  0.00     0.006 C 
BRANCH   4   5
ATOM      5  C   UNL     1      -0.570  46.157  24.495  1.00  0.00     0.053 C 
BRANCH   5   6
ATOM      6  C   UNL     1      -1.925  46.366  25.098  1.00  0.00     0.041 C 
ATOM      7  O   UNL     1      -2.081  47.191  26.036  1.00  0.00    -0.550 OA
ATOM      8  O   UNL     1      -3.009  45.625  24.645  1.00  0.00    -0.550 OA
ENDBRANCH   5   6
ENDBRANCH   4   5
ENDBRANCH   3   4
ENDBRANCH   2   3
ENDBRANCH   1   2
BRANCH   1   9
ATOM      9  C   UNL     1       1.676  50.525  21.301  1.00  0.00     0.000 C 
BRANCH   9  10
ATOM     10  C   UNL     1       1.368  51.508  22.442  1.00  0.00    -0.000 C 
BRANCH  10  11
ATOM     11  C   UNL     1       2.488  51.558  23.495  1.00  0.00    -0.000 C 
BRANCH  11  12
ATOM     12  C   UNL     1       1.992  51.220  24.914  1.00  0.00    -0.000 C 
BRANCH  12  13
ATOM     13  C   UNL     1       2.496  49.879  25.476  1.00  0.00    -0.003 C 
ATOM     14  C   UNL     1       1.377  49.013  26.055  1.00  0.00     0.004 C 
ENDBRANCH  12  13
ENDBRANCH  11  12
ENDBRANCH  10  11
ENDBRANCH   9  10
ENDBRANCH   1   9
TORSDOF 10
ENDMDL
MODEL 3
REMARK VINA RESULT:    -3.932      2.362      4.563
REMARK INTER + INTRA:          -7.502
REMARK INTER:                  -6.200
REMARK INTRA:                  -1.302
REMARK UNBOUND:                -1.272
REMARK SMILES CCCCCCCCCCCC(=O)[O-]
REMARK SMILES IDX 7 1 8 2 9 3 10 4 11 5 12 6 13 7 14 8 6 9 5 10 4 11 3 12 2 13
REMARK SMILES IDX 1 14
REMARK H PARENT
REMARK Flexibility Score: inf
ROOT
ATOM      1  C   UNL     1       1.064  52.943  21.568  1.00  0.00     0.000 C 
ENDROOT
BRANCH   1   2
ATOM      2  C   UNL     1       0.727  51.483  21.898  1.00  0.00     0.000 C 
BRANCH   2   3
ATOM      3  C   UNL     1       1.720  50.524  21.226  1.00  0.00     0.000 C 
BRANCH   3   4
ATOM      4  C   UNL     1       1.971  49.250  22.054  1.00  0.00     0.006 C 
BRANCH   4   5
ATOM      5  C   UNL     1       1.078  48.059  21.671  1.00  0.00     0.053 C 
BRANCH   5   6
ATOM      6  C   UNL     1       0.061  47.760  22.729  1.00  0.00     0.041 C 
ATOM      7  O   UNL     1      -0.208  48.617  23.611  1.00  0.00    -0.550 OA
ATOM      8  O   UNL     1      -0.566  46.521  22.759  1.00  0.00    -0.550 OA
ENDBRANCH   5   6
ENDBRANCH   4   5
ENDBRANCH   3   4
ENDBRANCH   2   3
ENDBRANCH   1   2
BRANCH   1   9
ATOM      9  C   UNL     1       1.677  53.653  22.785  1.00  0.00     0.000 C 
BRANCH   9  10
ATOM     10  C   UNL     1       3.172  53.343  22.962  1.00  0.00    -0.000 C 
BRANCH  10  11
ATOM     11  C   UNL     1       3.438  52.359  24.113  1.00  0.00    -0.000 C 
BRANCH  11  12
ATOM     12  C   UNL     1       2.303  52.334  25.155  1.00  0.00    -0.000 C 
BRANCH  12  13
ATOM     13  C   UNL     1       1.701  50.944  25.426  1.00  0.00    -0.003 C 
ATOM     14  C   UNL     1       2.759  49.879  25.717  1.00  0.00     0.004 C 
ENDBRANCH  12  13
ENDBRANCH  11  12
ENDBRANCH  10  11
ENDBRANCH   9  10
ENDBRANCH   1   9
TORSDOF 10
ENDMDL
MODEL 4
REMARK VINA RESULT:    -3.913      4.147      6.510
REMARK INTER + INTRA:          -7.472
REMARK INTER:                  -6.960
REMARK INTRA:                  -0.512
REMARK UNBOUND:                -1.272
REMARK SMILES CCCCCCCCCCCC(=O)[O-]
REMARK SMILES IDX 7 1 8 2 9 3 10 4 11 5 12 6 13 7 14 8 6 9 5 10 4 11 3 12 2 13
REMARK SMILES IDX 1 14
REMARK H PARENT
REMARK Flexibility Score: inf
ROOT
ATOM      1  C   UNL     1      -0.532  46.636  23.149  1.00  0.00     0.000 C 
ENDROOT
BRANCH   1   2
ATOM      2  C   UNL     1      -0.511  46.220  24.626  1.00  0.00     0.000 C 
BRANCH   2   3
ATOM      3  C   UNL     1      -1.881  46.446  25.281  1.00  0.00     0.000 C 
BRANCH   3   4
ATOM      4  C   UNL     1      -3.052  46.020  24.377  1.00  0.00     0.006 C 
BRANCH   4   5
ATOM      5  C   UNL     1      -3.261  44.500  24.284  1.00  0.00     0.053 C 
BRANCH   5   6
ATOM      6  C   UNL     1      -4.713  44.138  24.203  1.00  0.00     0.041 C 
ATOM      7  O   UNL     1      -5.073  42.936  24.304  1.00  0.00    -0.550 OA
ATOM      8  O   UNL     1      -5.664  45.126  23.983  1.00  0.00    -0.550 OA
ENDBRANCH   5   6
ENDBRANCH   4   5
ENDBRANCH   3   4
ENDBRANCH   2   3
ENDBRANCH   1   2
BRANCH   1   9
ATOM      9  C   UNL     1       0.135  48.007  22.956  1.00  0.00     0.000 C 
BRANCH   9  10
ATOM     10  C   UNL     1       1.002  48.071  21.688  1.00  0.00    -0.000 C 
BRANCH  10  11
ATOM     11  C   UNL     1       2.146  49.093  21.808  1.00  0.00    -0.000 C 
BRANCH  11  12
ATOM     12  C   UNL     1       1.741  50.503  21.338  1.00  0.00    -0.000 C 
BRANCH  12  13
ATOM     13  C   UNL     1       1.918  51.613  22.388  1.00  0.00    -0.003 C 
ATOM     14  C   UNL     1       2.190  51.072  23.792  1.00  0.00     0.004 C 
ENDBRANCH  12  13
ENDBRANCH  11  12
ENDBRANCH  10  11
ENDBRANCH   9  10
ENDBRANCH   1   9
TORSDOF 10
ENDMDL
MODEL 5
REMARK VINA RESULT:    -3.902      2.131      4.425
REMARK INTER + INTRA:          -7.455
REMARK INTER:                  -6.531
REMARK INTRA:                  -0.924
REMARK UNBOUND:                -1.272
REMARK SMILES CCCCCCCCCCCC(=O)[O-]
REMARK SMILES IDX 7 1 8 2 9 3 10 4 11 5 12 6 13 7 14 8 6 9 5 10 4 11 3 12 2 13
REMARK SMILES IDX 1 14
REMARK H PARENT
REMARK Flexibility Score: inf
ROOT
ATOM      1  C   UNL     1       1.055  50.847  22.493  1.00  0.00     0.000 C 
ENDROOT
BRANCH   1   2
ATOM      2  C   UNL     1       1.404  49.913  21.328  1.00  0.00     0.000 C 
BRANCH   2   3
ATOM      3  C   UNL     1       1.389  48.444  21.776  1.00  0.00     0.000 C 
BRANCH   3   4
ATOM      4  C   UNL     1       0.267  48.141  22.785  1.00  0.00     0.006 C 
BRANCH   4   5
ATOM      5  C   UNL     1      -0.294  46.712  22.699  1.00  0.00     0.053 C 
BRANCH   5   6
ATOM      6  C   UNL     1      -0.793  46.225  24.025  1.00  0.00     0.041 C 
ATOM      7  O   UNL     1      -0.042  46.256  25.035  1.00  0.00    -0.550 OA
ATOM      8  O   UNL     1      -2.077  45.707  24.136  1.00  0.00    -0.550 OA
ENDBRANCH   5   6
ENDBRANCH   4   5
ENDBRANCH   3   4
ENDBRANCH   2   3
ENDBRANCH   1   2
BRANCH   1   9
ATOM      9  C   UNL     1       2.325  51.438  23.123  1.00  0.00     0.000 C 
BRANCH   9  10
ATOM     10  C   UNL     1       2.366  51.265  24.650  1.00  0.00    -0.000 C 
BRANCH  10  11
ATOM     11  C   UNL     1       2.491  49.791  25.073  1.00  0.00    -0.000 C 
BRANCH  11  12
ATOM     12  C   UNL     1       1.481  49.394  26.166  1.00  0.00    -0.000 C 
BRANCH  12  13
ATOM     13  C   UNL     1       2.108  48.918  27.488  1.00  0.00    -0.003 C 
ATOM     14  C   UNL     1       3.636  48.952  27.473  1.00  0.00     0.004 C 
ENDBRANCH  12  13
ENDBRANCH  11  12
ENDBRANCH  10  11
ENDBRANCH   9  10
ENDBRANCH   1   9
TORSDOF 10
ENDMDL
MODEL 6
REMARK VINA RESULT:    -3.895      5.665      8.276
REMARK INTER + INTRA:          -7.444
REMARK INTER:                  -7.080
REMARK INTRA:                  -0.364
REMARK UNBOUND:                -1.272
REMARK SMILES CCCCCCCCCCCC(=O)[O-]
REMARK SMILES IDX 7 1 8 2 9 3 10 4 11 5 12 6 13 7 14 8 6 9 5 10 4 11 3 12 2 13
REMARK SMILES IDX 1 14
REMARK H PARENT
REMARK Flexibility Score: inf
ROOT
ATOM      1  C   UNL     1      -2.519  45.446  24.386  1.00  0.00     0.000 C 
ENDROOT
BRANCH   1   2
ATOM      2  C   UNL     1      -3.563  46.415  24.957  1.00  0.00     0.000 C 
BRANCH   2   3
ATOM      3  C   UNL     1      -4.948  45.755  25.024  1.00  0.00     0.000 C 
BRANCH   3   4
ATOM      4  C   UNL     1      -5.019  44.436  24.232  1.00  0.00     0.006 C 
BRANCH   4   5
ATOM      5  C   UNL     1      -6.204  44.346  23.257  1.00  0.00     0.053 C 
BRANCH   5   6
ATOM      6  C   UNL     1      -7.342  43.558  23.830  1.00  0.00     0.041 C 
ATOM      7  O   UNL     1      -8.530  43.915  23.618  1.00  0.00    -0.550 OA
ATOM      8  O   UNL     1      -7.087  42.448  24.625  1.00  0.00    -0.550 OA
ENDBRANCH   5   6
ENDBRANCH   4   5
ENDBRANCH   3   4
ENDBRANCH   2   3
ENDBRANCH   1   2
BRANCH   1   9
ATOM      9  C   UNL     1      -1.114  46.064  24.430  1.00  0.00     0.000 C 
BRANCH   9  10
ATOM     10  C   UNL     1      -0.582  46.428  23.034  1.00  0.00    -0.000 C 
BRANCH  10  11
ATOM     11  C   UNL     1       0.046  47.831  22.990  1.00  0.00    -0.000 C 
BRANCH  11  12
ATOM     12  C   UNL     1       0.918  48.059  21.741  1.00  0.00    -0.000 C 
BRANCH  12  13
ATOM     13  C   UNL     1       2.093  49.033  21.938  1.00  0.00    -0.003 C 
ATOM     14  C   UNL     1       1.852  50.401  21.300  1.00  0.00     0.004 C 
ENDBRANCH  12  13
ENDBRANCH  11  12
ENDBRANCH  10  11
ENDBRANCH   9  10
ENDBRANCH   1   9
TORSDOF 10
ENDMDL
MODEL 7
REMARK VINA RESULT:    -3.887      2.627      5.394
REMARK INTER + INTRA:          -7.431
REMARK INTER:                  -6.861
REMARK INTRA:                  -0.570
REMARK UNBOUND:                -1.272
REMARK SMILES CCCCCCCCCCCC(=O)[O-]
REMARK SMILES IDX 7 1 8 2 9 3 10 4 11 5 12 6 13 7 14 8 6 9 5 10 4 11 3 12 2 13
REMARK SMILES IDX 1 14
REMARK H PARENT
REMARK Flexibility Score: inf
ROOT
ATOM      1  C   UNL     1       2.170  49.180  21.895  1.00  0.00     0.000 C 
ENDROOT
BRANCH   1   2
ATOM      2  C   UNL     1       1.098  48.106  21.669  1.00  0.00     0.000 C 
BRANCH   2   3
ATOM      3  C   UNL     1       0.088  48.084  22.827  1.00  0.00     0.000 C 
BRANCH   3   4
ATOM      4  C   UNL     1      -0.472  46.677  23.103  1.00  0.00     0.006 C 
BRANCH   4   5
ATOM      5  C   UNL     1      -0.464  46.271  24.585  1.00  0.00     0.053 C 
BRANCH   5   6
ATOM      6  C   UNL     1      -1.671  46.781  25.312  1.00  0.00     0.041 C 
ATOM      7  O   UNL     1      -1.610  47.853  25.968  1.00  0.00    -0.550 OA
ATOM      8  O   UNL     1      -2.854  46.053  25.290  1.00  0.00    -0.550 OA
ENDBRANCH   5   6
ENDBRANCH   4   5
ENDBRANCH   3   4
ENDBRANCH   2   3
ENDBRANCH   1   2
BRANCH   1   9
ATOM      9  C   UNL     1       1.741  50.521  21.280  1.00  0.00     0.000 C 
BRANCH   9  10
ATOM     10  C   UNL     1       1.356  51.564  22.341  1.00  0.00    -0.000 C 
BRANCH  10  11
ATOM     11  C   UNL     1       2.384  51.653  23.481  1.00  0.00    -0.000 C 
BRANCH  11  12
ATOM     12  C   UNL     1       3.521  52.650  23.187  1.00  0.00    -0.000 C 
BRANCH  12  13
ATOM     13  C   UNL     1       3.090  54.127  23.130  1.00  0.00    -0.003 C 
ATOM     14  C   UNL     1       3.968  54.971  22.206  1.00  0.00     0.004 C 
ENDBRANCH  12  13
ENDBRANCH  11  12
ENDBRANCH  10  11
ENDBRANCH   9  10
ENDBRANCH   1   9
TORSDOF 10
ENDMDL
MODEL 8
REMARK VINA RESULT:    -3.868      2.882      4.591
REMARK INTER + INTRA:          -7.400
REMARK INTER:                  -6.375
REMARK INTRA:                  -1.025
REMARK UNBOUND:                -1.272
REMARK SMILES CCCCCCCCCCCC(=O)[O-]
REMARK SMILES IDX 7 1 8 2 9 3 10 4 11 5 12 6 13 7 14 8 6 9 5 10 4 11 3 12 2 13
REMARK SMILES IDX 1 14
REMARK H PARENT
REMARK Flexibility Score: inf
ROOT
ATOM      1  C   UNL     1       1.024  48.048  21.589  1.00  0.00     0.000 C 
ENDROOT
BRANCH   1   2
ATOM      2  C   UNL     1       2.028  49.106  22.064  1.00  0.00     0.000 C 
BRANCH   2   3
ATOM      3  C   UNL     1       1.869  50.412  21.271  1.00  0.00     0.000 C 
BRANCH   3   4
ATOM      4  C   UNL     1       1.401  51.588  22.147  1.00  0.00     0.006 C 
BRANCH   4   5
ATOM      5  C   UNL     1       2.487  52.162  23.071  1.00  0.00     0.053 C 
BRANCH   5   6
ATOM      6  C   UNL     1       2.506  53.660  23.051  1.00  0.00     0.041 C 
ATOM      7  O   UNL     1       1.598  54.313  23.628  1.00  0.00    -0.550 OA
ATOM      8  O   UNL     1       3.510  54.332  22.367  1.00  0.00    -0.550 OA
ENDBRANCH   5   6
ENDBRANCH   4   5
ENDBRANCH   3   4
ENDBRANCH   2   3
ENDBRANCH   1   2
BRANCH   1   9
ATOM      9  C   UNL     1       0.166  47.541  22.758  1.00  0.00     0.000 C 
BRANCH   9  10
ATOM     10  C   UNL     1      -0.125  48.634  23.799  1.00  0.00    -0.000 C 
BRANCH  10  11
ATOM     11  C   UNL     1       0.321  48.233  25.215  1.00  0.00    -0.000 C 
BRANCH  11  12
ATOM     12  C   UNL     1       1.008  49.383  25.976  1.00  0.00    -0.000 C 
BRANCH  12  13
ATOM     13  C   UNL     1       2.528  49.487  25.761  1.00  0.00    -0.003 C 
ATOM     14  C   UNL     1       3.339  48.893  26.912  1.00  0.00     0.004 C 
ENDBRANCH  12  13
ENDBRANCH  11  12
ENDBRANCH  10  11
ENDBRANCH   9  10
ENDBRANCH   1   9
TORSDOF 10
ENDMDL
MODEL 9
REMARK VINA RESULT:    -3.847      1.189      3.431
REMARK INTER + INTRA:          -7.368
REMARK INTER:                  -6.154
REMARK INTRA:                  -1.214
REMARK UNBOUND:                -1.272
REMARK SMILES CCCCCCCCCCCC(=O)[O-]
REMARK SMILES IDX 7 1 8 2 9 3 10 4 11 5 12 6 13 7 14 8 6 9 5 10 4 11 3 12 2 13
REMARK SMILES IDX 1 14
REMARK H PARENT
REMARK Flexibility Score: inf
ROOT
ATOM      1  C   UNL     1      -0.156  48.721  23.334  1.00  0.00     0.000 C 
ENDROOT
BRANCH   1   2
ATOM      2  C   UNL     1       0.378  48.579  24.765  1.00  0.00     0.000 C 
BRANCH   2   3
ATOM      3  C   UNL     1       0.970  49.904  25.266  1.00  0.00     0.000 C 
BRANCH   3   4
ATOM      4  C   UNL     1       2.476  49.808  25.569  1.00  0.00     0.006 C 
BRANCH   4   5
ATOM      5  C   UNL     1       2.856  48.674  26.535  1.00  0.00     0.053 C 
BRANCH   5   6
ATOM      6  C   UNL     1       2.756  49.101  27.967  1.00  0.00     0.041 C 
ATOM      7  O   UNL     1       3.781  49.493  28.585  1.00  0.00    -0.550 OA
ATOM      8  O   UNL     1       1.537  49.033  28.629  1.00  0.00    -0.550 OA
ENDBRANCH   5   6
ENDBRANCH   4   5
ENDBRANCH   3   4
ENDBRANCH   2   3
ENDBRANCH   1   2
BRANCH   1   9
ATOM      9  C   UNL     1       0.834  48.132  22.317  1.00  0.00     0.000 C 
BRANCH   9  10
ATOM     10  C   UNL     1       1.229  49.136  21.223  1.00  0.00    -0.000 C 
BRANCH  10  11
ATOM     11  C   UNL     1       2.057  50.311  21.772  1.00  0.00    -0.000 C 
BRANCH  11  12
ATOM     12  C   UNL     1       1.344  51.668  21.621  1.00  0.00    -0.000 C 
BRANCH  12  13
ATOM     13  C   UNL     1       1.807  52.757  22.605  1.00  0.00    -0.003 C 
ATOM     14  C   UNL     1       3.199  52.494  23.179  1.00  0.00     0.004 C 
ENDBRANCH  12  13
ENDBRANCH  11  12
ENDBRANCH  10  11
ENDBRANCH   9  10
ENDBRANCH   1   9
TORSDOF 10
ENDMDL
