MODEL 1
REMARK VINA RESULT:    -6.079      0.000      0.000
REMARK INTER + INTRA:         -10.082
REMARK INTER:                  -8.389
REMARK INTRA:                  -1.693
REMARK UNBOUND:                -1.693
REMARK SMILES O=C([O-])[C@@H]1O[C@H](Oc2cc3oc(-c4ccccc4)cc(=O)c3c(O)c2O)[C@H](O)[C@H](O)[C@H]1O
REMARK SMILES IDX 7 1 6 2 4 3 31 4 5 5 29 6 27 7 2 8 1 9 3 10 32 11 30 13
REMARK SMILES IDX 28 15 8 17 25 18 9 19 23 20 10 21 22 22 11 23 20 24 12 25
REMARK SMILES IDX 19 26 21 27 26 28 24 30 13 32 14 33 18 34 15 35 17 36 16 37
REMARK H PARENT 32 12 30 14 28 16 26 29 24 31
REMARK Flexibility Score: inf
ROOT
ATOM      1  O   UNL     1       6.055  -0.801   6.540  1.00  0.00    -0.458 OA
ENDROOT
BRANCH   1   2
ATOM      2  C   UNL     1       7.018  -0.691   5.487  1.00  0.00     0.339 C 
ATOM      3  C   UNL     1       6.797   1.664   5.200  1.00  0.00     0.199 C 
ATOM      4  C   UNL     1       8.173   1.934   5.881  1.00  0.00     0.180 C 
ATOM      5  O   UNL     1       6.708   0.376   4.600  1.00  0.00    -0.328 OA
ATOM      6  C   UNL     1       8.629   0.771   6.781  1.00  0.00     0.181 C 
ATOM      7  C   UNL     1       8.441  -0.572   6.060  1.00  0.00     0.214 C 
BRANCH   3   8
ATOM      8  C   UNL     1       5.586   1.969   6.051  1.00  0.00     0.073 C 
ATOM      9  O   UNL     1       5.701   2.392   7.232  1.00  0.00    -0.547 OA
ATOM     10  O   UNL     1       4.317   1.800   5.511  1.00  0.00    -0.547 OA
ENDBRANCH   3   8
BRANCH   4  11
ATOM     11  O   UNL     1       9.157   2.217   4.914  1.00  0.00    -0.387 OA
ATOM     12  H   UNL     1       9.300   1.401   4.369  1.00  0.00     0.211 HD
ENDBRANCH   4  11
BRANCH   6  13
ATOM     13  O   UNL     1       7.904   0.794   7.986  1.00  0.00    -0.387 OA
ATOM     14  H   UNL     1       8.182   1.609   8.481  1.00  0.00     0.211 HD
ENDBRANCH   6  13
BRANCH   7  15
ATOM     15  O   UNL     1       8.700  -1.628   6.950  1.00  0.00    -0.384 OA
ATOM     16  H   UNL     1       8.600  -2.471   6.434  1.00  0.00     0.211 HD
ENDBRANCH   7  15
ENDBRANCH   1   2
BRANCH   1  17
ATOM     17  C   UNL     1       5.000  -1.728   6.584  1.00  0.00     0.172 A 
ATOM     18  C   UNL     1       3.821  -1.354   7.245  1.00  0.00     0.201 A 
ATOM     19  C   UNL     1       5.091  -2.991   5.979  1.00  0.00     0.098 A 
ATOM     20  C   UNL     1       2.724  -2.250   7.309  1.00  0.00     0.176 A 
ATOM     21  C   UNL     1       4.019  -3.880   6.028  1.00  0.00     0.146 A 
ATOM     22  C   UNL     1       2.825  -3.522   6.692  1.00  0.00     0.111 A 
ATOM     23  O   UNL     1       4.141  -5.067   5.442  1.00  0.00    -0.456 OA
ATOM     24  C   UNL     1       1.777  -4.469   6.698  1.00  0.00     0.197 A 
ATOM     25  C   UNL     1       3.177  -5.984   5.437  1.00  0.00     0.138 A 
ATOM     26  C   UNL     1       1.955  -5.701   6.067  1.00  0.00     0.100 A 
ATOM     27  O   UNL     1       0.673  -4.227   7.258  1.00  0.00    -0.289 OA
BRANCH  18  28
ATOM     28  O   UNL     1       3.785  -0.080   7.820  1.00  0.00    -0.502 OA
ATOM     29  H   UNL     1       3.037   0.265   8.402  1.00  0.00     0.293 HD
ENDBRANCH  18  28
BRANCH  20  30
ATOM     30  O   UNL     1       1.539  -1.907   7.971  1.00  0.00    -0.504 OA
ATOM     31  H   UNL     1       1.339  -2.119   8.937  1.00  0.00     0.293 HD
ENDBRANCH  20  30
BRANCH  25  32
ATOM     32  C   UNL     1       3.424  -7.276   4.750  1.00  0.00     0.017 A 
ATOM     33  C   UNL     1       4.726  -7.702   4.415  1.00  0.00     0.012 A 
ATOM     34  C   UNL     1       2.332  -8.089   4.392  1.00  0.00     0.012 A 
ATOM     35  C   UNL     1       4.925  -8.920   3.758  1.00  0.00     0.001 A 
ATOM     36  C   UNL     1       2.539  -9.307   3.736  1.00  0.00     0.001 A 
ATOM     37  C   UNL     1       3.834  -9.723   3.422  1.00  0.00     0.000 A 
ENDBRANCH  25  32
ENDBRANCH   1  17
TORSDOF 9
ENDMDL
MODEL 2
REMARK VINA RESULT:    -6.075      2.383      5.097
REMARK INTER + INTRA:         -10.076
REMARK INTER:                  -8.856
REMARK INTRA:                  -1.220
REMARK UNBOUND:                -1.693
REMARK SMILES O=C([O-])[C@@H]1O[C@H](Oc2cc3oc(-c4ccccc4)cc(=O)c3c(O)c2O)[C@H](O)[C@H](O)[C@H]1O
REMARK SMILES IDX 7 1 6 2 4 3 31 4 5 5 29 6 27 7 2 8 1 9 3 10 32 11 30 13
REMARK SMILES IDX 28 15 8 17 25 18 9 19 23 20 10 21 22 22 11 23 20 24 12 25
REMARK SMILES IDX 19 26 21 27 26 28 24 30 13 32 14 33 18 34 15 35 17 36 16 37
REMARK H PARENT 32 12 30 14 28 16 26 29 24 31
REMARK Flexibility Score: inf
ROOT
ATOM      1  O   UNL     1       5.086   2.658   6.134  1.00  0.00    -0.458 OA
ENDROOT
BRANCH   1   2
ATOM      2  C   UNL     1       3.826   3.145   6.606  1.00  0.00     0.339 C 
ATOM      3  C   UNL     1       4.664   5.205   7.460  1.00  0.00     0.199 C 
ATOM      4  C   UNL     1       4.032   6.015   6.288  1.00  0.00     0.180 C 
ATOM      5  O   UNL     1       3.979   3.989   7.740  1.00  0.00    -0.328 OA
ATOM      6  C   UNL     1       3.738   5.142   5.054  1.00  0.00     0.181 C 
ATOM      7  C   UNL     1       3.049   3.834   5.472  1.00  0.00     0.214 C 
BRANCH   3   8
ATOM      8  C   UNL     1       6.157   4.996   7.367  1.00  0.00     0.073 C 
ATOM      9  O   UNL     1       6.758   4.188   8.125  1.00  0.00    -0.547 OA
ATOM     10  O   UNL     1       6.883   5.692   6.408  1.00  0.00    -0.547 OA
ENDBRANCH   3   8
BRANCH   4  11
ATOM     11  O   UNL     1       2.858   6.668   6.713  1.00  0.00    -0.387 OA
ATOM     12  H   UNL     1       2.722   6.466   7.675  1.00  0.00     0.211 HD
ENDBRANCH   4  11
BRANCH   6  13
ATOM     13  O   UNL     1       4.936   4.874   4.368  1.00  0.00    -0.387 OA
ATOM     14  H   UNL     1       5.115   5.651   3.777  1.00  0.00     0.211 HD
ENDBRANCH   6  13
BRANCH   7  15
ATOM     15  O   UNL     1       2.940   2.979   4.362  1.00  0.00    -0.384 OA
ATOM     16  H   UNL     1       2.270   3.383   3.751  1.00  0.00     0.211 HD
ENDBRANCH   7  15
ENDBRANCH   1   2
BRANCH   1  17
ATOM     17  C   UNL     1       5.392   1.312   5.872  1.00  0.00     0.172 A 
ATOM     18  C   UNL     1       6.708   0.994   5.506  1.00  0.00     0.201 A 
ATOM     19  C   UNL     1       4.431   0.294   5.978  1.00  0.00     0.098 A 
ATOM     20  C   UNL     1       7.069  -0.352   5.240  1.00  0.00     0.176 A 
ATOM     21  C   UNL     1       4.773  -1.032   5.726  1.00  0.00     0.146 A 
ATOM     22  C   UNL     1       6.093  -1.372   5.355  1.00  0.00     0.111 A 
ATOM     23  O   UNL     1       3.837  -1.970   5.839  1.00  0.00    -0.456 OA
ATOM     24  C   UNL     1       6.370  -2.736   5.119  1.00  0.00     0.197 A 
ATOM     25  C   UNL     1       4.063  -3.262   5.616  1.00  0.00     0.138 A 
ATOM     26  C   UNL     1       5.352  -3.682   5.252  1.00  0.00     0.100 A 
ATOM     27  O   UNL     1       7.524  -3.128   4.794  1.00  0.00    -0.289 OA
BRANCH  18  28
ATOM     28  O   UNL     1       7.623   2.047   5.426  1.00  0.00    -0.502 OA
ATOM     29  H   UNL     1       7.891   2.510   4.570  1.00  0.00     0.293 HD
ENDBRANCH  18  28
BRANCH  20  30
ATOM     30  O   UNL     1       8.373  -0.696   4.864  1.00  0.00    -0.504 OA
ATOM     31  H   UNL     1       9.150  -0.786   5.502  1.00  0.00     0.293 HD
ENDBRANCH  20  30
BRANCH  25  32
ATOM     32  C   UNL     1       2.941  -4.221   5.774  1.00  0.00     0.017 A 
ATOM     33  C   UNL     1       3.158  -5.613   5.837  1.00  0.00     0.012 A 
ATOM     34  C   UNL     1       1.621  -3.737   5.834  1.00  0.00     0.012 A 
ATOM     35  C   UNL     1       2.079  -6.491   5.977  1.00  0.00     0.001 A 
ATOM     36  C   UNL     1       0.546  -4.621   5.975  1.00  0.00     0.001 A 
ATOM     37  C   UNL     1       0.775  -5.996   6.049  1.00  0.00     0.000 A 
ENDBRANCH  25  32
ENDBRANCH   1  17
TORSDOF 9
ENDMDL
MODEL 3
REMARK VINA RESULT:    -5.772      2.173      4.281
REMARK INTER + INTRA:          -9.659
REMARK INTER:                  -8.031
REMARK INTRA:                  -1.628
REMARK UNBOUND:                -1.693
REMARK SMILES O=C([O-])[C@@H]1O[C@H](Oc2cc3oc(-c4ccccc4)cc(=O)c3c(O)c2O)[C@H](O)[C@H](O)[C@H]1O
REMARK SMILES IDX 7 1 6 2 4 3 31 4 5 5 29 6 27 7 2 8 1 9 3 10 32 11 30 13
REMARK SMILES IDX 28 15 8 17 25 18 9 19 23 20 10 21 22 22 11 23 20 24 12 25
REMARK SMILES IDX 19 26 21 27 26 28 24 30 13 32 14 33 18 34 15 35 17 36 16 37
REMARK H PARENT 32 12 30 14 28 16 26 29 24 31
REMARK Flexibility Score: inf
ROOT
ATOM      1  O   UNL     1       4.458   0.709   5.613  1.00  0.00    -0.458 OA
ENDROOT
BRANCH   1   2
ATOM      2  C   UNL     1       3.432   1.338   6.387  1.00  0.00     0.339 C 
ATOM      3  C   UNL     1       4.909   2.581   7.785  1.00  0.00     0.199 C 
ATOM      4  C   UNL     1       4.561   3.917   7.062  1.00  0.00     0.180 C 
ATOM      5  O   UNL     1       3.867   1.613   7.713  1.00  0.00    -0.328 OA
ATOM      6  C   UNL     1       3.982   3.697   5.652  1.00  0.00     0.181 C 
ATOM      7  C   UNL     1       2.909   2.598   5.677  1.00  0.00     0.214 C 
BRANCH   3   8
ATOM      8  C   UNL     1       6.250   1.985   7.427  1.00  0.00     0.073 C 
ATOM      9  O   UNL     1       7.017   2.541   6.596  1.00  0.00    -0.547 OA
ATOM     10  O   UNL     1       6.658   0.810   8.046  1.00  0.00    -0.547 OA
ENDBRANCH   3   8
BRANCH   4  11
ATOM     11  O   UNL     1       3.671   4.684   7.839  1.00  0.00    -0.387 OA
ATOM     12  H   UNL     1       4.179   5.081   8.592  1.00  0.00     0.211 HD
ENDBRANCH   4  11
BRANCH   6  13
ATOM     13  O   UNL     1       5.019   3.358   4.763  1.00  0.00    -0.387 OA
ATOM     14  H   UNL     1       4.834   3.825   3.906  1.00  0.00     0.211 HD
ENDBRANCH   6  13
BRANCH   7  15
ATOM     15  O   UNL     1       2.513   2.292   4.364  1.00  0.00    -0.384 OA
ATOM     16  H   UNL     1       2.172   1.360   4.376  1.00  0.00     0.211 HD
ENDBRANCH   7  15
ENDBRANCH   1   2
BRANCH   1  17
ATOM     17  C   UNL     1       4.675  -0.676   5.522  1.00  0.00     0.172 A 
ATOM     18  C   UNL     1       5.964  -1.122   5.194  1.00  0.00     0.201 A 
ATOM     19  C   UNL     1       3.654  -1.609   5.762  1.00  0.00     0.098 A 
ATOM     20  C   UNL     1       6.236  -2.510   5.099  1.00  0.00     0.176 A 
ATOM     21  C   UNL     1       3.907  -2.976   5.679  1.00  0.00     0.146 A 
ATOM     22  C   UNL     1       5.198  -3.444   5.347  1.00  0.00     0.111 A 
ATOM     23  O   UNL     1       2.916  -3.829   5.915  1.00  0.00    -0.456 OA
ATOM     24  C   UNL     1       5.386  -4.842   5.285  1.00  0.00     0.197 A 
ATOM     25  C   UNL     1       3.058  -5.151   5.857  1.00  0.00     0.138 A 
ATOM     26  C   UNL     1       4.313  -5.696   5.543  1.00  0.00     0.100 A 
ATOM     27  O   UNL     1       6.509  -5.345   5.007  1.00  0.00    -0.289 OA
BRANCH  18  28
ATOM     28  O   UNL     1       6.942  -0.148   4.975  1.00  0.00    -0.502 OA
ATOM     29  H   UNL     1       6.810   0.841   5.124  1.00  0.00     0.293 HD
ENDBRANCH  18  28
BRANCH  20  30
ATOM     30  O   UNL     1       7.510  -2.983   4.763  1.00  0.00    -0.504 OA
ATOM     31  H   UNL     1       7.830  -3.154   3.821  1.00  0.00     0.293 HD
ENDBRANCH  20  30
BRANCH  25  32
ATOM     32  C   UNL     1       1.880  -6.008   6.141  1.00  0.00     0.017 A 
ATOM     33  C   UNL     1       1.161  -6.648   5.111  1.00  0.00     0.012 A 
ATOM     34  C   UNL     1       1.445  -6.167   7.471  1.00  0.00     0.012 A 
ATOM     35  C   UNL     1       0.050  -7.442   5.411  1.00  0.00     0.001 A 
ATOM     36  C   UNL     1       0.332  -6.963   7.764  1.00  0.00     0.001 A 
ATOM     37  C   UNL     1      -0.363  -7.601   6.735  1.00  0.00     0.000 A 
ENDBRANCH  25  32
ENDBRANCH   1  17
TORSDOF 9
ENDMDL
MODEL 4
REMARK VINA RESULT:    -5.761      2.319      5.272
REMARK INTER + INTRA:          -9.643
REMARK INTER:                  -8.086
REMARK INTRA:                  -1.557
REMARK UNBOUND:                -1.693
REMARK SMILES O=C([O-])[C@@H]1O[C@H](Oc2cc3oc(-c4ccccc4)cc(=O)c3c(O)c2O)[C@H](O)[C@H](O)[C@H]1O
REMARK SMILES IDX 7 1 6 2 4 3 31 4 5 5 29 6 27 7 2 8 1 9 3 10 32 11 30 13
REMARK SMILES IDX 28 15 8 17 25 18 9 19 23 20 10 21 22 22 11 23 20 24 12 25
REMARK SMILES IDX 19 26 21 27 26 28 24 30 13 32 14 33 18 34 15 35 17 36 16 37
REMARK H PARENT 32 12 30 14 28 16 26 29 24 31
REMARK Flexibility Score: inf
ROOT
ATOM      1  O   UNL     1       6.191   2.884   6.083  1.00  0.00    -0.458 OA
ENDROOT
BRANCH   1   2
ATOM      2  C   UNL     1       5.824   3.771   5.022  1.00  0.00     0.339 C 
ATOM      3  C   UNL     1       3.616   4.196   5.812  1.00  0.00     0.199 C 
ATOM      4  C   UNL     1       3.997   5.632   6.281  1.00  0.00     0.180 C 
ATOM      5  O   UNL     1       4.430   3.715   4.747  1.00  0.00    -0.328 OA
ATOM      6  C   UNL     1       5.512   5.802   6.500  1.00  0.00     0.181 C 
ATOM      7  C   UNL     1       6.296   5.204   5.323  1.00  0.00     0.214 C 
BRANCH   3   8
ATOM      8  C   UNL     1       3.478   3.172   6.915  1.00  0.00     0.073 C 
ATOM      9  O   UNL     1       3.755   3.453   8.112  1.00  0.00    -0.547 OA
ATOM     10  O   UNL     1       3.015   1.900   6.607  1.00  0.00    -0.547 OA
ENDBRANCH   3   8
BRANCH   4  11
ATOM     11  O   UNL     1       3.526   6.594   5.365  1.00  0.00    -0.387 OA
ATOM     12  H   UNL     1       2.596   6.357   5.117  1.00  0.00     0.211 HD
ENDBRANCH   4  11
BRANCH   6  13
ATOM     13  O   UNL     1       5.887   5.190   7.709  1.00  0.00    -0.387 OA
ATOM     14  H   UNL     1       5.105   4.666   8.027  1.00  0.00     0.211 HD
ENDBRANCH   6  13
BRANCH   7  15
ATOM     15  O   UNL     1       7.671   5.215   5.614  1.00  0.00    -0.384 OA
ATOM     16  H   UNL     1       7.828   5.974   6.235  1.00  0.00     0.211 HD
ENDBRANCH   7  15
ENDBRANCH   1   2
BRANCH   1  17
ATOM     17  C   UNL     1       6.740   1.601   5.918  1.00  0.00     0.172 A 
ATOM     18  C   UNL     1       8.134   1.488   5.815  1.00  0.00     0.201 A 
ATOM     19  C   UNL     1       5.941   0.448   5.866  1.00  0.00     0.098 A 
ATOM     20  C   UNL     1       8.737   0.215   5.656  1.00  0.00     0.176 A 
ATOM     21  C   UNL     1       6.519  -0.810   5.717  1.00  0.00     0.146 A 
ATOM     22  C   UNL     1       7.921  -0.943   5.610  1.00  0.00     0.111 A 
ATOM     23  O   UNL     1       5.730  -1.880   5.675  1.00  0.00    -0.456 OA
ATOM     24  C   UNL     1       8.440  -2.248   5.466  1.00  0.00     0.197 A 
ATOM     25  C   UNL     1       6.187  -3.121   5.531  1.00  0.00     0.138 A 
ATOM     26  C   UNL     1       7.570  -3.339   5.428  1.00  0.00     0.100 A 
ATOM     27  O   UNL     1       9.680  -2.458   5.374  1.00  0.00    -0.289 OA
BRANCH  18  28
ATOM     28  O   UNL     1       8.878   2.669   5.882  1.00  0.00    -0.502 OA
ATOM     29  H   UNL     1       9.616   2.845   6.548  1.00  0.00     0.293 HD
ENDBRANCH  18  28
BRANCH  20  30
ATOM     30  O   UNL     1      10.125   0.074   5.542  1.00  0.00    -0.504 OA
ATOM     31  H   UNL     1      10.723  -0.320   6.254  1.00  0.00     0.293 HD
ENDBRANCH  20  30
BRANCH  25  32
ATOM     32  C   UNL     1       5.213  -4.241   5.499  1.00  0.00     0.017 A 
ATOM     33  C   UNL     1       3.862  -4.060   5.860  1.00  0.00     0.012 A 
ATOM     34  C   UNL     1       5.649  -5.527   5.129  1.00  0.00     0.012 A 
ATOM     35  C   UNL     1       2.971  -5.137   5.829  1.00  0.00     0.001 A 
ATOM     36  C   UNL     1       4.752  -6.600   5.099  1.00  0.00     0.001 A 
ATOM     37  C   UNL     1       3.413  -6.404   5.446  1.00  0.00     0.000 A 
ENDBRANCH  25  32
ENDBRANCH   1  17
TORSDOF 9
ENDMDL
MODEL 5
REMARK VINA RESULT:    -5.626      2.004      4.466
REMARK INTER + INTRA:          -9.458
REMARK INTER:                  -7.904
REMARK INTRA:                  -1.554
REMARK UNBOUND:                -1.693
REMARK SMILES O=C([O-])[C@@H]1O[C@H](Oc2cc3oc(-c4ccccc4)cc(=O)c3c(O)c2O)[C@H](O)[C@H](O)[C@H]1O
REMARK SMILES IDX 7 1 6 2 4 3 31 4 5 5 29 6 27 7 2 8 1 9 3 10 32 11 30 13
REMARK SMILES IDX 28 15 8 17 25 18 9 19 23 20 10 21 22 22 11 23 20 24 12 25
REMARK SMILES IDX 19 26 21 27 26 28 24 30 13 32 14 33 18 34 15 35 17 36 16 37
REMARK H PARENT 32 12 30 14 28 16 26 29 24 31
REMARK Flexibility Score: inf
ROOT
ATOM      1  O   UNL     1       5.379   0.712   6.168  1.00  0.00    -0.458 OA
ENDROOT
BRANCH   1   2
ATOM      2  C   UNL     1       5.044   1.218   7.463  1.00  0.00     0.339 C 
ATOM      3  C   UNL     1       5.257   3.521   6.888  1.00  0.00     0.199 C 
ATOM      4  C   UNL     1       3.713   3.726   6.900  1.00  0.00     0.180 C 
ATOM      5  O   UNL     1       5.691   2.456   7.728  1.00  0.00    -0.328 OA
ATOM      6  C   UNL     1       2.936   2.408   6.723  1.00  0.00     0.181 C 
ATOM      7  C   UNL     1       3.518   1.315   7.632  1.00  0.00     0.214 C 
BRANCH   3   8
ATOM      8  C   UNL     1       5.886   3.441   5.517  1.00  0.00     0.073 C 
ATOM      9  O   UNL     1       7.103   3.153   5.366  1.00  0.00    -0.547 OA
ATOM     10  O   UNL     1       5.100   3.669   4.394  1.00  0.00    -0.547 OA
ENDBRANCH   3   8
BRANCH   4  11
ATOM     11  O   UNL     1       3.308   4.374   8.084  1.00  0.00    -0.387 OA
ATOM     12  H   UNL     1       3.419   3.740   8.838  1.00  0.00     0.211 HD
ENDBRANCH   4  11
BRANCH   6  13
ATOM     13  O   UNL     1       2.983   2.009   5.375  1.00  0.00    -0.387 OA
ATOM     14  H   UNL     1       2.045   1.877   5.076  1.00  0.00     0.211 HD
ENDBRANCH   6  13
BRANCH   7  15
ATOM     15  O   UNL     1       2.913   0.081   7.338  1.00  0.00    -0.384 OA
ATOM     16  H   UNL     1       3.646  -0.575   7.206  1.00  0.00     0.211 HD
ENDBRANCH   7  15
ENDBRANCH   1   2
BRANCH   1  17
ATOM     17  C   UNL     1       6.070  -0.486   5.916  1.00  0.00     0.172 A 
ATOM     18  C   UNL     1       7.472  -0.455   5.935  1.00  0.00     0.201 A 
ATOM     19  C   UNL     1       5.401  -1.694   5.663  1.00  0.00     0.098 A 
ATOM     20  C   UNL     1       8.215  -1.639   5.696  1.00  0.00     0.176 A 
ATOM     21  C   UNL     1       6.117  -2.866   5.432  1.00  0.00     0.146 A 
ATOM     22  C   UNL     1       7.530  -2.855   5.446  1.00  0.00     0.111 A 
ATOM     23  O   UNL     1       5.449  -3.992   5.199  1.00  0.00    -0.456 OA
ATOM     24  C   UNL     1       8.191  -4.079   5.210  1.00  0.00     0.197 A 
ATOM     25  C   UNL     1       6.043  -5.160   4.964  1.00  0.00     0.138 A 
ATOM     26  C   UNL     1       7.444  -5.234   4.970  1.00  0.00     0.100 A 
ATOM     27  O   UNL     1       9.449  -4.161   5.215  1.00  0.00    -0.289 OA
BRANCH  18  28
ATOM     28  O   UNL     1       8.082   0.774   6.202  1.00  0.00    -0.502 OA
ATOM     29  H   UNL     1       7.600   1.590   6.548  1.00  0.00     0.293 HD
ENDBRANCH  18  28
BRANCH  20  30
ATOM     30  O   UNL     1       9.614  -1.635   5.701  1.00  0.00    -0.504 OA
ATOM     31  H   UNL     1      10.191  -2.454   5.835  1.00  0.00     0.293 HD
ENDBRANCH  20  30
BRANCH  25  32
ATOM     32  C   UNL     1       5.195  -6.353   4.717  1.00  0.00     0.017 A 
ATOM     33  C   UNL     1       3.836  -6.389   5.090  1.00  0.00     0.012 A 
ATOM     34  C   UNL     1       5.765  -7.495   4.121  1.00  0.00     0.012 A 
ATOM     35  C   UNL     1       3.067  -7.532   4.852  1.00  0.00     0.001 A 
ATOM     36  C   UNL     1       4.989  -8.635   3.885  1.00  0.00     0.001 A 
ATOM     37  C   UNL     1       3.641  -8.652   4.248  1.00  0.00     0.000 A 
ENDBRANCH  25  32
ENDBRANCH   1  17
TORSDOF 9
ENDMDL
MODEL 6
REMARK VINA RESULT:    -5.602      3.252      5.871
REMARK INTER + INTRA:          -9.424
REMARK INTER:                  -7.796
REMARK INTRA:                  -1.628
REMARK UNBOUND:                -1.693
REMARK SMILES O=C([O-])[C@@H]1O[C@H](Oc2cc3oc(-c4ccccc4)cc(=O)c3c(O)c2O)[C@H](O)[C@H](O)[C@H]1O
REMARK SMILES IDX 7 1 6 2 4 3 31 4 5 5 29 6 27 7 2 8 1 9 3 10 32 11 30 13
REMARK SMILES IDX 28 15 8 17 25 18 9 19 23 20 10 21 22 22 11 23 20 24 12 25
REMARK SMILES IDX 19 26 21 27 26 28 24 30 13 32 14 33 18 34 15 35 17 36 16 37
REMARK H PARENT 32 12 30 14 28 16 26 29 24 31
REMARK Flexibility Score: inf
ROOT
ATOM      1  O   UNL     1       6.584  -5.555   4.942  1.00  0.00    -0.458 OA
ENDROOT
BRANCH   1   2
ATOM      2  C   UNL     1       7.094  -4.670   3.939  1.00  0.00     0.339 C 
ATOM      3  C   UNL     1       7.698  -2.922   5.441  1.00  0.00     0.199 C 
ATOM      4  C   UNL     1       9.216  -3.242   5.295  1.00  0.00     0.180 C 
ATOM      5  O   UNL     1       6.928  -3.307   4.307  1.00  0.00    -0.328 OA
ATOM      6  C   UNL     1       9.475  -4.677   4.797  1.00  0.00     0.181 C 
ATOM      7  C   UNL     1       8.559  -5.007   3.610  1.00  0.00     0.214 C 
BRANCH   3   8
ATOM      8  C   UNL     1       7.062  -3.387   6.731  1.00  0.00     0.073 C 
ATOM      9  O   UNL     1       7.709  -4.056   7.580  1.00  0.00    -0.547 OA
ATOM     10  O   UNL     1       5.741  -3.050   6.997  1.00  0.00    -0.547 OA
ENDBRANCH   3   8
BRANCH   4  11
ATOM     11  O   UNL     1       9.839  -2.310   4.443  1.00  0.00    -0.387 OA
ATOM     12  H   UNL     1       9.140  -1.889   3.879  1.00  0.00     0.211 HD
ENDBRANCH   4  11
BRANCH   6  13
ATOM     13  O   UNL     1       9.272  -5.587   5.850  1.00  0.00    -0.387 OA
ATOM     14  H   UNL     1       8.539  -6.196   5.573  1.00  0.00     0.211 HD
ENDBRANCH   6  13
BRANCH   7  15
ATOM     15  O   UNL     1       8.686  -6.366   3.276  1.00  0.00    -0.384 OA
ATOM     16  H   UNL     1       8.711  -6.872   4.130  1.00  0.00     0.211 HD
ENDBRANCH   7  15
ENDBRANCH   1   2
BRANCH   1  17
ATOM     17  C   UNL     1       5.328  -6.184   4.908  1.00  0.00     0.172 A 
ATOM     18  C   UNL     1       5.260  -7.496   4.417  1.00  0.00     0.201 A 
ATOM     19  C   UNL     1       4.162  -5.547   5.360  1.00  0.00     0.098 A 
ATOM     20  C   UNL     1       4.017  -8.178   4.372  1.00  0.00     0.176 A 
ATOM     21  C   UNL     1       2.935  -6.205   5.327  1.00  0.00     0.146 A 
ATOM     22  C   UNL     1       2.846  -7.526   4.834  1.00  0.00     0.111 A 
ATOM     23  O   UNL     1       1.852  -5.570   5.766  1.00  0.00    -0.456 OA
ATOM     24  C   UNL     1       1.573  -8.135   4.835  1.00  0.00     0.197 A 
ATOM     25  C   UNL     1       0.637  -6.113   5.771  1.00  0.00     0.138 A 
ATOM     26  C   UNL     1       0.467  -7.426   5.307  1.00  0.00     0.100 A 
ATOM     27  O   UNL     1       1.406  -9.315   4.422  1.00  0.00    -0.289 OA
BRANCH  18  28
ATOM     28  O   UNL     1       6.455  -8.083   3.991  1.00  0.00    -0.502 OA
ATOM     29  H   UNL     1       6.516  -8.841   3.327  1.00  0.00     0.293 HD
ENDBRANCH  18  28
BRANCH  20  30
ATOM     30  O   UNL     1       3.919  -9.484   3.878  1.00  0.00    -0.504 OA
ATOM     31  H   UNL     1       4.365  -9.814   3.035  1.00  0.00     0.293 HD
ENDBRANCH  20  30
BRANCH  25  32
ATOM     32  C   UNL     1      -0.500  -5.310   6.286  1.00  0.00     0.017 A 
ATOM     33  C   UNL     1      -1.728  -5.904   6.642  1.00  0.00     0.012 A 
ATOM     34  C   UNL     1      -0.367  -3.912   6.395  1.00  0.00     0.012 A 
ATOM     35  C   UNL     1      -2.784  -5.119   7.115  1.00  0.00     0.001 A 
ATOM     36  C   UNL     1      -1.427  -3.133   6.870  1.00  0.00     0.001 A 
ATOM     37  C   UNL     1      -2.633  -3.736   7.232  1.00  0.00     0.000 A 
ENDBRANCH  25  32
ENDBRANCH   1  17
TORSDOF 9
ENDMDL
MODEL 7
REMARK VINA RESULT:    -5.557      2.141      4.199
REMARK INTER + INTRA:          -9.362
REMARK INTER:                  -7.744
REMARK INTRA:                  -1.618
REMARK UNBOUND:                -1.693
REMARK SMILES O=C([O-])[C@@H]1O[C@H](Oc2cc3oc(-c4ccccc4)cc(=O)c3c(O)c2O)[C@H](O)[C@H](O)[C@H]1O
REMARK SMILES IDX 7 1 6 2 4 3 31 4 5 5 29 6 27 7 2 8 1 9 3 10 32 11 30 13
REMARK SMILES IDX 28 15 8 17 25 18 9 19 23 20 10 21 22 22 11 23 20 24 12 25
REMARK SMILES IDX 19 26 21 27 26 28 24 30 13 32 14 33 18 34 15 35 17 36 16 37
REMARK H PARENT 32 12 30 14 28 16 26 29 24 31
REMARK Flexibility Score: inf
ROOT
ATOM      1  O   UNL     1       7.404  -1.225   5.751  1.00  0.00    -0.458 OA
ENDROOT
BRANCH   1   2
ATOM      2  C   UNL     1       7.731  -0.540   6.965  1.00  0.00     0.339 C 
ATOM      3  C   UNL     1       9.019   1.180   5.935  1.00  0.00     0.199 C 
ATOM      4  C   UNL     1       7.898   2.237   6.166  1.00  0.00     0.180 C 
ATOM      5  O   UNL     1       8.991   0.113   6.877  1.00  0.00    -0.328 OA
ATOM      6  C   UNL     1       6.512   1.599   6.375  1.00  0.00     0.181 C 
ATOM      7  C   UNL     1       6.604   0.428   7.364  1.00  0.00     0.214 C 
BRANCH   3   8
ATOM      8  C   UNL     1       9.142   0.670   4.518  1.00  0.00     0.073 C 
ATOM      9  O   UNL     1       8.442   1.145   3.584  1.00  0.00    -0.547 OA
ATOM     10  O   UNL     1      10.063  -0.330   4.233  1.00  0.00    -0.547 OA
ENDBRANCH   3   8
BRANCH   4  11
ATOM     11  O   UNL     1       8.219   3.071   7.255  1.00  0.00    -0.387 OA
ATOM     12  H   UNL     1       8.963   3.666   6.981  1.00  0.00     0.211 HD
ENDBRANCH   4  11
BRANCH   6  13
ATOM     13  O   UNL     1       6.000   1.165   5.139  1.00  0.00    -0.387 OA
ATOM     14  H   UNL     1       6.486   0.333   4.896  1.00  0.00     0.211 HD
ENDBRANCH   6  13
BRANCH   7  15
ATOM     15  O   UNL     1       5.373  -0.248   7.416  1.00  0.00    -0.384 OA
ATOM     16  H   UNL     1       5.290  -0.760   6.570  1.00  0.00     0.211 HD
ENDBRANCH   7  15
ENDBRANCH   1   2
BRANCH   1  17
ATOM     17  C   UNL     1       7.354  -2.620   5.592  1.00  0.00     0.172 A 
ATOM     18  C   UNL     1       8.560  -3.333   5.636  1.00  0.00     0.201 A 
ATOM     19  C   UNL     1       6.143  -3.307   5.407  1.00  0.00     0.098 A 
ATOM     20  C   UNL     1       8.562  -4.743   5.491  1.00  0.00     0.176 A 
ATOM     21  C   UNL     1       6.128  -4.692   5.269  1.00  0.00     0.146 A 
ATOM     22  C   UNL     1       7.334  -5.427   5.308  1.00  0.00     0.111 A 
ATOM     23  O   UNL     1       4.962  -5.309   5.098  1.00  0.00    -0.456 OA
ATOM     24  C   UNL     1       7.244  -6.829   5.167  1.00  0.00     0.197 A 
ATOM     25  C   UNL     1       4.845  -6.626   4.952  1.00  0.00     0.138 A 
ATOM     26  C   UNL     1       5.996  -7.429   4.990  1.00  0.00     0.100 A 
ATOM     27  O   UNL     1       8.270  -7.562   5.201  1.00  0.00    -0.289 OA
BRANCH  18  28
ATOM     28  O   UNL     1       9.732  -2.597   5.833  1.00  0.00    -0.502 OA
ATOM     29  H   UNL     1      10.500  -2.556   5.179  1.00  0.00     0.293 HD
ENDBRANCH  18  28
BRANCH  20  30
ATOM     30  O   UNL     1       9.752  -5.479   5.521  1.00  0.00    -0.504 OA
ATOM     31  H   UNL     1      10.399  -5.557   4.749  1.00  0.00     0.293 HD
ENDBRANCH  20  30
BRANCH  25  32
ATOM     32  C   UNL     1       3.491  -7.206   4.769  1.00  0.00     0.017 A 
ATOM     33  C   UNL     1       2.333  -6.550   5.234  1.00  0.00     0.012 A 
ATOM     34  C   UNL     1       3.354  -8.459   4.142  1.00  0.00     0.012 A 
ATOM     35  C   UNL     1       1.072  -7.126   5.054  1.00  0.00     0.001 A 
ATOM     36  C   UNL     1       2.089  -9.030   3.964  1.00  0.00     0.001 A 
ATOM     37  C   UNL     1       0.950  -8.363   4.418  1.00  0.00     0.000 A 
ENDBRANCH  25  32
ENDBRANCH   1  17
TORSDOF 9
ENDMDL
MODEL 8
REMARK VINA RESULT:    -5.292      1.005      2.442
REMARK INTER + INTRA:          -8.996
REMARK INTER:                  -8.070
REMARK INTRA:                  -0.926
REMARK UNBOUND:                -1.693
REMARK SMILES O=C([O-])[C@@H]1O[C@H](Oc2cc3oc(-c4ccccc4)cc(=O)c3c(O)c2O)[C@H](O)[C@H](O)[C@H]1O
REMARK SMILES IDX 7 1 6 2 4 3 31 4 5 5 29 6 27 7 2 8 1 9 3 10 32 11 30 13
REMARK SMILES IDX 28 15 8 17 25 18 9 19 23 20 10 21 22 22 11 23 20 24 12 25
REMARK SMILES IDX 19 26 21 27 26 28 24 30 13 32 14 33 18 34 15 35 17 36 16 37
REMARK H PARENT 32 12 30 14 28 16 26 29 24 31
REMARK Flexibility Score: inf
ROOT
ATOM      1  O   UNL     1       6.334  -0.851   5.754  1.00  0.00    -0.458 OA
ENDROOT
BRANCH   1   2
ATOM      2  C   UNL     1       6.822   0.071   6.734  1.00  0.00     0.339 C 
ATOM      3  C   UNL     1       9.115  -0.545   6.526  1.00  0.00     0.199 C 
ATOM      4  C   UNL     1       9.460   0.770   5.767  1.00  0.00     0.180 C 
ATOM      5  O   UNL     1       7.986  -0.422   7.386  1.00  0.00    -0.328 OA
ATOM      6  C   UNL     1       8.225   1.423   5.118  1.00  0.00     0.181 C 
ATOM      7  C   UNL     1       7.052   1.458   6.109  1.00  0.00     0.214 C 
BRANCH   3   8
ATOM      8  C   UNL     1       9.027  -1.783   5.665  1.00  0.00     0.073 C 
ATOM      9  O   UNL     1       9.240  -1.738   4.424  1.00  0.00    -0.547 OA
ATOM     10  O   UNL     1       8.727  -3.004   6.256  1.00  0.00    -0.547 OA
ENDBRANCH   3   8
BRANCH   4  11
ATOM     11  O   UNL     1      10.100   1.686   6.626  1.00  0.00    -0.387 OA
ATOM     12  H   UNL     1       9.446   1.975   7.313  1.00  0.00     0.211 HD
ENDBRANCH   4  11
BRANCH   6  13
ATOM     13  O   UNL     1       7.872   0.716   3.955  1.00  0.00    -0.387 OA
ATOM     14  H   UNL     1       8.415   1.085   3.211  1.00  0.00     0.211 HD
ENDBRANCH   6  13
BRANCH   7  15
ATOM     15  O   UNL     1       5.890   1.899   5.454  1.00  0.00    -0.384 OA
ATOM     16  H   UNL     1       6.175   2.574   4.785  1.00  0.00     0.211 HD
ENDBRANCH   7  15
ENDBRANCH   1   2
BRANCH   1  17
ATOM     17  C   UNL     1       5.285  -1.766   5.949  1.00  0.00     0.172 A 
ATOM     18  C   UNL     1       4.156  -1.333   6.660  1.00  0.00     0.201 A 
ATOM     19  C   UNL     1       5.334  -3.075   5.447  1.00  0.00     0.098 A 
ATOM     20  C   UNL     1       3.067  -2.216   6.876  1.00  0.00     0.176 A 
ATOM     21  C   UNL     1       4.270  -3.952   5.645  1.00  0.00     0.146 A 
ATOM     22  C   UNL     1       3.125  -3.535   6.360  1.00  0.00     0.111 A 
ATOM     23  O   UNL     1       4.351  -5.184   5.152  1.00  0.00    -0.456 OA
ATOM     24  C   UNL     1       2.082  -4.473   6.519  1.00  0.00     0.197 A 
ATOM     25  C   UNL     1       3.390  -6.093   5.292  1.00  0.00     0.138 A 
ATOM     26  C   UNL     1       2.215  -5.754   5.982  1.00  0.00     0.100 A 
ATOM     27  O   UNL     1       1.021  -4.180   7.134  1.00  0.00    -0.289 OA
BRANCH  18  28
ATOM     28  O   UNL     1       4.160  -0.016   7.128  1.00  0.00    -0.502 OA
ATOM     29  H   UNL     1       3.881   0.263   8.057  1.00  0.00     0.293 HD
ENDBRANCH  18  28
BRANCH  20  30
ATOM     30  O   UNL     1       1.933  -1.813   7.589  1.00  0.00    -0.504 OA
ATOM     31  H   UNL     1       0.981  -1.950   7.281  1.00  0.00     0.293 HD
ENDBRANCH  20  30
BRANCH  25  32
ATOM     32  C   UNL     1       3.589  -7.439   4.698  1.00  0.00     0.017 A 
ATOM     33  C   UNL     1       4.872  -7.929   4.381  1.00  0.00     0.012 A 
ATOM     34  C   UNL     1       2.468  -8.241   4.411  1.00  0.00     0.012 A 
ATOM     35  C   UNL     1       5.026  -9.197   3.814  1.00  0.00     0.001 A 
ATOM     36  C   UNL     1       2.629  -9.509   3.843  1.00  0.00     0.001 A 
ATOM     37  C   UNL     1       3.907  -9.987   3.547  1.00  0.00     0.000 A 
ENDBRANCH  25  32
ENDBRANCH   1  17
TORSDOF 9
ENDMDL
MODEL 9
REMARK VINA RESULT:    -5.262      2.670      9.273
REMARK INTER + INTRA:          -8.955
REMARK INTER:                  -7.434
REMARK INTRA:                  -1.522
REMARK UNBOUND:                -1.693
REMARK SMILES O=C([O-])[C@@H]1O[C@H](Oc2cc3oc(-c4ccccc4)cc(=O)c3c(O)c2O)[C@H](O)[C@H](O)[C@H]1O
REMARK SMILES IDX 7 1 6 2 4 3 31 4 5 5 29 6 27 7 2 8 1 9 3 10 32 11 30 13
REMARK SMILES IDX 28 15 8 17 25 18 9 19 23 20 10 21 22 22 11 23 20 24 12 25
REMARK SMILES IDX 19 26 21 27 26 28 24 30 13 32 14 33 18 34 15 35 17 36 16 37
REMARK H PARENT 32 12 30 14 28 16 26 29 24 31
REMARK Flexibility Score: inf
ROOT
ATOM      1  O   UNL     1       1.957  -6.546   5.898  1.00  0.00    -0.458 OA
ENDROOT
BRANCH   1   2
ATOM      2  C   UNL     1       0.608  -6.327   5.472  1.00  0.00     0.339 C 
ATOM      3  C   UNL     1       0.230  -8.552   4.709  1.00  0.00     0.199 C 
ATOM      4  C   UNL     1      -0.682  -8.878   5.930  1.00  0.00     0.180 C 
ATOM      5  O   UNL     1       0.259  -7.168   4.379  1.00  0.00    -0.328 OA
ATOM      6  C   UNL     1      -0.434  -7.936   7.124  1.00  0.00     0.181 C 
ATOM      7  C   UNL     1      -0.367  -6.476   6.652  1.00  0.00     0.214 C 
BRANCH   3   8
ATOM      8  C   UNL     1       1.620  -9.142   4.767  1.00  0.00     0.073 C 
ATOM      9  O   UNL     1       2.040  -9.737   5.795  1.00  0.00    -0.547 OA
ATOM     10  O   UNL     1       2.446  -9.045   3.655  1.00  0.00    -0.547 OA
ENDBRANCH   3   8
BRANCH   4  11
ATOM     11  O   UNL     1      -2.040  -8.845   5.557  1.00  0.00    -0.387 OA
ATOM     12  H   UNL     1      -2.236  -9.658   5.024  1.00  0.00     0.211 HD
ENDBRANCH   4  11
BRANCH   6  13
ATOM     13  O   UNL     1       0.756  -8.303   7.776  1.00  0.00    -0.387 OA
ATOM     14  H   UNL     1       1.273  -8.870   7.146  1.00  0.00     0.211 HD
ENDBRANCH   6  13
BRANCH   7  15
ATOM     15  O   UNL     1       0.025  -5.650   7.719  1.00  0.00    -0.384 OA
ATOM     16  H   UNL     1      -0.345  -6.054   8.547  1.00  0.00     0.211 HD
ENDBRANCH   7  15
ENDBRANCH   1   2
BRANCH   1  17
ATOM     17  C   UNL     1       3.014  -5.632   5.753  1.00  0.00     0.172 A 
ATOM     18  C   UNL     1       4.249  -6.118   5.300  1.00  0.00     0.201 A 
ATOM     19  C   UNL     1       2.863  -4.265   6.035  1.00  0.00     0.098 A 
ATOM     20  C   UNL     1       5.345  -5.234   5.128  1.00  0.00     0.176 A 
ATOM     21  C   UNL     1       3.928  -3.383   5.866  1.00  0.00     0.146 A 
ATOM     22  C   UNL     1       5.179  -3.855   5.412  1.00  0.00     0.111 A 
ATOM     23  O   UNL     1       3.746  -2.095   6.140  1.00  0.00    -0.456 OA
ATOM     24  C   UNL     1       6.213  -2.906   5.258  1.00  0.00     0.197 A 
ATOM     25  C   UNL     1       4.701  -1.178   6.014  1.00  0.00     0.138 A 
ATOM     26  C   UNL     1       5.972  -1.564   5.558  1.00  0.00     0.100 A 
ATOM     27  O   UNL     1       7.358  -3.239   4.847  1.00  0.00    -0.289 OA
BRANCH  18  28
ATOM     28  O   UNL     1       4.338  -7.486   5.027  1.00  0.00    -0.502 OA
ATOM     29  H   UNL     1       5.154  -7.943   4.650  1.00  0.00     0.293 HD
ENDBRANCH  18  28
BRANCH  20  30
ATOM     30  O   UNL     1       6.590  -5.693   4.686  1.00  0.00    -0.504 OA
ATOM     31  H   UNL     1       7.301  -5.112   4.267  1.00  0.00     0.293 HD
ENDBRANCH  20  30
BRANCH  25  32
ATOM     32  C   UNL     1       4.384   0.234   6.348  1.00  0.00     0.017 A 
ATOM     33  C   UNL     1       5.280   1.284   6.062  1.00  0.00     0.012 A 
ATOM     34  C   UNL     1       3.171   0.535   6.995  1.00  0.00     0.012 A 
ATOM     35  C   UNL     1       4.956   2.602   6.397  1.00  0.00     0.001 A 
ATOM     36  C   UNL     1       2.852   1.856   7.327  1.00  0.00     0.001 A 
ATOM     37  C   UNL     1       3.743   2.888   7.026  1.00  0.00     0.000 A 
ENDBRANCH  25  32
ENDBRANCH   1  17
TORSDOF 9
ENDMDL
