MODEL 1
REMARK VINA RESULT:    31.008      0.000      0.000
REMARK INTER + INTRA:          37.031
REMARK INTER:                  37.352
REMARK INTRA:                  -0.322
REMARK UNBOUND:                -0.322
REMARK SMILES COc1ccc([C@@H]2CC(=O)c3c(O)cc(O)cc3O2)cc1O
REMARK SMILES IDX 7 1 8 2 9 3 10 4 11 5 12 6 14 7 15 8 17 9 18 10 19 11 6 12
REMARK SMILES IDX 3 13 21 14 4 15 20 16 5 17 2 18 1 19 22 20 13 22 16 24
REMARK H PARENT 22 21 13 23 16 25
REMARK Flexibility Score: inf
ROOT
ATOM      1  C   UNL     1       9.708   2.198   9.537  1.00  0.00     0.211 C 
ATOM      2  C   UNL     1       9.382   3.480   8.761  1.00  0.00     0.131 C 
ATOM      3  C   UNL     1      10.524   3.899   7.874  1.00  0.00     0.174 C 
ATOM      4  O   UNL     1      10.569   5.101   7.506  1.00  0.00    -0.294 OA
ATOM      5  C   UNL     1      11.455   2.878   7.313  1.00  0.00     0.102 A 
ATOM      6  C   UNL     1      12.476   3.158   6.362  1.00  0.00     0.133 A 
ATOM      7  C   UNL     1      13.144   2.098   5.734  1.00  0.00     0.093 A 
ATOM      8  C   UNL     1      12.865   0.775   6.069  1.00  0.00     0.123 A 
ATOM      9  C   UNL     1      11.917   0.496   7.056  1.00  0.00     0.093 A 
ATOM     10  C   UNL     1      11.227   1.537   7.685  1.00  0.00     0.138 A 
ATOM     11  O   UNL     1      10.278   1.219   8.662  1.00  0.00    -0.484 OA
ENDROOT
BRANCH   1  12
ATOM     12  C   UNL     1       8.454   1.647  10.182  1.00  0.00    -0.003 A 
ATOM     13  C   UNL     1       6.079   0.777  11.454  1.00  0.00     0.160 A 
ATOM     14  C   UNL     1       6.061   1.154  10.090  1.00  0.00     0.158 A 
ATOM     15  C   UNL     1       7.283   0.869  12.167  1.00  0.00     0.051 A 
ATOM     16  C   UNL     1       7.241   1.596   9.474  1.00  0.00     0.057 A 
ATOM     17  C   UNL     1       8.457   1.297  11.543  1.00  0.00     0.011 A 
BRANCH  13  18
ATOM     18  O   UNL     1       4.942   0.327  12.149  1.00  0.00    -0.493 OA
ATOM     19  C   UNL     1       4.845   0.190  13.561  1.00  0.00     0.278 C 
ENDBRANCH  13  18
BRANCH  14  20
ATOM     20  O   UNL     1       4.879   1.141   9.355  1.00  0.00    -0.504 OA
ATOM     21  H   UNL     1       4.205   0.390   9.450  1.00  0.00     0.293 HD
ENDBRANCH  14  20
ENDBRANCH   1  12
BRANCH   6  22
ATOM     22  O   UNL     1      12.879   4.452   6.013  1.00  0.00    -0.507 OA
ATOM     23  H   UNL     1      12.249   5.227   5.874  1.00  0.00     0.293 HD
ENDBRANCH   6  22
BRANCH   8  24
ATOM     24  O   UNL     1      13.529  -0.259   5.406  1.00  0.00    -0.508 OA
ATOM     25  H   UNL     1      14.085  -0.943   5.904  1.00  0.00     0.293 HD
ENDBRANCH   8  24
TORSDOF 5
ENDMDL
MODEL 2
REMARK VINA RESULT:    31.034      1.506      7.581
REMARK INTER + INTRA:          37.063
REMARK INTER:                  37.403
REMARK INTRA:                  -0.340
REMARK UNBOUND:                -0.322
REMARK SMILES COc1ccc([C@@H]2CC(=O)c3c(O)cc(O)cc3O2)cc1O
REMARK SMILES IDX 7 1 8 2 9 3 10 4 11 5 12 6 14 7 15 8 17 9 18 10 19 11 6 12
REMARK SMILES IDX 3 13 21 14 4 15 20 16 5 17 2 18 1 19 22 20 13 22 16 24
REMARK H PARENT 22 21 13 23 16 25
REMARK Flexibility Score: inf
ROOT
ATOM      1  C   UNL     1       8.820   2.341   9.616  1.00  0.00     0.211 C 
ATOM      2  C   UNL     1       8.998   1.223  10.650  1.00  0.00     0.131 C 
ATOM      3  C   UNL     1       7.729   0.968  11.418  1.00  0.00     0.174 C 
ATOM      4  O   UNL     1       7.824   0.394  12.533  1.00  0.00    -0.294 OA
ATOM      5  C   UNL     1       6.402   1.224  10.786  1.00  0.00     0.102 A 
ATOM      6  C   UNL     1       5.152   0.888  11.377  1.00  0.00     0.133 A 
ATOM      7  C   UNL     1       3.983   0.965  10.608  1.00  0.00     0.093 A 
ATOM      8  C   UNL     1       4.017   1.421   9.292  1.00  0.00     0.123 A 
ATOM      9  C   UNL     1       5.231   1.824   8.731  1.00  0.00     0.093 A 
ATOM     10  C   UNL     1       6.413   1.741   9.474  1.00  0.00     0.138 A 
ATOM     11  O   UNL     1       7.611   2.144   8.875  1.00  0.00    -0.484 OA
ENDROOT
BRANCH   1  12
ATOM     12  C   UNL     1      10.004   2.371   8.673  1.00  0.00    -0.003 A 
ATOM     13  C   UNL     1      12.107   2.405   6.778  1.00  0.00     0.160 A 
ATOM     14  C   UNL     1      11.554   3.618   7.250  1.00  0.00     0.158 A 
ATOM     15  C   UNL     1      11.579   1.192   7.242  1.00  0.00     0.051 A 
ATOM     16  C   UNL     1      10.503   3.589   8.180  1.00  0.00     0.057 A 
ATOM     17  C   UNL     1      10.542   1.171   8.177  1.00  0.00     0.011 A 
BRANCH  13  18
ATOM     18  O   UNL     1      13.158   2.344   5.844  1.00  0.00    -0.493 OA
ATOM     19  C   UNL     1      13.894   1.174   5.514  1.00  0.00     0.278 C 
ENDBRANCH  13  18
BRANCH  14  20
ATOM     20  O   UNL     1      12.000   4.848   6.773  1.00  0.00    -0.504 OA
ATOM     21  H   UNL     1      12.912   4.949   6.343  1.00  0.00     0.293 HD
ENDBRANCH  14  20
ENDBRANCH   1  12
BRANCH   6  22
ATOM     22  O   UNL     1       5.005   0.490  12.710  1.00  0.00    -0.507 OA
ATOM     23  H   UNL     1       5.186  -0.443  13.050  1.00  0.00     0.293 HD
ENDBRANCH   6  22
BRANCH   8  24
ATOM     24  O   UNL     1       2.838   1.461   8.546  1.00  0.00    -0.508 OA
ATOM     25  H   UNL     1       2.639   2.217   7.902  1.00  0.00     0.293 HD
ENDBRANCH   8  24
TORSDOF 5
ENDMDL
MODEL 3
REMARK VINA RESULT:    31.479      1.529      3.120
REMARK INTER + INTRA:          37.599
REMARK INTER:                  37.939
REMARK INTRA:                  -0.340
REMARK UNBOUND:                -0.322
REMARK SMILES COc1ccc([C@@H]2CC(=O)c3c(O)cc(O)cc3O2)cc1O
REMARK SMILES IDX 7 1 8 2 9 3 10 4 11 5 12 6 14 7 15 8 17 9 18 10 19 11 6 12
REMARK SMILES IDX 3 13 21 14 4 15 20 16 5 17 2 18 1 19 22 20 13 22 16 24
REMARK H PARENT 22 21 13 23 16 25
REMARK Flexibility Score: inf
ROOT
ATOM      1  C   UNL     1       8.854   1.312   8.889  1.00  0.00     0.211 C 
ATOM      2  C   UNL     1       9.990   0.285   8.977  1.00  0.00     0.131 C 
ATOM      3  C   UNL     1      11.011   0.491   7.891  1.00  0.00     0.174 C 
ATOM      4  O   UNL     1      11.752  -0.480   7.591  1.00  0.00    -0.294 OA
ATOM      5  C   UNL     1      11.249   1.853   7.329  1.00  0.00     0.102 A 
ATOM      6  C   UNL     1      12.281   2.171   6.403  1.00  0.00     0.133 A 
ATOM      7  C   UNL     1      12.558   3.514   6.113  1.00  0.00     0.093 A 
ATOM      8  C   UNL     1      11.800   4.541   6.673  1.00  0.00     0.123 A 
ATOM      9  C   UNL     1      10.737   4.231   7.524  1.00  0.00     0.093 A 
ATOM     10  C   UNL     1      10.452   2.899   7.840  1.00  0.00     0.138 A 
ATOM     11  O   UNL     1       9.386   2.628   8.704  1.00  0.00    -0.484 OA
ENDROOT
BRANCH   1  12
ATOM     12  C   UNL     1       8.013   1.267  10.147  1.00  0.00    -0.003 A 
ATOM     13  C   UNL     1       6.435   1.008  12.483  1.00  0.00     0.160 A 
ATOM     14  C   UNL     1       7.842   1.117  12.582  1.00  0.00     0.158 A 
ATOM     15  C   UNL     1       5.843   1.002  11.213  1.00  0.00     0.051 A 
ATOM     16  C   UNL     1       8.615   1.232  11.417  1.00  0.00     0.057 A 
ATOM     17  C   UNL     1       6.617   1.130  10.058  1.00  0.00     0.011 A 
BRANCH  13  18
ATOM     18  O   UNL     1       5.587   0.885  13.600  1.00  0.00    -0.493 OA
ATOM     19  C   UNL     1       5.084   1.969  14.370  1.00  0.00     0.278 C 
ENDBRANCH  13  18
BRANCH  14  20
ATOM     20  O   UNL     1       8.485   1.064  13.816  1.00  0.00    -0.504 OA
ATOM     21  H   UNL     1       7.963   1.078  14.685  1.00  0.00     0.293 HD
ENDBRANCH  14  20
ENDBRANCH   1  12
BRANCH   6  22
ATOM     22  O   UNL     1      13.048   1.211   5.734  1.00  0.00    -0.507 OA
ATOM     23  H   UNL     1      14.052   1.244   5.646  1.00  0.00     0.293 HD
ENDBRANCH   6  22
BRANCH   8  24
ATOM     24  O   UNL     1      12.119   5.869   6.384  1.00  0.00    -0.508 OA
ATOM     25  H   UNL     1      13.001   6.280   6.666  1.00  0.00     0.293 HD
ENDBRANCH   8  24
TORSDOF 5
ENDMDL
MODEL 4
REMARK VINA RESULT:    31.582      1.717      2.171
REMARK INTER + INTRA:          37.723
REMARK INTER:                  38.059
REMARK INTRA:                  -0.337
REMARK UNBOUND:                -0.322
REMARK SMILES COc1ccc([C@@H]2CC(=O)c3c(O)cc(O)cc3O2)cc1O
REMARK SMILES IDX 7 1 8 2 9 3 10 4 11 5 12 6 14 7 15 8 17 9 18 10 19 11 6 12
REMARK SMILES IDX 3 13 21 14 4 15 20 16 5 17 2 18 1 19 22 20 13 22 16 24
REMARK H PARENT 22 21 13 23 16 25
REMARK Flexibility Score: inf
ROOT
ATOM      1  C   UNL     1       9.226   2.792   8.828  1.00  0.00     0.211 C 
ATOM      2  C   UNL     1       9.525   4.150   8.183  1.00  0.00     0.131 C 
ATOM      3  C   UNL     1      10.969   4.266   7.773  1.00  0.00     0.174 C 
ATOM      4  O   UNL     1      11.442   5.420   7.615  1.00  0.00    -0.294 OA
ATOM      5  C   UNL     1      11.742   3.048   7.391  1.00  0.00     0.102 A 
ATOM      6  C   UNL     1      13.063   3.069   6.862  1.00  0.00     0.133 A 
ATOM      7  C   UNL     1      13.611   1.893   6.330  1.00  0.00     0.093 A 
ATOM      8  C   UNL     1      12.906   0.693   6.365  1.00  0.00     0.123 A 
ATOM      9  C   UNL     1      11.639   0.651   6.951  1.00  0.00     0.093 A 
ATOM     10  C   UNL     1      11.066   1.814   7.474  1.00  0.00     0.138 A 
ATOM     11  O   UNL     1       9.791   1.735   8.045  1.00  0.00    -0.484 OA
ENDROOT
BRANCH   1  12
ATOM     12  C   UNL     1       7.730   2.595   8.957  1.00  0.00    -0.003 A 
ATOM     13  C   UNL     1       4.955   2.221   9.373  1.00  0.00     0.160 A 
ATOM     14  C   UNL     1       5.480   3.523   9.197  1.00  0.00     0.158 A 
ATOM     15  C   UNL     1       5.834   1.128   9.366  1.00  0.00     0.051 A 
ATOM     16  C   UNL     1       6.859   3.697   9.005  1.00  0.00     0.057 A 
ATOM     17  C   UNL     1       7.203   1.308   9.160  1.00  0.00     0.011 A 
BRANCH  13  18
ATOM     18  O   UNL     1       3.587   1.958   9.576  1.00  0.00    -0.493 OA
ATOM     19  C   UNL     1       2.594   1.954   8.558  1.00  0.00     0.278 C 
ENDBRANCH  13  18
BRANCH  14  20
ATOM     20  O   UNL     1       4.659   4.645   9.259  1.00  0.00    -0.504 OA
ATOM     21  H   UNL     1       4.827   5.387   9.929  1.00  0.00     0.293 HD
ENDBRANCH  14  20
ENDBRANCH   1  12
BRANCH   6  22
ATOM     22  O   UNL     1      13.877   4.206   6.850  1.00  0.00    -0.507 OA
ATOM     23  H   UNL     1      13.648   5.066   6.375  1.00  0.00     0.293 HD
ENDBRANCH   6  22
BRANCH   8  24
ATOM     24  O   UNL     1      13.470  -0.454   5.802  1.00  0.00    -0.508 OA
ATOM     25  H   UNL     1      14.457  -0.664   5.894  1.00  0.00     0.293 HD
ENDBRANCH   8  24
TORSDOF 5
ENDMDL
