MODEL 1
REMARK VINA RESULT:    -2.636      0.000      0.000
REMARK INTER + INTRA:          -2.636
REMARK INTER:                  -2.636
REMARK INTRA:                   0.000
REMARK UNBOUND:                 0.000
REMARK SMILES CC(=O)[O-]
REMARK SMILES IDX 1 1 2 2 3 3 4 4
REMARK H PARENT
REMARK Flexibility Score: inf
ROOT
ATOM      1  C   UNL     1      34.427  24.558   1.884  1.00  0.00     0.063 C 
ATOM      2  C   UNL     1      35.622  25.172   1.238  1.00  0.00     0.038 C 
ATOM      3  O   UNL     1      35.541  26.313   0.714  1.00  0.00    -0.550 OA
ATOM      4  O   UNL     1      36.815  24.465   1.167  1.00  0.00    -0.550 OA
ENDROOT
TORSDOF 0
ENDMDL
MODEL 2
REMARK VINA RESULT:    -2.567     18.155     18.502
REMARK INTER + INTRA:          -2.567
REMARK INTER:                  -2.567
REMARK INTRA:                   0.000
REMARK UNBOUND:                 0.000
REMARK SMILES CC(=O)[O-]
REMARK SMILES IDX 1 1 2 2 3 3 4 4
REMARK H PARENT
REMARK Flexibility Score: inf
ROOT
ATOM      1  C   UNL     1      45.299  12.912  12.000  1.00  0.00     0.063 C 
ATOM      2  C   UNL     1      46.072  14.151  11.700  1.00  0.00     0.038 C 
ATOM      3  O   UNL     1      47.125  14.088  11.013  1.00  0.00    -0.550 OA
ATOM      4  O   UNL     1      45.663  15.371  12.224  1.00  0.00    -0.550 OA
ENDROOT
TORSDOF 0
ENDMDL
MODEL 3
REMARK VINA RESULT:    -2.467     18.808     19.267
REMARK INTER + INTRA:          -2.467
REMARK INTER:                  -2.467
REMARK INTRA:                   0.000
REMARK UNBOUND:                 0.000
REMARK SMILES CC(=O)[O-]
REMARK SMILES IDX 1 1 2 2 3 3 4 4
REMARK H PARENT
REMARK Flexibility Score: inf
ROOT
ATOM      1  C   UNL     1      45.196  12.929  11.954  1.00  0.00     0.063 C 
ATOM      2  C   UNL     1      46.539  12.874  11.308  1.00  0.00     0.038 C 
ATOM      3  O   UNL     1      47.125  13.937  10.976  1.00  0.00    -0.550 OA
ATOM      4  O   UNL     1      47.124  11.647  11.024  1.00  0.00    -0.550 OA
ENDROOT
TORSDOF 0
ENDMDL
MODEL 4
REMARK VINA RESULT:    -2.313      8.539      8.842
REMARK INTER + INTRA:          -2.313
REMARK INTER:                  -2.313
REMARK INTRA:                   0.000
REMARK UNBOUND:                 0.000
REMARK SMILES CC(=O)[O-]
REMARK SMILES IDX 1 1 2 2 3 3 4 4
REMARK H PARENT
REMARK Flexibility Score: inf
ROOT
ATOM      1  C   UNL     1      42.797  27.895   2.267  1.00  0.00     0.063 C 
ATOM      2  C   UNL     1      44.045  27.101   2.089  1.00  0.00     0.038 C 
ATOM      3  O   UNL     1      44.461  26.360   3.017  1.00  0.00    -0.550 OA
ATOM      4  O   UNL     1      44.783  27.216   0.917  1.00  0.00    -0.550 OA
ENDROOT
TORSDOF 0
ENDMDL
MODEL 5
REMARK VINA RESULT:    -1.991     10.268     10.907
REMARK INTER + INTRA:          -1.991
REMARK INTER:                  -1.991
REMARK INTRA:                   0.000
REMARK UNBOUND:                 0.000
REMARK SMILES CC(=O)[O-]
REMARK SMILES IDX 1 1 2 2 3 3 4 4
REMARK H PARENT
REMARK Flexibility Score: inf
ROOT
ATOM      1  C   UNL     1      46.155  26.513   5.309  1.00  0.00     0.063 C 
ATOM      2  C   UNL     1      45.960  25.844   3.991  1.00  0.00     0.038 C 
ATOM      3  O   UNL     1      46.905  25.203   3.462  1.00  0.00    -0.550 OA
ATOM      4  O   UNL     1      44.752  25.971   3.318  1.00  0.00    -0.550 OA
ENDROOT
TORSDOF 0
ENDMDL
MODEL 6
REMARK VINA RESULT:    -1.990      9.192      9.601
REMARK INTER + INTRA:          -1.990
REMARK INTER:                  -1.990
REMARK INTRA:                   0.000
REMARK UNBOUND:                 0.000
REMARK SMILES CC(=O)[O-]
REMARK SMILES IDX 1 1 2 2 3 3 4 4
REMARK H PARENT
REMARK Flexibility Score: inf
ROOT
ATOM      1  C   UNL     1      43.687  27.215   2.309  1.00  0.00     0.063 C 
ATOM      2  C   UNL     1      44.779  26.856   3.259  1.00  0.00     0.038 C 
ATOM      3  O   UNL     1      45.451  27.759   3.821  1.00  0.00    -0.550 OA
ATOM      4  O   UNL     1      45.094  25.522   3.485  1.00  0.00    -0.550 OA
ENDROOT
TORSDOF 0
ENDMDL
MODEL 7
REMARK VINA RESULT:    -1.959     16.429     16.841
REMARK INTER + INTRA:          -1.959
REMARK INTER:                  -1.959
REMARK INTRA:                   0.000
REMARK UNBOUND:                 0.000
REMARK SMILES CC(=O)[O-]
REMARK SMILES IDX 1 1 2 2 3 3 4 4
REMARK H PARENT
REMARK Flexibility Score: inf
ROOT
ATOM      1  C   UNL     1      29.275  10.706  -5.185  1.00  0.00     0.063 C 
ATOM      2  C   UNL     1      28.194  11.240  -4.308  1.00  0.00     0.038 C 
ATOM      3  O   UNL     1      27.684  10.511  -3.418  1.00  0.00    -0.550 OA
ATOM      4  O   UNL     1      27.709  12.527  -4.506  1.00  0.00    -0.550 OA
ENDROOT
TORSDOF 0
ENDMDL
MODEL 8
REMARK VINA RESULT:    -1.953     12.537     12.922
REMARK INTER + INTRA:          -1.953
REMARK INTER:                  -1.953
REMARK INTRA:                   0.000
REMARK UNBOUND:                 0.000
REMARK SMILES CC(=O)[O-]
REMARK SMILES IDX 1 1 2 2 3 3 4 4
REMARK H PARENT
REMARK Flexibility Score: inf
ROOT
ATOM      1  C   UNL     1      45.205  28.101   9.430  1.00  0.00     0.063 C 
ATOM      2  C   UNL     1      45.604  26.711   9.068  1.00  0.00     0.038 C 
ATOM      3  O   UNL     1      45.765  25.845   9.967  1.00  0.00    -0.550 OA
ATOM      4  O   UNL     1      45.851  26.380   7.742  1.00  0.00    -0.550 OA
ENDROOT
TORSDOF 0
ENDMDL
MODEL 9
REMARK VINA RESULT:    -1.951      8.495      8.974
REMARK INTER + INTRA:          -1.951
REMARK INTER:                  -1.951
REMARK INTRA:                   0.000
REMARK UNBOUND:                 0.000
REMARK SMILES CC(=O)[O-]
REMARK SMILES IDX 1 1 2 2 3 3 4 4
REMARK H PARENT
REMARK Flexibility Score: inf
ROOT
ATOM      1  C   UNL     1      44.821  26.679   3.347  1.00  0.00     0.063 C 
ATOM      2  C   UNL     1      44.136  27.212   2.135  1.00  0.00     0.038 C 
ATOM      3  O   UNL     1      42.949  27.622   2.208  1.00  0.00    -0.550 OA
ATOM      4  O   UNL     1      44.789  27.208   0.909  1.00  0.00    -0.550 OA
ENDROOT
TORSDOF 0
ENDMDL
