MODEL 1
REMARK VINA RESULT:    -5.489      0.000      0.000
REMARK INTER + INTRA:          -6.174
REMARK INTER:                  -6.131
REMARK INTRA:                  -0.044
REMARK UNBOUND:                -0.044
REMARK SMILES O=C([O-])c1ccc(O)c(O)c1
REMARK SMILES IDX 4 1 11 2 5 3 9 4 6 5 7 6 2 7 1 8 3 9 10 10 8 12
REMARK H PARENT 10 11 8 13
REMARK Flexibility Score: inf
ROOT
ATOM      1  C   UNL     1       0.650  -0.060   0.600  1.00  0.00     0.001 A 
ATOM      2  C   UNL     1       1.093  -1.292   0.088  1.00  0.00     0.060 A 
ATOM      3  C   UNL     1       0.648   1.064  -0.240  1.00  0.00     0.014 A 
ATOM      4  C   UNL     1       1.529  -1.408  -1.238  1.00  0.00     0.158 A 
ATOM      5  C   UNL     1       1.082   0.958  -1.563  1.00  0.00     0.051 A 
ATOM      6  C   UNL     1       1.523  -0.266  -2.074  1.00  0.00     0.157 A 
ENDROOT
BRANCH   1   7
ATOM      7  C   UNL     1       0.190   0.054   2.002  1.00  0.00     0.072 C 
ATOM      8  O   UNL     1       0.481  -0.834   2.847  1.00  0.00    -0.545 OA
ATOM      9  O   UNL     1      -0.571   1.145   2.408  1.00  0.00    -0.545 OA
ENDBRANCH   1   7
BRANCH   4  10
ATOM     10  O   UNL     1       1.955  -2.662  -1.677  1.00  0.00    -0.504 OA
ATOM     11  H   UNL     1       1.348  -3.464  -1.771  1.00  0.00     0.293 HD
ENDBRANCH   4  10
BRANCH   6  12
ATOM     12  O   UNL     1       1.943  -0.304  -3.406  1.00  0.00    -0.504 OA
ATOM     13  H   UNL     1       2.589   0.357  -3.814  1.00  0.00     0.293 HD
ENDBRANCH   6  12
TORSDOF 3
ENDMDL
MODEL 2
REMARK VINA RESULT:    -5.059      1.239      1.722
REMARK INTER + INTRA:          -5.695
REMARK INTER:                  -5.659
REMARK INTRA:                  -0.036
REMARK UNBOUND:                -0.044
REMARK SMILES O=C([O-])c1ccc(O)c(O)c1
REMARK SMILES IDX 4 1 11 2 5 3 9 4 6 5 7 6 2 7 1 8 3 9 10 10 8 12
REMARK H PARENT 10 11 8 13
REMARK Flexibility Score: inf
ROOT
ATOM      1  C   UNL     1       0.228  -0.014   0.627  1.00  0.00     0.001 A 
ATOM      2  C   UNL     1       1.368   0.433  -0.064  1.00  0.00     0.060 A 
ATOM      3  C   UNL     1      -0.711  -0.807  -0.050  1.00  0.00     0.014 A 
ATOM      4  C   UNL     1       1.573   0.098  -1.408  1.00  0.00     0.158 A 
ATOM      5  C   UNL     1      -0.514  -1.145  -1.390  1.00  0.00     0.051 A 
ATOM      6  C   UNL     1       0.618  -0.702  -2.080  1.00  0.00     0.157 A 
ENDROOT
BRANCH   1   7
ATOM      7  C   UNL     1       0.018   0.344   2.048  1.00  0.00     0.072 C 
ATOM      8  O   UNL     1       0.390  -0.433   2.967  1.00  0.00    -0.545 OA
ATOM      9  O   UNL     1      -0.595   1.545   2.389  1.00  0.00    -0.545 OA
ENDBRANCH   1   7
BRANCH   4  10
ATOM     10  O   UNL     1       2.727   0.577  -2.031  1.00  0.00    -0.504 OA
ATOM     11  H   UNL     1       2.740   1.357  -2.671  1.00  0.00     0.293 HD
ENDBRANCH   4  10
BRANCH   6  12
ATOM     12  O   UNL     1       0.755  -1.076  -3.419  1.00  0.00    -0.504 OA
ATOM     13  H   UNL     1      -0.023  -1.227  -4.046  1.00  0.00     0.293 HD
ENDBRANCH   6  12
TORSDOF 3
ENDMDL
MODEL 3
REMARK VINA RESULT:    -5.045      1.928      2.328
REMARK INTER + INTRA:          -5.679
REMARK INTER:                  -5.638
REMARK INTRA:                  -0.040
REMARK UNBOUND:                -0.044
REMARK SMILES O=C([O-])c1ccc(O)c(O)c1
REMARK SMILES IDX 4 1 11 2 5 3 9 4 6 5 7 6 2 7 1 8 3 9 10 10 8 12
REMARK H PARENT 10 11 8 13
REMARK Flexibility Score: inf
ROOT
ATOM      1  C   UNL     1       0.346  -0.513  -0.689  1.00  0.00     0.001 A 
ATOM      2  C   UNL     1       0.201  -0.734  -2.070  1.00  0.00     0.060 A 
ATOM      3  C   UNL     1       1.513   0.107  -0.217  1.00  0.00     0.014 A 
ATOM      4  C   UNL     1       1.201  -0.344  -2.971  1.00  0.00     0.158 A 
ATOM      5  C   UNL     1       2.514   0.497  -1.108  1.00  0.00     0.051 A 
ATOM      6  C   UNL     1       2.374   0.279  -2.482  1.00  0.00     0.157 A 
ENDROOT
BRANCH   1   7
ATOM      7  C   UNL     1      -0.715  -0.927   0.257  1.00  0.00     0.072 C 
ATOM      8  O   UNL     1      -1.929  -0.736  -0.018  1.00  0.00    -0.545 OA
ATOM      9  O   UNL     1      -0.385  -1.533   1.465  1.00  0.00    -0.545 OA
ENDBRANCH   1   7
BRANCH   4  10
ATOM     10  O   UNL     1       0.989  -0.595  -4.328  1.00  0.00    -0.504 OA
ATOM     11  H   UNL     1       1.676  -1.013  -4.938  1.00  0.00     0.293 HD
ENDBRANCH   4  10
BRANCH   6  12
ATOM     12  O   UNL     1       3.413   0.695  -3.319  1.00  0.00    -0.504 OA
ATOM     13  H   UNL     1       4.030   1.467  -3.112  1.00  0.00     0.293 HD
ENDBRANCH   6  12
TORSDOF 3
ENDMDL
MODEL 4
REMARK VINA RESULT:    -4.944      0.833      4.273
REMARK INTER + INTRA:          -5.565
REMARK INTER:                  -5.523
REMARK INTRA:                  -0.042
REMARK UNBOUND:                -0.044
REMARK SMILES O=C([O-])c1ccc(O)c(O)c1
REMARK SMILES IDX 4 1 11 2 5 3 9 4 6 5 7 6 2 7 1 8 3 9 10 10 8 12
REMARK H PARENT 10 11 8 13
REMARK Flexibility Score: inf
ROOT
ATOM      1  C   UNL     1       1.196  -0.366  -0.275  1.00  0.00     0.001 A 
ATOM      2  C   UNL     1       0.989  -1.032   0.946  1.00  0.00     0.060 A 
ATOM      3  C   UNL     1       0.786   0.971  -0.399  1.00  0.00     0.014 A 
ATOM      4  C   UNL     1       0.383  -0.381   2.028  1.00  0.00     0.158 A 
ATOM      5  C   UNL     1       0.182   1.627   0.675  1.00  0.00     0.051 A 
ATOM      6  C   UNL     1      -0.026   0.967   1.891  1.00  0.00     0.157 A 
ENDROOT
BRANCH   1   7
ATOM      7  C   UNL     1       1.836  -1.060  -1.415  1.00  0.00     0.072 C 
ATOM      8  O   UNL     1       2.486  -0.412  -2.278  1.00  0.00    -0.545 OA
ATOM      9  O   UNL     1       1.729  -2.440  -1.549  1.00  0.00    -0.545 OA
ENDBRANCH   1   7
BRANCH   4  10
ATOM     10  O   UNL     1       0.210  -1.105   3.210  1.00  0.00    -0.504 OA
ATOM     11  H   UNL     1      -0.084  -2.070   3.242  1.00  0.00     0.293 HD
ENDBRANCH   4  10
BRANCH   6  12
ATOM     12  O   UNL     1      -0.635   1.681   2.925  1.00  0.00    -0.504 OA
ATOM     13  H   UNL     1      -0.461   2.657   3.116  1.00  0.00     0.293 HD
ENDBRANCH   6  12
TORSDOF 3
ENDMDL
MODEL 5
REMARK VINA RESULT:    -4.829      8.281      9.861
REMARK INTER + INTRA:          -5.437
REMARK INTER:                  -5.393
REMARK INTRA:                  -0.044
REMARK UNBOUND:                -0.044
REMARK SMILES O=C([O-])c1ccc(O)c(O)c1
REMARK SMILES IDX 4 1 11 2 5 3 9 4 6 5 7 6 2 7 1 8 3 9 10 10 8 12
REMARK H PARENT 10 11 8 13
REMARK Flexibility Score: inf
ROOT
ATOM      1  C   UNL     1      -0.877   8.360   0.700  1.00  0.00     0.001 A 
ATOM      2  C   UNL     1      -1.869   9.343   0.855  1.00  0.00     0.060 A 
ATOM      3  C   UNL     1      -1.231   7.116   0.154  1.00  0.00     0.014 A 
ATOM      4  C   UNL     1      -3.195   9.097   0.475  1.00  0.00     0.158 A 
ATOM      5  C   UNL     1      -2.550   6.862  -0.227  1.00  0.00     0.051 A 
ATOM      6  C   UNL     1      -3.540   7.838  -0.073  1.00  0.00     0.157 A 
ENDROOT
BRANCH   1   7
ATOM      7  C   UNL     1       0.522   8.627   1.103  1.00  0.00     0.072 C 
ATOM      8  O   UNL     1       1.443   7.826   0.793  1.00  0.00    -0.545 OA
ATOM      9  O   UNL     1       0.838   9.769   1.832  1.00  0.00    -0.545 OA
ENDBRANCH   1   7
BRANCH   4  10
ATOM     10  O   UNL     1      -4.127  10.120   0.658  1.00  0.00    -0.504 OA
ATOM     11  H   UNL     1      -5.126   9.988   0.613  1.00  0.00     0.293 HD
ENDBRANCH   4  10
BRANCH   6  12
ATOM     12  O   UNL     1      -4.839   7.520  -0.475  1.00  0.00    -0.504 OA
ATOM     13  H   UNL     1      -5.064   7.055  -1.343  1.00  0.00     0.293 HD
ENDBRANCH   6  12
TORSDOF 3
ENDMDL
MODEL 6
REMARK VINA RESULT:    -4.825      7.485      9.205
REMARK INTER + INTRA:          -5.433
REMARK INTER:                  -5.394
REMARK INTRA:                  -0.038
REMARK UNBOUND:                -0.044
REMARK SMILES O=C([O-])c1ccc(O)c(O)c1
REMARK SMILES IDX 4 1 11 2 5 3 9 4 6 5 7 6 2 7 1 8 3 9 10 10 8 12
REMARK H PARENT 10 11 8 13
REMARK Flexibility Score: inf
ROOT
ATOM      1  C   UNL     1      -0.434   7.560   0.730  1.00  0.00     0.001 A 
ATOM      2  C   UNL     1      -1.582   7.027   0.119  1.00  0.00     0.060 A 
ATOM      3  C   UNL     1      -0.481   8.864   1.246  1.00  0.00     0.014 A 
ATOM      4  C   UNL     1      -2.761   7.777   0.021  1.00  0.00     0.158 A 
ATOM      5  C   UNL     1      -1.653   9.618   1.153  1.00  0.00     0.051 A 
ATOM      6  C   UNL     1      -2.796   9.091   0.545  1.00  0.00     0.157 A 
ENDROOT
BRANCH   1   7
ATOM      7  C   UNL     1       0.808   6.762   0.829  1.00  0.00     0.072 C 
ATOM      8  O   UNL     1       0.796   5.620   1.360  1.00  0.00    -0.545 OA
ATOM      9  O   UNL     1       2.009   7.263   0.338  1.00  0.00    -0.545 OA
ENDBRANCH   1   7
BRANCH   4  10
ATOM     10  O   UNL     1      -3.862   7.182  -0.598  1.00  0.00    -0.504 OA
ATOM     11  H   UNL     1      -4.033   6.187  -0.613  1.00  0.00     0.293 HD
ENDBRANCH   4  10
BRANCH   6  12
ATOM     12  O   UNL     1      -3.935   9.898   0.485  1.00  0.00    -0.504 OA
ATOM     13  H   UNL     1      -4.862   9.552   0.284  1.00  0.00     0.293 HD
ENDBRANCH   6  12
TORSDOF 3
ENDMDL
MODEL 7
REMARK VINA RESULT:    -4.814      8.335     10.108
REMARK INTER + INTRA:          -5.420
REMARK INTER:                  -5.381
REMARK INTRA:                  -0.040
REMARK UNBOUND:                -0.044
REMARK SMILES O=C([O-])c1ccc(O)c(O)c1
REMARK SMILES IDX 4 1 11 2 5 3 9 4 6 5 7 6 2 7 1 8 3 9 10 10 8 12
REMARK H PARENT 10 11 8 13
REMARK Flexibility Score: inf
ROOT
ATOM      1  C   UNL     1      -3.570   8.462   0.017  1.00  0.00     0.001 A 
ATOM      2  C   UNL     1      -2.737   9.343   0.729  1.00  0.00     0.060 A 
ATOM      3  C   UNL     1      -3.067   7.208  -0.363  1.00  0.00     0.014 A 
ATOM      4  C   UNL     1      -1.424   8.985   1.060  1.00  0.00     0.158 A 
ATOM      5  C   UNL     1      -1.759   6.844  -0.038  1.00  0.00     0.051 A 
ATOM      6  C   UNL     1      -0.928   7.718   0.670  1.00  0.00     0.157 A 
ENDROOT
BRANCH   1   7
ATOM      7  C   UNL     1      -4.956   8.846  -0.329  1.00  0.00     0.072 C 
ATOM      8  O   UNL     1      -5.711   9.370   0.534  1.00  0.00    -0.545 OA
ATOM      9  O   UNL     1      -5.447   8.635  -1.613  1.00  0.00    -0.545 OA
ENDBRANCH   1   7
BRANCH   4  10
ATOM     10  O   UNL     1      -0.655   9.910   1.769  1.00  0.00    -0.504 OA
ATOM     11  H   UNL     1       0.304  10.134   1.547  1.00  0.00     0.293 HD
ENDBRANCH   4  10
BRANCH   6  12
ATOM     12  O   UNL     1       0.369   7.292   0.964  1.00  0.00    -0.504 OA
ATOM     13  H   UNL     1       1.194   7.617   0.479  1.00  0.00     0.293 HD
ENDBRANCH   6  12
TORSDOF 3
ENDMDL
MODEL 8
REMARK VINA RESULT:    -4.785      9.689     10.490
REMARK INTER + INTRA:          -5.388
REMARK INTER:                  -5.344
REMARK INTRA:                  -0.044
REMARK UNBOUND:                -0.044
REMARK SMILES O=C([O-])c1ccc(O)c(O)c1
REMARK SMILES IDX 4 1 11 2 5 3 9 4 6 5 7 6 2 7 1 8 3 9 10 10 8 12
REMARK H PARENT 10 11 8 13
REMARK Flexibility Score: inf
ROOT
ATOM      1  C   UNL     1      -2.644   9.144   0.397  1.00  0.00     0.001 A 
ATOM      2  C   UNL     1      -2.500   8.593  -0.889  1.00  0.00     0.060 A 
ATOM      3  C   UNL     1      -3.931   9.441   0.870  1.00  0.00     0.014 A 
ATOM      4  C   UNL     1      -3.619   8.340  -1.694  1.00  0.00     0.158 A 
ATOM      5  C   UNL     1      -5.051   9.192   0.074  1.00  0.00     0.051 A 
ATOM      6  C   UNL     1      -4.912   8.645  -1.205  1.00  0.00     0.157 A 
ENDROOT
BRANCH   1   7
ATOM      7  C   UNL     1      -1.457   9.409   1.241  1.00  0.00     0.072 C 
ATOM      8  O   UNL     1      -1.552  10.123   2.274  1.00  0.00    -0.545 OA
ATOM      9  O   UNL     1      -0.220   8.871   0.905  1.00  0.00    -0.545 OA
ENDBRANCH   1   7
BRANCH   4  10
ATOM     10  O   UNL     1      -3.401   7.792  -2.959  1.00  0.00    -0.504 OA
ATOM     11  H   UNL     1      -2.803   6.998  -3.135  1.00  0.00     0.293 HD
ENDBRANCH   4  10
BRANCH   6  12
ATOM     12  O   UNL     1      -6.072   8.420  -1.949  1.00  0.00    -0.504 OA
ATOM     13  H   UNL     1      -6.686   9.154  -2.273  1.00  0.00     0.293 HD
ENDBRANCH   6  12
TORSDOF 3
ENDMDL
MODEL 9
REMARK VINA RESULT:    -4.734      1.189      4.546
REMARK INTER + INTRA:          -5.331
REMARK INTER:                  -5.287
REMARK INTRA:                  -0.044
REMARK UNBOUND:                -0.044
REMARK SMILES O=C([O-])c1ccc(O)c(O)c1
REMARK SMILES IDX 4 1 11 2 5 3 9 4 6 5 7 6 2 7 1 8 3 9 10 10 8 12
REMARK H PARENT 10 11 8 13
REMARK Flexibility Score: inf
ROOT
ATOM      1  C   UNL     1       1.240  -0.560  -0.407  1.00  0.00     0.001 A 
ATOM      2  C   UNL     1       1.329   0.842  -0.352  1.00  0.00     0.060 A 
ATOM      3  C   UNL     1       0.492  -1.234   0.570  1.00  0.00     0.014 A 
ATOM      4  C   UNL     1       0.684   1.565   0.659  1.00  0.00     0.158 A 
ATOM      5  C   UNL     1      -0.153  -0.520   1.582  1.00  0.00     0.051 A 
ATOM      6  C   UNL     1      -0.067   0.874   1.640  1.00  0.00     0.157 A 
ENDROOT
BRANCH   1   7
ATOM      7  C   UNL     1       1.924  -1.318  -1.479  1.00  0.00     0.072 C 
ATOM      8  O   UNL     1       2.582  -0.718  -2.370  1.00  0.00    -0.545 OA
ATOM      9  O   UNL     1       1.849  -2.706  -1.518  1.00  0.00    -0.545 OA
ENDBRANCH   1   7
BRANCH   4  10
ATOM     10  O   UNL     1       0.816   2.955   0.652  1.00  0.00    -0.504 OA
ATOM     11  H   UNL     1       0.046   3.595   0.516  1.00  0.00     0.293 HD
ENDBRANCH   4  10
BRANCH   6  12
ATOM     12  O   UNL     1      -0.737   1.527   2.678  1.00  0.00    -0.504 OA
ATOM     13  H   UNL     1      -1.650   1.947   2.584  1.00  0.00     0.293 HD
ENDBRANCH   6  12
TORSDOF 3
ENDMDL
