MODEL 1
REMARK VINA RESULT:    -4.362      0.000      0.000
REMARK INTER + INTRA:          -4.362
REMARK INTER:                  -4.362
REMARK INTRA:                   0.000
REMARK UNBOUND:                 0.000
REMARK SMILES CC(C)=C1CC[C@H](C)CC1=O
REMARK SMILES IDX 8 1 7 2 6 3 5 4 4 5 2 6 1 7 3 8 10 9 11 10 9 11
REMARK H PARENT
REMARK Flexibility Score: inf
ROOT
ATOM      1  C   UNL     1      12.707  10.047   5.442  1.00  0.00     0.008 C 
ATOM      2  C   UNL     1      12.384   9.525   4.036  1.00  0.00    -0.006 C 
ATOM      3  C   UNL     1      12.026   8.031   4.083  1.00  0.00     0.008 C 
ATOM      4  C   UNL     1      11.799   7.468   2.674  1.00  0.00     0.039 C 
ATOM      5  C   UNL     1      10.795   8.286   1.874  1.00  0.00    -0.006 C 
ATOM      6  C   UNL     1       9.983   7.701   0.944  1.00  0.00    -0.070 C 
ATOM      7  C   UNL     1       8.944   8.492   0.184  1.00  0.00     0.039 C 
ATOM      8  C   UNL     1      10.061   6.218   0.658  1.00  0.00     0.039 C 
ATOM      9  C   UNL     1      10.837   9.764   2.083  1.00  0.00     0.159 C 
ATOM     10  O   UNL     1      10.556  10.566   1.152  1.00  0.00    -0.295 OA
ATOM     11  C   UNL     1      11.226  10.323   3.421  1.00  0.00     0.084 C 
ENDROOT
TORSDOF 0
ENDMDL
MODEL 2
REMARK VINA RESULT:    -3.962      1.834      2.632
REMARK INTER + INTRA:          -3.962
REMARK INTER:                  -3.962
REMARK INTRA:                   0.000
REMARK UNBOUND:                 0.000
REMARK SMILES CC(C)=C1CC[C@H](C)CC1=O
REMARK SMILES IDX 8 1 7 2 6 3 5 4 4 5 2 6 1 7 3 8 10 9 11 10 9 11
REMARK H PARENT
REMARK Flexibility Score: inf
ROOT
ATOM      1  C   UNL     1      11.953   9.478   5.382  1.00  0.00     0.008 C 
ATOM      2  C   UNL     1      11.271   9.172   4.044  1.00  0.00    -0.006 C 
ATOM      3  C   UNL     1      11.282  10.411   3.134  1.00  0.00     0.008 C 
ATOM      4  C   UNL     1      10.514  10.154   1.831  1.00  0.00     0.039 C 
ATOM      5  C   UNL     1      10.987   8.897   1.114  1.00  0.00    -0.006 C 
ATOM      6  C   UNL     1      10.956   8.803  -0.249  1.00  0.00    -0.070 C 
ATOM      7  C   UNL     1      11.474   7.584  -0.975  1.00  0.00     0.039 C 
ATOM      8  C   UNL     1      10.432   9.938  -1.100  1.00  0.00     0.039 C 
ATOM      9  C   UNL     1      11.371   7.748   1.987  1.00  0.00     0.159 C 
ATOM     10  O   UNL     1      11.198   6.556   1.615  1.00  0.00    -0.295 OA
ATOM     11  C   UNL     1      11.969   7.999   3.340  1.00  0.00     0.084 C 
ENDROOT
TORSDOF 0
ENDMDL
MODEL 3
REMARK VINA RESULT:    -3.900     22.949     23.728
REMARK INTER + INTRA:          -3.900
REMARK INTER:                  -3.900
REMARK INTRA:                   0.000
REMARK UNBOUND:                 0.000
REMARK SMILES CC(C)=C1CC[C@H](C)CC1=O
REMARK SMILES IDX 8 1 7 2 6 3 5 4 4 5 2 6 1 7 3 8 10 9 11 10 9 11
REMARK H PARENT
REMARK Flexibility Score: inf
ROOT
ATOM      1  C   UNL     1      -2.678  -5.496  19.125  1.00  0.00     0.008 C 
ATOM      2  C   UNL     1      -1.978  -5.552  17.762  1.00  0.00    -0.006 C 
ATOM      3  C   UNL     1      -0.533  -5.041  17.875  1.00  0.00     0.008 C 
ATOM      4  C   UNL     1       0.151  -4.994  16.503  1.00  0.00     0.039 C 
ATOM      5  C   UNL     1       0.057  -6.319  15.758  1.00  0.00    -0.006 C 
ATOM      6  C   UNL     1       1.045  -6.727  14.908  1.00  0.00    -0.070 C 
ATOM      7  C   UNL     1       0.989  -8.064  14.207  1.00  0.00     0.039 C 
ATOM      8  C   UNL     1       2.266  -5.872  14.658  1.00  0.00     0.039 C 
ATOM      9  C   UNL     1      -1.220  -7.075  15.924  1.00  0.00     0.159 C 
ATOM     10  O   UNL     1      -1.683  -7.790  14.996  1.00  0.00    -0.295 OA
ATOM     11  C   UNL     1      -1.984  -6.987  17.213  1.00  0.00     0.084 C 
ENDROOT
TORSDOF 0
ENDMDL
MODEL 4
REMARK VINA RESULT:    -3.832      1.471      4.002
REMARK INTER + INTRA:          -3.832
REMARK INTER:                  -3.832
REMARK INTRA:                   0.000
REMARK UNBOUND:                 0.000
REMARK SMILES CC(C)=C1CC[C@H](C)CC1=O
REMARK SMILES IDX 8 1 7 2 6 3 5 4 4 5 2 6 1 7 3 8 10 9 11 10 9 11
REMARK H PARENT
REMARK Flexibility Score: inf
ROOT
ATOM      1  C   UNL     1      12.143   5.168  -0.693  1.00  0.00     0.008 C 
ATOM      2  C   UNL     1      11.444   6.141   0.264  1.00  0.00    -0.006 C 
ATOM      3  C   UNL     1      12.374   6.517   1.428  1.00  0.00     0.008 C 
ATOM      4  C   UNL     1      11.658   7.410   2.449  1.00  0.00     0.039 C 
ATOM      5  C   UNL     1      11.007   8.626   1.805  1.00  0.00    -0.006 C 
ATOM      6  C   UNL     1      10.894   9.811   2.477  1.00  0.00    -0.070 C 
ATOM      7  C   UNL     1      10.301  11.040   1.829  1.00  0.00     0.039 C 
ATOM      8  C   UNL     1      11.396   9.957   3.895  1.00  0.00     0.039 C 
ATOM      9  C   UNL     1      10.402   8.410   0.457  1.00  0.00     0.159 C 
ATOM     10  O   UNL     1       9.382   9.051   0.086  1.00  0.00    -0.295 OA
ATOM     11  C   UNL     1      11.004   7.408  -0.485  1.00  0.00     0.084 C 
ENDROOT
TORSDOF 0
ENDMDL
MODEL 5
REMARK VINA RESULT:    -3.789      1.577      4.481
REMARK INTER + INTRA:          -3.789
REMARK INTER:                  -3.789
REMARK INTRA:                   0.000
REMARK UNBOUND:                 0.000
REMARK SMILES CC(C)=C1CC[C@H](C)CC1=O
REMARK SMILES IDX 8 1 7 2 6 3 5 4 4 5 2 6 1 7 3 8 10 9 11 10 9 11
REMARK H PARENT
REMARK Flexibility Score: inf
ROOT
ATOM      1  C   UNL     1       9.745   5.103   0.099  1.00  0.00     0.008 C 
ATOM      2  C   UNL     1      10.375   6.474   0.374  1.00  0.00    -0.006 C 
ATOM      3  C   UNL     1       9.292   7.561   0.458  1.00  0.00     0.008 C 
ATOM      4  C   UNL     1       9.911   8.954   0.631  1.00  0.00     0.039 C 
ATOM      5  C   UNL     1      10.892   9.015   1.793  1.00  0.00    -0.006 C 
ATOM      6  C   UNL     1      11.060  10.160   2.521  1.00  0.00    -0.070 C 
ATOM      7  C   UNL     1      11.989  10.217   3.711  1.00  0.00     0.039 C 
ATOM      8  C   UNL     1      10.291  11.418   2.189  1.00  0.00     0.039 C 
ATOM      9  C   UNL     1      11.732   7.799   2.008  1.00  0.00     0.159 C 
ATOM     10  O   UNL     1      12.905   7.885   2.461  1.00  0.00    -0.295 OA
ATOM     11  C   UNL     1      11.186   6.441   1.677  1.00  0.00     0.084 C 
ENDROOT
TORSDOF 0
ENDMDL
MODEL 6
REMARK VINA RESULT:    -3.752     23.182     23.968
REMARK INTER + INTRA:          -3.752
REMARK INTER:                  -3.752
REMARK INTRA:                   0.000
REMARK UNBOUND:                 0.000
REMARK SMILES CC(C)=C1CC[C@H](C)CC1=O
REMARK SMILES IDX 8 1 7 2 6 3 5 4 4 5 2 6 1 7 3 8 10 9 11 10 9 11
REMARK H PARENT
REMARK Flexibility Score: inf
ROOT
ATOM      1  C   UNL     1       2.262  -5.864  14.631  1.00  0.00     0.008 C 
ATOM      2  C   UNL     1       1.135  -6.237  15.602  1.00  0.00    -0.006 C 
ATOM      3  C   UNL     1       0.710  -5.015  16.432  1.00  0.00     0.008 C 
ATOM      4  C   UNL     1      -0.346  -5.392  17.479  1.00  0.00     0.039 C 
ATOM      5  C   UNL     1      -1.532  -6.128  16.872  1.00  0.00    -0.006 C 
ATOM      6  C   UNL     1      -2.789  -6.000  17.393  1.00  0.00    -0.070 C 
ATOM      7  C   UNL     1      -3.983  -6.681  16.766  1.00  0.00     0.039 C 
ATOM      8  C   UNL     1      -3.050  -5.135  18.605  1.00  0.00     0.039 C 
ATOM      9  C   UNL     1      -1.218  -7.076  15.762  1.00  0.00     0.159 C 
ATOM     10  O   UNL     1      -1.895  -8.124  15.585  1.00  0.00    -0.295 OA
ATOM     11  C   UNL     1      -0.072  -6.794  14.834  1.00  0.00     0.084 C 
ENDROOT
TORSDOF 0
ENDMDL
MODEL 7
REMARK VINA RESULT:    -3.740     22.938     23.715
REMARK INTER + INTRA:          -3.740
REMARK INTER:                  -3.740
REMARK INTRA:                   0.000
REMARK UNBOUND:                 0.000
REMARK SMILES CC(C)=C1CC[C@H](C)CC1=O
REMARK SMILES IDX 8 1 7 2 6 3 5 4 4 5 2 6 1 7 3 8 10 9 11 10 9 11
REMARK H PARENT
REMARK Flexibility Score: inf
ROOT
ATOM      1  C   UNL     1      -3.269  -6.136  18.366  1.00  0.00     0.008 C 
ATOM      2  C   UNL     1      -1.763  -6.134  18.073  1.00  0.00    -0.006 C 
ATOM      3  C   UNL     1      -1.267  -7.560  17.782  1.00  0.00     0.008 C 
ATOM      4  C   UNL     1       0.254  -7.592  17.587  1.00  0.00     0.039 C 
ATOM      5  C   UNL     1       0.730  -6.584  16.551  1.00  0.00    -0.006 C 
ATOM      6  C   UNL     1       1.824  -6.832  15.770  1.00  0.00    -0.070 C 
ATOM      7  C   UNL     1       2.273  -5.864  14.700  1.00  0.00     0.039 C 
ATOM      8  C   UNL     1       2.617  -8.110  15.916  1.00  0.00     0.039 C 
ATOM      9  C   UNL     1       0.008  -5.277  16.525  1.00  0.00     0.159 C 
ATOM     10  O   UNL     1       0.598  -4.208  16.213  1.00  0.00    -0.295 OA
ATOM     11  C   UNL     1      -1.449  -5.217  16.883  1.00  0.00     0.084 C 
ENDROOT
TORSDOF 0
ENDMDL
MODEL 8
REMARK VINA RESULT:    -3.500      2.117      2.915
REMARK INTER + INTRA:          -3.500
REMARK INTER:                  -3.500
REMARK INTRA:                   0.000
REMARK UNBOUND:                 0.000
REMARK SMILES CC(C)=C1CC[C@H](C)CC1=O
REMARK SMILES IDX 8 1 7 2 6 3 5 4 4 5 2 6 1 7 3 8 10 9 11 10 9 11
REMARK H PARENT
REMARK Flexibility Score: inf
ROOT
ATOM      1  C   UNL     1      13.125  11.784   1.728  1.00  0.00     0.008 C 
ATOM      2  C   UNL     1      12.099  10.660   1.914  1.00  0.00    -0.006 C 
ATOM      3  C   UNL     1      10.882  10.882   1.003  1.00  0.00     0.008 C 
ATOM      4  C   UNL     1       9.800   9.822   1.249  1.00  0.00     0.039 C 
ATOM      5  C   UNL     1      10.344   8.402   1.163  1.00  0.00    -0.006 C 
ATOM      6  C   UNL     1       9.567   7.370   0.718  1.00  0.00    -0.070 C 
ATOM      7  C   UNL     1      10.112   5.968   0.576  1.00  0.00     0.039 C 
ATOM      8  C   UNL     1       8.129   7.593   0.308  1.00  0.00     0.039 C 
ATOM      9  C   UNL     1      11.721   8.194   1.701  1.00  0.00     0.159 C 
ATOM     10  O   UNL     1      12.057   7.105   2.239  1.00  0.00    -0.295 OA
ATOM     11  C   UNL     1      12.737   9.296   1.614  1.00  0.00     0.084 C 
ENDROOT
TORSDOF 0
ENDMDL
MODEL 9
REMARK VINA RESULT:    -3.468     22.685     23.495
REMARK INTER + INTRA:          -3.468
REMARK INTER:                  -3.468
REMARK INTRA:                   0.000
REMARK UNBOUND:                 0.000
REMARK SMILES CC(C)=C1CC[C@H](C)CC1=O
REMARK SMILES IDX 8 1 7 2 6 3 5 4 4 5 2 6 1 7 3 8 10 9 11 10 9 11
REMARK H PARENT
REMARK Flexibility Score: inf
ROOT
ATOM      1  C   UNL     1       2.738  -6.063  14.250  1.00  0.00     0.008 C 
ATOM      2  C   UNL     1       1.359  -5.851  14.889  1.00  0.00    -0.006 C 
ATOM      3  C   UNL     1       0.635  -7.194  15.071  1.00  0.00     0.008 C 
ATOM      4  C   UNL     1      -0.785  -6.993  15.614  1.00  0.00     0.039 C 
ATOM      5  C   UNL     1      -0.812  -6.139  16.874  1.00  0.00    -0.006 C 
ATOM      6  C   UNL     1      -1.752  -6.336  17.846  1.00  0.00    -0.070 C 
ATOM      7  C   UNL     1      -1.755  -5.532  19.125  1.00  0.00     0.039 C 
ATOM      8  C   UNL     1      -2.816  -7.400  17.701  1.00  0.00     0.039 C 
ATOM      9  C   UNL     1       0.167  -5.012  16.924  1.00  0.00     0.159 C 
ATOM     10  O   UNL     1      -0.101  -3.937  17.525  1.00  0.00    -0.295 OA
ATOM     11  C   UNL     1       1.499  -5.143  16.244  1.00  0.00     0.084 C 
ENDROOT
TORSDOF 0
ENDMDL
