MODEL 1
REMARK VINA RESULT:    -3.765      0.000      0.000
REMARK INTER + INTRA:          -5.187
REMARK INTER:                  -5.306
REMARK INTRA:                   0.119
REMARK UNBOUND:                 0.119
REMARK SMILES CC1=CCC(=C(C)C)C(=O)CC(C)=CCC1
REMARK SMILES IDX 12 1 14 2 13 3 15 4 16 5 2 6 1 7 3 8 11 10 9 11 10 12 5 13
REMARK SMILES IDX 6 14 7 15 8 16 4 17
REMARK H PARENT
REMARK Flexibility Score: 60.00
ROOT
ATOM      1  C   UNL     1      42.307  55.924  27.860  1.00  0.00    -0.070 C 
ATOM      2  C   UNL     1      42.795  56.953  28.591  1.00  0.00    -0.027 C 
ATOM      3  C   UNL     1      40.860  55.979  27.437  1.00  0.00     0.039 C 
ENDROOT
BRANCH   2   4
ATOM      4  C   UNL     1      44.242  57.131  28.970  1.00  0.00     0.032 C 
BRANCH   4   5
ATOM      5  C   UNL     1      44.832  58.333  28.224  1.00  0.00     0.034 C 
BRANCH   5   6
ATOM      6  C   UNL     1      45.866  57.926  27.194  1.00  0.00    -0.077 C 
ATOM      7  C   UNL     1      47.325  57.982  27.573  1.00  0.00     0.039 C 
ATOM      8  C   UNL     1      45.558  57.583  25.918  1.00  0.00    -0.023 CG0
ATOM      9  G   UNL     1      44.176  57.400  25.319  1.00  0.00     0.000 G0
ENDBRANCH   5   6
ENDBRANCH   4   5
ENDBRANCH   2   4
BRANCH   1  10
ATOM     10  C   UNL     1      43.132  54.717  27.464  1.00  0.00     0.111 C 
BRANCH  10  11
ATOM     11  C   UNL     1      44.003  54.999  26.263  1.00  0.00     0.163 C 
ATOM     12  O   UNL     1      45.100  54.380  26.193  1.00  0.00    -0.294 OA
BRANCH  11  13
ATOM     13  C   UNL     1      43.646  55.978  25.184  1.00  0.00    -0.002 C 
ATOM     14  C   UNL     1      43.011  55.557  24.046  1.00  0.00    -0.069 C 
ATOM     15  C   UNL     1      42.842  56.457  22.843  1.00  0.00     0.039 C 
ATOM     16  C   UNL     1      42.398  54.179  23.948  1.00  0.00     0.039 C 
BRANCH  13  17
ATOM     17  C   UNL     1      44.168  57.404  25.314  1.00  0.00     0.066 CG0
ATOM     18  G   UNL     1      45.547  57.566  25.929  1.00  0.00     0.000 G0
ENDBRANCH  13  17
ENDBRANCH  11  13
ENDBRANCH  10  11
ENDBRANCH   1  10
TORSDOF 0
ENDMDL
MODEL 2
REMARK VINA RESULT:    -3.595      2.015      4.311
REMARK INTER + INTRA:          -4.947
REMARK INTER:                  -4.965
REMARK INTRA:                   0.018
REMARK UNBOUND:                 0.119
REMARK SMILES CC1=CCC(=C(C)C)C(=O)CC(C)=CCC1
REMARK SMILES IDX 12 1 14 2 13 3 15 4 16 5 2 6 1 7 3 8 11 10 9 11 10 12 5 13
REMARK SMILES IDX 6 14 7 15 8 16 4 17
REMARK H PARENT
REMARK Flexibility Score: 60.00
ROOT
ATOM      1  C   UNL     1      44.161  56.674  27.954  1.00  0.00    -0.070 C 
ATOM      2  C   UNL     1      43.091  56.296  27.217  1.00  0.00    -0.027 C 
ATOM      3  C   UNL     1      43.920  57.133  29.370  1.00  0.00     0.039 C 
ENDROOT
BRANCH   2   4
ATOM      4  C   UNL     1      43.163  55.676  25.846  1.00  0.00     0.032 C 
BRANCH   4   5
ATOM      5  C   UNL     1      42.970  56.757  24.775  1.00  0.00     0.034 C 
BRANCH   5   6
ATOM      6  C   UNL     1      44.053  56.723  23.715  1.00  0.00    -0.077 C 
ATOM      7  C   UNL     1      43.971  55.675  22.633  1.00  0.00     0.039 C 
ATOM      8  C   UNL     1      45.137  57.537  23.724  1.00  0.00    -0.023 CG0
ATOM      9  G   UNL     1      45.414  58.695  24.666  1.00  0.00     0.000 G0
ENDBRANCH   5   6
ENDBRANCH   4   5
ENDBRANCH   2   4
BRANCH   1  10
ATOM     10  C   UNL     1      45.581  56.676  27.424  1.00  0.00     0.111 C 
BRANCH  10  11
ATOM     11  C   UNL     1      46.059  58.070  27.097  1.00  0.00     0.163 C 
ATOM     12  O   UNL     1      46.065  58.909  28.039  1.00  0.00    -0.294 OA
BRANCH  11  13
ATOM     13  C   UNL     1      46.495  58.504  25.728  1.00  0.00    -0.002 C 
ATOM     14  C   UNL     1      47.796  58.857  25.493  1.00  0.00    -0.069 C 
ATOM     15  C   UNL     1      48.227  59.516  24.202  1.00  0.00     0.039 C 
ATOM     16  C   UNL     1      48.888  58.560  26.495  1.00  0.00     0.039 C 
BRANCH  13  17
ATOM     17  C   UNL     1      45.417  58.710  24.670  1.00  0.00     0.066 CG0
ATOM     18  G   UNL     1      45.157  57.545  23.733  1.00  0.00     0.000 G0
ENDBRANCH  13  17
ENDBRANCH  11  13
ENDBRANCH  10  11
ENDBRANCH   1  10
TORSDOF 0
ENDMDL
MODEL 3
REMARK VINA RESULT:    -3.572      1.445      3.665
REMARK INTER + INTRA:          -4.915
REMARK INTER:                  -5.088
REMARK INTRA:                   0.173
REMARK UNBOUND:                 0.119
REMARK SMILES CC1=CCC(=C(C)C)C(=O)CC(C)=CCC1
REMARK SMILES IDX 12 1 14 2 13 3 15 4 16 5 2 6 1 7 3 8 11 10 9 11 10 12 5 13
REMARK SMILES IDX 6 14 7 15 8 16 4 17
REMARK H PARENT
REMARK Flexibility Score: 60.00
ROOT
ATOM      1  C   UNL     1      46.279  57.519  27.651  1.00  0.00    -0.070 C 
ATOM      2  C   UNL     1      45.164  57.824  28.354  1.00  0.00    -0.027 C 
ATOM      3  C   UNL     1      47.251  58.631  27.346  1.00  0.00     0.039 C 
ENDROOT
BRANCH   2   4
ATOM      4  C   UNL     1      44.168  56.818  28.870  1.00  0.00     0.032 C 
BRANCH   4   5
ATOM      5  C   UNL     1      42.818  57.017  28.171  1.00  0.00     0.034 C 
BRANCH   5   6
ATOM      6  C   UNL     1      42.546  55.957  27.123  1.00  0.00    -0.077 C 
ATOM      7  C   UNL     1      41.757  54.735  27.520  1.00  0.00     0.039 C 
ATOM      8  C   UNL     1      43.037  56.009  25.859  1.00  0.00    -0.023 CG0
ATOM      9  G   UNL     1      43.802  57.149  25.212  1.00  0.00     0.000 G0
ENDBRANCH   5   6
ENDBRANCH   4   5
ENDBRANCH   2   4
BRANCH   1  10
ATOM     10  C   UNL     1      46.590  56.126  27.142  1.00  0.00     0.111 C 
BRANCH  10  11
ATOM     11  C   UNL     1      45.988  55.877  25.779  1.00  0.00     0.163 C 
ATOM     12  O   UNL     1      46.103  54.713  25.306  1.00  0.00    -0.294 OA
BRANCH  11  13
ATOM     13  C   UNL     1      45.295  56.932  24.967  1.00  0.00    -0.002 C 
ATOM     14  C   UNL     1      46.016  57.778  24.168  1.00  0.00    -0.069 C 
ATOM     15  C   UNL     1      45.391  58.992  23.519  1.00  0.00     0.039 C 
ATOM     16  C   UNL     1      47.470  57.515  23.848  1.00  0.00     0.039 C 
BRANCH  13  17
ATOM     17  C   UNL     1      43.804  57.144  25.199  1.00  0.00     0.066 CG0
ATOM     18  G   UNL     1      43.053  56.004  25.863  1.00  0.00     0.000 G0
ENDBRANCH  13  17
ENDBRANCH  11  13
ENDBRANCH  10  11
ENDBRANCH   1  10
TORSDOF 0
ENDMDL
MODEL 4
REMARK VINA RESULT:    -3.548      1.719      2.569
REMARK INTER + INTRA:          -4.881
REMARK INTER:                  -5.071
REMARK INTRA:                   0.190
REMARK UNBOUND:                 0.119
REMARK SMILES CC1=CCC(=C(C)C)C(=O)CC(C)=CCC1
REMARK SMILES IDX 12 1 14 2 13 3 15 4 16 5 2 6 1 7 3 8 11 10 9 11 10 12 5 13
REMARK SMILES IDX 6 14 7 15 8 16 4 17
REMARK H PARENT
REMARK Flexibility Score: 60.00
ROOT
ATOM      1  C   UNL     1      43.525  56.727  27.563  1.00  0.00    -0.070 C 
ATOM      2  C   UNL     1      44.485  57.349  28.286  1.00  0.00    -0.027 C 
ATOM      3  C   UNL     1      42.683  55.683  28.252  1.00  0.00     0.039 C 
ENDROOT
BRANCH   2   4
ATOM      4  C   UNL     1      45.312  58.512  27.802  1.00  0.00     0.032 C 
BRANCH   4   5
ATOM      5  C   UNL     1      46.796  58.127  27.794  1.00  0.00     0.034 C 
BRANCH   5   6
ATOM      6  C   UNL     1      47.326  57.887  26.395  1.00  0.00    -0.077 C 
ATOM      7  C   UNL     1      48.051  59.010  25.695  1.00  0.00     0.039 C 
ATOM      8  C   UNL     1      47.120  56.740  25.701  1.00  0.00    -0.023 CG0
ATOM      9  G   UNL     1      46.475  55.461  26.203  1.00  0.00     0.000 G0
ENDBRANCH   5   6
ENDBRANCH   4   5
ENDBRANCH   2   4
BRANCH   1  10
ATOM     10  C   UNL     1      43.267  57.013  26.097  1.00  0.00     0.111 C 
BRANCH  10  11
ATOM     11  C   UNL     1      44.240  56.284  25.201  1.00  0.00     0.163 C 
ATOM     12  O   UNL     1      44.311  56.667  24.001  1.00  0.00    -0.294 OA
BRANCH  11  13
ATOM     13  C   UNL     1      45.090  55.133  25.653  1.00  0.00    -0.002 C 
ATOM     14  C   UNL     1      44.566  53.871  25.731  1.00  0.00    -0.069 C 
ATOM     15  C   UNL     1      45.309  52.734  26.396  1.00  0.00     0.039 C 
ATOM     16  C   UNL     1      43.230  53.531  25.110  1.00  0.00     0.039 C 
BRANCH  13  17
ATOM     17  C   UNL     1      46.483  55.444  26.189  1.00  0.00     0.066 CG0
ATOM     18  G   UNL     1      47.121  56.734  25.706  1.00  0.00     0.000 G0
ENDBRANCH  13  17
ENDBRANCH  11  13
ENDBRANCH  10  11
ENDBRANCH   1  10
TORSDOF 0
ENDMDL
MODEL 5
REMARK VINA RESULT:    -3.537      1.964      4.104
REMARK INTER + INTRA:          -4.864
REMARK INTER:                  -5.428
REMARK INTRA:                   0.563
REMARK UNBOUND:                 0.119
REMARK SMILES CC1=CCC(=C(C)C)C(=O)CC(C)=CCC1
REMARK SMILES IDX 12 1 14 2 13 3 15 4 16 5 2 6 1 7 3 8 11 10 9 11 10 12 5 13
REMARK SMILES IDX 6 14 7 15 8 16 4 17
REMARK H PARENT
REMARK Flexibility Score: 60.00
ROOT
ATOM      1  C   UNL     1      45.306  58.136  27.736  1.00  0.00    -0.070 C 
ATOM      2  C   UNL     1      44.637  57.468  28.704  1.00  0.00    -0.027 C 
ATOM      3  C   UNL     1      46.795  58.313  27.896  1.00  0.00     0.039 C 
ENDROOT
BRANCH   2   4
ATOM      4  C   UNL     1      43.184  57.075  28.635  1.00  0.00     0.032 C 
BRANCH   4   5
ATOM      5  C   UNL     1      43.046  55.710  27.950  1.00  0.00     0.034 C 
BRANCH   5   6
ATOM      6  C   UNL     1      42.639  55.830  26.495  1.00  0.00    -0.077 C 
ATOM      7  C   UNL     1      41.178  56.016  26.167  1.00  0.00     0.039 C 
ATOM      8  C   UNL     1      43.507  55.706  25.461  1.00  0.00    -0.023 CG0
ATOM      9  G   UNL     1      45.017  55.572  25.535  1.00  0.00     0.000 G0
ENDBRANCH   5   6
ENDBRANCH   4   5
ENDBRANCH   2   4
BRANCH   1  10
ATOM     10  C   UNL     1      44.634  58.728  26.514  1.00  0.00     0.111 C 
BRANCH  10  11
ATOM     11  C   UNL     1      45.174  58.139  25.232  1.00  0.00     0.163 C 
ATOM     12  O   UNL     1      45.028  58.822  24.182  1.00  0.00    -0.294 OA
BRANCH  11  13
ATOM     13  C   UNL     1      45.839  56.797  25.146  1.00  0.00    -0.002 C 
ATOM     14  C   UNL     1      47.085  56.674  24.591  1.00  0.00    -0.069 C 
ATOM     15  C   UNL     1      47.691  55.326  24.274  1.00  0.00     0.039 C 
ATOM     16  C   UNL     1      47.948  57.883  24.311  1.00  0.00     0.039 C 
BRANCH  13  17
ATOM     17  C   UNL     1      45.018  55.570  25.523  1.00  0.00     0.066 CG0
ATOM     18  G   UNL     1      43.509  55.718  25.458  1.00  0.00     0.000 G0
ENDBRANCH  13  17
ENDBRANCH  11  13
ENDBRANCH  10  11
ENDBRANCH   1  10
TORSDOF 0
ENDMDL
MODEL 6
REMARK VINA RESULT:    -3.493      1.966      3.751
REMARK INTER + INTRA:          -4.803
REMARK INTER:                  -4.673
REMARK INTRA:                  -0.130
REMARK UNBOUND:                 0.119
REMARK SMILES CC1=CCC(=C(C)C)C(=O)CC(C)=CCC1
REMARK SMILES IDX 12 1 14 2 13 3 15 4 16 5 2 6 1 7 3 8 11 10 9 11 10 12 5 13
REMARK SMILES IDX 6 14 7 15 8 16 4 17
REMARK H PARENT
REMARK Flexibility Score: 60.00
ROOT
ATOM      1  C   UNL     1      45.004  57.395  27.738  1.00  0.00    -0.070 C 
ATOM      2  C   UNL     1      43.918  57.250  28.532  1.00  0.00    -0.027 C 
ATOM      3  C   UNL     1      45.819  58.656  27.873  1.00  0.00     0.039 C 
ENDROOT
BRANCH   2   4
ATOM      4  C   UNL     1      43.083  56.001  28.633  1.00  0.00     0.032 C 
BRANCH   4   5
ATOM      5  C   UNL     1      41.872  56.107  27.699  1.00  0.00     0.034 C 
BRANCH   5   6
ATOM      6  C   UNL     1      41.617  54.825  26.932  1.00  0.00    -0.077 C 
ATOM      7  C   UNL     1      40.998  53.658  27.662  1.00  0.00     0.039 C 
ATOM      8  C   UNL     1      41.982  54.639  25.639  1.00  0.00    -0.023 CG0
ATOM      9  G   UNL     1      42.562  55.669  24.687  1.00  0.00     0.000 G0
ENDBRANCH   5   6
ENDBRANCH   4   5
ENDBRANCH   2   4
BRANCH   1  10
ATOM     10  C   UNL     1      45.430  56.364  26.712  1.00  0.00     0.111 C 
BRANCH  10  11
ATOM     11  C   UNL     1      44.870  56.667  25.343  1.00  0.00     0.163 C 
ATOM     12  O   UNL     1      45.068  57.826  24.886  1.00  0.00    -0.294 OA
BRANCH  11  13
ATOM     13  C   UNL     1      44.083  55.684  24.527  1.00  0.00    -0.002 C 
ATOM     14  C   UNL     1      44.697  54.938  23.557  1.00  0.00    -0.069 C 
ATOM     15  C   UNL     1      43.911  54.114  22.563  1.00  0.00     0.039 C 
ATOM     16  C   UNL     1      46.203  54.857  23.458  1.00  0.00     0.039 C 
BRANCH  13  17
ATOM     17  C   UNL     1      42.567  55.677  24.687  1.00  0.00     0.066 CG0
ATOM     18  G   UNL     1      41.991  54.641  25.635  1.00  0.00     0.000 G0
ENDBRANCH  13  17
ENDBRANCH  11  13
ENDBRANCH  10  11
ENDBRANCH   1  10
TORSDOF 0
ENDMDL
MODEL 7
REMARK VINA RESULT:    -3.433      1.761      2.352
REMARK INTER + INTRA:          -4.718
REMARK INTER:                  -4.617
REMARK INTRA:                  -0.101
REMARK UNBOUND:                 0.119
REMARK SMILES CC1=CCC(=C(C)C)C(=O)CC(C)=CCC1
REMARK SMILES IDX 12 1 14 2 13 3 15 4 16 5 2 6 1 7 3 8 11 10 9 11 10 12 5 13
REMARK SMILES IDX 6 14 7 15 8 16 4 17
REMARK H PARENT
REMARK Flexibility Score: 60.00
ROOT
ATOM      1  C   UNL     1      43.865  56.978  27.769  1.00  0.00    -0.070 C 
ATOM      2  C   UNL     1      44.986  57.443  28.366  1.00  0.00    -0.027 C 
ATOM      3  C   UNL     1      42.772  56.423  28.647  1.00  0.00     0.039 C 
ENDROOT
BRANCH   2   4
ATOM      4  C   UNL     1      46.107  58.160  27.659  1.00  0.00     0.032 C 
BRANCH   4   5
ATOM      5  C   UNL     1      47.189  57.156  27.247  1.00  0.00     0.034 C 
BRANCH   5   6
ATOM      6  C   UNL     1      47.800  57.482  25.899  1.00  0.00    -0.077 C 
ATOM      7  C   UNL     1      48.733  58.663  25.796  1.00  0.00     0.039 C 
ATOM      8  C   UNL     1      47.497  56.816  24.757  1.00  0.00    -0.023 CG0
ATOM      9  G   UNL     1      46.638  55.573  24.614  1.00  0.00     0.000 G0
ENDBRANCH   5   6
ENDBRANCH   4   5
ENDBRANCH   2   4
BRANCH   1  10
ATOM     10  C   UNL     1      43.661  56.970  26.267  1.00  0.00     0.111 C 
BRANCH  10  11
ATOM     11  C   UNL     1      44.259  55.742  25.624  1.00  0.00     0.163 C 
ATOM     12  O   UNL     1      44.008  54.631  26.166  1.00  0.00    -0.294 OA
BRANCH  11  13
ATOM     13  C   UNL     1      45.140  55.781  24.409  1.00  0.00    -0.002 C 
ATOM     14  C   UNL     1      44.593  55.849  23.156  1.00  0.00    -0.069 C 
ATOM     15  C   UNL     1      45.424  55.657  21.908  1.00  0.00     0.039 C 
ATOM     16  C   UNL     1      43.130  56.170  22.950  1.00  0.00     0.039 C 
BRANCH  13  17
ATOM     17  C   UNL     1      46.635  55.562  24.607  1.00  0.00     0.066 CG0
ATOM     18  G   UNL     1      47.487  56.808  24.769  1.00  0.00     0.000 G0
ENDBRANCH  13  17
ENDBRANCH  11  13
ENDBRANCH  10  11
ENDBRANCH   1  10
TORSDOF 0
ENDMDL
MODEL 8
REMARK VINA RESULT:    -3.347      2.068      4.383
REMARK INTER + INTRA:          -4.598
REMARK INTER:                  -4.675
REMARK INTRA:                   0.077
REMARK UNBOUND:                 0.119
REMARK SMILES CC1=CCC(=C(C)C)C(=O)CC(C)=CCC1
REMARK SMILES IDX 12 1 14 2 13 3 15 4 16 5 2 6 1 7 3 8 11 10 9 11 10 12 5 13
REMARK SMILES IDX 6 14 7 15 8 16 4 17
REMARK H PARENT
REMARK Flexibility Score: 60.00
ROOT
ATOM      1  C   UNL     1      43.852  57.126  27.731  1.00  0.00    -0.070 C 
ATOM      2  C   UNL     1      42.849  56.407  28.285  1.00  0.00    -0.027 C 
ATOM      3  C   UNL     1      44.959  57.611  28.632  1.00  0.00     0.039 C 
ENDROOT
BRANCH   2   4
ATOM      4  C   UNL     1      41.748  55.725  27.515  1.00  0.00     0.032 C 
BRANCH   4   5
ATOM      5  C   UNL     1      42.036  54.222  27.417  1.00  0.00     0.034 C 
BRANCH   5   6
ATOM      6  C   UNL     1      42.443  53.799  26.020  1.00  0.00    -0.077 C 
ATOM      7  C   UNL     1      41.364  53.401  25.043  1.00  0.00     0.039 C 
ATOM      8  C   UNL     1      43.733  53.687  25.616  1.00  0.00    -0.023 CG0
ATOM      9  G   UNL     1      44.979  54.079  26.389  1.00  0.00     0.000 G0
ENDBRANCH   5   6
ENDBRANCH   4   5
ENDBRANCH   2   4
BRANCH   1  10
ATOM     10  C   UNL     1      43.908  57.482  26.259  1.00  0.00     0.111 C 
BRANCH  10  11
ATOM     11  C   UNL     1      44.702  56.472  25.465  1.00  0.00     0.163 C 
ATOM     12  O   UNL     1      44.578  56.505  24.210  1.00  0.00    -0.294 OA
BRANCH  11  13
ATOM     13  C   UNL     1      45.595  55.438  26.085  1.00  0.00    -0.002 C 
ATOM     14  C   UNL     1      46.936  55.673  26.229  1.00  0.00    -0.069 C 
ATOM     15  C   UNL     1      47.902  54.581  26.630  1.00  0.00     0.039 C 
ATOM     16  C   UNL     1      47.519  57.055  26.044  1.00  0.00     0.039 C 
BRANCH  13  17
ATOM     17  C   UNL     1      44.998  54.065  26.376  1.00  0.00     0.066 CG0
ATOM     18  G   UNL     1      43.736  53.701  25.616  1.00  0.00     0.000 G0
ENDBRANCH  13  17
ENDBRANCH  11  13
ENDBRANCH  10  11
ENDBRANCH   1  10
TORSDOF 0
ENDMDL
MODEL 9
REMARK VINA RESULT:    -3.098      2.462      4.415
REMARK INTER + INTRA:          -4.246
REMARK INTER:                  -4.544
REMARK INTRA:                   0.298
REMARK UNBOUND:                 0.119
REMARK SMILES CC1=CCC(=C(C)C)C(=O)CC(C)=CCC1
REMARK SMILES IDX 12 1 14 2 13 3 15 4 16 5 2 6 1 7 3 8 11 10 9 11 10 12 5 13
REMARK SMILES IDX 6 14 7 15 8 16 4 17
REMARK H PARENT
REMARK Flexibility Score: 60.00
ROOT
ATOM      1  C   UNL     1      44.306  57.094  27.811  1.00  0.00    -0.070 C 
ATOM      2  C   UNL     1      43.815  55.894  27.424  1.00  0.00    -0.027 C 
ATOM      3  C   UNL     1      44.248  57.445  29.276  1.00  0.00     0.039 C 
ENDROOT
BRANCH   2   4
ATOM      4  C   UNL     1      43.925  55.324  26.034  1.00  0.00     0.032 C 
BRANCH   4   5
ATOM      5  C   UNL     1      45.201  54.482  25.917  1.00  0.00     0.034 C 
BRANCH   5   6
ATOM      6  C   UNL     1      45.946  54.736  24.622  1.00  0.00    -0.077 C 
ATOM      7  C   UNL     1      45.460  54.059  23.364  1.00  0.00     0.039 C 
ATOM      8  C   UNL     1      47.075  55.483  24.540  1.00  0.00    -0.023 CG0
ATOM      9  G   UNL     1      47.721  56.302  25.643  1.00  0.00     0.000 G0
ENDBRANCH   5   6
ENDBRANCH   4   5
ENDBRANCH   2   4
BRANCH   1  10
ATOM     10  C   UNL     1      44.893  58.105  26.847  1.00  0.00     0.111 C 
BRANCH  10  11
ATOM     11  C   UNL     1      46.401  58.129  26.903  1.00  0.00     0.163 C 
ATOM     12  O   UNL     1      46.928  58.504  27.987  1.00  0.00    -0.294 OA
BRANCH  11  13
ATOM     13  C   UNL     1      47.286  57.760  25.749  1.00  0.00    -0.002 C 
ATOM     14  C   UNL     1      47.549  58.666  24.757  1.00  0.00    -0.069 C 
ATOM     15  C   UNL     1      48.237  58.269  23.471  1.00  0.00     0.039 C 
ATOM     16  C   UNL     1      47.208  60.130  24.915  1.00  0.00     0.039 C 
BRANCH  13  17
ATOM     17  C   UNL     1      47.727  56.306  25.627  1.00  0.00     0.066 CG0
ATOM     18  G   UNL     1      47.068  55.489  24.530  1.00  0.00     0.000 G0
ENDBRANCH  13  17
ENDBRANCH  11  13
ENDBRANCH  10  11
ENDBRANCH   1  10
TORSDOF 0
ENDMDL
