MODEL 1
REMARK VINA RESULT:    -3.795      0.000      0.000
REMARK INTER + INTRA:          -5.302
REMARK INTER:                  -4.904
REMARK INTRA:                  -0.398
REMARK UNBOUND:                -0.398
REMARK SMILES CO[C@]1(CO)O[C@@H](CO)[C@@H](O)[C@@H]1O
REMARK SMILES IDX 3 1 12 2 10 3 7 4 6 5 2 6 1 7 4 8 5 9 13 11 11 13 8 15 9 16
REMARK H PARENT 5 10 13 12 11 14 9 17
REMARK Flexibility Score: inf
ROOT
ATOM      1  C   UNL     1       8.604  -4.077  -1.949  1.00  0.00     0.221 C 
ATOM      2  C   UNL     1       8.537  -5.518  -1.375  1.00  0.00     0.207 C 
ATOM      3  C   UNL     1       9.951  -6.032  -1.526  1.00  0.00     0.180 C 
ATOM      4  C   UNL     1      10.475  -5.170  -2.669  1.00  0.00     0.179 C 
ATOM      5  O   UNL     1       9.876  -3.903  -2.562  1.00  0.00    -0.337 OA
ENDROOT
BRANCH   1   6
ATOM      6  O   UNL     1       7.534  -3.901  -2.879  1.00  0.00    -0.349 OA
ATOM      7  C   UNL     1       6.811  -2.703  -2.675  1.00  0.00     0.198 C 
ENDBRANCH   1   6
BRANCH   1   8
ATOM      8  C   UNL     1       8.453  -3.039  -0.815  1.00  0.00     0.224 C 
BRANCH   8   9
ATOM      9  O   UNL     1       8.733  -3.613   0.434  1.00  0.00    -0.391 OA
ATOM     10  H   UNL     1       9.721  -3.662   0.519  1.00  0.00     0.210 HD
ENDBRANCH   8   9
ENDBRANCH   1   8
BRANCH   2  11
ATOM     11  O   UNL     1       7.659  -6.317  -2.133  1.00  0.00    -0.385 OA
ATOM     12  H   UNL     1       7.480  -5.827  -2.977  1.00  0.00     0.211 HD
ENDBRANCH   2  11
BRANCH   3  13
ATOM     13  O   UNL     1      10.660  -5.800  -0.334  1.00  0.00    -0.387 OA
ATOM     14  H   UNL     1      11.311  -5.072  -0.521  1.00  0.00     0.211 HD
ENDBRANCH   3  13
BRANCH   4  15
ATOM     15  C   UNL     1      12.001  -5.027  -2.697  1.00  0.00     0.191 C 
BRANCH  15  16
ATOM     16  O   UNL     1      12.354  -3.673  -2.771  1.00  0.00    -0.394 OA
ATOM     17  H   UNL     1      13.320  -3.653  -2.999  1.00  0.00     0.210 HD
ENDBRANCH  15  16
ENDBRANCH   4  15
TORSDOF 7
ENDMDL
MODEL 2
REMARK VINA RESULT:    -3.734      1.682      2.177
REMARK INTER + INTRA:          -5.223
REMARK INTER:                  -4.659
REMARK INTRA:                  -0.564
REMARK UNBOUND:                -0.398
REMARK SMILES CO[C@]1(CO)O[C@@H](CO)[C@@H](O)[C@@H]1O
REMARK SMILES IDX 3 1 12 2 10 3 7 4 6 5 2 6 1 7 4 8 5 9 13 11 11 13 8 15 9 16
REMARK H PARENT 5 10 13 12 11 14 9 17
REMARK Flexibility Score: inf
ROOT
ATOM      1  C   UNL     1       6.489  -4.276  -2.110  1.00  0.00     0.221 C 
ATOM      2  C   UNL     1       7.108  -5.396  -1.230  1.00  0.00     0.207 C 
ATOM      3  C   UNL     1       8.595  -5.142  -1.319  1.00  0.00     0.180 C 
ATOM      4  C   UNL     1       8.706  -4.396  -2.643  1.00  0.00     0.179 C 
ATOM      5  O   UNL     1       7.547  -3.616  -2.796  1.00  0.00    -0.337 OA
ENDROOT
BRANCH   1   6
ATOM      6  O   UNL     1       5.552  -4.865  -3.014  1.00  0.00    -0.349 OA
ATOM      7  C   UNL     1       4.349  -4.131  -3.125  1.00  0.00     0.198 C 
ENDBRANCH   1   6
BRANCH   1   8
ATOM      8  C   UNL     1       5.748  -3.246  -1.228  1.00  0.00     0.224 C 
BRANCH   8   9
ATOM      9  O   UNL     1       5.954  -3.509   0.135  1.00  0.00    -0.391 OA
ATOM     10  H   UNL     1       6.375  -4.406   0.200  1.00  0.00     0.210 HD
ENDBRANCH   8   9
ENDBRANCH   1   8
BRANCH   2  11
ATOM     11  O   UNL     1       6.811  -6.667  -1.757  1.00  0.00    -0.385 OA
ATOM     12  H   UNL     1       7.644  -7.204  -1.698  1.00  0.00     0.211 HD
ENDBRANCH   2  11
BRANCH   3  13
ATOM     13  O   UNL     1       8.996  -4.339  -0.236  1.00  0.00    -0.387 OA
ATOM     14  H   UNL     1       9.764  -4.797   0.197  1.00  0.00     0.211 HD
ENDBRANCH   3  13
BRANCH   4  15
ATOM     15  C   UNL     1       9.952  -3.510  -2.761  1.00  0.00     0.191 C 
BRANCH  15  16
ATOM     16  O   UNL     1      11.089  -4.228  -2.371  1.00  0.00    -0.394 OA
ATOM     17  H   UNL     1      11.403  -4.708  -3.181  1.00  0.00     0.210 HD
ENDBRANCH  15  16
ENDBRANCH   4  15
TORSDOF 7
ENDMDL
MODEL 3
REMARK VINA RESULT:    -3.366      1.663      4.257
REMARK INTER + INTRA:          -4.748
REMARK INTER:                  -4.313
REMARK INTRA:                  -0.435
REMARK UNBOUND:                -0.398
REMARK SMILES CO[C@]1(CO)O[C@@H](CO)[C@@H](O)[C@@H]1O
REMARK SMILES IDX 3 1 12 2 10 3 7 4 6 5 2 6 1 7 4 8 5 9 13 11 11 13 8 15 9 16
REMARK H PARENT 5 10 13 12 11 14 9 17
REMARK Flexibility Score: inf
ROOT
ATOM      1  C   UNL     1       8.916  -4.067  -2.271  1.00  0.00     0.221 C 
ATOM      2  C   UNL     1       8.436  -2.984  -1.267  1.00  0.00     0.207 C 
ATOM      3  C   UNL     1       6.929  -3.048  -1.364  1.00  0.00     0.180 C 
ATOM      4  C   UNL     1       6.730  -3.627  -2.760  1.00  0.00     0.179 C 
ATOM      5  O   UNL     1       7.788  -4.518  -3.010  1.00  0.00    -0.337 OA
ENDROOT
BRANCH   1   6
ATOM      6  O   UNL     1       9.918  -3.499  -3.118  1.00  0.00    -0.349 OA
ATOM      7  C   UNL     1      11.124  -4.236  -3.125  1.00  0.00     0.198 C 
ENDBRANCH   1   6
BRANCH   1   8
ATOM      8  C   UNL     1       9.528  -5.268  -1.514  1.00  0.00     0.224 C 
BRANCH   8   9
ATOM      9  O   UNL     1       9.632  -4.998  -0.141  1.00  0.00    -0.391 OA
ATOM     10  H   UNL     1       9.336  -5.813   0.341  1.00  0.00     0.210 HD
ENDBRANCH   8   9
ENDBRANCH   1   8
BRANCH   2  11
ATOM     11  O   UNL     1       8.882  -1.707  -1.658  1.00  0.00    -0.385 OA
ATOM     12  H   UNL     1       9.873  -1.714  -1.586  1.00  0.00     0.211 HD
ENDBRANCH   2  11
BRANCH   3  13
ATOM     13  O   UNL     1       6.434  -3.910  -0.370  1.00  0.00    -0.387 OA
ATOM     14  H   UNL     1       5.890  -3.356   0.250  1.00  0.00     0.211 HD
ENDBRANCH   3  13
BRANCH   4  15
ATOM     15  C   UNL     1       5.387  -4.341  -2.957  1.00  0.00     0.191 C 
BRANCH  15  16
ATOM     16  O   UNL     1       4.360  -3.604  -2.353  1.00  0.00    -0.394 OA
ATOM     17  H   UNL     1       4.587  -2.648  -2.495  1.00  0.00     0.210 HD
ENDBRANCH  15  16
ENDBRANCH   4  15
TORSDOF 7
ENDMDL
MODEL 4
REMARK VINA RESULT:    -3.350      1.578      2.875
REMARK INTER + INTRA:          -4.727
REMARK INTER:                  -4.157
REMARK INTRA:                  -0.570
REMARK UNBOUND:                -0.398
REMARK SMILES CO[C@]1(CO)O[C@@H](CO)[C@@H](O)[C@@H]1O
REMARK SMILES IDX 3 1 12 2 10 3 7 4 6 5 2 6 1 7 4 8 5 9 13 11 11 13 8 15 9 16
REMARK H PARENT 5 10 13 12 11 14 9 17
REMARK Flexibility Score: inf
ROOT
ATOM      1  C   UNL     1       7.308  -3.845  -1.188  1.00  0.00     0.221 C 
ATOM      2  C   UNL     1       8.711  -3.470  -0.640  1.00  0.00     0.207 C 
ATOM      3  C   UNL     1       9.619  -4.527  -1.225  1.00  0.00     0.180 C 
ATOM      4  C   UNL     1       8.645  -5.673  -1.474  1.00  0.00     0.179 C 
ATOM      5  O   UNL     1       7.404  -5.113  -1.825  1.00  0.00    -0.337 OA
ENDROOT
BRANCH   1   6
ATOM      6  O   UNL     1       6.377  -3.860  -0.104  1.00  0.00    -0.349 OA
ATOM      7  C   UNL     1       5.138  -3.259  -0.425  1.00  0.00     0.198 C 
ENDBRANCH   1   6
BRANCH   1   8
ATOM      8  C   UNL     1       6.841  -2.800  -2.228  1.00  0.00     0.224 C 
BRANCH   8   9
ATOM      9  O   UNL     1       7.873  -1.901  -2.537  1.00  0.00    -0.391 OA
ATOM     10  H   UNL     1       8.455  -1.836  -1.736  1.00  0.00     0.210 HD
ENDBRANCH   8   9
ENDBRANCH   1   8
BRANCH   2  11
ATOM     11  O   UNL     1       8.735  -3.550   0.766  1.00  0.00    -0.385 OA
ATOM     12  H   UNL     1       8.944  -2.639   1.102  1.00  0.00     0.211 HD
ENDBRANCH   2  11
BRANCH   3  13
ATOM     13  O   UNL     1      10.177  -4.051  -2.424  1.00  0.00    -0.387 OA
ATOM     14  H   UNL     1      10.777  -4.763  -2.769  1.00  0.00     0.211 HD
ENDBRANCH   3  13
BRANCH   4  15
ATOM     15  C   UNL     1       9.100  -6.658  -2.557  1.00  0.00     0.191 C 
BRANCH  15  16
ATOM     16  O   UNL     1      10.461  -6.947  -2.401  1.00  0.00    -0.394 OA
ATOM     17  H   UNL     1      10.842  -6.982  -3.317  1.00  0.00     0.210 HD
ENDBRANCH  15  16
ENDBRANCH   4  15
TORSDOF 7
ENDMDL
MODEL 5
REMARK VINA RESULT:    -3.222      1.574      4.169
REMARK INTER + INTRA:          -4.562
REMARK INTER:                  -4.457
REMARK INTRA:                  -0.105
REMARK UNBOUND:                -0.398
REMARK SMILES CO[C@]1(CO)O[C@@H](CO)[C@@H](O)[C@@H]1O
REMARK SMILES IDX 3 1 12 2 10 3 7 4 6 5 2 6 1 7 4 8 5 9 13 11 11 13 8 15 9 16
REMARK H PARENT 5 10 13 12 11 14 9 17
REMARK Flexibility Score: inf
ROOT
ATOM      1  C   UNL     1       9.413  -5.331  -1.480  1.00  0.00     0.221 C 
ATOM      2  C   UNL     1       8.388  -6.407  -1.932  1.00  0.00     0.207 C 
ATOM      3  C   UNL     1       7.058  -5.692  -1.850  1.00  0.00     0.180 C 
ATOM      4  C   UNL     1       7.351  -4.605  -0.822  1.00  0.00     0.179 C 
ATOM      5  O   UNL     1       8.691  -4.211  -0.983  1.00  0.00    -0.337 OA
ENDROOT
BRANCH   1   6
ATOM      6  O   UNL     1      10.270  -5.899  -0.488  1.00  0.00    -0.349 OA
ATOM      7  C   UNL     1      11.530  -6.290  -0.997  1.00  0.00     0.198 C 
ENDBRANCH   1   6
BRANCH   1   8
ATOM      8  C   UNL     1      10.276  -4.874  -2.679  1.00  0.00     0.224 C 
BRANCH   8   9
ATOM      9  O   UNL     1      10.468  -3.485  -2.660  1.00  0.00    -0.391 OA
ATOM     10  H   UNL     1       9.581  -3.067  -2.510  1.00  0.00     0.210 HD
ENDBRANCH   8   9
ENDBRANCH   1   8
BRANCH   2  11
ATOM     11  O   UNL     1       8.393  -7.503  -1.048  1.00  0.00    -0.385 OA
ATOM     12  H   UNL     1       7.451  -7.653  -0.771  1.00  0.00     0.211 HD
ENDBRANCH   2  11
BRANCH   3  13
ATOM     13  O   UNL     1       6.744  -5.146  -3.107  1.00  0.00    -0.387 OA
ATOM     14  H   UNL     1       5.773  -5.297  -3.254  1.00  0.00     0.211 HD
ENDBRANCH   3  13
BRANCH   4  15
ATOM     15  C   UNL     1       6.431  -3.383  -0.923  1.00  0.00     0.191 C 
BRANCH  15  16
ATOM     16  O   UNL     1       5.555  -3.351   0.170  1.00  0.00    -0.394 OA
ATOM     17  H   UNL     1       4.928  -2.601  -0.002  1.00  0.00     0.210 HD
ENDBRANCH  15  16
ENDBRANCH   4  15
TORSDOF 7
ENDMDL
MODEL 6
REMARK VINA RESULT:    -3.204      1.279      1.524
REMARK INTER + INTRA:          -4.538
REMARK INTER:                  -4.010
REMARK INTRA:                  -0.528
REMARK UNBOUND:                -0.398
REMARK SMILES CO[C@]1(CO)O[C@@H](CO)[C@@H](O)[C@@H]1O
REMARK SMILES IDX 3 1 12 2 10 3 7 4 6 5 2 6 1 7 4 8 5 9 13 11 11 13 8 15 9 16
REMARK H PARENT 5 10 13 12 11 14 9 17
REMARK Flexibility Score: inf
ROOT
ATOM      1  C   UNL     1       9.013  -5.481  -2.086  1.00  0.00     0.221 C 
ATOM      2  C   UNL     1       9.622  -6.635  -1.243  1.00  0.00     0.207 C 
ATOM      3  C   UNL     1      11.112  -6.484  -1.452  1.00  0.00     0.180 C 
ATOM      4  C   UNL     1      11.167  -5.756  -2.790  1.00  0.00     0.179 C 
ATOM      5  O   UNL     1      10.055  -4.900  -2.860  1.00  0.00    -0.337 OA
ENDROOT
BRANCH   1   6
ATOM      6  O   UNL     1       7.969  -6.010  -2.905  1.00  0.00    -0.349 OA
ATOM      7  C   UNL     1       6.681  -5.583  -2.511  1.00  0.00     0.198 C 
ENDBRANCH   1   6
BRANCH   1   8
ATOM      8  C   UNL     1       8.417  -4.397  -1.160  1.00  0.00     0.224 C 
BRANCH   8   9
ATOM      9  O   UNL     1       9.180  -4.256   0.009  1.00  0.00    -0.391 OA
ATOM     10  H   UNL     1       9.028  -5.069   0.558  1.00  0.00     0.210 HD
ENDBRANCH   8   9
ENDBRANCH   1   8
BRANCH   2  11
ATOM     11  O   UNL     1       9.199  -7.886  -1.730  1.00  0.00    -0.385 OA
ATOM     12  H   UNL     1       8.463  -8.192  -1.138  1.00  0.00     0.211 HD
ENDBRANCH   2  11
BRANCH   3  13
ATOM     13  O   UNL     1      11.651  -5.704  -0.414  1.00  0.00    -0.387 OA
ATOM     14  H   UNL     1      12.527  -6.106  -0.174  1.00  0.00     0.211 HD
ENDBRANCH   3  13
BRANCH   4  15
ATOM     15  C   UNL     1      12.457  -4.959  -3.017  1.00  0.00     0.191 C 
BRANCH  15  16
ATOM     16  O   UNL     1      12.241  -3.606  -2.726  1.00  0.00    -0.394 OA
ATOM     17  H   UNL     1      13.125  -3.236  -2.467  1.00  0.00     0.210 HD
ENDBRANCH  15  16
ENDBRANCH   4  15
TORSDOF 7
ENDMDL
MODEL 7
REMARK VINA RESULT:    -3.193      1.260      3.811
REMARK INTER + INTRA:          -4.524
REMARK INTER:                  -4.144
REMARK INTRA:                  -0.380
REMARK UNBOUND:                -0.398
REMARK SMILES CO[C@]1(CO)O[C@@H](CO)[C@@H](O)[C@@H]1O
REMARK SMILES IDX 3 1 12 2 10 3 7 4 6 5 2 6 1 7 4 8 5 9 13 11 11 13 8 15 9 16
REMARK H PARENT 5 10 13 12 11 14 9 17
REMARK Flexibility Score: inf
ROOT
ATOM      1  C   UNL     1       9.647  -5.745  -2.213  1.00  0.00     0.221 C 
ATOM      2  C   UNL     1       8.428  -5.287  -3.058  1.00  0.00     0.207 C 
ATOM      3  C   UNL     1       7.879  -4.109  -2.286  1.00  0.00     0.180 C 
ATOM      4  C   UNL     1       8.377  -4.400  -0.875  1.00  0.00     0.179 C 
ATOM      5  O   UNL     1       9.629  -5.030  -0.983  1.00  0.00    -0.337 OA
ENDROOT
BRANCH   1   6
ATOM      6  O   UNL     1       9.565  -7.157  -2.012  1.00  0.00    -0.349 OA
ATOM      7  C   UNL     1      10.375  -7.617  -0.949  1.00  0.00     0.198 C 
ENDBRANCH   1   6
BRANCH   1   8
ATOM      8  C   UNL     1      10.966  -5.425  -2.954  1.00  0.00     0.224 C 
BRANCH   8   9
ATOM      9  O   UNL     1      11.360  -4.098  -2.730  1.00  0.00    -0.391 OA
ATOM     10  H   UNL     1      11.144  -3.882  -1.786  1.00  0.00     0.210 HD
ENDBRANCH   8   9
ENDBRANCH   1   8
BRANCH   2  11
ATOM     11  O   UNL     1       7.456  -6.304  -3.125  1.00  0.00    -0.385 OA
ATOM     12  H   UNL     1       6.864  -6.085  -3.891  1.00  0.00     0.211 HD
ENDBRANCH   2  11
BRANCH   3  13
ATOM     13  O   UNL     1       8.431  -2.920  -2.795  1.00  0.00    -0.387 OA
ATOM     14  H   UNL     1       8.594  -3.068  -3.764  1.00  0.00     0.211 HD
ENDBRANCH   3  13
BRANCH   4  15
ATOM     15  C   UNL     1       8.492  -3.159   0.018  1.00  0.00     0.191 C 
BRANCH  15  16
ATOM     16  O   UNL     1       8.878  -3.534   1.311  1.00  0.00    -0.394 OA
ATOM     17  H   UNL     1       8.794  -2.718   1.870  1.00  0.00     0.210 HD
ENDBRANCH  15  16
ENDBRANCH   4  15
TORSDOF 7
ENDMDL
MODEL 8
REMARK VINA RESULT:    -3.074      1.719      3.876
REMARK INTER + INTRA:          -4.370
REMARK INTER:                  -3.783
REMARK INTRA:                  -0.587
REMARK UNBOUND:                -0.398
REMARK SMILES CO[C@]1(CO)O[C@@H](CO)[C@@H](O)[C@@H]1O
REMARK SMILES IDX 3 1 12 2 10 3 7 4 6 5 2 6 1 7 4 8 5 9 13 11 11 13 8 15 9 16
REMARK H PARENT 5 10 13 12 11 14 9 17
REMARK Flexibility Score: inf
ROOT
ATOM      1  C   UNL     1       8.690  -5.326  -2.430  1.00  0.00     0.221 C 
ATOM      2  C   UNL     1       8.689  -5.018  -0.908  1.00  0.00     0.207 C 
ATOM      3  C   UNL     1       8.106  -3.626  -0.824  1.00  0.00     0.180 C 
ATOM      4  C   UNL     1       8.426  -3.070  -2.207  1.00  0.00     0.179 C 
ATOM      5  O   UNL     1       8.354  -4.131  -3.125  1.00  0.00    -0.337 OA
ENDROOT
BRANCH   1   6
ATOM      6  O   UNL     1       9.981  -5.815  -2.800  1.00  0.00    -0.349 OA
ATOM      7  C   UNL     1       9.986  -7.192  -3.118  1.00  0.00     0.198 C 
ENDBRANCH   1   6
BRANCH   1   8
ATOM      8  C   UNL     1       7.637  -6.408  -2.761  1.00  0.00     0.224 C 
BRANCH   8   9
ATOM      9  O   UNL     1       6.665  -6.490  -1.752  1.00  0.00    -0.391 OA
ATOM     10  H   UNL     1       7.015  -7.107  -1.058  1.00  0.00     0.210 HD
ENDBRANCH   8   9
ENDBRANCH   1   8
BRANCH   2  11
ATOM     11  O   UNL     1      10.001  -5.015  -0.398  1.00  0.00    -0.385 OA
ATOM     12  H   UNL     1       9.925  -5.072   0.591  1.00  0.00     0.211 HD
ENDBRANCH   2  11
BRANCH   3  13
ATOM     13  O   UNL     1       6.719  -3.714  -0.610  1.00  0.00    -0.387 OA
ATOM     14  H   UNL     1       6.276  -3.346  -1.419  1.00  0.00     0.211 HD
ENDBRANCH   3  13
BRANCH   4  15
ATOM     15  C   UNL     1       7.504  -1.929  -2.652  1.00  0.00     0.191 C 
BRANCH  15  16
ATOM     16  O   UNL     1       6.270  -2.445  -3.068  1.00  0.00    -0.394 OA
ATOM     17  H   UNL     1       6.170  -3.321  -2.613  1.00  0.00     0.210 HD
ENDBRANCH  15  16
ENDBRANCH   4  15
TORSDOF 7
ENDMDL
