MODEL 1
REMARK VINA RESULT:    -3.625      0.000      0.000
REMARK INTER + INTRA:          -6.610
REMARK INTER:                  -5.744
REMARK INTRA:                  -0.865
REMARK UNBOUND:                -0.865
REMARK SMILES CCCCCCCCCCCC(=O)[O-]
REMARK SMILES IDX 7 1 8 2 9 3 10 4 11 5 12 6 13 7 14 8 6 9 5 10 4 11 3 12 2 13
REMARK SMILES IDX 1 14
REMARK H PARENT
REMARK Flexibility Score: inf
ROOT
ATOM      1  C   UNL     1      58.010  28.343  51.797  1.00  0.00     0.000 C 
ENDROOT
BRANCH   1   2
ATOM      2  C   UNL     1      58.341  28.574  50.315  1.00  0.00     0.000 C 
BRANCH   2   3
ATOM      3  C   UNL     1      59.848  28.495  50.024  1.00  0.00     0.000 C 
BRANCH   3   4
ATOM      4  C   UNL     1      60.263  27.150  49.408  1.00  0.00     0.006 C 
BRANCH   4   5
ATOM      5  C   UNL     1      60.806  26.201  50.481  1.00  0.00     0.053 C 
BRANCH   5   6
ATOM      6  C   UNL     1      60.077  24.896  50.443  1.00  0.00     0.041 C 
ATOM      7  O   UNL     1      60.701  23.827  50.210  1.00  0.00    -0.550 OA
ATOM      8  O   UNL     1      58.698  24.864  50.615  1.00  0.00    -0.550 OA
ENDBRANCH   5   6
ENDBRANCH   4   5
ENDBRANCH   3   4
ENDBRANCH   2   3
ENDBRANCH   1   2
BRANCH   1   9
ATOM      9  C   UNL     1      56.613  27.724  51.956  1.00  0.00     0.000 C 
BRANCH   9  10
ATOM     10  C   UNL     1      55.555  28.406  51.074  1.00  0.00    -0.000 C 
BRANCH  10  11
ATOM     11  C   UNL     1      54.682  27.396  50.310  1.00  0.00    -0.000 C 
BRANCH  11  12
ATOM     12  C   UNL     1      55.413  26.072  50.036  1.00  0.00    -0.000 C 
BRANCH  12  13
ATOM     13  C   UNL     1      54.450  24.890  49.846  1.00  0.00    -0.003 C 
ATOM     14  C   UNL     1      53.237  25.298  49.016  1.00  0.00     0.004 C 
ENDBRANCH  12  13
ENDBRANCH  11  12
ENDBRANCH  10  11
ENDBRANCH   9  10
ENDBRANCH   1   9
TORSDOF 10
ENDMDL
MODEL 2
REMARK VINA RESULT:    -3.547      3.022      5.652
REMARK INTER + INTRA:          -6.486
REMARK INTER:                  -5.153
REMARK INTRA:                  -1.333
REMARK UNBOUND:                -0.865
REMARK SMILES CCCCCCCCCCCC(=O)[O-]
REMARK SMILES IDX 7 1 8 2 9 3 10 4 11 5 12 6 13 7 14 8 6 9 5 10 4 11 3 12 2 13
REMARK SMILES IDX 1 14
REMARK H PARENT
REMARK Flexibility Score: inf
ROOT
ATOM      1  C   UNL     1      56.752  26.053  51.799  1.00  0.00     0.000 C 
ENDROOT
BRANCH   1   2
ATOM      2  C   UNL     1      56.788  25.615  50.327  1.00  0.00     0.000 C 
BRANCH   2   3
ATOM      3  C   UNL     1      55.385  25.391  49.740  1.00  0.00     0.000 C 
BRANCH   3   4
ATOM      4  C   UNL     1      54.271  25.949  50.640  1.00  0.00     0.006 C 
BRANCH   4   5
ATOM      5  C   UNL     1      53.706  27.252  50.067  1.00  0.00     0.053 C 
BRANCH   5   6
ATOM      6  C   UNL     1      53.866  28.369  51.049  1.00  0.00     0.041 C 
ATOM      7  O   UNL     1      54.296  29.490  50.669  1.00  0.00    -0.550 OA
ATOM      8  O   UNL     1      53.589  28.158  52.394  1.00  0.00    -0.550 OA
ENDBRANCH   5   6
ENDBRANCH   4   5
ENDBRANCH   3   4
ENDBRANCH   2   3
ENDBRANCH   1   2
BRANCH   1   9
ATOM      9  C   UNL     1      57.362  27.453  51.968  1.00  0.00     0.000 C 
BRANCH   9  10
ATOM     10  C   UNL     1      57.605  28.162  50.627  1.00  0.00    -0.000 C 
BRANCH  10  11
ATOM     11  C   UNL     1      59.066  28.610  50.452  1.00  0.00    -0.000 C 
BRANCH  11  12
ATOM     12  C   UNL     1      59.834  27.741  49.443  1.00  0.00    -0.000 C 
BRANCH  12  13
ATOM     13  C   UNL     1      60.826  26.783  50.119  1.00  0.00    -0.003 C 
ATOM     14  C   UNL     1      60.374  25.333  49.980  1.00  0.00     0.004 C 
ENDBRANCH  12  13
ENDBRANCH  11  12
ENDBRANCH  10  11
ENDBRANCH   9  10
ENDBRANCH   1   9
TORSDOF 10
ENDMDL
MODEL 3
REMARK VINA RESULT:    -3.497      2.511      5.497
REMARK INTER + INTRA:          -6.407
REMARK INTER:                  -4.945
REMARK INTRA:                  -1.462
REMARK UNBOUND:                -0.865
REMARK SMILES CCCCCCCCCCCC(=O)[O-]
REMARK SMILES IDX 7 1 8 2 9 3 10 4 11 5 12 6 13 7 14 8 6 9 5 10 4 11 3 12 2 13
REMARK SMILES IDX 1 14
REMARK H PARENT
REMARK Flexibility Score: inf
ROOT
ATOM      1  C   UNL     1      58.992  24.489  51.577  1.00  0.00     0.000 C 
ENDROOT
BRANCH   1   2
ATOM      2  C   UNL     1      57.592  25.104  51.725  1.00  0.00     0.000 C 
BRANCH   2   3
ATOM      3  C   UNL     1      56.988  25.538  50.379  1.00  0.00     0.000 C 
BRANCH   3   4
ATOM      4  C   UNL     1      55.910  26.622  50.536  1.00  0.00     0.006 C 
BRANCH   4   5
ATOM      5  C   UNL     1      54.584  26.166  49.920  1.00  0.00     0.053 C 
BRANCH   5   6
ATOM      6  C   UNL     1      54.055  24.967  50.642  1.00  0.00     0.041 C 
ATOM      7  O   UNL     1      53.887  23.881  50.028  1.00  0.00    -0.550 OA
ATOM      8  O   UNL     1      53.701  25.063  51.982  1.00  0.00    -0.550 OA
ENDBRANCH   5   6
ENDBRANCH   4   5
ENDBRANCH   3   4
ENDBRANCH   2   3
ENDBRANCH   1   2
BRANCH   1   9
ATOM      9  C   UNL     1      59.644  24.925  50.256  1.00  0.00     0.000 C 
BRANCH   9  10
ATOM     10  C   UNL     1      61.026  25.568  50.459  1.00  0.00    -0.000 C 
BRANCH  10  11
ATOM     11  C   UNL     1      60.990  27.100  50.330  1.00  0.00    -0.000 C 
BRANCH  11  12
ATOM     12  C   UNL     1      59.907  27.585  49.353  1.00  0.00    -0.000 C 
BRANCH  12  13
ATOM     13  C   UNL     1      59.005  28.671  49.957  1.00  0.00    -0.003 C 
ATOM     14  C   UNL     1      59.000  28.596  51.481  1.00  0.00     0.004 C 
ENDBRANCH  12  13
ENDBRANCH  11  12
ENDBRANCH  10  11
ENDBRANCH   9  10
ENDBRANCH   1   9
TORSDOF 10
ENDMDL
MODEL 4
REMARK VINA RESULT:    -3.478     11.480     13.177
REMARK INTER + INTRA:          -6.376
REMARK INTER:                  -4.800
REMARK INTRA:                  -1.576
REMARK UNBOUND:                -0.865
REMARK SMILES CCCCCCCCCCCC(=O)[O-]
REMARK SMILES IDX 7 1 8 2 9 3 10 4 11 5 12 6 13 7 14 8 6 9 5 10 4 11 3 12 2 13
REMARK SMILES IDX 1 14
REMARK H PARENT
REMARK Flexibility Score: inf
ROOT
ATOM      1  C   UNL     1      63.733  29.454  61.587  1.00  0.00     0.000 C 
ENDROOT
BRANCH   1   2
ATOM      2  C   UNL     1      64.377  29.434  60.192  1.00  0.00     0.000 C 
BRANCH   2   3
ATOM      3  C   UNL     1      64.885  30.817  59.753  1.00  0.00     0.000 C 
BRANCH   3   4
ATOM      4  C   UNL     1      64.655  31.898  60.820  1.00  0.00     0.006 C 
BRANCH   4   5
ATOM      5  C   UNL     1      64.470  33.274  60.174  1.00  0.00     0.053 C 
BRANCH   5   6
ATOM      6  C   UNL     1      64.108  34.294  61.207  1.00  0.00     0.041 C 
ATOM      7  O   UNL     1      62.955  34.800  61.220  1.00  0.00    -0.550 OA
ATOM      8  O   UNL     1      65.059  34.724  62.124  1.00  0.00    -0.550 OA
ENDBRANCH   5   6
ENDBRANCH   4   5
ENDBRANCH   3   4
ENDBRANCH   2   3
ENDBRANCH   1   2
BRANCH   1   9
ATOM      9  C   UNL     1      62.225  29.176  61.497  1.00  0.00     0.000 C 
BRANCH   9  10
ATOM     10  C   UNL     1      61.372  30.348  62.007  1.00  0.00    -0.000 C 
BRANCH  10  11
ATOM     11  C   UNL     1      61.113  31.407  60.922  1.00  0.00    -0.000 C 
BRANCH  11  12
ATOM     12  C   UNL     1      60.809  30.785  59.550  1.00  0.00    -0.000 C 
BRANCH  12  13
ATOM     13  C   UNL     1      61.475  31.545  58.393  1.00  0.00    -0.003 C 
ATOM     14  C   UNL     1      61.219  33.045  58.500  1.00  0.00     0.004 C 
ENDBRANCH  12  13
ENDBRANCH  11  12
ENDBRANCH  10  11
ENDBRANCH   9  10
ENDBRANCH   1   9
TORSDOF 10
ENDMDL
MODEL 5
REMARK VINA RESULT:    -3.467     11.645     13.737
REMARK INTER + INTRA:          -6.360
REMARK INTER:                  -5.467
REMARK INTRA:                  -0.893
REMARK UNBOUND:                -0.865
REMARK SMILES CCCCCCCCCCCC(=O)[O-]
REMARK SMILES IDX 7 1 8 2 9 3 10 4 11 5 12 6 13 7 14 8 6 9 5 10 4 11 3 12 2 13
REMARK SMILES IDX 1 14
REMARK H PARENT
REMARK Flexibility Score: inf
ROOT
ATOM      1  C   UNL     1      61.477  31.077  59.701  1.00  0.00     0.000 C 
ENDROOT
BRANCH   1   2
ATOM      2  C   UNL     1      61.155  30.974  61.199  1.00  0.00     0.000 C 
BRANCH   2   3
ATOM      3  C   UNL     1      61.829  29.765  61.869  1.00  0.00     0.000 C 
BRANCH   3   4
ATOM      4  C   UNL     1      63.047  29.255  61.082  1.00  0.00     0.006 C 
BRANCH   4   5
ATOM      5  C   UNL     1      64.329  29.950  61.548  1.00  0.00     0.053 C 
BRANCH   5   6
ATOM      6  C   UNL     1      65.276  30.126  60.403  1.00  0.00     0.041 C 
ATOM      7  O   UNL     1      65.217  31.159  59.685  1.00  0.00    -0.550 OA
ATOM      8  O   UNL     1      66.190  29.125  60.096  1.00  0.00    -0.550 OA
ENDBRANCH   5   6
ENDBRANCH   4   5
ENDBRANCH   3   4
ENDBRANCH   2   3
ENDBRANCH   1   2
BRANCH   1   9
ATOM      9  C   UNL     1      61.918  32.501  59.333  1.00  0.00     0.000 C 
BRANCH   9  10
ATOM     10  C   UNL     1      62.405  33.307  60.548  1.00  0.00    -0.000 C 
BRANCH  10  11
ATOM     11  C   UNL     1      61.989  34.786  60.482  1.00  0.00    -0.000 C 
BRANCH  11  12
ATOM     12  C   UNL     1      62.873  35.687  61.359  1.00  0.00    -0.000 C 
BRANCH  12  13
ATOM     13  C   UNL     1      64.346  35.677  60.925  1.00  0.00    -0.003 C 
ATOM     14  C   UNL     1      65.249  35.186  62.052  1.00  0.00     0.004 C 
ENDBRANCH  12  13
ENDBRANCH  11  12
ENDBRANCH  10  11
ENDBRANCH   9  10
ENDBRANCH   1   9
TORSDOF 10
ENDMDL
MODEL 6
REMARK VINA RESULT:    -3.465      1.763      3.193
REMARK INTER + INTRA:          -6.356
REMARK INTER:                  -5.067
REMARK INTRA:                  -1.289
REMARK UNBOUND:                -0.865
REMARK SMILES CCCCCCCCCCCC(=O)[O-]
REMARK SMILES IDX 7 1 8 2 9 3 10 4 11 5 12 6 13 7 14 8 6 9 5 10 4 11 3 12 2 13
REMARK SMILES IDX 1 14
REMARK H PARENT
REMARK Flexibility Score: inf
ROOT
ATOM      1  C   UNL     1      56.001  25.722  51.476  1.00  0.00     0.000 C 
ENDROOT
BRANCH   1   2
ATOM      2  C   UNL     1      56.902  26.924  51.799  1.00  0.00     0.000 C 
BRANCH   2   3
ATOM      3  C   UNL     1      57.148  27.827  50.579  1.00  0.00     0.000 C 
BRANCH   3   4
ATOM      4  C   UNL     1      58.465  28.612  50.680  1.00  0.00     0.006 C 
BRANCH   4   5
ATOM      5  C   UNL     1      59.441  28.184  49.580  1.00  0.00     0.053 C 
BRANCH   5   6
ATOM      6  C   UNL     1      60.579  27.406  50.163  1.00  0.00     0.041 C 
ATOM      7  O   UNL     1      60.448  26.832  51.276  1.00  0.00    -0.550 OA
ATOM      8  O   UNL     1      61.799  27.357  49.501  1.00  0.00    -0.550 OA
ENDBRANCH   5   6
ENDBRANCH   4   5
ENDBRANCH   3   4
ENDBRANCH   2   3
ENDBRANCH   1   2
BRANCH   1   9
ATOM      9  C   UNL     1      55.871  25.529  49.958  1.00  0.00     0.000 C 
BRANCH   9  10
ATOM     10  C   UNL     1      54.409  25.448  49.491  1.00  0.00    -0.000 C 
BRANCH  10  11
ATOM     11  C   UNL     1      53.446  26.190  50.433  1.00  0.00    -0.000 C 
BRANCH  11  12
ATOM     12  C   UNL     1      52.974  27.534  49.856  1.00  0.00    -0.000 C 
BRANCH  12  13
ATOM     13  C   UNL     1      53.529  28.739  50.628  1.00  0.00    -0.003 C 
ATOM     14  C   UNL     1      53.549  28.469  52.129  1.00  0.00     0.004 C 
ENDBRANCH  12  13
ENDBRANCH  11  12
ENDBRANCH  10  11
ENDBRANCH   9  10
ENDBRANCH   1   9
TORSDOF 10
ENDMDL
MODEL 7
REMARK VINA RESULT:    -3.461     12.056     13.733
REMARK INTER + INTRA:          -6.350
REMARK INTER:                  -4.983
REMARK INTRA:                  -1.367
REMARK UNBOUND:                -0.865
REMARK SMILES CCCCCCCCCCCC(=O)[O-]
REMARK SMILES IDX 7 1 8 2 9 3 10 4 11 5 12 6 13 7 14 8 6 9 5 10 4 11 3 12 2 13
REMARK SMILES IDX 1 14
REMARK H PARENT
REMARK Flexibility Score: inf
ROOT
ATOM      1  C   UNL     1      61.012  30.398  59.981  1.00  0.00     0.000 C 
ENDROOT
BRANCH   1   2
ATOM      2  C   UNL     1      61.308  31.752  59.318  1.00  0.00     0.000 C 
BRANCH   2   3
ATOM      3  C   UNL     1      61.714  32.833  60.333  1.00  0.00     0.000 C 
BRANCH   3   4
ATOM      4  C   UNL     1      62.957  33.622  59.892  1.00  0.00     0.006 C 
BRANCH   4   5
ATOM      5  C   UNL     1      64.044  33.574  60.970  1.00  0.00     0.053 C 
BRANCH   5   6
ATOM      6  C   UNL     1      64.246  34.929  61.571  1.00  0.00     0.041 C 
ATOM      7  O   UNL     1      63.302  35.763  61.584  1.00  0.00    -0.550 OA
ATOM      8  O   UNL     1      65.491  35.290  62.071  1.00  0.00    -0.550 OA
ENDBRANCH   5   6
ENDBRANCH   4   5
ENDBRANCH   3   4
ENDBRANCH   2   3
ENDBRANCH   1   2
BRANCH   1   9
ATOM      9  C   UNL     1      61.245  30.469  61.498  1.00  0.00     0.000 C 
BRANCH   9  10
ATOM     10  C   UNL     1      62.311  29.474  61.984  1.00  0.00    -0.000 C 
BRANCH  10  11
ATOM     11  C   UNL     1      63.717  29.809  61.455  1.00  0.00    -0.000 C 
BRANCH  11  12
ATOM     12  C   UNL     1      64.297  28.693  60.572  1.00  0.00    -0.000 C 
BRANCH  12  13
ATOM     13  C   UNL     1      64.821  29.215  59.226  1.00  0.00    -0.003 C 
ATOM     14  C   UNL     1      65.361  30.635  59.359  1.00  0.00     0.004 C 
ENDBRANCH  12  13
ENDBRANCH  11  12
ENDBRANCH  10  11
ENDBRANCH   9  10
ENDBRANCH   1   9
TORSDOF 10
ENDMDL
MODEL 8
REMARK VINA RESULT:    -3.446     11.785     13.495
REMARK INTER + INTRA:          -6.326
REMARK INTER:                  -5.047
REMARK INTRA:                  -1.279
REMARK UNBOUND:                -0.865
REMARK SMILES CCCCCCCCCCCC(=O)[O-]
REMARK SMILES IDX 7 1 8 2 9 3 10 4 11 5 12 6 13 7 14 8 6 9 5 10 4 11 3 12 2 13
REMARK SMILES IDX 1 14
REMARK H PARENT
REMARK Flexibility Score: inf
ROOT
ATOM      1  C   UNL     1      63.840  32.246  59.497  1.00  0.00     0.000 C 
ENDROOT
BRANCH   1   2
ATOM      2  C   UNL     1      62.442  31.610  59.508  1.00  0.00     0.000 C 
BRANCH   2   3
ATOM      3  C   UNL     1      61.674  31.888  60.810  1.00  0.00     0.000 C 
BRANCH   3   4
ATOM      4  C   UNL     1      61.366  30.607  61.601  1.00  0.00     0.006 C 
BRANCH   4   5
ATOM      5  C   UNL     1      61.662  29.361  60.760  1.00  0.00     0.053 C 
BRANCH   5   6
ATOM      6  C   UNL     1      62.787  28.579  61.362  1.00  0.00     0.041 C 
ATOM      7  O   UNL     1      62.626  27.367  61.662  1.00  0.00    -0.550 OA
ATOM      8  O   UNL     1      63.998  29.202  61.638  1.00  0.00    -0.550 OA
ENDBRANCH   5   6
ENDBRANCH   4   5
ENDBRANCH   3   4
ENDBRANCH   2   3
ENDBRANCH   1   2
BRANCH   1   9
ATOM      9  C   UNL     1      64.208  32.784  60.888  1.00  0.00     0.000 C 
BRANCH   9  10
ATOM     10  C   UNL     1      64.794  34.204  60.841  1.00  0.00    -0.000 C 
BRANCH  10  11
ATOM     11  C   UNL     1      63.904  35.236  61.555  1.00  0.00    -0.000 C 
BRANCH  11  12
ATOM     12  C   UNL     1      63.008  36.017  60.581  1.00  0.00    -0.000 C 
BRANCH  12  13
ATOM     13  C   UNL     1      61.526  35.631  60.699  1.00  0.00    -0.003 C 
ATOM     14  C   UNL     1      60.981  35.127  59.367  1.00  0.00     0.004 C 
ENDBRANCH  12  13
ENDBRANCH  11  12
ENDBRANCH  10  11
ENDBRANCH   9  10
ENDBRANCH   1   9
TORSDOF 10
ENDMDL
MODEL 9
REMARK VINA RESULT:    -3.434      1.877      2.505
REMARK INTER + INTRA:          -6.306
REMARK INTER:                  -5.105
REMARK INTRA:                  -1.202
REMARK UNBOUND:                -0.865
REMARK SMILES CCCCCCCCCCCC(=O)[O-]
REMARK SMILES IDX 7 1 8 2 9 3 10 4 11 5 12 6 13 7 14 8 6 9 5 10 4 11 3 12 2 13
REMARK SMILES IDX 1 14
REMARK H PARENT
REMARK Flexibility Score: inf
ROOT
ATOM      1  C   UNL     1      57.761  27.075  52.620  1.00  0.00     0.000 C 
ENDROOT
BRANCH   1   2
ATOM      2  C   UNL     1      57.295  25.642  52.324  1.00  0.00     0.000 C 
BRANCH   2   3
ATOM      3  C   UNL     1      58.203  24.918  51.317  1.00  0.00     0.000 C 
BRANCH   3   4
ATOM      4  C   UNL     1      59.573  25.598  51.160  1.00  0.00     0.006 C 
BRANCH   4   5
ATOM      5  C   UNL     1      59.789  26.065  49.717  1.00  0.00     0.053 C 
BRANCH   5   6
ATOM      6  C   UNL     1      60.244  27.490  49.691  1.00  0.00     0.041 C 
ATOM      7  O   UNL     1      61.398  27.794  50.094  1.00  0.00    -0.550 OA
ATOM      8  O   UNL     1      59.376  28.489  49.269  1.00  0.00    -0.550 OA
ENDBRANCH   5   6
ENDBRANCH   4   5
ENDBRANCH   3   4
ENDBRANCH   2   3
ENDBRANCH   1   2
BRANCH   1   9
ATOM      9  C   UNL     1      56.684  28.095  52.220  1.00  0.00     0.000 C 
BRANCH   9  10
ATOM     10  C   UNL     1      56.206  27.919  50.770  1.00  0.00    -0.000 C 
BRANCH  10  11
ATOM     11  C   UNL     1      54.700  28.186  50.607  1.00  0.00    -0.000 C 
BRANCH  11  12
ATOM     12  C   UNL     1      53.907  26.912  50.275  1.00  0.00    -0.000 C 
BRANCH  12  13
ATOM     13  C   UNL     1      54.793  25.793  49.708  1.00  0.00    -0.003 C 
ATOM     14  C   UNL     1      54.151  24.425  49.916  1.00  0.00     0.004 C 
ENDBRANCH  12  13
ENDBRANCH  11  12
ENDBRANCH  10  11
ENDBRANCH   9  10
ENDBRANCH   1   9
TORSDOF 10
ENDMDL
