MODEL 1
REMARK VINA RESULT:    -3.808      0.000      0.000
REMARK INTER + INTRA:          -5.571
REMARK INTER:                  -5.032
REMARK INTRA:                  -0.540
REMARK UNBOUND:                -0.540
REMARK SMILES C=C[C@H](O)CCCCC
REMARK SMILES IDX 6 1 7 2 8 3 9 4 5 5 3 6 2 7 1 8 4 9
REMARK H PARENT 4 10
REMARK Flexibility Score: inf
ROOT
ATOM      1  C   UNL     1     117.676 128.945 125.852  1.00  0.00     0.003 C 
ENDROOT
BRANCH   1   2
ATOM      2  C   UNL     1     116.836 130.200 126.140  1.00  0.00    -0.000 C 
BRANCH   2   3
ATOM      3  C   UNL     1     117.289 131.417 125.320  1.00  0.00    -0.003 C 
ATOM      4  C   UNL     1     116.909 131.262 123.850  1.00  0.00     0.004 C 
ENDBRANCH   2   3
ENDBRANCH   1   2
BRANCH   1   5
ATOM      5  C   UNL     1     119.034 128.965 126.577  1.00  0.00     0.036 C 
BRANCH   5   6
ATOM      6  C   UNL     1     120.245 129.043 125.629  1.00  0.00     0.136 C 
BRANCH   6   7
ATOM      7  C   UNL     1     120.823 130.440 125.548  1.00  0.00    -0.004 C 
ATOM      8  C   UNL     1     120.740 131.319 126.553  1.00  0.00     0.007 C 
ENDBRANCH   6   7
BRANCH   6   9
ATOM      9  O   UNL     1     119.901 128.558 124.356  1.00  0.00    -0.389 OA
ATOM     10  H   UNL     1     119.328 127.759 124.499  1.00  0.00     0.211 HD
ENDBRANCH   6   9
ENDBRANCH   5   6
ENDBRANCH   1   5
TORSDOF 6
ENDMDL
MODEL 2
REMARK VINA RESULT:    -3.669     15.194     16.310
REMARK INTER + INTRA:          -5.389
REMARK INTER:                  -5.145
REMARK INTRA:                  -0.243
REMARK UNBOUND:                -0.540
REMARK SMILES C=C[C@H](O)CCCCC
REMARK SMILES IDX 6 1 7 2 8 3 9 4 5 5 3 6 2 7 1 8 4 9
REMARK H PARENT 4 10
REMARK Flexibility Score: inf
ROOT
ATOM      1  C   UNL     1     122.403 117.873 115.090  1.00  0.00     0.003 C 
ENDROOT
BRANCH   1   2
ATOM      2  C   UNL     1     122.552 117.428 116.554  1.00  0.00    -0.000 C 
BRANCH   2   3
ATOM      3  C   UNL     1     121.249 116.862 117.137  1.00  0.00    -0.003 C 
ATOM      4  C   UNL     1     120.810 117.648 118.368  1.00  0.00     0.004 C 
ENDBRANCH   2   3
ENDBRANCH   1   2
BRANCH   1   5
ATOM      5  C   UNL     1     123.623 118.667 114.587  1.00  0.00     0.036 C 
BRANCH   5   6
ATOM      6  C   UNL     1     124.976 118.049 114.989  1.00  0.00     0.136 C 
BRANCH   6   7
ATOM      7  C   UNL     1     126.027 119.101 115.275  1.00  0.00    -0.004 C 
ATOM      8  C   UNL     1     125.721 120.356 115.624  1.00  0.00     0.007 C 
ENDBRANCH   6   7
BRANCH   6   9
ATOM      9  O   UNL     1     125.412 117.145 114.005  1.00  0.00    -0.389 OA
ATOM     10  H   UNL     1     126.370 116.960 114.190  1.00  0.00     0.211 HD
ENDBRANCH   6   9
ENDBRANCH   5   6
ENDBRANCH   1   5
TORSDOF 6
ENDMDL
MODEL 3
REMARK VINA RESULT:    -3.592     14.727     15.804
REMARK INTER + INTRA:          -5.286
REMARK INTER:                  -4.889
REMARK INTRA:                  -0.398
REMARK UNBOUND:                -0.540
REMARK SMILES C=C[C@H](O)CCCCC
REMARK SMILES IDX 6 1 7 2 8 3 9 4 5 5 3 6 2 7 1 8 4 9
REMARK H PARENT 4 10
REMARK Flexibility Score: inf
ROOT
ATOM      1  C   UNL     1     122.387 117.946 114.972  1.00  0.00     0.003 C 
ENDROOT
BRANCH   1   2
ATOM      2  C   UNL     1     123.483 118.936 114.547  1.00  0.00    -0.000 C 
BRANCH   2   3
ATOM      3  C   UNL     1     124.759 118.808 115.392  1.00  0.00    -0.003 C 
ATOM      4  C   UNL     1     125.512 120.134 115.455  1.00  0.00     0.004 C 
ENDBRANCH   2   3
ENDBRANCH   1   2
BRANCH   1   5
ATOM      5  C   UNL     1     122.728 117.218 116.286  1.00  0.00     0.036 C 
BRANCH   5   6
ATOM      6  C   UNL     1     121.812 117.599 117.464  1.00  0.00     0.136 C 
BRANCH   6   7
ATOM      7  C   UNL     1     122.539 117.570 118.792  1.00  0.00    -0.004 C 
ATOM      8  C   UNL     1     123.744 118.125 118.971  1.00  0.00     0.007 C 
ENDBRANCH   6   7
BRANCH   6   9
ATOM      9  O   UNL     1     120.675 116.773 117.486  1.00  0.00    -0.389 OA
ATOM     10  H   UNL     1     120.467 116.547 116.541  1.00  0.00     0.211 HD
ENDBRANCH   6   9
ENDBRANCH   5   6
ENDBRANCH   1   5
TORSDOF 6
ENDMDL
MODEL 4
REMARK VINA RESULT:    -3.515     12.589     14.114
REMARK INTER + INTRA:          -5.185
REMARK INTER:                  -4.568
REMARK INTRA:                  -0.616
REMARK UNBOUND:                -0.540
REMARK SMILES C=C[C@H](O)CCCCC
REMARK SMILES IDX 6 1 7 2 8 3 9 4 5 5 3 6 2 7 1 8 4 9
REMARK H PARENT 4 10
REMARK Flexibility Score: inf
ROOT
ATOM      1  C   UNL     1     111.311 117.333 128.147  1.00  0.00     0.003 C 
ENDROOT
BRANCH   1   2
ATOM      2  C   UNL     1     111.998 116.017 128.544  1.00  0.00    -0.000 C 
BRANCH   2   3
ATOM      3  C   UNL     1     112.903 116.168 129.776  1.00  0.00    -0.003 C 
ATOM      4  C   UNL     1     112.344 117.207 130.743  1.00  0.00     0.004 C 
ENDBRANCH   2   3
ENDBRANCH   1   2
BRANCH   1   5
ATOM      5  C   UNL     1     112.115 118.126 127.100  1.00  0.00     0.036 C 
BRANCH   5   6
ATOM      6  C   UNL     1     112.354 119.598 127.484  1.00  0.00     0.136 C 
BRANCH   6   7
ATOM      7  C   UNL     1     113.725 119.820 128.088  1.00  0.00    -0.004 C 
ATOM      8  C   UNL     1     114.704 118.910 128.019  1.00  0.00     0.007 C 
ENDBRANCH   6   7
BRANCH   6   9
ATOM      9  O   UNL     1     111.338 120.051 128.343  1.00  0.00    -0.389 OA
ATOM     10  H   UNL     1     110.864 119.244 128.676  1.00  0.00     0.211 HD
ENDBRANCH   6   9
ENDBRANCH   5   6
ENDBRANCH   1   5
TORSDOF 6
ENDMDL
MODEL 5
REMARK VINA RESULT:    -3.474      2.631      4.444
REMARK INTER + INTRA:          -5.131
REMARK INTER:                  -4.791
REMARK INTRA:                  -0.339
REMARK UNBOUND:                -0.540
REMARK SMILES C=C[C@H](O)CCCCC
REMARK SMILES IDX 6 1 7 2 8 3 9 4 5 5 3 6 2 7 1 8 4 9
REMARK H PARENT 4 10
REMARK Flexibility Score: inf
ROOT
ATOM      1  C   UNL     1     118.705 128.571 125.357  1.00  0.00     0.003 C 
ENDROOT
BRANCH   1   2
ATOM      2  C   UNL     1     120.198 128.257 125.539  1.00  0.00    -0.000 C 
BRANCH   2   3
ATOM      3  C   UNL     1     121.097 129.475 125.280  1.00  0.00    -0.003 C 
ATOM      4  C   UNL     1     120.710 130.644 126.181  1.00  0.00     0.004 C 
ENDBRANCH   2   3
ENDBRANCH   1   2
BRANCH   1   5
ATOM      5  C   UNL     1     117.829 127.931 126.450  1.00  0.00     0.036 C 
BRANCH   5   6
ATOM      6  C   UNL     1     118.450 126.675 127.089  1.00  0.00     0.136 C 
BRANCH   6   7
ATOM      7  C   UNL     1     117.754 125.403 126.653  1.00  0.00    -0.004 C 
ATOM      8  C   UNL     1     117.763 124.969 125.387  1.00  0.00     0.007 C 
ENDBRANCH   6   7
BRANCH   6   9
ATOM      9  O   UNL     1     118.465 126.796 128.489  1.00  0.00    -0.389 OA
ATOM     10  H   UNL     1     117.565 127.119 128.758  1.00  0.00     0.211 HD
ENDBRANCH   6   9
ENDBRANCH   5   6
ENDBRANCH   1   5
TORSDOF 6
ENDMDL
MODEL 6
REMARK VINA RESULT:    -3.454     15.670     16.558
REMARK INTER + INTRA:          -5.104
REMARK INTER:                  -4.853
REMARK INTRA:                  -0.251
REMARK UNBOUND:                -0.540
REMARK SMILES C=C[C@H](O)CCCCC
REMARK SMILES IDX 6 1 7 2 8 3 9 4 5 5 3 6 2 7 1 8 4 9
REMARK H PARENT 4 10
REMARK Flexibility Score: inf
ROOT
ATOM      1  C   UNL     1     124.956 117.238 116.356  1.00  0.00     0.003 C 
ENDROOT
BRANCH   1   2
ATOM      2  C   UNL     1     125.341 118.593 116.971  1.00  0.00    -0.000 C 
BRANCH   2   3
ATOM      3  C   UNL     1     126.300 119.397 116.080  1.00  0.00    -0.003 C 
ATOM      4  C   UNL     1     125.576 120.554 115.397  1.00  0.00     0.004 C 
ENDBRANCH   2   3
ENDBRANCH   1   2
BRANCH   1   5
ATOM      5  C   UNL     1     124.104 117.389 115.082  1.00  0.00     0.036 C 
BRANCH   5   6
ATOM      6  C   UNL     1     122.674 117.897 115.347  1.00  0.00     0.136 C 
BRANCH   6   7
ATOM      7  C   UNL     1     121.731 116.781 115.744  1.00  0.00    -0.004 C 
ATOM      8  C   UNL     1     121.158 116.711 116.951  1.00  0.00     0.007 C 
ENDBRANCH   6   7
BRANCH   6   9
ATOM      9  O   UNL     1     122.191 118.601 114.231  1.00  0.00    -0.389 OA
ATOM     10  H   UNL     1     122.932 119.185 113.918  1.00  0.00     0.211 HD
ENDBRANCH   6   9
ENDBRANCH   5   6
ENDBRANCH   1   5
TORSDOF 6
ENDMDL
MODEL 7
REMARK VINA RESULT:    -3.414     16.067     16.755
REMARK INTER + INTRA:          -5.052
REMARK INTER:                  -4.442
REMARK INTRA:                  -0.610
REMARK UNBOUND:                -0.540
REMARK SMILES C=C[C@H](O)CCCCC
REMARK SMILES IDX 6 1 7 2 8 3 9 4 5 5 3 6 2 7 1 8 4 9
REMARK H PARENT 4 10
REMARK Flexibility Score: inf
ROOT
ATOM      1  C   UNL     1     124.362 116.634 116.607  1.00  0.00     0.003 C 
ENDROOT
BRANCH   1   2
ATOM      2  C   UNL     1     123.126 117.543 116.699  1.00  0.00    -0.000 C 
BRANCH   2   3
ATOM      3  C   UNL     1     122.298 117.549 115.406  1.00  0.00    -0.003 C 
ATOM      4  C   UNL     1     122.727 118.686 114.483  1.00  0.00     0.004 C 
ENDBRANCH   2   3
ENDBRANCH   1   2
BRANCH   1   5
ATOM      5  C   UNL     1     125.682 117.426 116.657  1.00  0.00     0.036 C 
BRANCH   5   6
ATOM      6  C   UNL     1     126.317 117.664 115.274  1.00  0.00     0.136 C 
BRANCH   6   7
ATOM      7  C   UNL     1     126.392 119.134 114.920  1.00  0.00    -0.004 C 
ATOM      8  C   UNL     1     125.977 120.101 115.747  1.00  0.00     0.007 C 
ENDBRANCH   6   7
BRANCH   6   9
ATOM      9  O   UNL     1     125.630 116.935 114.288  1.00  0.00    -0.389 OA
ATOM     10  H   UNL     1     125.359 116.075 114.705  1.00  0.00     0.211 HD
ENDBRANCH   6   9
ENDBRANCH   5   6
ENDBRANCH   1   5
TORSDOF 6
ENDMDL
MODEL 8
REMARK VINA RESULT:    -3.404     14.632     15.109
REMARK INTER + INTRA:          -5.039
REMARK INTER:                  -4.876
REMARK INTRA:                  -0.163
REMARK UNBOUND:                -0.540
REMARK SMILES C=C[C@H](O)CCCCC
REMARK SMILES IDX 6 1 7 2 8 3 9 4 5 5 3 6 2 7 1 8 4 9
REMARK H PARENT 4 10
REMARK Flexibility Score: inf
ROOT
ATOM      1  C   UNL     1     112.444 115.981 126.263  1.00  0.00     0.003 C 
ENDROOT
BRANCH   1   2
ATOM      2  C   UNL     1     112.360 116.147 124.738  1.00  0.00    -0.000 C 
BRANCH   2   3
ATOM      3  C   UNL     1     112.040 117.589 124.316  1.00  0.00    -0.003 C 
ATOM      4  C   UNL     1     111.641 117.655 122.844  1.00  0.00     0.004 C 
ENDBRANCH   2   3
ENDBRANCH   1   2
BRANCH   1   5
ATOM      5  C   UNL     1     112.028 117.256 127.020  1.00  0.00     0.036 C 
BRANCH   5   6
ATOM      6  C   UNL     1     111.598 117.002 128.477  1.00  0.00     0.136 C 
BRANCH   6   7
ATOM      7  C   UNL     1     112.602 117.540 129.475  1.00  0.00    -0.004 C 
ATOM      8  C   UNL     1     112.590 117.205 130.770  1.00  0.00     0.007 C 
ENDBRANCH   6   7
BRANCH   6   9
ATOM      9  O   UNL     1     111.355 115.634 128.684  1.00  0.00    -0.389 OA
ATOM     10  H   UNL     1     110.623 115.570 129.352  1.00  0.00     0.211 HD
ENDBRANCH   6   9
ENDBRANCH   5   6
ENDBRANCH   1   5
TORSDOF 6
ENDMDL
MODEL 9
REMARK VINA RESULT:    -3.398      1.469      3.412
REMARK INTER + INTRA:          -5.031
REMARK INTER:                  -4.477
REMARK INTRA:                  -0.553
REMARK UNBOUND:                -0.540
REMARK SMILES C=C[C@H](O)CCCCC
REMARK SMILES IDX 6 1 7 2 8 3 9 4 5 5 3 6 2 7 1 8 4 9
REMARK H PARENT 4 10
REMARK Flexibility Score: inf
ROOT
ATOM      1  C   UNL     1     120.592 128.967 125.502  1.00  0.00     0.003 C 
ENDROOT
BRANCH   1   2
ATOM      2  C   UNL     1     119.613 127.784 125.557  1.00  0.00    -0.000 C 
BRANCH   2   3
ATOM      3  C   UNL     1     118.873 127.688 126.899  1.00  0.00    -0.003 C 
ATOM      4  C   UNL     1     117.363 127.610 126.690  1.00  0.00     0.004 C 
ENDBRANCH   2   3
ENDBRANCH   1   2
BRANCH   1   5
ATOM      5  C   UNL     1     120.143 130.146 126.386  1.00  0.00     0.036 C 
BRANCH   5   6
ATOM      6  C   UNL     1     119.469 131.288 125.603  1.00  0.00     0.136 C 
BRANCH   6   7
ATOM      7  C   UNL     1     117.966 131.119 125.519  1.00  0.00    -0.004 C 
ATOM      8  C   UNL     1     117.299 131.124 124.359  1.00  0.00     0.007 C 
ENDBRANCH   6   7
BRANCH   6   9
ATOM      9  O   UNL     1     120.042 131.410 124.326  1.00  0.00    -0.389 OA
ATOM     10  H   UNL     1     120.715 130.684 124.243  1.00  0.00     0.211 HD
ENDBRANCH   6   9
ENDBRANCH   5   6
ENDBRANCH   1   5
TORSDOF 6
ENDMDL
