MODEL 1
REMARK VINA RESULT:    20.197      0.000      0.000
REMARK INTER + INTRA:          29.017
REMARK INTER:                  28.462
REMARK INTRA:                   0.555
REMARK UNBOUND:                 0.555
REMARK SMILES COc1c(O[C@@H]2O[C@H](C(=O)[O-])[C@@H](O)[C@H](O)[C@@H]2O)cc(O)c2c(=O)cc(-c3ccccc3)oc12
REMARK SMILES IDX 5 1 6 2 8 3 12 4 7 5 14 6 16 7 9 8 10 9 11 10 13 11 15 13
REMARK SMILES IDX 17 15 4 17 3 18 18 19 33 20 19 21 21 22 32 23 22 24 25 25
REMARK SMILES IDX 24 26 23 27 2 28 1 29 20 30 26 32 27 33 31 34 28 35 30 36
REMARK SMILES IDX 29 37
REMARK H PARENT 13 12 15 14 17 16 20 31
REMARK Flexibility Score: inf
ROOT
ATOM      1  O   UNL     1      13.384  -8.369 -29.380  1.00  0.00    -0.458 OA
ENDROOT
BRANCH   1   2
ATOM      2  C   UNL     1      14.108  -7.621 -28.394  1.00  0.00     0.339 C 
ATOM      3  C   UNL     1      12.685  -5.702 -28.344  1.00  0.00     0.199 C 
ATOM      4  C   UNL     1      13.763  -4.794 -28.985  1.00  0.00     0.180 C 
ATOM      5  O   UNL     1      13.233  -6.804 -27.628  1.00  0.00    -0.328 OA
ATOM      6  C   UNL     1      14.792  -5.595 -29.805  1.00  0.00     0.181 C 
ATOM      7  C   UNL     1      15.273  -6.827 -29.022  1.00  0.00     0.214 C 
BRANCH   3   8
ATOM      8  C   UNL     1      11.561  -6.116 -29.261  1.00  0.00     0.073 C 
ATOM      9  O   UNL     1      11.363  -5.480 -30.327  1.00  0.00    -0.547 OA
ATOM     10  O   UNL     1      10.820  -7.266 -29.014  1.00  0.00    -0.547 OA
ENDBRANCH   3   8
BRANCH   4  11
ATOM     11  O   UNL     1      14.429  -4.107 -27.955  1.00  0.00    -0.387 OA
ATOM     12  H   UNL     1      15.345  -3.908 -28.281  1.00  0.00     0.211 HD
ENDBRANCH   4  11
BRANCH   6  13
ATOM     13  O   UNL     1      14.311  -5.917 -31.089  1.00  0.00    -0.387 OA
ATOM     14  H   UNL     1      14.766  -5.342 -31.751  1.00  0.00     0.211 HD
ENDBRANCH   6  13
BRANCH   7  15
ATOM     15  O   UNL     1      16.037  -7.655 -29.862  1.00  0.00    -0.384 OA
ATOM     16  H   UNL     1      16.186  -7.155 -30.704  1.00  0.00     0.211 HD
ENDBRANCH   7  15
ENDBRANCH   1   2
BRANCH   1  17
ATOM     17  C   UNL     1      12.683  -9.559 -29.127  1.00  0.00     0.172 A 
ATOM     18  C   UNL     1      12.593 -10.117 -27.833  1.00  0.00     0.205 A 
ATOM     19  C   UNL     1      12.109 -10.222 -30.212  1.00  0.00     0.097 A 
ATOM     20  C   UNL     1      11.797 -11.275 -27.633  1.00  0.00     0.188 A 
ATOM     21  C   UNL     1      11.361 -11.389 -30.036  1.00  0.00     0.134 A 
ATOM     22  C   UNL     1      11.183 -11.917 -28.740  1.00  0.00     0.111 A 
ATOM     23  O   UNL     1      11.617 -11.760 -26.407  1.00  0.00    -0.452 OA
ATOM     24  C   UNL     1      10.409 -13.070 -28.488  1.00  0.00     0.197 A 
ATOM     25  C   UNL     1      10.892 -12.844 -26.137  1.00  0.00     0.138 A 
ATOM     26  C   UNL     1      10.266 -13.533 -27.182  1.00  0.00     0.100 A 
ATOM     27  O   UNL     1       9.832 -13.692 -29.420  1.00  0.00    -0.289 OA
BRANCH  18  28
ATOM     28  O   UNL     1      13.337  -9.511 -26.803  1.00  0.00    -0.490 OA
ATOM     29  C   UNL     1      14.271 -10.154 -25.943  1.00  0.00     0.278 C 
ENDBRANCH  18  28
BRANCH  21  30
ATOM     30  O   UNL     1      10.794 -12.009 -31.150  1.00  0.00    -0.507 OA
ATOM     31  H   UNL     1      11.360 -12.364 -31.911  1.00  0.00     0.293 HD
ENDBRANCH  21  30
BRANCH  25  32
ATOM     32  C   UNL     1      10.752 -13.282 -24.727  1.00  0.00     0.017 A 
ATOM     33  C   UNL     1      10.620 -14.652 -24.432  1.00  0.00     0.012 A 
ATOM     34  C   UNL     1      10.732 -12.354 -23.667  1.00  0.00     0.012 A 
ATOM     35  C   UNL     1      10.484 -15.084 -23.110  1.00  0.00     0.001 A 
ATOM     36  C   UNL     1      10.598 -12.791 -22.345  1.00  0.00     0.001 A 
ATOM     37  C   UNL     1      10.474 -14.155 -22.067  1.00  0.00     0.000 A 
ENDBRANCH  25  32
ENDBRANCH   1  17
TORSDOF 9
ENDMDL
MODEL 2
REMARK VINA RESULT:    22.983      2.682      4.385
REMARK INTER + INTRA:          32.942
REMARK INTER:                  32.327
REMARK INTRA:                   0.615
REMARK UNBOUND:                 0.555
REMARK SMILES COc1c(O[C@@H]2O[C@H](C(=O)[O-])[C@@H](O)[C@H](O)[C@@H]2O)cc(O)c2c(=O)cc(-c3ccccc3)oc12
REMARK SMILES IDX 5 1 6 2 8 3 12 4 7 5 14 6 16 7 9 8 10 9 11 10 13 11 15 13
REMARK SMILES IDX 17 15 4 17 3 18 18 19 33 20 19 21 21 22 32 23 22 24 25 25
REMARK SMILES IDX 24 26 23 27 2 28 1 29 20 30 26 32 27 33 31 34 28 35 30 36
REMARK SMILES IDX 29 37
REMARK H PARENT 13 12 15 14 17 16 20 31
REMARK Flexibility Score: inf
ROOT
ATOM      1  O   UNL     1      14.021  -7.150 -27.405  1.00  0.00    -0.458 OA
ENDROOT
BRANCH   1   2
ATOM      2  C   UNL     1      12.981  -6.251 -27.814  1.00  0.00     0.339 C 
ATOM      3  C   UNL     1      13.969  -5.538 -29.869  1.00  0.00     0.199 C 
ATOM      4  C   UNL     1      14.208  -4.101 -29.342  1.00  0.00     0.180 C 
ATOM      5  O   UNL     1      12.880  -6.196 -29.230  1.00  0.00    -0.328 OA
ATOM      6  C   UNL     1      14.288  -4.048 -27.804  1.00  0.00     0.181 C 
ATOM      7  C   UNL     1      13.146  -4.858 -27.170  1.00  0.00     0.214 C 
BRANCH   3   8
ATOM      8  C   UNL     1      15.198  -6.409 -29.950  1.00  0.00     0.073 C 
ATOM      9  O   UNL     1      15.088  -7.607 -30.314  1.00  0.00    -0.547 OA
ATOM     10  O   UNL     1      16.467  -5.877 -29.752  1.00  0.00    -0.547 OA
ENDBRANCH   3   8
BRANCH   4  11
ATOM     11  O   UNL     1      13.145  -3.291 -29.777  1.00  0.00    -0.387 OA
ATOM     12  H   UNL     1      13.523  -2.631 -30.414  1.00  0.00     0.211 HD
ENDBRANCH   4  11
BRANCH   6  13
ATOM     13  O   UNL     1      15.558  -4.426 -27.327  1.00  0.00    -0.387 OA
ATOM     14  H   UNL     1      15.742  -5.352 -27.618  1.00  0.00     0.211 HD
ENDBRANCH   6  13
BRANCH   7  15
ATOM     15  O   UNL     1      13.360  -4.977 -25.786  1.00  0.00    -0.384 OA
ATOM     16  H   UNL     1      14.241  -4.567 -25.594  1.00  0.00     0.211 HD
ENDBRANCH   7  15
ENDBRANCH   1   2
BRANCH   1  17
ATOM     17  C   UNL     1      13.897  -8.548 -27.356  1.00  0.00     0.172 A 
ATOM     18  C   UNL     1      12.763  -9.220 -27.862  1.00  0.00     0.205 A 
ATOM     19  C   UNL     1      14.916  -9.272 -26.736  1.00  0.00     0.097 A 
ATOM     20  C   UNL     1      12.741 -10.639 -27.858  1.00  0.00     0.188 A 
ATOM     21  C   UNL     1      14.885 -10.668 -26.685  1.00  0.00     0.134 A 
ATOM     22  C   UNL     1      13.803 -11.366 -27.262  1.00  0.00     0.111 A 
ATOM     23  O   UNL     1      11.728 -11.294 -28.420  1.00  0.00    -0.452 OA
ATOM     24  C   UNL     1      13.730 -12.775 -27.278  1.00  0.00     0.197 A 
ATOM     25  C   UNL     1      11.630 -12.622 -28.452  1.00  0.00     0.138 A 
ATOM     26  C   UNL     1      12.638 -13.403 -27.874  1.00  0.00     0.100 A 
ATOM     27  O   UNL     1      14.637 -13.488 -26.770  1.00  0.00    -0.289 OA
BRANCH  18  28
ATOM     28  O   UNL     1      11.683  -8.438 -28.314  1.00  0.00    -0.490 OA
ATOM     29  C   UNL     1      11.136  -8.430 -29.627  1.00  0.00     0.278 C 
ENDBRANCH  18  28
BRANCH  21  30
ATOM     30  O   UNL     1      15.934 -11.350 -26.067  1.00  0.00    -0.507 OA
ATOM     31  H   UNL     1      16.896 -11.235 -26.364  1.00  0.00     0.293 HD
ENDBRANCH  21  30
BRANCH  25  32
ATOM     32  C   UNL     1      10.458 -13.240 -29.119  1.00  0.00     0.017 A 
ATOM     33  C   UNL     1      10.031 -14.523 -28.731  1.00  0.00     0.012 A 
ATOM     34  C   UNL     1       9.765 -12.577 -30.152  1.00  0.00     0.012 A 
ATOM     35  C   UNL     1       8.931 -15.124 -29.350  1.00  0.00     0.001 A 
ATOM     36  C   UNL     1       8.664 -13.181 -30.767  1.00  0.00     0.001 A 
ATOM     37  C   UNL     1       8.247 -14.453 -30.367  1.00  0.00     0.000 A 
ENDBRANCH  25  32
ENDBRANCH   1  17
TORSDOF 9
ENDMDL
