MODEL 1
REMARK VINA RESULT:    -3.053      0.000      0.000
REMARK INTER + INTRA:          -8.270
REMARK INTER:                  -5.731
REMARK INTRA:                  -2.540
REMARK UNBOUND:                -2.540
REMARK SMILES CCCCCCCCC=CCCCCCCCC(=O)[O-]
REMARK SMILES IDX 10 1 9 2 11 3 12 4 13 5 14 6 15 7 16 8 17 9 18 10 19 11
REMARK SMILES IDX 20 12 8 13 7 14 6 15 5 16 4 17 3 18 2 19 1 20
REMARK H PARENT
REMARK Flexibility Score: inf
ROOT
ATOM      1  C   UNL     1      63.958  30.044  60.930  1.00  0.00    -0.031 C 
ATOM      2  C   UNL     1      63.274  30.182  59.786  1.00  0.00    -0.031 C 
ENDROOT
BRANCH   1   3
ATOM      3  C   UNL     1      65.424  30.375  60.992  1.00  0.00     0.027 C 
BRANCH   3   4
ATOM      4  C   UNL     1      66.106  30.128  59.639  1.00  0.00     0.004 C 
BRANCH   4   5
ATOM      5  C   UNL     1      67.301  29.169  59.747  1.00  0.00     0.000 C 
BRANCH   5   6
ATOM      6  C   UNL     1      67.369  28.463  61.113  1.00  0.00     0.000 C 
BRANCH   6   7
ATOM      7  C   UNL     1      68.766  28.540  61.750  1.00  0.00     0.000 C 
BRANCH   7   8
ATOM      8  C   UNL     1      69.895  28.468  60.707  1.00  0.00     0.006 C 
BRANCH   8   9
ATOM      9  C   UNL     1      71.028  29.457  61.011  1.00  0.00     0.053 C 
BRANCH   9  10
ATOM     10  C   UNL     1      71.416  30.252  59.803  1.00  0.00     0.041 C 
ATOM     11  O   UNL     1      72.629  30.370  59.483  1.00  0.00    -0.550 OA
ATOM     12  O   UNL     1      70.436  30.834  59.008  1.00  0.00    -0.550 OA
ENDBRANCH   9  10
ENDBRANCH   8   9
ENDBRANCH   7   8
ENDBRANCH   6   7
ENDBRANCH   5   6
ENDBRANCH   4   5
ENDBRANCH   3   4
ENDBRANCH   1   3
BRANCH   2  13
ATOM     13  C   UNL     1      61.807  29.859  59.698  1.00  0.00     0.027 C 
BRANCH  13  14
ATOM     14  C   UNL     1      61.278  29.163  60.964  1.00  0.00     0.004 C 
BRANCH  14  15
ATOM     15  C   UNL     1      60.672  27.767  60.719  1.00  0.00     0.000 C 
BRANCH  15  16
ATOM     16  C   UNL     1      61.699  26.647  60.472  1.00  0.00     0.000 C 
BRANCH  16  17
ATOM     17  C   UNL     1      62.798  26.597  61.548  1.00  0.00    -0.000 C 
BRANCH  17  18
ATOM     18  C   UNL     1      64.208  26.457  60.934  1.00  0.00    -0.000 C 
BRANCH  18  19
ATOM     19  C   UNL     1      64.239  26.680  59.412  1.00  0.00    -0.003 C 
ATOM     20  C   UNL     1      65.470  26.072  58.744  1.00  0.00     0.004 C 
ENDBRANCH  18  19
ENDBRANCH  17  18
ENDBRANCH  16  17
ENDBRANCH  15  16
ENDBRANCH  14  15
ENDBRANCH  13  14
ENDBRANCH   2  13
TORSDOF 15
ENDMDL
MODEL 2
REMARK VINA RESULT:    -3.013      4.842      7.692
REMARK INTER + INTRA:          -8.194
REMARK INTER:                  -6.498
REMARK INTRA:                  -1.696
REMARK UNBOUND:                -2.540
REMARK SMILES CCCCCCCCC=CCCCCCCCC(=O)[O-]
REMARK SMILES IDX 10 1 9 2 11 3 12 4 13 5 14 6 15 7 16 8 17 9 18 10 19 11
REMARK SMILES IDX 20 12 8 13 7 14 6 15 5 16 4 17 3 18 2 19 1 20
REMARK H PARENT
REMARK Flexibility Score: inf
ROOT
ATOM      1  C   UNL     1      64.804  32.773  60.644  1.00  0.00    -0.031 C 
ATOM      2  C   UNL     1      65.105  34.061  60.431  1.00  0.00    -0.031 C 
ENDROOT
BRANCH   1   3
ATOM      3  C   UNL     1      65.026  31.745  59.569  1.00  0.00     0.027 C 
BRANCH   3   4
ATOM      4  C   UNL     1      65.584  30.441  60.156  1.00  0.00     0.004 C 
BRANCH   4   5
ATOM      5  C   UNL     1      64.828  29.989  61.415  1.00  0.00     0.000 C 
BRANCH   5   6
ATOM      6  C   UNL     1      63.457  29.369  61.088  1.00  0.00     0.000 C 
BRANCH   6   7
ATOM      7  C   UNL     1      63.512  27.837  60.973  1.00  0.00     0.000 C 
BRANCH   7   8
ATOM      8  C   UNL     1      62.420  27.144  61.806  1.00  0.00     0.006 C 
BRANCH   8   9
ATOM      9  C   UNL     1      61.293  26.582  60.929  1.00  0.00     0.053 C 
BRANCH   9  10
ATOM     10  C   UNL     1      60.159  27.550  60.789  1.00  0.00     0.041 C 
ATOM     11  O   UNL     1      59.139  27.443  61.520  1.00  0.00    -0.550 OA
ATOM     12  O   UNL     1      60.243  28.592  59.873  1.00  0.00    -0.550 OA
ENDBRANCH   9  10
ENDBRANCH   8   9
ENDBRANCH   7   8
ENDBRANCH   6   7
ENDBRANCH   5   6
ENDBRANCH   4   5
ENDBRANCH   3   4
ENDBRANCH   1   3
BRANCH   2  13
ATOM     13  C   UNL     1      64.893  35.109  61.490  1.00  0.00     0.027 C 
BRANCH  13  14
ATOM     14  C   UNL     1      63.510  35.776  61.394  1.00  0.00     0.004 C 
BRANCH  14  15
ATOM     15  C   UNL     1      62.945  35.870  59.963  1.00  0.00     0.000 C 
BRANCH  15  16
ATOM     16  C   UNL     1      61.414  35.743  59.859  1.00  0.00     0.000 C 
BRANCH  16  17
ATOM     17  C   UNL     1      60.966  34.880  58.667  1.00  0.00    -0.000 C 
BRANCH  17  18
ATOM     18  C   UNL     1      62.021  33.819  58.286  1.00  0.00    -0.000 C 
BRANCH  18  19
ATOM     19  C   UNL     1      61.595  32.381  58.628  1.00  0.00    -0.003 C 
ATOM     20  C   UNL     1      60.101  32.137  58.434  1.00  0.00     0.004 C 
ENDBRANCH  18  19
ENDBRANCH  17  18
ENDBRANCH  16  17
ENDBRANCH  15  16
ENDBRANCH  14  15
ENDBRANCH  13  14
ENDBRANCH   2  13
TORSDOF 15
ENDMDL
MODEL 3
REMARK VINA RESULT:    -2.957      1.648      3.682
REMARK INTER + INTRA:          -8.090
REMARK INTER:                  -5.928
REMARK INTRA:                  -2.162
REMARK UNBOUND:                -2.540
REMARK SMILES CCCCCCCCC=CCCCCCCCC(=O)[O-]
REMARK SMILES IDX 10 1 9 2 11 3 12 4 13 5 14 6 15 7 16 8 17 9 18 10 19 11
REMARK SMILES IDX 20 12 8 13 7 14 6 15 5 16 4 17 3 18 2 19 1 20
REMARK H PARENT
REMARK Flexibility Score: inf
ROOT
ATOM      1  C   UNL     1      66.174  27.228  59.811  1.00  0.00    -0.031 C 
ATOM      2  C   UNL     1      65.209  27.217  60.740  1.00  0.00    -0.031 C 
ENDROOT
BRANCH   1   3
ATOM      3  C   UNL     1      67.618  27.372  60.206  1.00  0.00     0.027 C 
BRANCH   3   4
ATOM      4  C   UNL     1      67.782  28.389  61.345  1.00  0.00     0.004 C 
BRANCH   4   5
ATOM      5  C   UNL     1      69.255  28.680  61.669  1.00  0.00     0.000 C 
BRANCH   5   6
ATOM      6  C   UNL     1      70.093  28.956  60.408  1.00  0.00     0.000 C 
BRANCH   6   7
ATOM      7  C   UNL     1      71.514  29.443  60.736  1.00  0.00     0.000 C 
BRANCH   7   8
ATOM      8  C   UNL     1      72.145  30.241  59.581  1.00  0.00     0.006 C 
BRANCH   8   9
ATOM      9  C   UNL     1      71.227  31.366  59.085  1.00  0.00     0.053 C 
BRANCH   9  10
ATOM     10  C   UNL     1      71.851  32.716  59.264  1.00  0.00     0.041 C 
ATOM     11  O   UNL     1      72.122  33.428  58.261  1.00  0.00    -0.550 OA
ATOM     12  O   UNL     1      72.102  33.203  60.541  1.00  0.00    -0.550 OA
ENDBRANCH   9  10
ENDBRANCH   8   9
ENDBRANCH   7   8
ENDBRANCH   6   7
ENDBRANCH   5   6
ENDBRANCH   4   5
ENDBRANCH   3   4
ENDBRANCH   1   3
BRANCH   2  13
ATOM     13  C   UNL     1      63.757  27.072  60.371  1.00  0.00     0.027 C 
BRANCH  13  14
ATOM     14  C   UNL     1      62.960  28.370  60.590  1.00  0.00     0.004 C 
BRANCH  14  15
ATOM     15  C   UNL     1      63.668  29.413  61.477  1.00  0.00     0.000 C 
BRANCH  15  16
ATOM     16  C   UNL     1      64.455  30.490  60.710  1.00  0.00     0.000 C 
BRANCH  16  17
ATOM     17  C   UNL     1      64.031  30.605  59.236  1.00  0.00    -0.000 C 
BRANCH  17  18
ATOM     18  C   UNL     1      65.169  31.140  58.341  1.00  0.00    -0.000 C 
BRANCH  18  19
ATOM     19  C   UNL     1      66.570  30.936  58.943  1.00  0.00    -0.003 C 
ATOM     20  C   UNL     1      67.566  30.338  57.953  1.00  0.00     0.004 C 
ENDBRANCH  18  19
ENDBRANCH  17  18
ENDBRANCH  16  17
ENDBRANCH  15  16
ENDBRANCH  14  15
ENDBRANCH  13  14
ENDBRANCH   2  13
TORSDOF 15
ENDMDL
MODEL 4
REMARK VINA RESULT:    -2.937     13.115     15.845
REMARK INTER + INTRA:          -8.052
REMARK INTER:                  -6.700
REMARK INTRA:                  -1.352
REMARK UNBOUND:                -2.540
REMARK SMILES CCCCCCCCC=CCCCCCCCC(=O)[O-]
REMARK SMILES IDX 10 1 9 2 11 3 12 4 13 5 14 6 15 7 16 8 17 9 18 10 19 11
REMARK SMILES IDX 20 12 8 13 7 14 6 15 5 16 4 17 3 18 2 19 1 20
REMARK H PARENT
REMARK Flexibility Score: inf
ROOT
ATOM      1  C   UNL     1      61.051  21.897  49.398  1.00  0.00    -0.031 C 
ATOM      2  C   UNL     1      60.896  22.762  50.409  1.00  0.00    -0.031 C 
ENDROOT
BRANCH   1   3
ATOM      3  C   UNL     1      60.298  20.595  49.380  1.00  0.00     0.027 C 
BRANCH   3   4
ATOM      4  C   UNL     1      60.652  19.733  50.600  1.00  0.00     0.004 C 
BRANCH   4   5
ATOM      5  C   UNL     1      60.168  18.282  50.458  1.00  0.00     0.000 C 
BRANCH   5   6
ATOM      6  C   UNL     1      58.732  18.190  49.912  1.00  0.00     0.000 C 
BRANCH   6   7
ATOM      7  C   UNL     1      57.847  17.234  50.728  1.00  0.00     0.000 C 
BRANCH   7   8
ATOM      8  C   UNL     1      57.433  17.828  52.085  1.00  0.00     0.006 C 
BRANCH   8   9
ATOM      9  C   UNL     1      56.863  19.246  51.946  1.00  0.00     0.053 C 
BRANCH   9  10
ATOM     10  C   UNL     1      55.373  19.236  51.786  1.00  0.00     0.041 C 
ATOM     11  O   UNL     1      54.859  19.264  50.637  1.00  0.00    -0.550 OA
ATOM     12  O   UNL     1      54.553  19.161  52.905  1.00  0.00    -0.550 OA
ENDBRANCH   9  10
ENDBRANCH   8   9
ENDBRANCH   7   8
ENDBRANCH   6   7
ENDBRANCH   5   6
ENDBRANCH   4   5
ENDBRANCH   3   4
ENDBRANCH   1   3
BRANCH   2  13
ATOM     13  C   UNL     1      61.636  24.071  50.451  1.00  0.00     0.027 C 
BRANCH  13  14
ATOM     14  C   UNL     1      60.710  25.266  50.739  1.00  0.00     0.004 C 
BRANCH  14  15
ATOM     15  C   UNL     1      59.796  25.663  49.563  1.00  0.00     0.000 C 
BRANCH  15  16
ATOM     16  C   UNL     1      58.311  25.298  49.742  1.00  0.00     0.000 C 
BRANCH  16  17
ATOM     17  C   UNL     1      57.859  25.338  51.212  1.00  0.00    -0.000 C 
BRANCH  17  18
ATOM     18  C   UNL     1      56.411  25.852  51.363  1.00  0.00    -0.000 C 
BRANCH  18  19
ATOM     19  C   UNL     1      55.572  25.708  50.082  1.00  0.00    -0.003 C 
ATOM     20  C   UNL     1      54.663  26.906  49.823  1.00  0.00     0.004 C 
ENDBRANCH  18  19
ENDBRANCH  17  18
ENDBRANCH  16  17
ENDBRANCH  15  16
ENDBRANCH  14  15
ENDBRANCH  13  14
ENDBRANCH   2  13
TORSDOF 15
ENDMDL
MODEL 5
REMARK VINA RESULT:    -2.936      4.742      6.377
REMARK INTER + INTRA:          -8.050
REMARK INTER:                  -5.527
REMARK INTRA:                  -2.523
REMARK UNBOUND:                -2.540
REMARK SMILES CCCCCCCCC=CCCCCCCCC(=O)[O-]
REMARK SMILES IDX 10 1 9 2 11 3 12 4 13 5 14 6 15 7 16 8 17 9 18 10 19 11
REMARK SMILES IDX 20 12 8 13 7 14 6 15 5 16 4 17 3 18 2 19 1 20
REMARK H PARENT
REMARK Flexibility Score: inf
ROOT
ATOM      1  C   UNL     1      63.184  28.321  60.510  1.00  0.00    -0.031 C 
ATOM      2  C   UNL     1      62.206  28.977  61.150  1.00  0.00    -0.031 C 
ENDROOT
BRANCH   1   3
ATOM      3  C   UNL     1      64.617  28.760  60.643  1.00  0.00     0.027 C 
BRANCH   3   4
ATOM      4  C   UNL     1      64.712  30.161  61.261  1.00  0.00     0.004 C 
BRANCH   4   5
ATOM      5  C   UNL     1      65.376  31.178  60.319  1.00  0.00     0.000 C 
BRANCH   5   6
ATOM      6  C   UNL     1      64.620  31.328  58.986  1.00  0.00     0.000 C 
BRANCH   6   7
ATOM      7  C   UNL     1      63.237  31.978  59.160  1.00  0.00     0.000 C 
BRANCH   7   8
ATOM      8  C   UNL     1      62.199  31.430  58.165  1.00  0.00     0.006 C 
BRANCH   8   9
ATOM      9  C   UNL     1      60.793  31.362  58.775  1.00  0.00     0.053 C 
BRANCH   9  10
ATOM     10  C   UNL     1      59.944  32.523  58.354  1.00  0.00     0.041 C 
ATOM     11  O   UNL     1      58.894  32.331  57.686  1.00  0.00    -0.550 OA
ATOM     12  O   UNL     1      60.295  33.813  58.730  1.00  0.00    -0.550 OA
ENDBRANCH   9  10
ENDBRANCH   8   9
ENDBRANCH   7   8
ENDBRANCH   6   7
ENDBRANCH   5   6
ENDBRANCH   4   5
ENDBRANCH   3   4
ENDBRANCH   1   3
BRANCH   2  13
ATOM     13  C   UNL     1      60.765  28.557  61.035  1.00  0.00     0.027 C 
BRANCH  13  14
ATOM     14  C   UNL     1      60.545  27.495  59.944  1.00  0.00     0.004 C 
BRANCH  14  15
ATOM     15  C   UNL     1      59.673  26.301  60.382  1.00  0.00     0.000 C 
BRANCH  15  16
ATOM     16  C   UNL     1      59.463  26.174  61.901  1.00  0.00     0.000 C 
BRANCH  16  17
ATOM     17  C   UNL     1      59.885  24.799  62.449  1.00  0.00    -0.000 C 
BRANCH  17  18
ATOM     18  C   UNL     1      61.038  24.908  63.470  1.00  0.00    -0.000 C 
BRANCH  18  19
ATOM     19  C   UNL     1      62.255  25.685  62.940  1.00  0.00    -0.003 C 
ATOM     20  C   UNL     1      63.090  24.883  61.945  1.00  0.00     0.004 C 
ENDBRANCH  18  19
ENDBRANCH  17  18
ENDBRANCH  16  17
ENDBRANCH  15  16
ENDBRANCH  14  15
ENDBRANCH  13  14
ENDBRANCH   2  13
TORSDOF 15
ENDMDL
MODEL 6
REMARK VINA RESULT:    -2.931      4.181      5.128
REMARK INTER + INTRA:          -8.040
REMARK INTER:                  -5.929
REMARK INTRA:                  -2.112
REMARK UNBOUND:                -2.540
REMARK SMILES CCCCCCCCC=CCCCCCCCC(=O)[O-]
REMARK SMILES IDX 10 1 9 2 11 3 12 4 13 5 14 6 15 7 16 8 17 9 18 10 19 11
REMARK SMILES IDX 20 12 8 13 7 14 6 15 5 16 4 17 3 18 2 19 1 20
REMARK H PARENT
REMARK Flexibility Score: inf
ROOT
ATOM      1  C   UNL     1      62.451  28.967  60.586  1.00  0.00    -0.031 C 
ATOM      2  C   UNL     1      61.182  28.706  60.930  1.00  0.00    -0.031 C 
ENDROOT
BRANCH   1   3
ATOM      3  C   UNL     1      63.436  29.463  61.608  1.00  0.00     0.027 C 
BRANCH   3   4
ATOM      4  C   UNL     1      64.864  29.469  61.044  1.00  0.00     0.004 C 
BRANCH   4   5
ATOM      5  C   UNL     1      64.917  29.926  59.578  1.00  0.00     0.000 C 
BRANCH   5   6
ATOM      6  C   UNL     1      65.660  31.263  59.403  1.00  0.00     0.000 C 
BRANCH   6   7
ATOM      7  C   UNL     1      64.738  32.480  59.576  1.00  0.00     0.000 C 
BRANCH   7   8
ATOM      8  C   UNL     1      65.009  33.244  60.884  1.00  0.00     0.006 C 
BRANCH   8   9
ATOM      9  C   UNL     1      65.066  34.762  60.667  1.00  0.00     0.053 C 
BRANCH   9  10
ATOM     10  C   UNL     1      63.865  35.454  61.236  1.00  0.00     0.041 C 
ATOM     11  O   UNL     1      62.760  35.403  60.634  1.00  0.00    -0.550 OA
ATOM     12  O   UNL     1      63.958  36.125  62.449  1.00  0.00    -0.550 OA
ENDBRANCH   9  10
ENDBRANCH   8   9
ENDBRANCH   7   8
ENDBRANCH   6   7
ENDBRANCH   5   6
ENDBRANCH   4   5
ENDBRANCH   3   4
ENDBRANCH   1   3
BRANCH   2  13
ATOM     13  C   UNL     1      60.177  28.207  59.927  1.00  0.00     0.027 C 
BRANCH  13  14
ATOM     14  C   UNL     1      59.684  26.784  60.242  1.00  0.00     0.004 C 
BRANCH  14  15
ATOM     15  C   UNL     1      59.511  26.486  61.744  1.00  0.00     0.000 C 
BRANCH  15  16
ATOM     16  C   UNL     1      60.282  25.256  62.256  1.00  0.00     0.000 C 
BRANCH  16  17
ATOM     17  C   UNL     1      61.659  25.615  62.841  1.00  0.00    -0.000 C 
BRANCH  17  18
ATOM     18  C   UNL     1      62.800  24.814  62.179  1.00  0.00    -0.000 C 
BRANCH  18  19
ATOM     19  C   UNL     1      63.676  25.658  61.238  1.00  0.00    -0.003 C 
ATOM     20  C   UNL     1      63.275  25.529  59.771  1.00  0.00     0.004 C 
ENDBRANCH  18  19
ENDBRANCH  17  18
ENDBRANCH  16  17
ENDBRANCH  15  16
ENDBRANCH  14  15
ENDBRANCH  13  14
ENDBRANCH   2  13
TORSDOF 15
ENDMDL
MODEL 7
REMARK VINA RESULT:    -2.926      5.428      8.629
REMARK INTER + INTRA:          -8.031
REMARK INTER:                  -5.687
REMARK INTRA:                  -2.344
REMARK UNBOUND:                -2.540
REMARK SMILES CCCCCCCCC=CCCCCCCCC(=O)[O-]
REMARK SMILES IDX 10 1 9 2 11 3 12 4 13 5 14 6 15 7 16 8 17 9 18 10 19 11
REMARK SMILES IDX 20 12 8 13 7 14 6 15 5 16 4 17 3 18 2 19 1 20
REMARK H PARENT
REMARK Flexibility Score: inf
ROOT
ATOM      1  C   UNL     1      63.011  26.820  60.781  1.00  0.00    -0.031 C 
ATOM      2  C   UNL     1      62.673  27.721  61.713  1.00  0.00    -0.031 C 
ENDROOT
BRANCH   1   3
ATOM      3  C   UNL     1      63.557  25.475  61.178  1.00  0.00     0.027 C 
BRANCH   3   4
ATOM      4  C   UNL     1      62.888  24.961  62.459  1.00  0.00     0.004 C 
BRANCH   4   5
ATOM      5  C   UNL     1      61.573  24.216  62.180  1.00  0.00     0.000 C 
BRANCH   5   6
ATOM      6  C   UNL     1      60.336  25.011  62.633  1.00  0.00     0.000 C 
BRANCH   6   7
ATOM      7  C   UNL     1      59.462  25.469  61.455  1.00  0.00     0.000 C 
BRANCH   7   8
ATOM      8  C   UNL     1      59.046  26.946  61.568  1.00  0.00     0.006 C 
BRANCH   8   9
ATOM      9  C   UNL     1      57.787  27.258  60.746  1.00  0.00     0.053 C 
BRANCH   9  10
ATOM     10  C   UNL     1      56.558  27.301  61.601  1.00  0.00     0.041 C 
ATOM     11  O   UNL     1      56.595  27.842  62.738  1.00  0.00    -0.550 OA
ATOM     12  O   UNL     1      55.362  26.774  61.128  1.00  0.00    -0.550 OA
ENDBRANCH   9  10
ENDBRANCH   8   9
ENDBRANCH   7   8
ENDBRANCH   6   7
ENDBRANCH   5   6
ENDBRANCH   4   5
ENDBRANCH   3   4
ENDBRANCH   1   3
BRANCH   2  13
ATOM     13  C   UNL     1      62.123  29.073  61.343  1.00  0.00     0.027 C 
BRANCH  13  14
ATOM     14  C   UNL     1      61.720  29.161  59.861  1.00  0.00     0.004 C 
BRANCH  14  15
ATOM     15  C   UNL     1      62.028  30.517  59.195  1.00  0.00     0.000 C 
BRANCH  15  16
ATOM     16  C   UNL     1      63.495  30.717  58.776  1.00  0.00     0.000 C 
BRANCH  16  17
ATOM     17  C   UNL     1      64.267  31.647  59.728  1.00  0.00    -0.000 C 
BRANCH  17  18
ATOM     18  C   UNL     1      65.131  30.861  60.737  1.00  0.00    -0.000 C 
BRANCH  18  19
ATOM     19  C   UNL     1      66.056  29.825  60.076  1.00  0.00    -0.003 C 
ATOM     20  C   UNL     1      66.340  28.619  60.968  1.00  0.00     0.004 C 
ENDBRANCH  18  19
ENDBRANCH  17  18
ENDBRANCH  16  17
ENDBRANCH  15  16
ENDBRANCH  14  15
ENDBRANCH  13  14
ENDBRANCH   2  13
TORSDOF 15
ENDMDL
MODEL 8
REMARK VINA RESULT:    -2.922     10.786     12.865
REMARK INTER + INTRA:          -8.024
REMARK INTER:                  -5.605
REMARK INTRA:                  -2.419
REMARK UNBOUND:                -2.540
REMARK SMILES CCCCCCCCC=CCCCCCCCC(=O)[O-]
REMARK SMILES IDX 10 1 9 2 11 3 12 4 13 5 14 6 15 7 16 8 17 9 18 10 19 11
REMARK SMILES IDX 20 12 8 13 7 14 6 15 5 16 4 17 3 18 2 19 1 20
REMARK H PARENT
REMARK Flexibility Score: inf
ROOT
ATOM      1  C   UNL     1      60.931  28.240  51.272  1.00  0.00    -0.031 C 
ATOM      2  C   UNL     1      61.006  28.316  49.936  1.00  0.00    -0.031 C 
ENDROOT
BRANCH   1   3
ATOM      3  C   UNL     1      60.007  29.145  52.040  1.00  0.00     0.027 C 
BRANCH   3   4
ATOM      4  C   UNL     1      58.590  28.559  52.111  1.00  0.00     0.004 C 
BRANCH   4   5
ATOM      5  C   UNL     1      58.584  27.023  52.081  1.00  0.00     0.000 C 
BRANCH   5   6
ATOM      6  C   UNL     1      57.393  26.452  51.290  1.00  0.00     0.000 C 
BRANCH   6   7
ATOM      7  C   UNL     1      57.791  25.267  50.394  1.00  0.00     0.000 C 
BRANCH   7   8
ATOM      8  C   UNL     1      59.304  25.220  50.118  1.00  0.00     0.006 C 
BRANCH   8   9
ATOM      9  C   UNL     1      59.889  23.818  50.337  1.00  0.00     0.053 C 
BRANCH   9  10
ATOM     10  C   UNL     1      61.208  23.867  51.044  1.00  0.00     0.041 C 
ATOM     11  O   UNL     1      61.342  24.555  52.090  1.00  0.00    -0.550 OA
ATOM     12  O   UNL     1      62.282  23.124  50.567  1.00  0.00    -0.550 OA
ENDBRANCH   9  10
ENDBRANCH   8   9
ENDBRANCH   7   8
ENDBRANCH   6   7
ENDBRANCH   5   6
ENDBRANCH   4   5
ENDBRANCH   3   4
ENDBRANCH   1   3
BRANCH   2  13
ATOM     13  C   UNL     1      61.921  27.422  49.144  1.00  0.00     0.027 C 
BRANCH  13  14
ATOM     14  C   UNL     1      63.076  26.858  49.991  1.00  0.00     0.004 C 
BRANCH  14  15
ATOM     15  C   UNL     1      64.482  27.212  49.469  1.00  0.00     0.000 C 
BRANCH  15  16
ATOM     16  C   UNL     1      64.546  27.592  47.979  1.00  0.00     0.000 C 
BRANCH  16  17
ATOM     17  C   UNL     1      64.948  29.061  47.754  1.00  0.00    -0.000 C 
BRANCH  17  18
ATOM     18  C   UNL     1      64.839  29.899  49.045  1.00  0.00    -0.000 C 
BRANCH  18  19
ATOM     19  C   UNL     1      63.635  30.856  49.055  1.00  0.00    -0.003 C 
ATOM     20  C   UNL     1      63.195  31.250  50.462  1.00  0.00     0.004 C 
ENDBRANCH  18  19
ENDBRANCH  17  18
ENDBRANCH  16  17
ENDBRANCH  15  16
ENDBRANCH  14  15
ENDBRANCH  13  14
ENDBRANCH   2  13
TORSDOF 15
ENDMDL
MODEL 9
REMARK VINA RESULT:    -2.900     10.715     12.045
REMARK INTER + INTRA:          -7.982
REMARK INTER:                  -5.547
REMARK INTRA:                  -2.435
REMARK UNBOUND:                -2.540
REMARK SMILES CCCCCCCCC=CCCCCCCCC(=O)[O-]
REMARK SMILES IDX 10 1 9 2 11 3 12 4 13 5 14 6 15 7 16 8 17 9 18 10 19 11
REMARK SMILES IDX 20 12 8 13 7 14 6 15 5 16 4 17 3 18 2 19 1 20
REMARK H PARENT
REMARK Flexibility Score: inf
ROOT
ATOM      1  C   UNL     1      64.887  25.995  49.515  1.00  0.00    -0.031 C 
ATOM      2  C   UNL     1      64.451  26.739  50.540  1.00  0.00    -0.031 C 
ENDROOT
BRANCH   1   3
ATOM      3  C   UNL     1      66.359  25.864  49.233  1.00  0.00     0.027 C 
BRANCH   3   4
ATOM      4  C   UNL     1      66.808  26.861  48.157  1.00  0.00     0.004 C 
BRANCH   4   5
ATOM      5  C   UNL     1      65.723  27.114  47.098  1.00  0.00     0.000 C 
BRANCH   5   6
ATOM      6  C   UNL     1      65.206  28.564  47.118  1.00  0.00     0.000 C 
BRANCH   6   7
ATOM      7  C   UNL     1      66.132  29.512  47.896  1.00  0.00     0.000 C 
BRANCH   7   8
ATOM      8  C   UNL     1      65.429  30.172  49.096  1.00  0.00     0.006 C 
BRANCH   8   9
ATOM      9  C   UNL     1      63.900  30.079  48.992  1.00  0.00     0.053 C 
BRANCH   9  10
ATOM     10  C   UNL     1      63.231  31.327  49.480  1.00  0.00     0.041 C 
ATOM     11  O   UNL     1      63.100  32.318  48.712  1.00  0.00    -0.550 OA
ATOM     12  O   UNL     1      62.719  31.385  50.770  1.00  0.00    -0.550 OA
ENDBRANCH   9  10
ENDBRANCH   8   9
ENDBRANCH   7   8
ENDBRANCH   6   7
ENDBRANCH   5   6
ENDBRANCH   4   5
ENDBRANCH   3   4
ENDBRANCH   1   3
BRANCH   2  13
ATOM     13  C   UNL     1      62.984  26.885  50.844  1.00  0.00     0.027 C 
BRANCH  13  14
ATOM     14  C   UNL     1      62.117  26.908  49.573  1.00  0.00     0.004 C 
BRANCH  14  15
ATOM     15  C   UNL     1      60.598  26.940  49.838  1.00  0.00     0.000 C 
BRANCH  15  16
ATOM     16  C   UNL     1      59.851  25.639  49.495  1.00  0.00     0.000 C 
BRANCH  16  17
ATOM     17  C   UNL     1      59.387  24.871  50.745  1.00  0.00    -0.000 C 
BRANCH  17  18
ATOM     18  C   UNL     1      59.949  23.434  50.788  1.00  0.00    -0.000 C 
BRANCH  18  19
ATOM     19  C   UNL     1      61.233  23.252  49.961  1.00  0.00    -0.003 C 
ATOM     20  C   UNL     1      62.497  23.222  50.817  1.00  0.00     0.004 C 
ENDBRANCH  18  19
ENDBRANCH  17  18
ENDBRANCH  16  17
ENDBRANCH  15  16
ENDBRANCH  14  15
ENDBRANCH  13  14
ENDBRANCH   2  13
TORSDOF 15
ENDMDL
