MODEL 1
REMARK VINA RESULT:    -6.733      0.000      0.000
REMARK INTER + INTRA:          -9.836
REMARK INTER:                  -9.094
REMARK INTRA:                  -0.741
REMARK UNBOUND:                -0.741
REMARK SMILES O=c1c(-c2ccc(O)cc2)coc2c([C@H]3O[C@H](CO)[C@H](O)[C@H](O)[C@H]3O)c(O)ccc12
REMARK SMILES IDX 3 1 11 2 12 3 13 4 30 5 2 6 1 7 29 8 28 9 26 10 14 11 4 12
REMARK SMILES IDX 5 13 6 14 7 15 10 16 9 17 8 18 15 20 24 21 16 22 22 23 17 24
REMARK SMILES IDX 20 25 25 26 23 28 18 30 19 31 21 33 27 35
REMARK H PARENT 8 19 25 27 23 29 19 32 21 34 27 36
REMARK Flexibility Score: inf
ROOT
ATOM      1  C   UNL     1      19.191  -1.585 -18.100  1.00  0.00     0.065 A 
ATOM      2  C   UNL     1      19.194  -2.957 -18.387  1.00  0.00     0.208 A 
ATOM      3  O   UNL     1      18.618  -3.827 -17.567  1.00  0.00    -0.463 OA
ATOM      4  C   UNL     1      18.009  -3.474 -16.437  1.00  0.00     0.147 A 
ATOM      5  C   UNL     1      17.961  -2.108 -16.069  1.00  0.00     0.066 A 
ATOM      6  C   UNL     1      18.553  -1.158 -16.921  1.00  0.00     0.200 A 
ATOM      7  O   UNL     1      18.497   0.072 -16.640  1.00  0.00    -0.288 OA
ATOM      8  C   UNL     1      17.332  -1.733 -14.872  1.00  0.00     0.020 A 
ATOM      9  C   UNL     1      16.771  -2.701 -14.042  1.00  0.00     0.047 A 
ATOM     10  C   UNL     1      16.817  -4.055 -14.393  1.00  0.00     0.125 A 
ATOM     11  C   UNL     1      17.417  -4.457 -15.606  1.00  0.00     0.069 A 
ENDROOT
BRANCH   1  12
ATOM     12  C   UNL     1      19.845  -0.633 -19.031  1.00  0.00    -0.011 A 
ATOM     13  C   UNL     1      19.384  -0.503 -20.353  1.00  0.00     0.013 A 
ATOM     14  C   UNL     1      20.005   0.388 -21.234  1.00  0.00     0.047 A 
ATOM     15  C   UNL     1      21.094   1.154 -20.810  1.00  0.00     0.115 A 
ATOM     16  C   UNL     1      20.946   0.135 -18.613  1.00  0.00     0.013 A 
ATOM     17  C   UNL     1      21.565   1.025 -19.497  1.00  0.00     0.047 A 
BRANCH  15  18
ATOM     18  O   UNL     1      21.702   2.037 -21.700  1.00  0.00    -0.508 OA
ATOM     19  H   UNL     1      21.493   2.016 -22.692  1.00  0.00     0.293 HD
ENDBRANCH  15  18
ENDBRANCH   1  12
BRANCH  11  20
ATOM     20  C   UNL     1      17.475  -5.943 -15.955  1.00  0.00     0.188 C 
ATOM     21  C   UNL     1      16.167  -6.421 -16.649  1.00  0.00     0.179 C 
ATOM     22  O   UNL     1      17.761  -6.723 -14.807  1.00  0.00    -0.362 OA
ATOM     23  C   UNL     1      16.012  -7.963 -16.584  1.00  0.00     0.177 C 
ATOM     24  C   UNL     1      18.050  -8.088 -15.111  1.00  0.00     0.176 C 
ATOM     25  C   UNL     1      17.377  -8.643 -16.404  1.00  0.00     0.177 C 
BRANCH  21  26
ATOM     26  O   UNL     1      15.025  -5.797 -16.115  1.00  0.00    -0.387 OA
ATOM     27  H   UNL     1      14.675  -6.379 -15.391  1.00  0.00     0.211 HD
ENDBRANCH  21  26
BRANCH  23  28
ATOM     28  O   UNL     1      15.390  -8.445 -17.747  1.00  0.00    -0.387 OA
ATOM     29  H   UNL     1      15.825  -7.987 -18.513  1.00  0.00     0.211 HD
ENDBRANCH  23  28
BRANCH  24  30
ATOM     30  C   UNL     1      19.563  -8.353 -15.040  1.00  0.00     0.191 C 
BRANCH  30  31
ATOM     31  O   UNL     1      20.284  -7.299 -15.614  1.00  0.00    -0.394 OA
ATOM     32  H   UNL     1      19.829  -7.086 -16.469  1.00  0.00     0.210 HD
ENDBRANCH  30  31
ENDBRANCH  24  30
BRANCH  25  33
ATOM     33  O   UNL     1      18.187  -8.422 -17.533  1.00  0.00    -0.388 OA
ATOM     34  H   UNL     1      18.355  -7.444 -17.583  1.00  0.00     0.211 HD
ENDBRANCH  25  33
ENDBRANCH  11  20
BRANCH  10  35
ATOM     35  O   UNL     1      16.269  -5.005 -13.529  1.00  0.00    -0.507 OA
ATOM     36  H   UNL     1      15.295  -4.973 -13.252  1.00  0.00     0.293 HD
ENDBRANCH  10  35
TORSDOF 9
ENDMDL
MODEL 2
REMARK VINA RESULT:    -6.442      5.579      8.802
REMARK INTER + INTRA:          -9.443
REMARK INTER:                  -8.471
REMARK INTRA:                  -0.972
REMARK UNBOUND:                -0.741
REMARK SMILES O=c1c(-c2ccc(O)cc2)coc2c([C@H]3O[C@H](CO)[C@H](O)[C@H](O)[C@H]3O)c(O)ccc12
REMARK SMILES IDX 3 1 11 2 12 3 13 4 30 5 2 6 1 7 29 8 28 9 26 10 14 11 4 12
REMARK SMILES IDX 5 13 6 14 7 15 10 16 9 17 8 18 15 20 24 21 16 22 22 23 17 24
REMARK SMILES IDX 20 25 25 26 23 28 18 30 19 31 21 33 27 35
REMARK H PARENT 8 19 25 27 23 29 19 32 21 34 27 36
REMARK Flexibility Score: inf
ROOT
ATOM      1  C   UNL     1      17.132  -3.682 -12.896  1.00  0.00     0.065 A 
ATOM      2  C   UNL     1      18.242  -3.896 -12.068  1.00  0.00     0.208 A 
ATOM      3  O   UNL     1      18.436  -3.159 -10.981  1.00  0.00    -0.463 OA
ATOM      4  C   UNL     1      17.611  -2.186 -10.602  1.00  0.00     0.147 A 
ATOM      5  C   UNL     1      16.464  -1.900 -11.381  1.00  0.00     0.066 A 
ATOM      6  C   UNL     1      16.224  -2.668 -12.535  1.00  0.00     0.200 A 
ATOM      7  O   UNL     1      15.193  -2.464 -13.234  1.00  0.00    -0.288 OA
ATOM      8  C   UNL     1      15.600  -0.866 -10.992  1.00  0.00     0.020 A 
ATOM      9  C   UNL     1      15.877  -0.112  -9.855  1.00  0.00     0.047 A 
ATOM     10  C   UNL     1      17.010  -0.381  -9.079  1.00  0.00     0.125 A 
ATOM     11  C   UNL     1      17.881  -1.437  -9.430  1.00  0.00     0.069 A 
ENDROOT
BRANCH   1  12
ATOM     12  C   UNL     1      16.940  -4.516 -14.108  1.00  0.00    -0.011 A 
ATOM     13  C   UNL     1      16.043  -5.599 -14.090  1.00  0.00     0.013 A 
ATOM     14  C   UNL     1      15.867  -6.390 -15.229  1.00  0.00     0.047 A 
ATOM     15  C   UNL     1      16.587  -6.117 -16.395  1.00  0.00     0.115 A 
ATOM     16  C   UNL     1      17.666  -4.250 -15.283  1.00  0.00     0.013 A 
ATOM     17  C   UNL     1      17.488  -5.045 -16.420  1.00  0.00     0.047 A 
BRANCH  15  18
ATOM     18  O   UNL     1      16.401  -6.916 -17.522  1.00  0.00    -0.508 OA
ATOM     19  H   UNL     1      15.517  -6.934 -18.017  1.00  0.00     0.293 HD
ENDBRANCH  15  18
ENDBRANCH   1  12
BRANCH  11  20
ATOM     20  C   UNL     1      19.123  -1.695  -8.581  1.00  0.00     0.188 C 
ATOM     21  C   UNL     1      18.785  -2.522  -7.306  1.00  0.00     0.179 C 
ATOM     22  O   UNL     1      19.772  -0.481  -8.246  1.00  0.00    -0.362 OA
ATOM     23  C   UNL     1      19.893  -2.395  -6.228  1.00  0.00     0.177 C 
ATOM     24  C   UNL     1      21.054  -0.672  -7.649  1.00  0.00     0.176 C 
ATOM     25  C   UNL     1      21.235  -2.008  -6.865  1.00  0.00     0.177 C 
BRANCH  21  26
ATOM     26  O   UNL     1      17.536  -2.171  -6.762  1.00  0.00    -0.387 OA
ATOM     27  H   UNL     1      16.948  -2.968  -6.821  1.00  0.00     0.211 HD
ENDBRANCH  21  26
BRANCH  23  28
ATOM     28  O   UNL     1      20.031  -3.600  -5.520  1.00  0.00    -0.387 OA
ATOM     29  H   UNL     1      20.659  -3.421  -4.772  1.00  0.00     0.211 HD
ENDBRANCH  23  28
BRANCH  24  30
ATOM     30  C   UNL     1      22.175  -0.397  -8.665  1.00  0.00     0.191 C 
BRANCH  30  31
ATOM     31  O   UNL     1      23.377  -0.989  -8.259  1.00  0.00    -0.394 OA
ATOM     32  H   UNL     1      24.069  -0.281  -8.326  1.00  0.00     0.210 HD
ENDBRANCH  30  31
ENDBRANCH  24  30
BRANCH  25  33
ATOM     33  O   UNL     1      21.690  -3.036  -7.712  1.00  0.00    -0.388 OA
ATOM     34  H   UNL     1      20.991  -3.742  -7.714  1.00  0.00     0.211 HD
ENDBRANCH  25  33
ENDBRANCH  11  20
BRANCH  10  35
ATOM     35  O   UNL     1      17.276   0.407  -7.957  1.00  0.00    -0.507 OA
ATOM     36  H   UNL     1      17.938   0.115  -7.247  1.00  0.00     0.293 HD
ENDBRANCH  10  35
TORSDOF 9
ENDMDL
MODEL 3
REMARK VINA RESULT:    -6.346      4.154      7.163
REMARK INTER + INTRA:          -9.313
REMARK INTER:                  -8.356
REMARK INTRA:                  -0.957
REMARK UNBOUND:                -0.741
REMARK SMILES O=c1c(-c2ccc(O)cc2)coc2c([C@H]3O[C@H](CO)[C@H](O)[C@H](O)[C@H]3O)c(O)ccc12
REMARK SMILES IDX 3 1 11 2 12 3 13 4 30 5 2 6 1 7 29 8 28 9 26 10 14 11 4 12
REMARK SMILES IDX 5 13 6 14 7 15 10 16 9 17 8 18 15 20 24 21 16 22 22 23 17 24
REMARK SMILES IDX 20 25 25 26 23 28 18 30 19 31 21 33 27 35
REMARK H PARENT 8 19 25 27 23 29 19 32 21 34 27 36
REMARK Flexibility Score: inf
ROOT
ATOM      1  C   UNL     1      17.878  -0.796 -16.079  1.00  0.00     0.065 A 
ATOM      2  C   UNL     1      17.142   0.225 -15.463  1.00  0.00     0.208 A 
ATOM      3  O   UNL     1      16.261  -0.048 -14.509  1.00  0.00    -0.463 OA
ATOM      4  C   UNL     1      16.014  -1.282 -14.075  1.00  0.00     0.147 A 
ATOM      5  C   UNL     1      16.712  -2.374 -14.643  1.00  0.00     0.066 A 
ATOM      6  C   UNL     1      17.660  -2.119 -15.650  1.00  0.00     0.200 A 
ATOM      7  O   UNL     1      18.325  -3.066 -16.155  1.00  0.00    -0.288 OA
ATOM      8  C   UNL     1      16.444  -3.677 -14.197  1.00  0.00     0.020 A 
ATOM      9  C   UNL     1      15.486  -3.897 -13.211  1.00  0.00     0.047 A 
ATOM     10  C   UNL     1      14.786  -2.826 -12.645  1.00  0.00     0.125 A 
ATOM     11  C   UNL     1      15.057  -1.501 -13.053  1.00  0.00     0.069 A 
ENDROOT
BRANCH   1  12
ATOM     12  C   UNL     1      18.854  -0.466 -17.147  1.00  0.00    -0.011 A 
ATOM     13  C   UNL     1      20.039   0.224 -16.835  1.00  0.00     0.013 A 
ATOM     14  C   UNL     1      20.956   0.544 -17.841  1.00  0.00     0.047 A 
ATOM     15  C   UNL     1      20.700   0.187 -19.168  1.00  0.00     0.115 A 
ATOM     16  C   UNL     1      18.599  -0.816 -18.485  1.00  0.00     0.013 A 
ATOM     17  C   UNL     1      19.518  -0.494 -19.488  1.00  0.00     0.047 A 
BRANCH  15  18
ATOM     18  O   UNL     1      21.624   0.513 -20.159  1.00  0.00    -0.508 OA
ATOM     19  H   UNL     1      21.895   1.475 -20.333  1.00  0.00     0.293 HD
ENDBRANCH  15  18
ENDBRANCH   1  12
BRANCH  11  20
ATOM     20  C   UNL     1      14.263  -0.352 -12.437  1.00  0.00     0.188 C 
ATOM     21  C   UNL     1      14.904   0.139 -11.106  1.00  0.00     0.179 C 
ATOM     22  O   UNL     1      12.906  -0.714 -12.249  1.00  0.00    -0.362 OA
ATOM     23  C   UNL     1      13.897   0.950 -10.248  1.00  0.00     0.177 C 
ATOM     24  C   UNL     1      12.073   0.388 -11.889  1.00  0.00     0.176 C 
ATOM     25  C   UNL     1      12.786   1.545 -11.124  1.00  0.00     0.177 C 
BRANCH  21  26
ATOM     26  O   UNL     1      15.440  -0.921 -10.352  1.00  0.00    -0.387 OA
ATOM     27  H   UNL     1      15.571  -0.594  -9.425  1.00  0.00     0.211 HD
ENDBRANCH  21  26
BRANCH  23  28
ATOM     28  O   UNL     1      14.557   1.976  -9.553  1.00  0.00    -0.387 OA
ATOM     29  H   UNL     1      15.298   2.284 -10.137  1.00  0.00     0.211 HD
ENDBRANCH  23  28
BRANCH  24  30
ATOM     30  C   UNL     1      11.247   0.862 -13.096  1.00  0.00     0.191 C 
BRANCH  30  31
ATOM     31  O   UNL     1      10.403   1.922 -12.741  1.00  0.00    -0.394 OA
ATOM     32  H   UNL     1      10.401   1.952 -11.749  1.00  0.00     0.210 HD
ENDBRANCH  30  31
ENDBRANCH  24  30
BRANCH  25  33
ATOM     33  O   UNL     1      13.320   2.490 -12.018  1.00  0.00    -0.388 OA
ATOM     34  H   UNL     1      13.187   2.131 -12.935  1.00  0.00     0.211 HD
ENDBRANCH  25  33
ENDBRANCH  11  20
BRANCH  10  35
ATOM     35  O   UNL     1      13.813  -3.079 -11.676  1.00  0.00    -0.507 OA
ATOM     36  H   UNL     1      13.015  -3.674 -11.865  1.00  0.00     0.293 HD
ENDBRANCH  10  35
TORSDOF 9
ENDMDL
MODEL 4
REMARK VINA RESULT:    -6.247      1.664      2.724
REMARK INTER + INTRA:          -9.180
REMARK INTER:                  -9.270
REMARK INTRA:                   0.090
REMARK UNBOUND:                -0.741
REMARK SMILES O=c1c(-c2ccc(O)cc2)coc2c([C@H]3O[C@H](CO)[C@H](O)[C@H](O)[C@H]3O)c(O)ccc12
REMARK SMILES IDX 3 1 11 2 12 3 13 4 30 5 2 6 1 7 29 8 28 9 26 10 14 11 4 12
REMARK SMILES IDX 5 13 6 14 7 15 10 16 9 17 8 18 15 20 24 21 16 22 22 23 17 24
REMARK SMILES IDX 20 25 25 26 23 28 18 30 19 31 21 33 27 35
REMARK H PARENT 8 19 25 27 23 29 19 32 21 34 27 36
REMARK Flexibility Score: inf
ROOT
ATOM      1  C   UNL     1      19.069  -0.960 -17.407  1.00  0.00     0.065 A 
ATOM      2  C   UNL     1      18.752  -2.323 -17.480  1.00  0.00     0.208 A 
ATOM      3  O   UNL     1      18.064  -2.916 -16.513  1.00  0.00    -0.463 OA
ATOM      4  C   UNL     1      17.632  -2.279 -15.427  1.00  0.00     0.147 A 
ATOM      5  C   UNL     1      17.909  -0.900 -15.271  1.00  0.00     0.066 A 
ATOM      6  C   UNL     1      18.629  -0.238 -16.282  1.00  0.00     0.200 A 
ATOM      7  O   UNL     1      18.863   0.999 -16.192  1.00  0.00    -0.288 OA
ATOM      8  C   UNL     1      17.467  -0.229 -14.121  1.00  0.00     0.020 A 
ATOM      9  C   UNL     1      16.773  -0.918 -13.130  1.00  0.00     0.047 A 
ATOM     10  C   UNL     1      16.498  -2.283 -13.270  1.00  0.00     0.125 A 
ATOM     11  C   UNL     1      16.904  -2.977 -14.432  1.00  0.00     0.069 A 
ENDROOT
BRANCH   1  12
ATOM     12  C   UNL     1      19.843  -0.320 -18.500  1.00  0.00    -0.011 A 
ATOM     13  C   UNL     1      19.445  -0.479 -19.839  1.00  0.00     0.013 A 
ATOM     14  C   UNL     1      20.179   0.116 -20.870  1.00  0.00     0.047 A 
ATOM     15  C   UNL     1      21.319   0.870 -20.579  1.00  0.00     0.115 A 
ATOM     16  C   UNL     1      20.996   0.434 -18.214  1.00  0.00     0.013 A 
ATOM     17  C   UNL     1      21.727   1.028 -19.248  1.00  0.00     0.047 A 
BRANCH  15  18
ATOM     18  O   UNL     1      22.040   1.456 -21.618  1.00  0.00    -0.508 OA
ATOM     19  H   UNL     1      22.968   1.132 -21.867  1.00  0.00     0.293 HD
ENDBRANCH  15  18
ENDBRANCH   1  12
BRANCH  11  20
ATOM     20  C   UNL     1      16.612  -4.471 -14.550  1.00  0.00     0.188 C 
ATOM     21  C   UNL     1      17.513  -5.310 -13.599  1.00  0.00     0.179 C 
ATOM     22  O   UNL     1      16.737  -4.908 -15.893  1.00  0.00    -0.362 OA
ATOM     23  C   UNL     1      17.572  -6.800 -14.027  1.00  0.00     0.177 C 
ATOM     24  C   UNL     1      16.259  -6.237 -16.100  1.00  0.00     0.176 C 
ATOM     25  C   UNL     1      16.339  -7.179 -14.859  1.00  0.00     0.177 C 
BRANCH  21  26
ATOM     26  O   UNL     1      18.814  -4.782 -13.499  1.00  0.00    -0.387 OA
ATOM     27  H   UNL     1      18.735  -3.793 -13.479  1.00  0.00     0.211 HD
ENDBRANCH  21  26
BRANCH  23  28
ATOM     28  O   UNL     1      17.661  -7.633 -12.900  1.00  0.00    -0.387 OA
ATOM     29  H   UNL     1      17.141  -7.191 -12.179  1.00  0.00     0.211 HD
ENDBRANCH  23  28
BRANCH  24  30
ATOM     30  C   UNL     1      14.877  -6.219 -16.773  1.00  0.00     0.191 C 
BRANCH  30  31
ATOM     31  O   UNL     1      14.243  -7.463 -16.652  1.00  0.00    -0.394 OA
ATOM     32  H   UNL     1      13.288  -7.269 -16.468  1.00  0.00     0.210 HD
ENDBRANCH  30  31
ENDBRANCH  24  30
BRANCH  25  33
ATOM     33  O   UNL     1      15.173  -7.088 -14.077  1.00  0.00    -0.388 OA
ATOM     34  H   UNL     1      15.097  -6.144 -13.777  1.00  0.00     0.211 HD
ENDBRANCH  25  33
ENDBRANCH  11  20
BRANCH  10  35
ATOM     35  O   UNL     1      15.822  -2.954 -12.250  1.00  0.00    -0.507 OA
ATOM     36  H   UNL     1      15.451  -3.888 -12.382  1.00  0.00     0.293 HD
ENDBRANCH  10  35
TORSDOF 9
ENDMDL
MODEL 5
REMARK VINA RESULT:    -6.199      5.434      7.061
REMARK INTER + INTRA:          -9.114
REMARK INTER:                  -8.369
REMARK INTRA:                  -0.745
REMARK UNBOUND:                -0.741
REMARK SMILES O=c1c(-c2ccc(O)cc2)coc2c([C@H]3O[C@H](CO)[C@H](O)[C@H](O)[C@H]3O)c(O)ccc12
REMARK SMILES IDX 3 1 11 2 12 3 13 4 30 5 2 6 1 7 29 8 28 9 26 10 14 11 4 12
REMARK SMILES IDX 5 13 6 14 7 15 10 16 9 17 8 18 15 20 24 21 16 22 22 23 17 24
REMARK SMILES IDX 20 25 25 26 23 28 18 30 19 31 21 33 27 35
REMARK H PARENT 8 19 25 27 23 29 19 32 21 34 27 36
REMARK Flexibility Score: inf
ROOT
ATOM      1  C   UNL     1      20.643   0.436 -17.637  1.00  0.00     0.065 A 
ATOM      2  C   UNL     1      19.383   0.288 -17.041  1.00  0.00     0.208 A 
ATOM      3  O   UNL     1      19.191   0.598 -15.765  1.00  0.00    -0.463 OA
ATOM      4  C   UNL     1      20.154   1.063 -14.973  1.00  0.00     0.147 A 
ATOM      5  C   UNL     1      21.459   1.242 -15.493  1.00  0.00     0.066 A 
ATOM      6  C   UNL     1      21.695   0.931 -16.844  1.00  0.00     0.200 A 
ATOM      7  O   UNL     1      22.838   1.111 -17.348  1.00  0.00    -0.288 OA
ATOM      8  C   UNL     1      22.480   1.718 -14.657  1.00  0.00     0.020 A 
ATOM      9  C   UNL     1      22.216   1.998 -13.318  1.00  0.00     0.047 A 
ATOM     10  C   UNL     1      20.932   1.821 -12.791  1.00  0.00     0.125 A 
ATOM     11  C   UNL     1      19.878   1.372 -13.618  1.00  0.00     0.069 A 
ENDROOT
BRANCH   1  12
ATOM     12  C   UNL     1      20.834   0.078 -19.064  1.00  0.00    -0.011 A 
ATOM     13  C   UNL     1      21.374   1.013 -19.964  1.00  0.00     0.013 A 
ATOM     14  C   UNL     1      21.547   0.680 -21.311  1.00  0.00     0.047 A 
ATOM     15  C   UNL     1      21.178  -0.585 -21.777  1.00  0.00     0.115 A 
ATOM     16  C   UNL     1      20.458  -1.191 -19.541  1.00  0.00     0.013 A 
ATOM     17  C   UNL     1      20.632  -1.520 -20.889  1.00  0.00     0.047 A 
BRANCH  15  18
ATOM     18  O   UNL     1      21.356  -0.901 -23.123  1.00  0.00    -0.508 OA
ATOM     19  H   UNL     1      22.272  -1.118 -23.498  1.00  0.00     0.293 HD
ENDBRANCH  15  18
ENDBRANCH   1  12
BRANCH  11  20
ATOM     20  C   UNL     1      18.491   1.164 -13.014  1.00  0.00     0.188 C 
ATOM     21  C   UNL     1      17.632   2.460 -13.089  1.00  0.00     0.179 C 
ATOM     22  O   UNL     1      18.583   0.687 -11.683  1.00  0.00    -0.362 OA
ATOM     23  C   UNL     1      16.442   2.419 -12.095  1.00  0.00     0.177 C 
ATOM     24  C   UNL     1      17.329   0.261 -11.149  1.00  0.00     0.176 C 
ATOM     25  C   UNL     1      16.073   0.971 -11.741  1.00  0.00     0.177 C 
BRANCH  21  26
ATOM     26  O   UNL     1      18.401   3.619 -12.878  1.00  0.00    -0.387 OA
ATOM     27  H   UNL     1      19.328   3.421 -13.171  1.00  0.00     0.211 HD
ENDBRANCH  21  26
BRANCH  23  28
ATOM     28  O   UNL     1      15.326   3.077 -12.636  1.00  0.00    -0.387 OA
ATOM     29  H   UNL     1      15.190   3.899 -12.097  1.00  0.00     0.211 HD
ENDBRANCH  23  28
BRANCH  24  30
ATOM     30  C   UNL     1      17.229  -1.273 -11.150  1.00  0.00     0.191 C 
BRANCH  30  31
ATOM     31  O   UNL     1      15.957  -1.693 -10.740  1.00  0.00    -0.394 OA
ATOM     32  H   UNL     1      16.054  -2.643 -10.471  1.00  0.00     0.210 HD
ENDBRANCH  30  31
ENDBRANCH  24  30
BRANCH  25  33
ATOM     33  O   UNL     1      15.598   0.295 -12.880  1.00  0.00    -0.388 OA
ATOM     34  H   UNL     1      16.345   0.267 -13.535  1.00  0.00     0.211 HD
ENDBRANCH  25  33
ENDBRANCH  11  20
BRANCH  10  35
ATOM     35  O   UNL     1      20.702   2.086 -11.440  1.00  0.00    -0.507 OA
ATOM     36  H   UNL     1      21.394   1.873 -10.731  1.00  0.00     0.293 HD
ENDBRANCH  10  35
TORSDOF 9
ENDMDL
MODEL 6
REMARK VINA RESULT:    -6.165      6.623     11.652
REMARK INTER + INTRA:          -9.069
REMARK INTER:                  -8.173
REMARK INTRA:                  -0.896
REMARK UNBOUND:                -0.741
REMARK SMILES O=c1c(-c2ccc(O)cc2)coc2c([C@H]3O[C@H](CO)[C@H](O)[C@H](O)[C@H]3O)c(O)ccc12
REMARK SMILES IDX 3 1 11 2 12 3 13 4 30 5 2 6 1 7 29 8 28 9 26 10 14 11 4 12
REMARK SMILES IDX 5 13 6 14 7 15 10 16 9 17 8 18 15 20 24 21 16 22 22 23 17 24
REMARK SMILES IDX 20 25 25 26 23 28 18 30 19 31 21 33 27 35
REMARK H PARENT 8 19 25 27 23 29 19 32 21 34 27 36
REMARK Flexibility Score: inf
ROOT
ATOM      1  C   UNL     1      11.306  -7.025  -9.798  1.00  0.00     0.065 A 
ATOM      2  C   UNL     1      11.848  -5.741  -9.644  1.00  0.00     0.208 A 
ATOM      3  O   UNL     1      12.892  -5.351 -10.364  1.00  0.00    -0.463 OA
ATOM      4  C   UNL     1      13.490  -6.127 -11.265  1.00  0.00     0.147 A 
ATOM      5  C   UNL     1      13.008  -7.440 -11.483  1.00  0.00     0.066 A 
ATOM      6  C   UNL     1      11.897  -7.883 -10.744  1.00  0.00     0.200 A 
ATOM      7  O   UNL     1      11.420  -9.036 -10.938  1.00  0.00    -0.288 OA
ATOM      8  C   UNL     1      13.645  -8.266 -12.422  1.00  0.00     0.020 A 
ATOM      9  C   UNL     1      14.755  -7.803 -13.124  1.00  0.00     0.047 A 
ATOM     10  C   UNL     1      15.244  -6.509 -12.913  1.00  0.00     0.125 A 
ATOM     11  C   UNL     1      14.604  -5.645 -11.997  1.00  0.00     0.069 A 
ENDROOT
BRANCH   1  12
ATOM     12  C   UNL     1      10.141  -7.439  -8.978  1.00  0.00    -0.011 A 
ATOM     13  C   UNL     1       8.833  -7.272  -9.467  1.00  0.00     0.013 A 
ATOM     14  C   UNL     1       7.734  -7.654  -8.693  1.00  0.00     0.047 A 
ATOM     15  C   UNL     1       7.924  -8.201  -7.421  1.00  0.00     0.115 A 
ATOM     16  C   UNL     1      10.325  -7.984  -7.695  1.00  0.00     0.013 A 
ATOM     17  C   UNL     1       9.223  -8.365  -6.922  1.00  0.00     0.047 A 
BRANCH  15  18
ATOM     18  O   UNL     1       6.818  -8.577  -6.661  1.00  0.00    -0.508 OA
ATOM     19  H   UNL     1       5.988  -8.967  -7.092  1.00  0.00     0.293 HD
ENDBRANCH  15  18
ENDBRANCH   1  12
BRANCH  11  20
ATOM     20  C   UNL     1      15.170  -4.246 -11.768  1.00  0.00     0.188 C 
ATOM     21  C   UNL     1      14.721  -3.256 -12.881  1.00  0.00     0.179 C 
ATOM     22  O   UNL     1      16.582  -4.282 -11.653  1.00  0.00    -0.362 OA
ATOM     23  C   UNL     1      15.631  -2.000 -12.935  1.00  0.00     0.177 C 
ATOM     24  C   UNL     1      17.144  -3.045 -11.215  1.00  0.00     0.176 C 
ATOM     25  C   UNL     1      16.326  -1.770 -11.586  1.00  0.00     0.177 C 
BRANCH  21  26
ATOM     26  O   UNL     1      14.665  -3.869 -14.146  1.00  0.00    -0.387 OA
ATOM     27  H   UNL     1      14.952  -4.812 -14.034  1.00  0.00     0.211 HD
ENDBRANCH  21  26
BRANCH  23  28
ATOM     28  O   UNL     1      14.883  -0.865 -13.286  1.00  0.00    -0.387 OA
ATOM     29  H   UNL     1      14.867  -0.277 -12.486  1.00  0.00     0.211 HD
ENDBRANCH  23  28
BRANCH  24  30
ATOM     30  C   UNL     1      17.533  -3.119  -9.730  1.00  0.00     0.191 C 
BRANCH  30  31
ATOM     31  O   UNL     1      16.535  -3.756  -8.981  1.00  0.00    -0.394 OA
ATOM     32  H   UNL     1      17.005  -4.257  -8.265  1.00  0.00     0.210 HD
ENDBRANCH  30  31
ENDBRANCH  24  30
BRANCH  25  33
ATOM     33  O   UNL     1      15.378  -1.469 -10.591  1.00  0.00    -0.388 OA
ATOM     34  H   UNL     1      15.783  -1.716  -9.718  1.00  0.00     0.211 HD
ENDBRANCH  25  33
ENDBRANCH  11  20
BRANCH  10  35
ATOM     35  O   UNL     1      16.373  -6.080 -13.613  1.00  0.00    -0.507 OA
ATOM     36  H   UNL     1      16.707  -6.570 -14.435  1.00  0.00     0.293 HD
ENDBRANCH  10  35
TORSDOF 9
ENDMDL
MODEL 7
REMARK VINA RESULT:    -6.069      4.683      7.475
REMARK INTER + INTRA:          -8.939
REMARK INTER:                  -8.560
REMARK INTRA:                  -0.379
REMARK UNBOUND:                -0.741
REMARK SMILES O=c1c(-c2ccc(O)cc2)coc2c([C@H]3O[C@H](CO)[C@H](O)[C@H](O)[C@H]3O)c(O)ccc12
REMARK SMILES IDX 3 1 11 2 12 3 13 4 30 5 2 6 1 7 29 8 28 9 26 10 14 11 4 12
REMARK SMILES IDX 5 13 6 14 7 15 10 16 9 17 8 18 15 20 24 21 16 22 22 23 17 24
REMARK SMILES IDX 20 25 25 26 23 28 18 30 19 31 21 33 27 35
REMARK H PARENT 8 19 25 27 23 29 19 32 21 34 27 36
REMARK Flexibility Score: inf
ROOT
ATOM      1  C   UNL     1      17.564  -0.395 -15.351  1.00  0.00     0.065 A 
ATOM      2  C   UNL     1      16.711   0.642 -14.949  1.00  0.00     0.208 A 
ATOM      3  O   UNL     1      15.639   0.395 -14.207  1.00  0.00    -0.463 OA
ATOM      4  C   UNL     1      15.299  -0.826 -13.798  1.00  0.00     0.147 A 
ATOM      5  C   UNL     1      16.105  -1.932 -14.160  1.00  0.00     0.066 A 
ATOM      6  C   UNL     1      17.254  -1.704 -14.939  1.00  0.00     0.200 A 
ATOM      7  O   UNL     1      18.013  -2.663 -15.250  1.00  0.00    -0.288 OA
ATOM      8  C   UNL     1      15.742  -3.221 -13.742  1.00  0.00     0.020 A 
ATOM      9  C   UNL     1      14.588  -3.415 -12.988  1.00  0.00     0.047 A 
ATOM     10  C   UNL     1      13.780  -2.330 -12.628  1.00  0.00     0.125 A 
ATOM     11  C   UNL     1      14.138  -1.018 -13.009  1.00  0.00     0.069 A 
ENDROOT
BRANCH   1  12
ATOM     12  C   UNL     1      18.754  -0.093 -16.184  1.00  0.00    -0.011 A 
ATOM     13  C   UNL     1      19.793   0.707 -15.675  1.00  0.00     0.013 A 
ATOM     14  C   UNL     1      20.911   0.999 -16.462  1.00  0.00     0.047 A 
ATOM     15  C   UNL     1      21.004   0.504 -17.765  1.00  0.00     0.115 A 
ATOM     16  C   UNL     1      18.851  -0.582 -17.499  1.00  0.00     0.013 A 
ATOM     17  C   UNL     1      19.971  -0.287 -18.284  1.00  0.00     0.047 A 
BRANCH  15  18
ATOM     18  O   UNL     1      22.125   0.805 -18.537  1.00  0.00    -0.508 OA
ATOM     19  H   UNL     1      22.416   1.763 -18.697  1.00  0.00     0.293 HD
ENDBRANCH  15  18
ENDBRANCH   1  12
BRANCH  11  20
ATOM     20  C   UNL     1      13.228   0.147 -12.624  1.00  0.00     0.188 C 
ATOM     21  C   UNL     1      12.271   0.537 -13.787  1.00  0.00     0.179 C 
ATOM     22  O   UNL     1      13.987   1.262 -12.189  1.00  0.00    -0.362 OA
ATOM     23  C   UNL     1      11.693   1.965 -13.602  1.00  0.00     0.177 C 
ATOM     24  C   UNL     1      13.191   2.293 -11.605  1.00  0.00     0.176 C 
ATOM     25  C   UNL     1      11.722   2.380 -12.124  1.00  0.00     0.177 C 
BRANCH  21  26
ATOM     26  O   UNL     1      12.892   0.425 -15.045  1.00  0.00    -0.387 OA
ATOM     27  H   UNL     1      12.626   1.214 -15.583  1.00  0.00     0.211 HD
ENDBRANCH  21  26
BRANCH  23  28
ATOM     28  O   UNL     1      10.378   2.030 -14.089  1.00  0.00    -0.387 OA
ATOM     29  H   UNL     1      10.275   1.280 -14.732  1.00  0.00     0.211 HD
ENDBRANCH  23  28
BRANCH  24  30
ATOM     30  C   UNL     1      13.303   2.266 -10.072  1.00  0.00     0.191 C 
BRANCH  30  31
ATOM     31  O   UNL     1      13.049   0.982  -9.573  1.00  0.00    -0.394 OA
ATOM     32  H   UNL     1      12.412   0.561 -10.208  1.00  0.00     0.210 HD
ENDBRANCH  30  31
ENDBRANCH  24  30
BRANCH  25  33
ATOM     33  O   UNL     1      10.868   1.557 -11.368  1.00  0.00    -0.388 OA
ATOM     34  H   UNL     1      10.102   2.121 -11.080  1.00  0.00     0.211 HD
ENDBRANCH  25  33
ENDBRANCH  11  20
BRANCH  10  35
ATOM     35  O   UNL     1      12.616  -2.557 -11.893  1.00  0.00    -0.507 OA
ATOM     36  H   UNL     1      12.144  -3.453 -11.906  1.00  0.00     0.293 HD
ENDBRANCH  10  35
TORSDOF 9
ENDMDL
MODEL 8
REMARK VINA RESULT:    -5.929      6.263     11.502
REMARK INTER + INTRA:          -8.750
REMARK INTER:                  -8.102
REMARK INTRA:                  -0.648
REMARK UNBOUND:                -0.741
REMARK SMILES O=c1c(-c2ccc(O)cc2)coc2c([C@H]3O[C@H](CO)[C@H](O)[C@H](O)[C@H]3O)c(O)ccc12
REMARK SMILES IDX 3 1 11 2 12 3 13 4 30 5 2 6 1 7 29 8 28 9 26 10 14 11 4 12
REMARK SMILES IDX 5 13 6 14 7 15 10 16 9 17 8 18 15 20 24 21 16 22 22 23 17 24
REMARK SMILES IDX 20 25 25 26 23 28 18 30 19 31 21 33 27 35
REMARK H PARENT 8 19 25 27 23 29 19 32 21 34 27 36
REMARK Flexibility Score: inf
ROOT
ATOM      1  C   UNL     1      11.692  -6.689 -10.165  1.00  0.00     0.065 A 
ATOM      2  C   UNL     1      12.202  -5.391 -10.026  1.00  0.00     0.208 A 
ATOM      3  O   UNL     1      13.265  -4.997 -10.714  1.00  0.00    -0.463 OA
ATOM      4  C   UNL     1      13.914  -5.784 -11.569  1.00  0.00     0.147 A 
ATOM      5  C   UNL     1      13.468  -7.112 -11.771  1.00  0.00     0.066 A 
ATOM      6  C   UNL     1      12.338  -7.559 -11.063  1.00  0.00     0.200 A 
ATOM      7  O   UNL     1      11.892  -8.726 -11.245  1.00  0.00    -0.288 OA
ATOM      8  C   UNL     1      14.158  -7.949 -12.661  1.00  0.00     0.020 A 
ATOM      9  C   UNL     1      15.285  -7.481 -13.331  1.00  0.00     0.047 A 
ATOM     10  C   UNL     1      15.739  -6.172 -13.137  1.00  0.00     0.125 A 
ATOM     11  C   UNL     1      15.046  -5.298 -12.270  1.00  0.00     0.069 A 
ENDROOT
BRANCH   1  12
ATOM     12  C   UNL     1      10.504  -7.107  -9.381  1.00  0.00    -0.011 A 
ATOM     13  C   UNL     1      10.658  -7.646  -8.092  1.00  0.00     0.013 A 
ATOM     14  C   UNL     1       9.540  -8.048  -7.355  1.00  0.00     0.047 A 
ATOM     15  C   UNL     1       8.257  -7.924  -7.896  1.00  0.00     0.115 A 
ATOM     16  C   UNL     1       9.211  -6.991  -9.923  1.00  0.00     0.013 A 
ATOM     17  C   UNL     1       8.095  -7.395  -9.183  1.00  0.00     0.047 A 
BRANCH  15  18
ATOM     18  O   UNL     1       7.153  -8.330  -7.149  1.00  0.00    -0.508 OA
ATOM     19  H   UNL     1       6.490  -9.007  -7.509  1.00  0.00     0.293 HD
ENDBRANCH  15  18
ENDBRANCH   1  12
BRANCH  11  20
ATOM     20  C   UNL     1      15.574  -3.882 -12.056  1.00  0.00     0.188 C 
ATOM     21  C   UNL     1      16.447  -3.782 -10.771  1.00  0.00     0.179 C 
ATOM     22  O   UNL     1      14.514  -2.942 -12.029  1.00  0.00    -0.362 OA
ATOM     23  C   UNL     1      16.595  -2.315 -10.290  1.00  0.00     0.177 C 
ATOM     24  C   UNL     1      14.960  -1.587 -12.060  1.00  0.00     0.176 C 
ATOM     25  C   UNL     1      16.372  -1.333 -11.448  1.00  0.00     0.177 C 
BRANCH  21  26
ATOM     26  O   UNL     1      15.950  -4.587  -9.730  1.00  0.00    -0.387 OA
ATOM     27  H   UNL     1      15.871  -4.017  -8.922  1.00  0.00     0.211 HD
ENDBRANCH  21  26
BRANCH  23  28
ATOM     28  O   UNL     1      17.865  -2.108  -9.727  1.00  0.00    -0.387 OA
ATOM     29  H   UNL     1      18.231  -1.285 -10.145  1.00  0.00     0.211 HD
ENDBRANCH  23  28
BRANCH  24  30
ATOM     30  C   UNL     1      14.777  -0.985 -13.462  1.00  0.00     0.191 C 
BRANCH  30  31
ATOM     31  O   UNL     1      15.407   0.263 -13.559  1.00  0.00    -0.394 OA
ATOM     32  H   UNL     1      14.724   0.890 -13.912  1.00  0.00     0.210 HD
ENDBRANCH  30  31
ENDBRANCH  24  30
BRANCH  25  33
ATOM     33  O   UNL     1      17.379  -1.484 -12.419  1.00  0.00    -0.388 OA
ATOM     34  H   UNL     1      17.616  -2.448 -12.446  1.00  0.00     0.211 HD
ENDBRANCH  25  33
ENDBRANCH  11  20
BRANCH  10  35
ATOM     35  O   UNL     1      16.887  -5.738 -13.803  1.00  0.00    -0.507 OA
ATOM     36  H   UNL     1      17.223  -4.786 -13.719  1.00  0.00     0.293 HD
ENDBRANCH  10  35
TORSDOF 9
ENDMDL
MODEL 9
REMARK VINA RESULT:    -5.823      4.790      6.894
REMARK INTER + INTRA:          -8.606
REMARK INTER:                  -7.541
REMARK INTRA:                  -1.065
REMARK UNBOUND:                -0.741
REMARK SMILES O=c1c(-c2ccc(O)cc2)coc2c([C@H]3O[C@H](CO)[C@H](O)[C@H](O)[C@H]3O)c(O)ccc12
REMARK SMILES IDX 3 1 11 2 12 3 13 4 30 5 2 6 1 7 29 8 28 9 26 10 14 11 4 12
REMARK SMILES IDX 5 13 6 14 7 15 10 16 9 17 8 18 15 20 24 21 16 22 22 23 17 24
REMARK SMILES IDX 20 25 25 26 23 28 18 30 19 31 21 33 27 35
REMARK H PARENT 8 19 25 27 23 29 19 32 21 34 27 36
REMARK Flexibility Score: inf
ROOT
ATOM      1  C   UNL     1      18.257  -2.383 -10.272  1.00  0.00     0.065 A 
ATOM      2  C   UNL     1      18.877  -2.963 -11.388  1.00  0.00     0.208 A 
ATOM      3  O   UNL     1      18.260  -3.894 -12.104  1.00  0.00    -0.463 OA
ATOM      4  C   UNL     1      17.037  -4.338 -11.825  1.00  0.00     0.147 A 
ATOM      5  C   UNL     1      16.338  -3.808 -10.715  1.00  0.00     0.066 A 
ATOM      6  C   UNL     1      16.959  -2.812  -9.939  1.00  0.00     0.200 A 
ATOM      7  O   UNL     1      16.351  -2.293  -8.963  1.00  0.00    -0.288 OA
ATOM      8  C   UNL     1      15.054  -4.284 -10.410  1.00  0.00     0.020 A 
ATOM      9  C   UNL     1      14.475  -5.284 -11.187  1.00  0.00     0.047 A 
ATOM     10  C   UNL     1      15.157  -5.820 -12.285  1.00  0.00     0.125 A 
ATOM     11  C   UNL     1      16.439  -5.338 -12.632  1.00  0.00     0.069 A 
ENDROOT
BRANCH   1  12
ATOM     12  C   UNL     1      18.970  -1.346  -9.485  1.00  0.00    -0.011 A 
ATOM     13  C   UNL     1      18.912   0.004  -9.873  1.00  0.00     0.013 A 
ATOM     14  C   UNL     1      19.589   0.981  -9.138  1.00  0.00     0.047 A 
ATOM     15  C   UNL     1      20.337   0.624  -8.012  1.00  0.00     0.115 A 
ATOM     16  C   UNL     1      19.729  -1.700  -8.356  1.00  0.00     0.013 A 
ATOM     17  C   UNL     1      20.406  -0.720  -7.622  1.00  0.00     0.047 A 
BRANCH  15  18
ATOM     18  O   UNL     1      21.007   1.609  -7.290  1.00  0.00    -0.508 OA
ATOM     19  H   UNL     1      20.687   2.571  -7.285  1.00  0.00     0.293 HD
ENDBRANCH  15  18
ENDBRANCH   1  12
BRANCH  11  20
ATOM     20  C   UNL     1      17.173  -5.955 -13.821  1.00  0.00     0.188 C 
ATOM     21  C   UNL     1      16.734  -5.307 -15.166  1.00  0.00     0.179 C 
ATOM     22  O   UNL     1      17.000  -7.362 -13.850  1.00  0.00    -0.362 OA
ATOM     23  C   UNL     1      17.093  -6.203 -16.380  1.00  0.00     0.177 C 
ATOM     24  C   UNL     1      17.843  -8.014 -14.800  1.00  0.00     0.176 C 
ATOM     25  C   UNL     1      18.249  -7.154 -16.037  1.00  0.00     0.177 C 
BRANCH  21  26
ATOM     26  O   UNL     1      15.362  -4.996 -15.182  1.00  0.00    -0.387 OA
ATOM     27  H   UNL     1      14.937  -5.473 -14.423  1.00  0.00     0.211 HD
ENDBRANCH  21  26
BRANCH  23  28
ATOM     28  O   UNL     1      17.439  -5.414 -17.489  1.00  0.00    -0.387 OA
ATOM     29  H   UNL     1      17.208  -5.942 -18.297  1.00  0.00     0.211 HD
ENDBRANCH  23  28
BRANCH  24  30
ATOM     30  C   UNL     1      19.035  -8.687 -14.099  1.00  0.00     0.191 C 
BRANCH  30  31
ATOM     31  O   UNL     1      19.983  -9.125 -15.032  1.00  0.00    -0.394 OA
ATOM     32  H   UNL     1      19.583  -9.913 -15.483  1.00  0.00     0.210 HD
ENDBRANCH  30  31
ENDBRANCH  24  30
BRANCH  25  33
ATOM     33  O   UNL     1      19.425  -6.424 -15.783  1.00  0.00    -0.388 OA
ATOM     34  H   UNL     1      19.232  -5.817 -15.020  1.00  0.00     0.211 HD
ENDBRANCH  25  33
ENDBRANCH  11  20
BRANCH  10  35
ATOM     35  O   UNL     1      14.563  -6.839 -13.031  1.00  0.00    -0.507 OA
ATOM     36  H   UNL     1      13.659  -7.224 -12.781  1.00  0.00     0.293 HD
ENDBRANCH  10  35
TORSDOF 9
ENDMDL
