MODEL 1
REMARK VINA RESULT:    66.941      0.000      0.000
REMARK INTER + INTRA:          87.535
REMARK INTER:                  88.464
REMARK INTRA:                  -0.929
REMARK UNBOUND:                -0.929
REMARK SMILES CC[C@@H](C=C[C@H](C)[C@H]1CC[C@@H]2C3=CC[C@@H]4C[C@@H](O)CC[C@]4(C)[C@H]3CC[C@@]21C)C(C)C
REMARK SMILES IDX 6 1 7 2 5 3 4 4 3 5 2 6 1 7 28 8 29 9 30 10 8 11 9 12 26 13
REMARK SMILES IDX 10 14 11 15 25 16 27 17 12 18 24 19 23 20 13 21 21 22 14 23
REMARK SMILES IDX 15 24 20 25 22 26 16 27 19 28 17 29 18 30
REMARK H PARENT 18 31
REMARK Flexibility Score: inf
ROOT
ATOM      1  C   UNL     1     -32.879  26.414   7.519  1.00  0.00     0.012 C 
ATOM      2  C   UNL     1     -32.134  26.306   8.867  1.00  0.00     0.012 C 
ENDROOT
BRANCH   1   3
ATOM      3  C   UNL     1     -31.878  26.331   6.384  1.00  0.00    -0.028 C 
ATOM      4  C   UNL     1     -30.561  26.485   6.601  1.00  0.00    -0.027 C 
BRANCH   4   5
ATOM      5  C   UNL     1     -29.556  26.491   5.466  1.00  0.00     0.014 C 
BRANCH   5   6
ATOM      6  C   UNL     1     -28.597  27.705   5.565  1.00  0.00     0.004 C 
ATOM      7  C   UNL     1     -27.105  27.373   5.506  1.00  0.00     0.004 C 
ENDBRANCH   5   6
BRANCH   5   8
ATOM      8  C   UNL     1     -30.223  26.323   4.060  1.00  0.00    -0.011 C 
ATOM      9  C   UNL     1     -29.971  24.953   3.398  1.00  0.00     0.008 C 
ATOM     10  C   UNL     1     -29.763  27.434   3.103  1.00  0.00     0.008 C 
ENDBRANCH   5   8
ENDBRANCH   4   5
ENDBRANCH   1   3
BRANCH   1  11
ATOM     11  C   UNL     1     -34.024  25.354   7.323  1.00  0.00     0.002 C 
ATOM     12  C   UNL     1     -34.400  24.667   8.645  1.00  0.00     0.005 C 
ATOM     13  C   UNL     1     -35.381  25.858   6.702  1.00  0.00    -0.023 C 
ATOM     14  C   UNL     1     -35.697  25.303   9.123  1.00  0.00     0.009 C 
ATOM     15  C   UNL     1     -36.344  26.009   7.918  1.00  0.00     0.021 C 
ATOM     16  C   UNL     1     -35.924  24.827   5.648  1.00  0.00     0.008 C 
ATOM     17  C   UNL     1     -35.261  27.210   5.945  1.00  0.00     0.012 C 
ATOM     18  C   UNL     1     -37.739  25.461   7.640  1.00  0.00    -0.067 C 
ATOM     19  C   UNL     1     -36.649  23.621   6.260  1.00  0.00     0.009 C 
ATOM     20  C   UNL     1     -37.872  24.025   7.136  1.00  0.00     0.021 C 
ATOM     21  C   UNL     1     -38.815  26.206   7.969  1.00  0.00    -0.027 C 
ATOM     22  C   UNL     1     -39.278  23.727   6.487  1.00  0.00    -0.023 C 
ATOM     23  C   UNL     1     -40.230  25.813   7.647  1.00  0.00     0.031 C 
ATOM     24  C   UNL     1     -40.410  24.303   7.401  1.00  0.00     0.002 C 
ATOM     25  C   UNL     1     -39.530  22.195   6.307  1.00  0.00     0.010 C 
ATOM     26  C   UNL     1     -39.378  24.384   5.083  1.00  0.00     0.012 C 
ATOM     27  C   UNL     1     -40.531  23.551   8.749  1.00  0.00     0.036 C 
ATOM     28  C   UNL     1     -39.673  21.420   7.629  1.00  0.00     0.032 C 
ATOM     29  C   UNL     1     -40.722  22.034   8.572  1.00  0.00     0.114 C 
BRANCH  29  30
ATOM     30  O   UNL     1     -42.034  21.724   8.169  1.00  0.00    -0.393 OA
ATOM     31  H   UNL     1     -42.626  21.776   8.961  1.00  0.00     0.210 HD
ENDBRANCH  29  30
ENDBRANCH   1  11
TORSDOF 6
ENDMDL
MODEL 2
REMARK VINA RESULT:    67.825      3.041      8.812
REMARK INTER + INTRA:          88.703
REMARK INTER:                  88.549
REMARK INTRA:                   0.154
REMARK UNBOUND:                -0.929
REMARK SMILES CC[C@@H](C=C[C@H](C)[C@H]1CC[C@@H]2C3=CC[C@@H]4C[C@@H](O)CC[C@]4(C)[C@H]3CC[C@@]21C)C(C)C
REMARK SMILES IDX 6 1 7 2 5 3 4 4 3 5 2 6 1 7 28 8 29 9 30 10 8 11 9 12 26 13
REMARK SMILES IDX 10 14 11 15 25 16 27 17 12 18 24 19 23 20 13 21 21 22 14 23
REMARK SMILES IDX 15 24 20 25 22 26 16 27 19 28 17 29 18 30
REMARK H PARENT 18 31
REMARK Flexibility Score: inf
ROOT
ATOM      1  C   UNL     1     -38.720  25.754   8.411  1.00  0.00     0.012 C 
ATOM      2  C   UNL     1     -39.459  27.026   8.881  1.00  0.00     0.012 C 
ENDROOT
BRANCH   1   3
ATOM      3  C   UNL     1     -39.645  24.927   7.541  1.00  0.00    -0.028 C 
ATOM      4  C   UNL     1     -40.981  25.048   7.629  1.00  0.00    -0.027 C 
BRANCH   4   5
ATOM      5  C   UNL     1     -41.921  24.169   6.828  1.00  0.00     0.014 C 
BRANCH   5   6
ATOM      6  C   UNL     1     -42.083  22.773   7.481  1.00  0.00     0.004 C 
ATOM      7  C   UNL     1     -41.118  22.464   8.627  1.00  0.00     0.004 C 
ENDBRANCH   5   6
BRANCH   5   8
ATOM      8  C   UNL     1     -41.560  24.119   5.306  1.00  0.00    -0.011 C 
ATOM      9  C   UNL     1     -40.162  23.542   5.003  1.00  0.00     0.008 C 
ATOM     10  C   UNL     1     -41.672  25.516   4.675  1.00  0.00     0.008 C 
ENDBRANCH   5   8
ENDBRANCH   4   5
ENDBRANCH   1   3
BRANCH   1  11
ATOM     11  C   UNL     1     -37.362  26.029   7.666  1.00  0.00     0.002 C 
ATOM     12  C   UNL     1     -36.635  27.257   8.236  1.00  0.00     0.005 C 
ATOM     13  C   UNL     1     -36.295  24.870   7.650  1.00  0.00    -0.023 C 
ATOM     14  C   UNL     1     -35.515  26.736   9.125  1.00  0.00     0.009 C 
ATOM     15  C   UNL     1     -35.258  25.268   8.742  1.00  0.00     0.021 C 
ATOM     16  C   UNL     1     -35.634  24.747   6.230  1.00  0.00     0.008 C 
ATOM     17  C   UNL     1     -36.887  23.467   7.962  1.00  0.00     0.012 C 
ATOM     18  C   UNL     1     -33.817  25.057   8.295  1.00  0.00    -0.067 C 
ATOM     19  C   UNL     1     -34.527  25.773   5.957  1.00  0.00     0.009 C 
ATOM     20  C   UNL     1     -33.358  25.697   6.985  1.00  0.00     0.021 C 
ATOM     21  C   UNL     1     -32.956  24.430   9.123  1.00  0.00    -0.027 C 
ATOM     22  C   UNL     1     -32.025  25.067   6.424  1.00  0.00    -0.023 C 
ATOM     23  C   UNL     1     -31.544  24.076   8.747  1.00  0.00     0.031 C 
ATOM     24  C   UNL     1     -30.986  24.921   7.585  1.00  0.00     0.002 C 
ATOM     25  C   UNL     1     -31.384  25.948   5.304  1.00  0.00     0.010 C 
ATOM     26  C   UNL     1     -32.302  23.666   5.814  1.00  0.00     0.012 C 
ATOM     27  C   UNL     1     -30.480  26.287   8.110  1.00  0.00     0.036 C 
ATOM     28  C   UNL     1     -30.854  27.306   5.797  1.00  0.00     0.032 C 
ATOM     29  C   UNL     1     -29.901  27.178   6.997  1.00  0.00     0.114 C 
BRANCH  29  30
ATOM     30  O   UNL     1     -28.620  26.744   6.604  1.00  0.00    -0.393 OA
ATOM     31  H   UNL     1     -27.949  27.361   6.990  1.00  0.00     0.210 HD
ENDBRANCH  29  30
ENDBRANCH   1  11
TORSDOF 6
ENDMDL
