MODEL 1
REMARK VINA RESULT:    -3.909      0.000      0.000
REMARK INTER + INTRA:          -4.937
REMARK INTER:                  -4.823
REMARK INTRA:                  -0.114
REMARK UNBOUND:                -0.114
REMARK SMILES CCCCCC(=O)[O-]
REMARK SMILES IDX 4 1 5 2 6 3 7 4 8 5 3 6 2 7 1 8
REMARK H PARENT
REMARK Flexibility Score: inf
ROOT
ATOM      1  C   UNL     1       0.155 -21.649  -5.363  1.00  0.00     0.006 C 
ENDROOT
BRANCH   1   2
ATOM      2  C   UNL     1       1.120 -20.527  -4.954  1.00  0.00     0.053 C 
BRANCH   2   3
ATOM      3  C   UNL     1       0.721 -19.953  -3.632  1.00  0.00     0.041 C 
ATOM      4  O   UNL     1       0.734 -18.706  -3.452  1.00  0.00    -0.550 OA
ATOM      5  O   UNL     1       0.381 -20.796  -2.581  1.00  0.00    -0.550 OA
ENDBRANCH   2   3
ENDBRANCH   1   2
BRANCH   1   6
ATOM      6  C   UNL     1       0.453 -22.202  -6.765  1.00  0.00     0.000 C 
BRANCH   6   7
ATOM      7  C   UNL     1       1.725 -21.599  -7.380  1.00  0.00    -0.003 C 
ATOM      8  C   UNL     1       1.421 -20.918  -8.712  1.00  0.00     0.004 C 
ENDBRANCH   6   7
ENDBRANCH   1   6
TORSDOF 4
ENDMDL
MODEL 2
REMARK VINA RESULT:    -3.880      1.000      1.256
REMARK INTER + INTRA:          -4.901
REMARK INTER:                  -4.741
REMARK INTRA:                  -0.160
REMARK UNBOUND:                -0.114
REMARK SMILES CCCCCC(=O)[O-]
REMARK SMILES IDX 4 1 5 2 6 3 7 4 8 5 3 6 2 7 1 8
REMARK H PARENT
REMARK Flexibility Score: inf
ROOT
ATOM      1  C   UNL     1       1.342 -21.827  -6.169  1.00  0.00     0.006 C 
ENDROOT
BRANCH   1   2
ATOM      2  C   UNL     1       0.163 -21.494  -5.245  1.00  0.00     0.053 C 
BRANCH   2   3
ATOM      3  C   UNL     1       0.554 -20.435  -4.263  1.00  0.00     0.041 C 
ATOM      4  O   UNL     1       1.024 -19.338  -4.667  1.00  0.00    -0.550 OA
ATOM      5  O   UNL     1       0.443 -20.675  -2.899  1.00  0.00    -0.550 OA
ENDBRANCH   2   3
ENDBRANCH   1   2
BRANCH   1   6
ATOM      6  C   UNL     1       0.917 -21.976  -7.639  1.00  0.00     0.000 C 
BRANCH   6   7
ATOM      7  C   UNL     1       1.607 -20.958  -8.559  1.00  0.00    -0.003 C 
ATOM      8  C   UNL     1       2.842 -20.362  -7.889  1.00  0.00     0.004 C 
ENDBRANCH   6   7
ENDBRANCH   1   6
TORSDOF 4
ENDMDL
MODEL 3
REMARK VINA RESULT:    -3.863      0.996      1.534
REMARK INTER + INTRA:          -4.880
REMARK INTER:                  -4.773
REMARK INTRA:                  -0.107
REMARK UNBOUND:                -0.114
REMARK SMILES CCCCCC(=O)[O-]
REMARK SMILES IDX 4 1 5 2 6 3 7 4 8 5 3 6 2 7 1 8
REMARK H PARENT
REMARK Flexibility Score: inf
ROOT
ATOM      1  C   UNL     1       1.200 -20.777  -5.296  1.00  0.00     0.006 C 
ENDROOT
BRANCH   1   2
ATOM      2  C   UNL     1       0.428 -20.067  -4.175  1.00  0.00     0.053 C 
BRANCH   2   3
ATOM      3  C   UNL     1       1.024 -20.396  -2.843  1.00  0.00     0.041 C 
ATOM      4  O   UNL     1       0.394 -21.121  -2.028  1.00  0.00    -0.550 OA
ATOM      5  O   UNL     1       2.255 -19.863  -2.481  1.00  0.00    -0.550 OA
ENDBRANCH   2   3
ENDBRANCH   1   2
BRANCH   1   6
ATOM      6  C   UNL     1       0.384 -21.902  -5.953  1.00  0.00     0.000 C 
BRANCH   6   7
ATOM      7  C   UNL     1       0.836 -22.195  -7.392  1.00  0.00    -0.003 C 
ATOM      8  C   UNL     1       1.490 -20.969  -8.022  1.00  0.00     0.004 C 
ENDBRANCH   6   7
ENDBRANCH   1   6
TORSDOF 4
ENDMDL
MODEL 4
REMARK VINA RESULT:    -3.772      3.108      3.908
REMARK INTER + INTRA:          -4.768
REMARK INTER:                  -4.531
REMARK INTRA:                  -0.236
REMARK UNBOUND:                -0.114
REMARK SMILES CCCCCC(=O)[O-]
REMARK SMILES IDX 4 1 5 2 6 3 7 4 8 5 3 6 2 7 1 8
REMARK H PARENT
REMARK Flexibility Score: inf
ROOT
ATOM      1  C   UNL     1       2.037 -20.202  -7.427  1.00  0.00     0.006 C 
ENDROOT
BRANCH   1   2
ATOM      2  C   UNL     1       3.555 -20.216  -7.656  1.00  0.00     0.053 C 
BRANCH   2   3
ATOM      3  C   UNL     1       4.222 -21.121  -6.671  1.00  0.00     0.041 C 
ATOM      4  O   UNL     1       5.265 -21.750  -6.992  1.00  0.00    -0.550 OA
ATOM      5  O   UNL     1       3.667 -21.309  -5.411  1.00  0.00    -0.550 OA
ENDBRANCH   2   3
ENDBRANCH   1   2
BRANCH   1   6
ATOM      6  C   UNL     1       1.294 -21.197  -8.333  1.00  0.00     0.000 C 
BRANCH   6   7
ATOM      7  C   UNL     1       0.875 -22.474  -7.589  1.00  0.00    -0.003 C 
ATOM      8  C   UNL     1       0.272 -22.142  -6.227  1.00  0.00     0.004 C 
ENDBRANCH   6   7
ENDBRANCH   1   6
TORSDOF 4
ENDMDL
MODEL 5
REMARK VINA RESULT:    -3.704      2.941      4.500
REMARK INTER + INTRA:          -4.684
REMARK INTER:                  -4.599
REMARK INTRA:                  -0.085
REMARK UNBOUND:                -0.114
REMARK SMILES CCCCCC(=O)[O-]
REMARK SMILES IDX 4 1 5 2 6 3 7 4 8 5 3 6 2 7 1 8
REMARK H PARENT
REMARK Flexibility Score: inf
ROOT
ATOM      1  C   UNL     1       0.421 -21.260  -5.124  1.00  0.00     0.006 C 
ENDROOT
BRANCH   1   2
ATOM      2  C   UNL     1       1.450 -20.906  -6.207  1.00  0.00     0.053 C 
BRANCH   2   3
ATOM      3  C   UNL     1       1.176 -21.679  -7.458  1.00  0.00     0.041 C 
ATOM      4  O   UNL     1       1.369 -21.151  -8.585  1.00  0.00    -0.550 OA
ATOM      5  O   UNL     1       0.661 -22.968  -7.381  1.00  0.00    -0.550 OA
ENDBRANCH   2   3
ENDBRANCH   1   2
BRANCH   1   6
ATOM      6  C   UNL     1       0.329 -20.189  -4.025  1.00  0.00     0.000 C 
BRANCH   6   7
ATOM      7  C   UNL     1       0.498 -20.774  -2.615  1.00  0.00    -0.003 C 
ATOM      8  C   UNL     1       1.867 -20.424  -2.037  1.00  0.00     0.004 C 
ENDBRANCH   6   7
ENDBRANCH   1   6
TORSDOF 4
ENDMDL
MODEL 6
REMARK VINA RESULT:    -3.689      9.724     10.818
REMARK INTER + INTRA:          -4.666
REMARK INTER:                  -4.408
REMARK INTRA:                  -0.258
REMARK UNBOUND:                -0.114
REMARK SMILES CCCCCC(=O)[O-]
REMARK SMILES IDX 4 1 5 2 6 3 7 4 8 5 3 6 2 7 1 8
REMARK H PARENT
REMARK Flexibility Score: inf
ROOT
ATOM      1  C   UNL     1      -5.273 -28.090  -3.719  1.00  0.00     0.006 C 
ENDROOT
BRANCH   1   2
ATOM      2  C   UNL     1      -5.467 -26.755  -2.988  1.00  0.00     0.053 C 
BRANCH   2   3
ATOM      3  C   UNL     1      -6.074 -26.982  -1.640  1.00  0.00     0.041 C 
ATOM      4  O   UNL     1      -7.141 -26.396  -1.317  1.00  0.00    -0.550 OA
ATOM      5  O   UNL     1      -5.437 -27.806  -0.720  1.00  0.00    -0.550 OA
ENDBRANCH   2   3
ENDBRANCH   1   2
BRANCH   1   6
ATOM      6  C   UNL     1      -6.606 -28.744  -4.116  1.00  0.00     0.000 C 
BRANCH   6   7
ATOM      7  C   UNL     1      -6.667 -30.234  -3.744  1.00  0.00    -0.003 C 
ATOM      8  C   UNL     1      -7.319 -30.432  -2.378  1.00  0.00     0.004 C 
ENDBRANCH   6   7
ENDBRANCH   1   6
TORSDOF 4
ENDMDL
MODEL 7
REMARK VINA RESULT:    -3.660      2.491      3.753
REMARK INTER + INTRA:          -4.629
REMARK INTER:                  -4.403
REMARK INTRA:                  -0.226
REMARK UNBOUND:                -0.114
REMARK SMILES CCCCCC(=O)[O-]
REMARK SMILES IDX 4 1 5 2 6 3 7 4 8 5 3 6 2 7 1 8
REMARK H PARENT
REMARK Flexibility Score: inf
ROOT
ATOM      1  C   UNL     1       1.671 -20.626  -7.523  1.00  0.00     0.006 C 
ENDROOT
BRANCH   1   2
ATOM      2  C   UNL     1       1.088 -22.021  -7.792  1.00  0.00     0.053 C 
BRANCH   2   3
ATOM      3  C   UNL     1       0.454 -22.568  -6.553  1.00  0.00     0.041 C 
ATOM      4  O   UNL     1       0.168 -23.792  -6.474  1.00  0.00    -0.550 OA
ATOM      5  O   UNL     1       0.132 -21.718  -5.502  1.00  0.00    -0.550 OA
ENDBRANCH   2   3
ENDBRANCH   1   2
BRANCH   1   6
ATOM      6  C   UNL     1       3.208 -20.614  -7.544  1.00  0.00     0.000 C 
BRANCH   6   7
ATOM      7  C   UNL     1       3.819 -21.033  -6.198  1.00  0.00    -0.003 C 
ATOM      8  C   UNL     1       3.279 -20.171  -5.059  1.00  0.00     0.004 C 
ENDBRANCH   6   7
ENDBRANCH   1   6
TORSDOF 4
ENDMDL
MODEL 8
REMARK VINA RESULT:    -3.578      9.462     10.474
REMARK INTER + INTRA:          -4.529
REMARK INTER:                  -4.318
REMARK INTRA:                  -0.211
REMARK UNBOUND:                -0.114
REMARK SMILES CCCCCC(=O)[O-]
REMARK SMILES IDX 4 1 5 2 6 3 7 4 8 5 3 6 2 7 1 8
REMARK H PARENT
REMARK Flexibility Score: inf
ROOT
ATOM      1  C   UNL     1      -5.385 -27.066  -3.365  1.00  0.00     0.006 C 
ENDROOT
BRANCH   1   2
ATOM      2  C   UNL     1      -6.096 -26.731  -2.047  1.00  0.00     0.053 C 
BRANCH   2   3
ATOM      3  C   UNL     1      -7.329 -25.926  -2.311  1.00  0.00     0.041 C 
ATOM      4  O   UNL     1      -7.603 -24.931  -1.589  1.00  0.00    -0.550 OA
ATOM      5  O   UNL     1      -8.203 -26.302  -3.324  1.00  0.00    -0.550 OA
ENDBRANCH   2   3
ENDBRANCH   1   2
BRANCH   1   6
ATOM      6  C   UNL     1      -5.079 -28.566  -3.507  1.00  0.00     0.000 C 
BRANCH   6   7
ATOM      7  C   UNL     1      -6.279 -29.451  -3.136  1.00  0.00    -0.003 C 
ATOM      8  C   UNL     1      -7.085 -29.829  -4.376  1.00  0.00     0.004 C 
ENDBRANCH   6   7
ENDBRANCH   1   6
TORSDOF 4
ENDMDL
MODEL 9
REMARK VINA RESULT:    -3.571     10.157     11.090
REMARK INTER + INTRA:          -4.521
REMARK INTER:                  -4.334
REMARK INTRA:                  -0.187
REMARK UNBOUND:                -0.114
REMARK SMILES CCCCCC(=O)[O-]
REMARK SMILES IDX 4 1 5 2 6 3 7 4 8 5 3 6 2 7 1 8
REMARK H PARENT
REMARK Flexibility Score: inf
ROOT
ATOM      1  C   UNL     1      -5.480 -27.055  -3.023  1.00  0.00     0.006 C 
ENDROOT
BRANCH   1   2
ATOM      2  C   UNL     1      -5.122 -28.455  -3.540  1.00  0.00     0.053 C 
BRANCH   2   3
ATOM      3  C   UNL     1      -6.363 -29.212  -3.892  1.00  0.00     0.041 C 
ATOM      4  O   UNL     1      -7.321 -28.629  -4.466  1.00  0.00    -0.550 OA
ATOM      5  O   UNL     1      -6.483 -30.553  -3.546  1.00  0.00    -0.550 OA
ENDBRANCH   2   3
ENDBRANCH   1   2
BRANCH   1   6
ATOM      6  C   UNL     1      -6.015 -27.075  -1.582  1.00  0.00     0.000 C 
BRANCH   6   7
ATOM      7  C   UNL     1      -7.372 -26.369  -1.446  1.00  0.00    -0.003 C 
ATOM      8  C   UNL     1      -7.390 -25.060  -2.230  1.00  0.00     0.004 C 
ENDBRANCH   6   7
ENDBRANCH   1   6
TORSDOF 4
ENDMDL
