MODEL 1
REMARK VINA RESULT:    -4.024      0.000      0.000
REMARK INTER + INTRA:          -4.603
REMARK INTER:                  -4.495
REMARK INTRA:                  -0.108
REMARK UNBOUND:                -0.108
REMARK SMILES CCc1ccc(O)cc1O
REMARK SMILES IDX 3 1 9 2 8 3 6 4 5 5 4 6 2 7 1 8 10 9 7 11
REMARK H PARENT 10 10 7 12
REMARK Flexibility Score: inf
ROOT
ATOM      1  C   UNL     1      -4.800  82.962  -8.916  1.00  0.00    -0.006 A 
ATOM      2  C   UNL     1      -3.720  82.242  -9.466  1.00  0.00     0.122 A 
ATOM      3  C   UNL     1      -2.893  81.477  -8.630  1.00  0.00     0.092 A 
ATOM      4  C   UNL     1      -3.127  81.432  -7.252  1.00  0.00     0.119 A 
ATOM      5  C   UNL     1      -4.192  82.158  -6.703  1.00  0.00     0.047 A 
ATOM      6  C   UNL     1      -5.020  82.921  -7.530  1.00  0.00     0.011 A 
ENDROOT
BRANCH   1   7
ATOM      7  C   UNL     1      -5.686  83.816  -9.788  1.00  0.00     0.036 C 
ATOM      8  C   UNL     1      -5.205  85.264  -9.793  1.00  0.00     0.009 C 
ENDBRANCH   1   7
BRANCH   2   9
ATOM      9  O   UNL     1      -3.468  82.291 -10.837  1.00  0.00    -0.508 OA
ATOM     10  H   UNL     1      -3.415  83.172 -11.336  1.00  0.00     0.293 HD
ENDBRANCH   2   9
BRANCH   4  11
ATOM     11  O   UNL     1      -2.295  80.667  -6.437  1.00  0.00    -0.508 OA
ATOM     12  H   UNL     1      -2.225  80.839  -5.442  1.00  0.00     0.293 HD
ENDBRANCH   4  11
TORSDOF 3
ENDMDL
MODEL 2
REMARK VINA RESULT:    -3.898      2.136      4.306
REMARK INTER + INTRA:          -4.461
REMARK INTER:                  -4.357
REMARK INTRA:                  -0.104
REMARK UNBOUND:                -0.108
REMARK SMILES CCc1ccc(O)cc1O
REMARK SMILES IDX 3 1 9 2 8 3 6 4 5 5 4 6 2 7 1 8 10 9 7 11
REMARK H PARENT 10 10 7 12
REMARK Flexibility Score: inf
ROOT
ATOM      1  C   UNL     1      -3.609  82.975  -8.926  1.00  0.00    -0.006 A 
ATOM      2  C   UNL     1      -3.423  84.325  -8.567  1.00  0.00     0.122 A 
ATOM      3  C   UNL     1      -4.332  85.297  -9.009  1.00  0.00     0.092 A 
ATOM      4  C   UNL     1      -5.417  84.937  -9.815  1.00  0.00     0.119 A 
ATOM      5  C   UNL     1      -5.594  83.598 -10.185  1.00  0.00     0.047 A 
ATOM      6  C   UNL     1      -4.693  82.624  -9.747  1.00  0.00     0.011 A 
ENDROOT
BRANCH   1   7
ATOM      7  C   UNL     1      -2.630  81.914  -8.489  1.00  0.00     0.036 C 
ATOM      8  C   UNL     1      -3.111  81.227  -7.214  1.00  0.00     0.009 C 
ENDBRANCH   1   7
BRANCH   2   9
ATOM      9  O   UNL     1      -2.336  84.697  -7.775  1.00  0.00    -0.508 OA
ATOM     10  H   UNL     1      -1.785  84.011  -7.273  1.00  0.00     0.293 HD
ENDBRANCH   2   9
BRANCH   4  11
ATOM     11  O   UNL     1      -6.309  85.917 -10.245  1.00  0.00    -0.508 OA
ATOM     12  H   UNL     1      -6.019  86.661 -10.868  1.00  0.00     0.293 HD
ENDBRANCH   4  11
TORSDOF 3
ENDMDL
MODEL 3
REMARK VINA RESULT:    -3.757      9.596     11.747
REMARK INTER + INTRA:          -4.304
REMARK INTER:                  -4.208
REMARK INTRA:                  -0.096
REMARK UNBOUND:                -0.108
REMARK SMILES CCc1ccc(O)cc1O
REMARK SMILES IDX 3 1 9 2 8 3 6 4 5 5 4 6 2 7 1 8 10 9 7 11
REMARK H PARENT 10 10 7 12
REMARK Flexibility Score: inf
ROOT
ATOM      1  C   UNL     1      -5.059  90.340 -15.568  1.00  0.00    -0.006 A 
ATOM      2  C   UNL     1      -3.715  90.589 -15.224  1.00  0.00     0.122 A 
ATOM      3  C   UNL     1      -2.994  91.585 -15.899  1.00  0.00     0.092 A 
ATOM      4  C   UNL     1      -3.596  92.326 -16.920  1.00  0.00     0.119 A 
ATOM      5  C   UNL     1      -4.927  92.070 -17.273  1.00  0.00     0.047 A 
ATOM      6  C   UNL     1      -5.652  91.080 -16.604  1.00  0.00     0.011 A 
ENDROOT
BRANCH   1   7
ATOM      7  C   UNL     1      -5.847  89.255 -14.879  1.00  0.00     0.036 C 
ATOM      8  C   UNL     1      -7.010  89.850 -14.091  1.00  0.00     0.009 C 
ENDBRANCH   1   7
BRANCH   2   9
ATOM      9  O   UNL     1      -3.099  89.846 -14.216  1.00  0.00    -0.508 OA
ATOM     10  H   UNL     1      -3.437  88.929 -13.951  1.00  0.00     0.293 HD
ENDBRANCH   2   9
BRANCH   4  11
ATOM     11  O   UNL     1      -2.864  93.311 -17.580  1.00  0.00    -0.508 OA
ATOM     12  H   UNL     1      -2.349  94.018 -17.069  1.00  0.00     0.293 HD
ENDBRANCH   4  11
TORSDOF 3
ENDMDL
MODEL 4
REMARK VINA RESULT:    -3.725      2.131      4.056
REMARK INTER + INTRA:          -4.269
REMARK INTER:                  -4.168
REMARK INTRA:                  -0.101
REMARK UNBOUND:                -0.108
REMARK SMILES CCc1ccc(O)cc1O
REMARK SMILES IDX 3 1 9 2 8 3 6 4 5 5 4 6 2 7 1 8 10 9 7 11
REMARK H PARENT 10 10 7 12
REMARK Flexibility Score: inf
ROOT
ATOM      1  C   UNL     1      -3.600  83.208  -8.867  1.00  0.00    -0.006 A 
ATOM      2  C   UNL     1      -4.729  83.371  -9.694  1.00  0.00     0.122 A 
ATOM      3  C   UNL     1      -5.356  84.623  -9.781  1.00  0.00     0.092 A 
ATOM      4  C   UNL     1      -4.877  85.708  -9.042  1.00  0.00     0.119 A 
ATOM      5  C   UNL     1      -3.763  85.544  -8.209  1.00  0.00     0.047 A 
ATOM      6  C   UNL     1      -3.132  84.301  -8.118  1.00  0.00     0.011 A 
ENDROOT
BRANCH   1   7
ATOM      7  C   UNL     1      -2.924  81.867  -8.732  1.00  0.00     0.036 C 
ATOM      8  C   UNL     1      -3.070  81.328  -7.312  1.00  0.00     0.009 C 
ENDBRANCH   1   7
BRANCH   2   9
ATOM      9  O   UNL     1      -5.225  82.292 -10.425  1.00  0.00    -0.508 OA
ATOM     10  H   UNL     1      -6.057  82.376 -10.998  1.00  0.00     0.293 HD
ENDBRANCH   2   9
BRANCH   4  11
ATOM     11  O   UNL     1      -5.513  86.944  -9.141  1.00  0.00    -0.508 OA
ATOM     12  H   UNL     1      -5.017  87.810  -8.968  1.00  0.00     0.293 HD
ENDBRANCH   4  11
TORSDOF 3
ENDMDL
MODEL 5
REMARK VINA RESULT:    -3.702      2.347      3.680
REMARK INTER + INTRA:          -4.242
REMARK INTER:                  -4.156
REMARK INTRA:                  -0.086
REMARK UNBOUND:                -0.108
REMARK SMILES CCc1ccc(O)cc1O
REMARK SMILES IDX 3 1 9 2 8 3 6 4 5 5 4 6 2 7 1 8 10 9 7 11
REMARK H PARENT 10 10 7 12
REMARK Flexibility Score: inf
ROOT
ATOM      1  C   UNL     1      -3.411  85.321  -8.209  1.00  0.00    -0.006 A 
ATOM      2  C   UNL     1      -3.037  83.967  -8.090  1.00  0.00     0.122 A 
ATOM      3  C   UNL     1      -3.738  82.984  -8.804  1.00  0.00     0.092 A 
ATOM      4  C   UNL     1      -4.815  83.336  -9.623  1.00  0.00     0.119 A 
ATOM      5  C   UNL     1      -5.197  84.679  -9.730  1.00  0.00     0.047 A 
ATOM      6  C   UNL     1      -4.502  85.664  -9.024  1.00  0.00     0.011 A 
ENDROOT
BRANCH   1   7
ATOM      7  C   UNL     1      -2.693  86.394  -7.430  1.00  0.00     0.036 C 
ATOM      8  C   UNL     1      -3.481  87.700  -7.458  1.00  0.00     0.009 C 
ENDBRANCH   1   7
BRANCH   2   9
ATOM      9  O   UNL     1      -1.973  83.602  -7.265  1.00  0.00    -0.508 OA
ATOM     10  H   UNL     1      -1.576  84.249  -6.593  1.00  0.00     0.293 HD
ENDBRANCH   2   9
BRANCH   4  11
ATOM     11  O   UNL     1      -5.500  82.345 -10.324  1.00  0.00    -0.508 OA
ATOM     12  H   UNL     1      -5.097  81.428 -10.473  1.00  0.00     0.293 HD
ENDBRANCH   4  11
TORSDOF 3
ENDMDL
MODEL 6
REMARK VINA RESULT:    -3.676      1.743      3.748
REMARK INTER + INTRA:          -4.214
REMARK INTER:                  -4.124
REMARK INTRA:                  -0.090
REMARK UNBOUND:                -0.108
REMARK SMILES CCc1ccc(O)cc1O
REMARK SMILES IDX 3 1 9 2 8 3 6 4 5 5 4 6 2 7 1 8 10 9 7 11
REMARK H PARENT 10 10 7 12
REMARK Flexibility Score: inf
ROOT
ATOM      1  C   UNL     1      -4.025  82.346  -8.283  1.00  0.00    -0.006 A 
ATOM      2  C   UNL     1      -4.360  82.579  -9.632  1.00  0.00     0.122 A 
ATOM      3  C   UNL     1      -5.566  83.219  -9.951  1.00  0.00     0.092 A 
ATOM      4  C   UNL     1      -6.446  83.618  -8.940  1.00  0.00     0.119 A 
ATOM      5  C   UNL     1      -6.121  83.373  -7.600  1.00  0.00     0.047 A 
ATOM      6  C   UNL     1      -4.921  82.737  -7.274  1.00  0.00     0.011 A 
ENDROOT
BRANCH   1   7
ATOM      7  C   UNL     1      -2.749  81.633  -7.913  1.00  0.00     0.036 C 
ATOM      8  C   UNL     1      -2.998  80.622  -6.798  1.00  0.00     0.009 C 
ENDBRANCH   1   7
BRANCH   2   9
ATOM      9  O   UNL     1      -3.496  82.174 -10.650  1.00  0.00    -0.508 OA
ATOM     10  H   UNL     1      -3.418  81.201 -10.923  1.00  0.00     0.293 HD
ENDBRANCH   2   9
BRANCH   4  11
ATOM     11  O   UNL     1      -7.640  84.252  -9.276  1.00  0.00    -0.508 OA
ATOM     12  H   UNL     1      -8.326  83.807  -9.875  1.00  0.00     0.293 HD
ENDBRANCH   4  11
TORSDOF 3
ENDMDL
MODEL 7
REMARK VINA RESULT:    -3.627      2.763      4.050
REMARK INTER + INTRA:          -4.159
REMARK INTER:                  -4.072
REMARK INTRA:                  -0.087
REMARK UNBOUND:                -0.108
REMARK SMILES CCc1ccc(O)cc1O
REMARK SMILES IDX 3 1 9 2 8 3 6 4 5 5 4 6 2 7 1 8 10 9 7 11
REMARK H PARENT 10 10 7 12
REMARK Flexibility Score: inf
ROOT
ATOM      1  C   UNL     1      -3.918  85.725  -8.313  1.00  0.00    -0.006 A 
ATOM      2  C   UNL     1      -5.026  85.834  -9.177  1.00  0.00     0.122 A 
ATOM      3  C   UNL     1      -5.497  84.701  -9.857  1.00  0.00     0.092 A 
ATOM      4  C   UNL     1      -4.866  83.464  -9.692  1.00  0.00     0.119 A 
ATOM      5  C   UNL     1      -3.756  83.357  -8.845  1.00  0.00     0.047 A 
ATOM      6  C   UNL     1      -3.282  84.481  -8.164  1.00  0.00     0.011 A 
ENDROOT
BRANCH   1   7
ATOM      7  C   UNL     1      -3.374  86.933  -7.594  1.00  0.00     0.036 C 
ATOM      8  C   UNL     1      -1.875  86.787  -7.349  1.00  0.00     0.009 C 
ENDBRANCH   1   7
BRANCH   2   9
ATOM      9  O   UNL     1      -5.655  87.066  -9.360  1.00  0.00    -0.508 OA
ATOM     10  H   UNL     1      -6.639  87.195  -9.157  1.00  0.00     0.293 HD
ENDBRANCH   2   9
BRANCH   4  11
ATOM     11  O   UNL     1      -5.347  82.349 -10.375  1.00  0.00    -0.508 OA
ATOM     12  H   UNL     1      -6.053  82.435 -11.097  1.00  0.00     0.293 HD
ENDBRANCH   4  11
TORSDOF 3
ENDMDL
MODEL 8
REMARK VINA RESULT:    -3.616      3.280      4.377
REMARK INTER + INTRA:          -4.146
REMARK INTER:                  -4.061
REMARK INTRA:                  -0.085
REMARK UNBOUND:                -0.108
REMARK SMILES CCc1ccc(O)cc1O
REMARK SMILES IDX 3 1 9 2 8 3 6 4 5 5 4 6 2 7 1 8 10 9 7 11
REMARK H PARENT 10 10 7 12
REMARK Flexibility Score: inf
ROOT
ATOM      1  C   UNL     1      -4.808  85.662  -9.069  1.00  0.00    -0.006 A 
ATOM      2  C   UNL     1      -3.524  85.267  -8.643  1.00  0.00     0.122 A 
ATOM      3  C   UNL     1      -2.777  86.108  -7.805  1.00  0.00     0.092 A 
ATOM      4  C   UNL     1      -3.293  87.342  -7.397  1.00  0.00     0.119 A 
ATOM      5  C   UNL     1      -4.563  87.741  -7.831  1.00  0.00     0.047 A 
ATOM      6  C   UNL     1      -5.314  86.909  -8.666  1.00  0.00     0.011 A 
ENDROOT
BRANCH   1   7
ATOM      7  C   UNL     1      -5.620  84.791  -9.994  1.00  0.00     0.036 C 
ATOM      8  C   UNL     1      -7.113  84.989  -9.752  1.00  0.00     0.009 C 
ENDBRANCH   1   7
BRANCH   2   9
ATOM      9  O   UNL     1      -2.992  84.045  -9.055  1.00  0.00    -0.508 OA
ATOM     10  H   UNL     1      -3.441  83.166  -8.823  1.00  0.00     0.293 HD
ENDBRANCH   2   9
BRANCH   4  11
ATOM     11  O   UNL     1      -2.537  88.163  -6.564  1.00  0.00    -0.508 OA
ATOM     12  H   UNL     1      -2.668  88.164  -5.560  1.00  0.00     0.293 HD
ENDBRANCH   4  11
TORSDOF 3
ENDMDL
MODEL 9
REMARK VINA RESULT:    -3.608      2.181      2.882
REMARK INTER + INTRA:          -4.137
REMARK INTER:                  -4.044
REMARK INTRA:                  -0.093
REMARK UNBOUND:                -0.108
REMARK SMILES CCc1ccc(O)cc1O
REMARK SMILES IDX 3 1 9 2 8 3 6 4 5 5 4 6 2 7 1 8 10 9 7 11
REMARK H PARENT 10 10 7 12
REMARK Flexibility Score: inf
ROOT
ATOM      1  C   UNL     1      -5.515  84.413  -9.615  1.00  0.00    -0.006 A 
ATOM      2  C   UNL     1      -4.509  85.069  -8.877  1.00  0.00     0.122 A 
ATOM      3  C   UNL     1      -3.345  84.376  -8.513  1.00  0.00     0.092 A 
ATOM      4  C   UNL     1      -3.179  83.034  -8.869  1.00  0.00     0.119 A 
ATOM      5  C   UNL     1      -4.184  82.377  -9.590  1.00  0.00     0.047 A 
ATOM      6  C   UNL     1      -5.346  83.061  -9.957  1.00  0.00     0.011 A 
ENDROOT
BRANCH   1   7
ATOM      7  C   UNL     1      -6.789  85.125  -9.993  1.00  0.00     0.036 C 
ATOM      8  C   UNL     1      -8.009  84.309  -9.575  1.00  0.00     0.009 C 
ENDBRANCH   1   7
BRANCH   2   9
ATOM      9  O   UNL     1      -4.670  86.404  -8.504  1.00  0.00    -0.508 OA
ATOM     10  H   UNL     1      -5.484  86.938  -8.783  1.00  0.00     0.293 HD
ENDBRANCH   2   9
BRANCH   4  11
ATOM     11  O   UNL     1      -2.016  82.363  -8.499  1.00  0.00    -0.508 OA
ATOM     12  H   UNL     1      -2.040  81.408  -8.162  1.00  0.00     0.293 HD
ENDBRANCH   4  11
TORSDOF 3
ENDMDL
