MODEL 1
REMARK VINA RESULT:    -4.450      0.000      0.000
REMARK INTER + INTRA:          -8.967
REMARK INTER:                  -8.352
REMARK INTRA:                  -0.615
REMARK UNBOUND:                -0.615
REMARK SMILES O=C([O-])CCCCCCCCCCCCCCC(=O)[O-]
REMARK SMILES IDX 10 1 9 2 8 3 7 4 6 5 5 6 4 7 2 8 1 9 3 10 11 11 12 12 13 13
REMARK SMILES IDX 14 14 15 15 16 16 17 17 18 18 19 19 20 20
REMARK H PARENT
REMARK Flexibility Score: inf
ROOT
ATOM      1  C   UNL     1      -6.258  19.394  14.968  1.00  0.00     0.000 C 
ENDROOT
BRANCH   1   2
ATOM      2  C   UNL     1      -5.126  19.533  13.937  1.00  0.00     0.000 C 
BRANCH   2   3
ATOM      3  C   UNL     1      -4.112  18.380  14.010  1.00  0.00     0.000 C 
BRANCH   3   4
ATOM      4  C   UNL     1      -3.002  18.560  12.967  1.00  0.00     0.000 C 
BRANCH   4   5
ATOM      5  C   UNL     1      -1.627  18.217  13.559  1.00  0.00     0.000 C 
BRANCH   5   6
ATOM      6  C   UNL     1      -0.886  17.121  12.772  1.00  0.00     0.006 C 
BRANCH   6   7
ATOM      7  C   UNL     1      -1.780  16.344  11.790  1.00  0.00     0.053 C 
BRANCH   7   8
ATOM      8  C   UNL     1      -1.983  14.918  12.202  1.00  0.00     0.041 C 
ATOM      9  O   UNL     1      -2.545  14.649  13.296  1.00  0.00    -0.550 OA
ATOM     10  O   UNL     1      -1.581  13.884  11.365  1.00  0.00    -0.550 OA
ENDBRANCH   7   8
ENDBRANCH   6   7
ENDBRANCH   5   6
ENDBRANCH   4   5
ENDBRANCH   3   4
ENDBRANCH   2   3
ENDBRANCH   1   2
BRANCH   1  11
ATOM     11  C   UNL     1      -7.102  20.674  15.095  1.00  0.00     0.000 C 
BRANCH  11  12
ATOM     12  C   UNL     1      -8.456  20.560  14.377  1.00  0.00     0.000 C 
BRANCH  12  13
ATOM     13  C   UNL     1      -9.227  21.891  14.358  1.00  0.00     0.000 C 
BRANCH  13  14
ATOM     14  C   UNL     1      -8.337  23.105  14.683  1.00  0.00     0.000 C 
BRANCH  14  15
ATOM     15  C   UNL     1      -8.409  24.257  13.662  1.00  0.00     0.000 C 
BRANCH  15  16
ATOM     16  C   UNL     1      -8.787  25.603  14.303  1.00  0.00     0.006 C 
BRANCH  16  17
ATOM     17  C   UNL     1      -8.041  26.779  13.660  1.00  0.00     0.053 C 
BRANCH  17  18
ATOM     18  C   UNL     1      -8.928  27.975  13.496  1.00  0.00     0.041 C 
ATOM     19  O   UNL     1      -9.870  27.955  12.661  1.00  0.00    -0.550 OA
ATOM     20  O   UNL     1      -8.692  29.125  14.238  1.00  0.00    -0.550 OA
ENDBRANCH  17  18
ENDBRANCH  16  17
ENDBRANCH  15  16
ENDBRANCH  14  15
ENDBRANCH  13  14
ENDBRANCH  12  13
ENDBRANCH  11  12
ENDBRANCH   1  11
TORSDOF 15
ENDMDL
MODEL 2
REMARK VINA RESULT:    -4.205      2.908      5.367
REMARK INTER + INTRA:          -8.508
REMARK INTER:                  -7.794
REMARK INTRA:                  -0.713
REMARK UNBOUND:                -0.615
REMARK SMILES O=C([O-])CCCCCCCCCCCCCCC(=O)[O-]
REMARK SMILES IDX 10 1 9 2 8 3 7 4 6 5 5 6 4 7 2 8 1 9 3 10 11 11 12 12 13 13
REMARK SMILES IDX 14 14 15 15 16 16 17 17 18 18 19 19 20 20
REMARK H PARENT
REMARK Flexibility Score: inf
ROOT
ATOM      1  C   UNL     1      -2.092  17.208  12.071  1.00  0.00     0.000 C 
ENDROOT
BRANCH   1   2
ATOM      2  C   UNL     1      -1.687  15.899  12.769  1.00  0.00     0.000 C 
BRANCH   2   3
ATOM      3  C   UNL     1      -1.038  14.891  11.808  1.00  0.00     0.000 C 
BRANCH   3   4
ATOM      4  C   UNL     1      -0.601  13.625  12.556  1.00  0.00     0.000 C 
BRANCH   4   5
ATOM      5  C   UNL     1      -1.285  12.379  11.976  1.00  0.00     0.000 C 
BRANCH   5   6
ATOM      6  C   UNL     1      -2.299  12.708  10.865  1.00  0.00     0.006 C 
BRANCH   6   7
ATOM      7  C   UNL     1      -3.725  12.207  11.153  1.00  0.00     0.053 C 
BRANCH   7   8
ATOM      8  C   UNL     1      -3.739  10.906  11.898  1.00  0.00     0.041 C 
ATOM      9  O   UNL     1      -4.177  10.857  13.077  1.00  0.00    -0.550 OA
ATOM     10  O   UNL     1      -3.299   9.742  11.281  1.00  0.00    -0.550 OA
ENDBRANCH   7   8
ENDBRANCH   6   7
ENDBRANCH   5   6
ENDBRANCH   4   5
ENDBRANCH   3   4
ENDBRANCH   2   3
ENDBRANCH   1   2
BRANCH   1  11
ATOM     11  C   UNL     1      -2.295  18.368  13.062  1.00  0.00     0.000 C 
BRANCH  11  12
ATOM     12  C   UNL     1      -3.780  18.675  13.313  1.00  0.00     0.000 C 
BRANCH  12  13
ATOM     13  C   UNL     1      -4.341  17.913  14.526  1.00  0.00     0.000 C 
BRANCH  13  14
ATOM     14  C   UNL     1      -5.643  18.529  15.072  1.00  0.00     0.000 C 
BRANCH  14  15
ATOM     15  C   UNL     1      -5.927  19.970  14.606  1.00  0.00     0.000 C 
BRANCH  15  16
ATOM     16  C   UNL     1      -7.322  20.469  15.018  1.00  0.00     0.006 C 
BRANCH  16  17
ATOM     17  C   UNL     1      -7.485  21.978  14.799  1.00  0.00     0.053 C 
BRANCH  17  18
ATOM     18  C   UNL     1      -8.867  22.326  14.336  1.00  0.00     0.041 C 
ATOM     19  O   UNL     1      -9.157  23.517  14.048  1.00  0.00    -0.550 OA
ATOM     20  O   UNL     1      -9.844  21.343  14.259  1.00  0.00    -0.550 OA
ENDBRANCH  17  18
ENDBRANCH  16  17
ENDBRANCH  15  16
ENDBRANCH  14  15
ENDBRANCH  13  14
ENDBRANCH  12  13
ENDBRANCH  11  12
ENDBRANCH   1  11
TORSDOF 15
ENDMDL
MODEL 3
REMARK VINA RESULT:    -3.930      6.354      9.024
REMARK INTER + INTRA:          -7.991
REMARK INTER:                  -5.888
REMARK INTRA:                  -2.102
REMARK UNBOUND:                -0.615
REMARK SMILES O=C([O-])CCCCCCCCCCCCCCC(=O)[O-]
REMARK SMILES IDX 10 1 9 2 8 3 7 4 6 5 5 6 4 7 2 8 1 9 3 10 11 11 12 12 13 13
REMARK SMILES IDX 14 14 15 15 16 16 17 17 18 18 19 19 20 20
REMARK H PARENT
REMARK Flexibility Score: inf
ROOT
ATOM      1  C   UNL     1      -3.589  13.500  13.690  1.00  0.00     0.000 C 
ENDROOT
BRANCH   1   2
ATOM      2  C   UNL     1      -4.206  12.093  13.629  1.00  0.00     0.000 C 
BRANCH   2   3
ATOM      3  C   UNL     1      -4.690  11.717  12.221  1.00  0.00     0.000 C 
BRANCH   3   4
ATOM      4  C   UNL     1      -4.105  10.369  11.781  1.00  0.00     0.000 C 
BRANCH   4   5
ATOM      5  C   UNL     1      -2.777  10.084  12.497  1.00  0.00     0.000 C 
BRANCH   5   6
ATOM      6  C   UNL     1      -1.557  10.166  11.562  1.00  0.00     0.006 C 
BRANCH   6   7
ATOM      7  C   UNL     1      -1.916  10.200  10.067  1.00  0.00     0.053 C 
BRANCH   7   8
ATOM      8  C   UNL     1      -1.213  11.300   9.331  1.00  0.00     0.041 C 
ATOM      9  O   UNL     1      -1.714  11.779   8.280  1.00  0.00    -0.550 OA
ATOM     10  O   UNL     1      -0.022  11.820   9.822  1.00  0.00    -0.550 OA
ENDBRANCH   7   8
ENDBRANCH   6   7
ENDBRANCH   5   6
ENDBRANCH   4   5
ENDBRANCH   3   4
ENDBRANCH   2   3
ENDBRANCH   1   2
BRANCH   1  11
ATOM     11  C   UNL     1      -2.070  13.471  13.935  1.00  0.00     0.000 C 
BRANCH  11  12
ATOM     12  C   UNL     1      -1.262  13.633  12.637  1.00  0.00     0.000 C 
BRANCH  12  13
ATOM     13  C   UNL     1      -2.087  14.268  11.505  1.00  0.00     0.000 C 
BRANCH  13  14
ATOM     14  C   UNL     1      -1.780  15.764  11.304  1.00  0.00     0.000 C 
BRANCH  14  15
ATOM     15  C   UNL     1      -0.600  16.303  12.134  1.00  0.00     0.000 C 
BRANCH  15  16
ATOM     16  C   UNL     1      -1.037  17.304  13.217  1.00  0.00     0.006 C 
BRANCH  16  17
ATOM     17  C   UNL     1      -2.134  18.253  12.719  1.00  0.00     0.053 C 
BRANCH  17  18
ATOM     18  C   UNL     1      -3.413  18.068  13.477  1.00  0.00     0.041 C 
ATOM     19  O   UNL     1      -4.364  18.880  13.323  1.00  0.00    -0.550 OA
ATOM     20  O   UNL     1      -3.543  17.021  14.380  1.00  0.00    -0.550 OA
ENDBRANCH  17  18
ENDBRANCH  16  17
ENDBRANCH  15  16
ENDBRANCH  14  15
ENDBRANCH  13  14
ENDBRANCH  12  13
ENDBRANCH  11  12
ENDBRANCH   1  11
TORSDOF 15
ENDMDL
MODEL 4
REMARK VINA RESULT:    -3.822      6.244      9.726
REMARK INTER + INTRA:          -7.789
REMARK INTER:                  -6.055
REMARK INTRA:                  -1.734
REMARK UNBOUND:                -0.615
REMARK SMILES O=C([O-])CCCCCCCCCCCCCCC(=O)[O-]
REMARK SMILES IDX 10 1 9 2 8 3 7 4 6 5 5 6 4 7 2 8 1 9 3 10 11 11 12 12 13 13
REMARK SMILES IDX 14 14 15 15 16 16 17 17 18 18 19 19 20 20
REMARK H PARENT
REMARK Flexibility Score: inf
ROOT
ATOM      1  C   UNL     1      -1.783  12.255   9.575  1.00  0.00     0.000 C 
ENDROOT
BRANCH   1   2
ATOM      2  C   UNL     1      -1.397  11.323   8.414  1.00  0.00     0.000 C 
BRANCH   2   3
ATOM      3  C   UNL     1      -0.750  10.015   8.894  1.00  0.00     0.000 C 
BRANCH   3   4
ATOM      4  C   UNL     1      -1.815   9.021   9.375  1.00  0.00     0.000 C 
BRANCH   4   5
ATOM      5  C   UNL     1      -1.782   8.875  10.903  1.00  0.00     0.000 C 
BRANCH   5   6
ATOM      6  C   UNL     1      -3.118   9.245  11.574  1.00  0.00     0.006 C 
BRANCH   6   7
ATOM      7  C   UNL     1      -2.984  10.277  12.707  1.00  0.00     0.053 C 
BRANCH   7   8
ATOM      8  C   UNL     1      -4.008  11.368  12.616  1.00  0.00     0.041 C 
ATOM      9  O   UNL     1      -4.246  12.097  13.614  1.00  0.00    -0.550 OA
ATOM     10  O   UNL     1      -4.675  11.602  11.420  1.00  0.00    -0.550 OA
ENDBRANCH   7   8
ENDBRANCH   6   7
ENDBRANCH   5   6
ENDBRANCH   4   5
ENDBRANCH   3   4
ENDBRANCH   2   3
ENDBRANCH   1   2
BRANCH   1  11
ATOM     11  C   UNL     1      -0.671  12.376  10.631  1.00  0.00     0.000 C 
BRANCH  11  12
ATOM     12  C   UNL     1      -0.990  13.431  11.702  1.00  0.00     0.000 C 
BRANCH  12  13
ATOM     13  C   UNL     1      -2.145  14.359  11.289  1.00  0.00     0.000 C 
BRANCH  13  14
ATOM     14  C   UNL     1      -1.752  15.849  11.301  1.00  0.00     0.000 C 
BRANCH  14  15
ATOM     15  C   UNL     1      -0.892  16.286  12.501  1.00  0.00     0.000 C 
BRANCH  15  16
ATOM     16  C   UNL     1      -1.296  17.662  13.058  1.00  0.00     0.006 C 
BRANCH  16  17
ATOM     17  C   UNL     1      -2.716  18.061  12.637  1.00  0.00     0.053 C 
BRANCH  17  18
ATOM     18  C   UNL     1      -3.654  18.087  13.805  1.00  0.00     0.041 C 
ATOM     19  O   UNL     1      -4.208  19.164  14.150  1.00  0.00    -0.550 OA
ATOM     20  O   UNL     1      -3.888  16.929  14.536  1.00  0.00    -0.550 OA
ENDBRANCH  17  18
ENDBRANCH  16  17
ENDBRANCH  15  16
ENDBRANCH  14  15
ENDBRANCH  13  14
ENDBRANCH  12  13
ENDBRANCH  11  12
ENDBRANCH   1  11
TORSDOF 15
ENDMDL
MODEL 5
REMARK VINA RESULT:    -3.772      6.217     10.946
REMARK INTER + INTRA:          -7.695
REMARK INTER:                  -5.354
REMARK INTRA:                  -2.341
REMARK UNBOUND:                -0.615
REMARK SMILES O=C([O-])CCCCCCCCCCCCCCC(=O)[O-]
REMARK SMILES IDX 10 1 9 2 8 3 7 4 6 5 5 6 4 7 2 8 1 9 3 10 11 11 12 12 13 13
REMARK SMILES IDX 14 14 15 15 16 16 17 17 18 18 19 19 20 20
REMARK H PARENT
REMARK Flexibility Score: inf
ROOT
ATOM      1  C   UNL     1      -2.147  14.308  11.338  1.00  0.00     0.000 C 
ENDROOT
BRANCH   1   2
ATOM      2  C   UNL     1      -1.780  15.801  11.367  1.00  0.00     0.000 C 
BRANCH   2   3
ATOM      3  C   UNL     1      -0.358  16.053  11.892  1.00  0.00     0.000 C 
BRANCH   3   4
ATOM      4  C   UNL     1      -0.387  16.919  13.157  1.00  0.00     0.000 C 
BRANCH   4   5
ATOM      5  C   UNL     1      -1.023  16.161  14.331  1.00  0.00     0.000 C 
BRANCH   5   6
ATOM      6  C   UNL     1      -2.046  17.005  15.113  1.00  0.00     0.006 C 
BRANCH   6   7
ATOM      7  C   UNL     1      -3.503  16.789  14.670  1.00  0.00     0.053 C 
BRANCH   7   8
ATOM      8  C   UNL     1      -4.114  18.023  14.079  1.00  0.00     0.041 C 
ATOM      9  O   UNL     1      -5.129  18.544  14.612  1.00  0.00    -0.550 OA
ATOM     10  O   UNL     1      -3.545  18.618  12.960  1.00  0.00    -0.550 OA
ENDBRANCH   7   8
ENDBRANCH   6   7
ENDBRANCH   5   6
ENDBRANCH   4   5
ENDBRANCH   3   4
ENDBRANCH   2   3
ENDBRANCH   1   2
BRANCH   1  11
ATOM     11  C   UNL     1      -0.909  13.395  11.311  1.00  0.00     0.000 C 
BRANCH  11  12
ATOM     12  C   UNL     1      -1.030  12.210  12.283  1.00  0.00     0.000 C 
BRANCH  12  13
ATOM     13  C   UNL     1      -0.705  12.603  13.734  1.00  0.00     0.000 C 
BRANCH  13  14
ATOM     14  C   UNL     1      -1.794  12.167  14.733  1.00  0.00     0.000 C 
BRANCH  14  15
ATOM     15  C   UNL     1      -3.136  12.911  14.598  1.00  0.00     0.000 C 
BRANCH  15  16
ATOM     16  C   UNL     1      -4.307  11.976  14.254  1.00  0.00     0.006 C 
BRANCH  16  17
ATOM     17  C   UNL     1      -4.751  12.119  12.792  1.00  0.00     0.053 C 
BRANCH  17  18
ATOM     18  C   UNL     1      -4.889  10.787  12.121  1.00  0.00     0.041 C 
ATOM     19  O   UNL     1      -3.912  10.284  11.505  1.00  0.00    -0.550 OA
ATOM     20  O   UNL     1      -6.106  10.118  12.143  1.00  0.00    -0.550 OA
ENDBRANCH  17  18
ENDBRANCH  16  17
ENDBRANCH  15  16
ENDBRANCH  14  15
ENDBRANCH  13  14
ENDBRANCH  12  13
ENDBRANCH  11  12
ENDBRANCH   1  11
TORSDOF 15
ENDMDL
MODEL 6
REMARK VINA RESULT:    -3.681     18.935     20.905
REMARK INTER + INTRA:          -7.524
REMARK INTER:                  -5.909
REMARK INTRA:                  -1.615
REMARK UNBOUND:                -0.615
REMARK SMILES O=C([O-])CCCCCCCCCCCCCCC(=O)[O-]
REMARK SMILES IDX 10 1 9 2 8 3 7 4 6 5 5 6 4 7 2 8 1 9 3 10 11 11 12 12 13 13
REMARK SMILES IDX 14 14 15 15 16 16 17 17 18 18 19 19 20 20
REMARK H PARENT
REMARK Flexibility Score: inf
ROOT
ATOM      1  C   UNL     1     -19.144  14.130   1.232  1.00  0.00     0.000 C 
ENDROOT
BRANCH   1   2
ATOM      2  C   UNL     1     -19.514  12.679   1.578  1.00  0.00     0.000 C 
BRANCH   2   3
ATOM      3  C   UNL     1     -19.027  11.674   0.522  1.00  0.00     0.000 C 
BRANCH   3   4
ATOM      4  C   UNL     1     -18.208  10.551   1.170  1.00  0.00     0.000 C 
BRANCH   4   5
ATOM      5  C   UNL     1     -18.392  10.543   2.694  1.00  0.00     0.000 C 
BRANCH   5   6
ATOM      6  C   UNL     1     -17.063  10.423   3.463  1.00  0.00     0.006 C 
BRANCH   6   7
ATOM      7  C   UNL     1     -16.729  11.651   4.327  1.00  0.00     0.053 C 
BRANCH   7   8
ATOM      8  C   UNL     1     -15.699  11.354   5.375  1.00  0.00     0.041 C 
ATOM      9  O   UNL     1     -15.940  11.600   6.586  1.00  0.00    -0.550 OA
ATOM     10  O   UNL     1     -14.487  10.775   5.020  1.00  0.00    -0.550 OA
ENDBRANCH   7   8
ENDBRANCH   6   7
ENDBRANCH   5   6
ENDBRANCH   4   5
ENDBRANCH   3   4
ENDBRANCH   2   3
ENDBRANCH   1   2
BRANCH   1  11
ATOM     11  C   UNL     1     -18.511  14.262  -0.165  1.00  0.00     0.000 C 
BRANCH  11  12
ATOM     12  C   UNL     1     -19.227  15.304  -1.039  1.00  0.00     0.000 C 
BRANCH  12  13
ATOM     13  C   UNL     1     -19.535  14.778  -2.451  1.00  0.00     0.000 C 
BRANCH  13  14
ATOM     14  C   UNL     1     -18.948  13.378  -2.711  1.00  0.00     0.000 C 
BRANCH  14  15
ATOM     15  C   UNL     1     -18.094  13.257  -3.987  1.00  0.00     0.000 C 
BRANCH  15  16
ATOM     16  C   UNL     1     -16.856  12.363  -3.797  1.00  0.00     0.006 C 
BRANCH  16  17
ATOM     17  C   UNL     1     -16.694  11.901  -2.343  1.00  0.00     0.053 C 
BRANCH  17  18
ATOM     18  C   UNL     1     -15.755  10.739  -2.232  1.00  0.00     0.041 C 
ATOM     19  O   UNL     1     -14.534  10.884  -2.504  1.00  0.00    -0.550 OA
ATOM     20  O   UNL     1     -16.234   9.489  -1.864  1.00  0.00    -0.550 OA
ENDBRANCH  17  18
ENDBRANCH  16  17
ENDBRANCH  15  16
ENDBRANCH  14  15
ENDBRANCH  13  14
ENDBRANCH  12  13
ENDBRANCH  11  12
ENDBRANCH   1  11
TORSDOF 15
ENDMDL
MODEL 7
REMARK VINA RESULT:    -3.639      6.400     11.847
REMARK INTER + INTRA:          -7.445
REMARK INTER:                  -5.870
REMARK INTRA:                  -1.574
REMARK UNBOUND:                -0.615
REMARK SMILES O=C([O-])CCCCCCCCCCCCCCC(=O)[O-]
REMARK SMILES IDX 10 1 9 2 8 3 7 4 6 5 5 6 4 7 2 8 1 9 3 10 11 11 12 12 13 13
REMARK SMILES IDX 14 14 15 15 16 16 17 17 18 18 19 19 20 20
REMARK H PARENT
REMARK Flexibility Score: inf
ROOT
ATOM      1  C   UNL     1      -1.374  12.508  10.092  1.00  0.00     0.000 C 
ENDROOT
BRANCH   1   2
ATOM      2  C   UNL     1      -2.590  13.280  10.630  1.00  0.00     0.000 C 
BRANCH   2   3
ATOM      3  C   UNL     1      -2.249  14.148  11.852  1.00  0.00     0.000 C 
BRANCH   3   4
ATOM      4  C   UNL     1      -1.620  15.478  11.420  1.00  0.00     0.000 C 
BRANCH   4   5
ATOM      5  C   UNL     1      -0.703  16.037  12.518  1.00  0.00     0.000 C 
BRANCH   5   6
ATOM      6  C   UNL     1      -1.093  17.458  12.966  1.00  0.00     0.006 C 
BRANCH   6   7
ATOM      7  C   UNL     1      -2.482  17.906  12.480  1.00  0.00     0.053 C 
BRANCH   7   8
ATOM      8  C   UNL     1      -3.492  17.948  13.586  1.00  0.00     0.041 C 
ATOM      9  O   UNL     1      -4.208  18.971  13.750  1.00  0.00    -0.550 OA
ATOM     10  O   UNL     1      -3.668  16.847  14.415  1.00  0.00    -0.550 OA
ENDBRANCH   7   8
ENDBRANCH   6   7
ENDBRANCH   5   6
ENDBRANCH   4   5
ENDBRANCH   3   4
ENDBRANCH   2   3
ENDBRANCH   1   2
BRANCH   1  11
ATOM     11  C   UNL     1      -1.745  11.536   8.958  1.00  0.00     0.000 C 
BRANCH  11  12
ATOM     12  C   UNL     1      -1.104  10.150   9.138  1.00  0.00     0.000 C 
BRANCH  12  13
ATOM     13  C   UNL     1      -1.959   9.215  10.010  1.00  0.00     0.000 C 
BRANCH  13  14
ATOM     14  C   UNL     1      -1.578   9.268  11.501  1.00  0.00     0.000 C 
BRANCH  14  15
ATOM     15  C   UNL     1      -2.737   9.602  12.458  1.00  0.00     0.000 C 
BRANCH  15  16
ATOM     16  C   UNL     1      -4.091   9.729  11.739  1.00  0.00     0.006 C 
BRANCH  16  17
ATOM     17  C   UNL     1      -4.863  10.980  12.176  1.00  0.00     0.053 C 
BRANCH  17  18
ATOM     18  C   UNL     1      -4.832  11.160  13.663  1.00  0.00     0.041 C 
ATOM     19  O   UNL     1      -5.413  10.333  14.413  1.00  0.00    -0.550 OA
ATOM     20  O   UNL     1      -4.193  12.261  14.218  1.00  0.00    -0.550 OA
ENDBRANCH  17  18
ENDBRANCH  16  17
ENDBRANCH  15  16
ENDBRANCH  14  15
ENDBRANCH  13  14
ENDBRANCH  12  13
ENDBRANCH  11  12
ENDBRANCH   1  11
TORSDOF 15
ENDMDL
MODEL 8
REMARK VINA RESULT:    -3.637     19.166     21.141
REMARK INTER + INTRA:          -7.441
REMARK INTER:                  -5.886
REMARK INTRA:                  -1.555
REMARK UNBOUND:                -0.615
REMARK SMILES O=C([O-])CCCCCCCCCCCCCCC(=O)[O-]
REMARK SMILES IDX 10 1 9 2 8 3 7 4 6 5 5 6 4 7 2 8 1 9 3 10 11 11 12 12 13 13
REMARK SMILES IDX 14 14 15 15 16 16 17 17 18 18 19 19 20 20
REMARK H PARENT
REMARK Flexibility Score: inf
ROOT
ATOM      1  C   UNL     1     -18.570  14.481  -0.242  1.00  0.00     0.000 C 
ENDROOT
BRANCH   1   2
ATOM      2  C   UNL     1     -19.040  15.768  -0.940  1.00  0.00     0.000 C 
BRANCH   2   3
ATOM      3  C   UNL     1     -19.904  15.488  -2.179  1.00  0.00     0.000 C 
BRANCH   3   4
ATOM      4  C   UNL     1     -19.694  14.055  -2.683  1.00  0.00     0.000 C 
BRANCH   4   5
ATOM      5  C   UNL     1     -19.144  14.049  -4.117  1.00  0.00     0.000 C 
BRANCH   5   6
ATOM      6  C   UNL     1     -17.826  13.266  -4.255  1.00  0.00     0.006 C 
BRANCH   6   7
ATOM      7  C   UNL     1     -17.650  12.149  -3.210  1.00  0.00     0.053 C 
BRANCH   7   8
ATOM      8  C   UNL     1     -16.212  11.790  -2.989  1.00  0.00     0.041 C 
ATOM      9  O   UNL     1     -15.870  11.163  -1.952  1.00  0.00    -0.550 OA
ATOM     10  O   UNL     1     -15.255  12.117  -3.941  1.00  0.00    -0.550 OA
ENDBRANCH   7   8
ENDBRANCH   6   7
ENDBRANCH   5   6
ENDBRANCH   4   5
ENDBRANCH   3   4
ENDBRANCH   2   3
ENDBRANCH   1   2
BRANCH   1  11
ATOM     11  C   UNL     1     -19.375  14.173   1.033  1.00  0.00     0.000 C 
BRANCH  11  12
ATOM     12  C   UNL     1     -19.754  12.687   1.145  1.00  0.00     0.000 C 
BRANCH  12  13
ATOM     13  C   UNL     1     -18.897  11.791   0.235  1.00  0.00     0.000 C 
BRANCH  13  14
ATOM     14  C   UNL     1     -18.273  10.598   0.984  1.00  0.00     0.000 C 
BRANCH  14  15
ATOM     15  C   UNL     1     -18.453  10.623   2.513  1.00  0.00     0.000 C 
BRANCH  15  16
ATOM     16  C   UNL     1     -17.142  10.364   3.275  1.00  0.00     0.006 C 
BRANCH  16  17
ATOM     17  C   UNL     1     -16.816  11.490   4.265  1.00  0.00     0.053 C 
BRANCH  17  18
ATOM     18  C   UNL     1     -15.543  11.223   5.009  1.00  0.00     0.041 C 
ATOM     19  O   UNL     1     -14.705  10.400   4.556  1.00  0.00    -0.550 OA
ATOM     20  O   UNL     1     -15.300  11.854   6.222  1.00  0.00    -0.550 OA
ENDBRANCH  17  18
ENDBRANCH  16  17
ENDBRANCH  15  16
ENDBRANCH  14  15
ENDBRANCH  13  14
ENDBRANCH  12  13
ENDBRANCH  11  12
ENDBRANCH   1  11
TORSDOF 15
ENDMDL
MODEL 9
REMARK VINA RESULT:    -3.619     18.245     20.326
REMARK INTER + INTRA:          -7.408
REMARK INTER:                  -5.961
REMARK INTRA:                  -1.446
REMARK UNBOUND:                -0.615
REMARK SMILES O=C([O-])CCCCCCCCCCCCCCC(=O)[O-]
REMARK SMILES IDX 10 1 9 2 8 3 7 4 6 5 5 6 4 7 2 8 1 9 3 10 11 11 12 12 13 13
REMARK SMILES IDX 14 14 15 15 16 16 17 17 18 18 19 19 20 20
REMARK H PARENT
REMARK Flexibility Score: inf
ROOT
ATOM      1  C   UNL     1     -19.011  14.131   1.070  1.00  0.00     0.000 C 
ENDROOT
BRANCH   1   2
ATOM      2  C   UNL     1     -18.583  14.459  -0.370  1.00  0.00     0.000 C 
BRANCH   2   3
ATOM      3  C   UNL     1     -19.313  13.603  -1.416  1.00  0.00     0.000 C 
BRANCH   3   4
ATOM      4  C   UNL     1     -18.313  12.869  -2.318  1.00  0.00     0.000 C 
BRANCH   4   5
ATOM      5  C   UNL     1     -18.199  11.389  -1.926  1.00  0.00     0.000 C 
BRANCH   5   6
ATOM      6  C   UNL     1     -16.752  10.951  -1.632  1.00  0.00     0.006 C 
BRANCH   6   7
ATOM      7  C   UNL     1     -15.696  11.672  -2.487  1.00  0.00     0.053 C 
BRANCH   7   8
ATOM      8  C   UNL     1     -14.509  10.808  -2.786  1.00  0.00     0.041 C 
ATOM      9  O   UNL     1     -14.097   9.981  -1.930  1.00  0.00    -0.550 OA
ATOM     10  O   UNL     1     -13.878  10.889  -4.020  1.00  0.00    -0.550 OA
ENDBRANCH   7   8
ENDBRANCH   6   7
ENDBRANCH   5   6
ENDBRANCH   4   5
ENDBRANCH   3   4
ENDBRANCH   2   3
ENDBRANCH   1   2
BRANCH   1  11
ATOM     11  C   UNL     1     -19.734  12.777   1.177  1.00  0.00     0.000 C 
BRANCH  11  12
ATOM     12  C   UNL     1     -19.159  11.890   2.293  1.00  0.00     0.000 C 
BRANCH  12  13
ATOM     13  C   UNL     1     -18.267  10.762   1.748  1.00  0.00     0.000 C 
BRANCH  13  14
ATOM     14  C   UNL     1     -17.360  10.139   2.826  1.00  0.00     0.000 C 
BRANCH  14  15
ATOM     15  C   UNL     1     -17.375  10.861   4.186  1.00  0.00     0.000 C 
BRANCH  15  16
ATOM     16  C   UNL     1     -15.975  11.300   4.647  1.00  0.00     0.006 C 
BRANCH  16  17
ATOM     17  C   UNL     1     -14.909  10.239   4.346  1.00  0.00     0.053 C 
BRANCH  17  18
ATOM     18  C   UNL     1     -13.658  10.469   5.139  1.00  0.00     0.041 C 
ATOM     19  O   UNL     1     -12.530  10.275   4.613  1.00  0.00    -0.550 OA
ATOM     20  O   UNL     1     -13.738  10.862   6.468  1.00  0.00    -0.550 OA
ENDBRANCH  17  18
ENDBRANCH  16  17
ENDBRANCH  15  16
ENDBRANCH  14  15
ENDBRANCH  13  14
ENDBRANCH  12  13
ENDBRANCH  11  12
ENDBRANCH   1  11
TORSDOF 15
ENDMDL
