MODEL 1
REMARK VINA RESULT:    -4.509      0.000      0.000
REMARK INTER + INTRA:         -10.089
REMARK INTER:                  -8.199
REMARK INTRA:                  -1.890
REMARK UNBOUND:                -1.890
REMARK SMILES CCCCCCCCCCCCCCCC(=O)[O-]
REMARK SMILES IDX 9 1 10 2 11 3 12 4 13 5 14 6 15 7 16 8 17 9 18 10 8 11 7 12
REMARK SMILES IDX 6 13 5 14 4 15 3 16 2 17 1 18
REMARK H PARENT
REMARK Flexibility Score: inf
ROOT
ATOM      1  C   UNL     1      15.521 -35.025  21.572  1.00  0.00     0.000 C 
ENDROOT
BRANCH   1   2
ATOM      2  C   UNL     1      15.023 -33.767  20.839  1.00  0.00     0.000 C 
BRANCH   2   3
ATOM      3  C   UNL     1      14.286 -32.790  21.770  1.00  0.00     0.000 C 
BRANCH   3   4
ATOM      4  C   UNL     1      14.593 -33.039  23.258  1.00  0.00     0.000 C 
BRANCH   4   5
ATOM      5  C   UNL     1      13.819 -32.083  24.192  1.00  0.00     0.000 C 
BRANCH   5   6
ATOM      6  C   UNL     1      13.231 -30.851  23.477  1.00  0.00     0.006 C 
BRANCH   6   7
ATOM      7  C   UNL     1      13.405 -29.536  24.263  1.00  0.00     0.053 C 
BRANCH   7   8
ATOM      8  C   UNL     1      12.131 -28.746  24.320  1.00  0.00     0.041 C 
ATOM      9  O   UNL     1      11.969 -27.860  25.201  1.00  0.00    -0.550 OA
ATOM     10  O   UNL     1      11.132 -28.970  23.379  1.00  0.00    -0.550 OA
ENDBRANCH   7   8
ENDBRANCH   6   7
ENDBRANCH   5   6
ENDBRANCH   4   5
ENDBRANCH   3   4
ENDBRANCH   2   3
ENDBRANCH   1   2
BRANCH   1  11
ATOM     11  C   UNL     1      16.792 -35.608  20.932  1.00  0.00     0.000 C 
BRANCH  11  12
ATOM     12  C   UNL     1      16.853 -35.367  19.416  1.00  0.00    -0.000 C 
BRANCH  12  13
ATOM     13  C   UNL     1      17.881 -34.278  19.075  1.00  0.00    -0.000 C 
BRANCH  13  14
ATOM     14  C   UNL     1      18.910 -34.041  20.198  1.00  0.00    -0.000 C 
BRANCH  14  15
ATOM     15  C   UNL     1      19.082 -32.566  20.614  1.00  0.00    -0.000 C 
BRANCH  15  16
ATOM     16  C   UNL     1      18.160 -32.139  21.781  1.00  0.00    -0.000 C 
BRANCH  16  17
ATOM     17  C   UNL     1      17.485 -30.773  21.559  1.00  0.00    -0.003 C 
ATOM     18  C   UNL     1      16.894 -30.187  22.841  1.00  0.00     0.004 C 
ENDBRANCH  16  17
ENDBRANCH  15  16
ENDBRANCH  14  15
ENDBRANCH  13  14
ENDBRANCH  12  13
ENDBRANCH  11  12
ENDBRANCH   1  11
TORSDOF 14
ENDMDL
MODEL 2
REMARK VINA RESULT:    -4.457      1.343      3.428
REMARK INTER + INTRA:          -9.996
REMARK INTER:                  -7.691
REMARK INTRA:                  -2.305
REMARK UNBOUND:                -1.890
REMARK SMILES CCCCCCCCCCCCCCCC(=O)[O-]
REMARK SMILES IDX 9 1 10 2 11 3 12 4 13 5 14 6 15 7 16 8 17 9 18 10 8 11 7 12
REMARK SMILES IDX 6 13 5 14 4 15 3 16 2 17 1 18
REMARK H PARENT
REMARK Flexibility Score: inf
ROOT
ATOM      1  C   UNL     1      19.843 -33.390  20.455  1.00  0.00     0.000 C 
ENDROOT
BRANCH   1   2
ATOM      2  C   UNL     1      18.634 -32.536  20.871  1.00  0.00     0.000 C 
BRANCH   2   3
ATOM      3  C   UNL     1      18.575 -32.287  22.387  1.00  0.00     0.000 C 
BRANCH   3   4
ATOM      4  C   UNL     1      17.559 -31.194  22.772  1.00  0.00     0.000 C 
BRANCH   4   5
ATOM      5  C   UNL     1      16.695 -30.739  21.576  1.00  0.00     0.000 C 
BRANCH   5   6
ATOM      6  C   UNL     1      15.315 -30.184  21.977  1.00  0.00     0.006 C 
BRANCH   6   7
ATOM      7  C   UNL     1      15.032 -30.261  23.491  1.00  0.00     0.053 C 
BRANCH   7   8
ATOM      8  C   UNL     1      13.565 -30.379  23.779  1.00  0.00     0.041 C 
ATOM      9  O   UNL     1      12.890 -31.320  23.281  1.00  0.00    -0.550 OA
ATOM     10  O   UNL     1      12.947 -29.465  24.625  1.00  0.00    -0.550 OA
ENDBRANCH   7   8
ENDBRANCH   6   7
ENDBRANCH   5   6
ENDBRANCH   4   5
ENDBRANCH   3   4
ENDBRANCH   2   3
ENDBRANCH   1   2
BRANCH   1  11
ATOM     11  C   UNL     1      19.449 -34.544  19.518  1.00  0.00     0.000 C 
BRANCH  11  12
ATOM     12  C   UNL     1      17.973 -34.483  19.097  1.00  0.00    -0.000 C 
BRANCH  12  13
ATOM     13  C   UNL     1      17.242 -35.781  19.473  1.00  0.00    -0.000 C 
BRANCH  13  14
ATOM     14  C   UNL     1      17.630 -36.315  20.865  1.00  0.00    -0.000 C 
BRANCH  14  15
ATOM     15  C   UNL     1      16.936 -35.603  22.045  1.00  0.00    -0.000 C 
BRANCH  15  16
ATOM     16  C   UNL     1      15.614 -34.902  21.655  1.00  0.00    -0.000 C 
BRANCH  16  17
ATOM     17  C   UNL     1      15.088 -33.943  22.738  1.00  0.00    -0.003 C 
ATOM     18  C   UNL     1      15.725 -34.185  24.107  1.00  0.00     0.004 C 
ENDBRANCH  16  17
ENDBRANCH  15  16
ENDBRANCH  14  15
ENDBRANCH  13  14
ENDBRANCH  12  13
ENDBRANCH  11  12
ENDBRANCH   1  11
TORSDOF 14
ENDMDL
MODEL 3
REMARK VINA RESULT:    -4.456      1.820      3.740
REMARK INTER + INTRA:          -9.993
REMARK INTER:                  -7.804
REMARK INTRA:                  -2.189
REMARK UNBOUND:                -1.890
REMARK SMILES CCCCCCCCCCCCCCCC(=O)[O-]
REMARK SMILES IDX 9 1 10 2 11 3 12 4 13 5 14 6 15 7 16 8 17 9 18 10 8 11 7 12
REMARK SMILES IDX 6 13 5 14 4 15 3 16 2 17 1 18
REMARK H PARENT
REMARK Flexibility Score: inf
ROOT
ATOM      1  C   UNL     1      18.778 -34.209  19.577  1.00  0.00     0.000 C 
ENDROOT
BRANCH   1   2
ATOM      2  C   UNL     1      17.300 -34.435  19.216  1.00  0.00     0.000 C 
BRANCH   2   3
ATOM      3  C   UNL     1      16.707 -35.683  19.890  1.00  0.00     0.000 C 
BRANCH   3   4
ATOM      4  C   UNL     1      15.422 -35.378  20.682  1.00  0.00     0.000 C 
BRANCH   4   5
ATOM      5  C   UNL     1      14.821 -33.999  20.330  1.00  0.00     0.000 C 
BRANCH   5   6
ATOM      6  C   UNL     1      14.424 -33.159  21.558  1.00  0.00     0.006 C 
BRANCH   6   7
ATOM      7  C   UNL     1      13.768 -31.810  21.202  1.00  0.00     0.053 C 
BRANCH   7   8
ATOM      8  C   UNL     1      12.762 -31.388  22.231  1.00  0.00     0.041 C 
ATOM      9  O   UNL     1      13.088 -31.306  23.445  1.00  0.00    -0.550 OA
ATOM     10  O   UNL     1      11.468 -31.057  21.843  1.00  0.00    -0.550 OA
ENDBRANCH   7   8
ENDBRANCH   6   7
ENDBRANCH   5   6
ENDBRANCH   4   5
ENDBRANCH   3   4
ENDBRANCH   2   3
ENDBRANCH   1   2
BRANCH   1  11
ATOM     11  C   UNL     1      18.952 -33.181  20.708  1.00  0.00     0.000 C 
BRANCH  11  12
ATOM     12  C   UNL     1      17.884 -32.077  20.671  1.00  0.00    -0.000 C 
BRANCH  12  13
ATOM     13  C   UNL     1      18.270 -30.910  21.593  1.00  0.00    -0.000 C 
BRANCH  13  14
ATOM     14  C   UNL     1      17.054 -30.239  22.263  1.00  0.00    -0.000 C 
BRANCH  14  15
ATOM     15  C   UNL     1      16.612 -30.886  23.591  1.00  0.00    -0.000 C 
BRANCH  15  16
ATOM     16  C   UNL     1      17.789 -31.247  24.528  1.00  0.00    -0.000 C 
BRANCH  16  17
ATOM     17  C   UNL     1      17.917 -32.757  24.796  1.00  0.00    -0.003 C 
ATOM     18  C   UNL     1      16.786 -33.571  24.166  1.00  0.00     0.004 C 
ENDBRANCH  16  17
ENDBRANCH  15  16
ENDBRANCH  14  15
ENDBRANCH  13  14
ENDBRANCH  12  13
ENDBRANCH  11  12
ENDBRANCH   1  11
TORSDOF 14
ENDMDL
MODEL 4
REMARK VINA RESULT:    -4.447      4.274      7.162
REMARK INTER + INTRA:          -9.976
REMARK INTER:                  -8.422
REMARK INTRA:                  -1.555
REMARK UNBOUND:                -1.890
REMARK SMILES CCCCCCCCCCCCCCCC(=O)[O-]
REMARK SMILES IDX 9 1 10 2 11 3 12 4 13 5 14 6 15 7 16 8 17 9 18 10 8 11 7 12
REMARK SMILES IDX 6 13 5 14 4 15 3 16 2 17 1 18
REMARK H PARENT
REMARK Flexibility Score: inf
ROOT
ATOM      1  C   UNL     1      16.348 -31.737  21.205  1.00  0.00     0.000 C 
ENDROOT
BRANCH   1   2
ATOM      2  C   UNL     1      17.857 -31.802  20.914  1.00  0.00     0.000 C 
BRANCH   2   3
ATOM      3  C   UNL     1      18.474 -33.162  21.278  1.00  0.00     0.000 C 
BRANCH   3   4
ATOM      4  C   UNL     1      19.503 -33.647  20.239  1.00  0.00     0.000 C 
BRANCH   4   5
ATOM      5  C   UNL     1      19.128 -35.013  19.625  1.00  0.00     0.000 C 
BRANCH   5   6
ATOM      6  C   UNL     1      17.670 -35.099  19.134  1.00  0.00     0.006 C 
BRANCH   6   7
ATOM      7  C   UNL     1      16.853 -36.219  19.809  1.00  0.00     0.053 C 
BRANCH   7   8
ATOM      8  C   UNL     1      17.505 -37.560  19.648  1.00  0.00     0.041 C 
ATOM      9  O   UNL     1      17.855 -38.225  20.660  1.00  0.00    -0.550 OA
ATOM     10  O   UNL     1      17.698 -38.091  18.377  1.00  0.00    -0.550 OA
ENDBRANCH   7   8
ENDBRANCH   6   7
ENDBRANCH   5   6
ENDBRANCH   4   5
ENDBRANCH   3   4
ENDBRANCH   2   3
ENDBRANCH   1   2
BRANCH   1  11
ATOM     11  C   UNL     1      15.712 -33.133  21.309  1.00  0.00     0.000 C 
BRANCH  11  12
ATOM     12  C   UNL     1      14.241 -33.145  20.865  1.00  0.00    -0.000 C 
BRANCH  12  13
ATOM     13  C   UNL     1      13.659 -31.723  20.854  1.00  0.00    -0.000 C 
BRANCH  13  14
ATOM     14  C   UNL     1      12.610 -31.489  21.959  1.00  0.00    -0.000 C 
BRANCH  14  15
ATOM     15  C   UNL     1      12.842 -30.222  22.809  1.00  0.00    -0.000 C 
BRANCH  15  16
ATOM     16  C   UNL     1      13.363 -30.519  24.235  1.00  0.00    -0.000 C 
BRANCH  16  17
ATOM     17  C   UNL     1      14.503 -31.552  24.267  1.00  0.00    -0.003 C 
ATOM     18  C   UNL     1      14.035 -32.941  24.705  1.00  0.00     0.004 C 
ENDBRANCH  16  17
ENDBRANCH  15  16
ENDBRANCH  14  15
ENDBRANCH  13  14
ENDBRANCH  12  13
ENDBRANCH  11  12
ENDBRANCH   1  11
TORSDOF 14
ENDMDL
MODEL 5
REMARK VINA RESULT:    -4.405      1.937      3.800
REMARK INTER + INTRA:          -9.901
REMARK INTER:                  -7.511
REMARK INTRA:                  -2.390
REMARK UNBOUND:                -1.890
REMARK SMILES CCCCCCCCCCCCCCCC(=O)[O-]
REMARK SMILES IDX 9 1 10 2 11 3 12 4 13 5 14 6 15 7 16 8 17 9 18 10 8 11 7 12
REMARK SMILES IDX 6 13 5 14 4 15 3 16 2 17 1 18
REMARK H PARENT
REMARK Flexibility Score: inf
ROOT
ATOM      1  C   UNL     1      19.823 -33.631  20.571  1.00  0.00     0.000 C 
ENDROOT
BRANCH   1   2
ATOM      2  C   UNL     1      18.970 -32.380  20.840  1.00  0.00     0.000 C 
BRANCH   2   3
ATOM      3  C   UNL     1      18.719 -32.142  22.338  1.00  0.00     0.000 C 
BRANCH   3   4
ATOM      4  C   UNL     1      17.329 -31.542  22.622  1.00  0.00     0.000 C 
BRANCH   4   5
ATOM      5  C   UNL     1      16.465 -31.418  21.347  1.00  0.00     0.000 C 
BRANCH   5   6
ATOM      6  C   UNL     1      15.054 -30.856  21.602  1.00  0.00     0.006 C 
BRANCH   6   7
ATOM      7  C   UNL     1      14.044 -31.913  22.091  1.00  0.00     0.053 C 
BRANCH   7   8
ATOM      8  C   UNL     1      13.659 -31.697  23.524  1.00  0.00     0.041 C 
ATOM      9  O   UNL     1      13.128 -30.613  23.886  1.00  0.00    -0.550 OA
ATOM     10  O   UNL     1      13.860 -32.708  24.457  1.00  0.00    -0.550 OA
ENDBRANCH   7   8
ENDBRANCH   6   7
ENDBRANCH   5   6
ENDBRANCH   4   5
ENDBRANCH   3   4
ENDBRANCH   2   3
ENDBRANCH   1   2
BRANCH   1  11
ATOM     11  C   UNL     1      19.204 -34.541  19.497  1.00  0.00     0.000 C 
BRANCH  11  12
ATOM     12  C   UNL     1      17.720 -34.233  19.248  1.00  0.00    -0.000 C 
BRANCH  12  13
ATOM     13  C   UNL     1      16.867 -35.504  19.378  1.00  0.00    -0.000 C 
BRANCH  13  14
ATOM     14  C   UNL     1      15.742 -35.375  20.423  1.00  0.00    -0.000 C 
BRANCH  14  15
ATOM     15  C   UNL     1      16.216 -34.966  21.833  1.00  0.00    -0.000 C 
BRANCH  15  16
ATOM     16  C   UNL     1      17.285 -35.914  22.427  1.00  0.00    -0.000 C 
BRANCH  16  17
ATOM     17  C   UNL     1      17.885 -35.406  23.751  1.00  0.00    -0.003 C 
ATOM     18  C   UNL     1      16.837 -35.234  24.851  1.00  0.00     0.004 C 
ENDBRANCH  16  17
ENDBRANCH  15  16
ENDBRANCH  14  15
ENDBRANCH  13  14
ENDBRANCH  12  13
ENDBRANCH  11  12
ENDBRANCH   1  11
TORSDOF 14
ENDMDL
MODEL 6
REMARK VINA RESULT:    -4.357      1.551      2.224
REMARK INTER + INTRA:          -9.813
REMARK INTER:                  -7.285
REMARK INTRA:                  -2.527
REMARK UNBOUND:                -1.890
REMARK SMILES CCCCCCCCCCCCCCCC(=O)[O-]
REMARK SMILES IDX 9 1 10 2 11 3 12 4 13 5 14 6 15 7 16 8 17 9 18 10 8 11 7 12
REMARK SMILES IDX 6 13 5 14 4 15 3 16 2 17 1 18
REMARK H PARENT
REMARK Flexibility Score: inf
ROOT
ATOM      1  C   UNL     1      15.813 -34.534  20.048  1.00  0.00     0.000 C 
ENDROOT
BRANCH   1   2
ATOM      2  C   UNL     1      15.422 -35.007  21.458  1.00  0.00     0.000 C 
BRANCH   2   3
ATOM      3  C   UNL     1      16.629 -35.124  22.403  1.00  0.00     0.000 C 
BRANCH   3   4
ATOM      4  C   UNL     1      16.323 -34.619  23.826  1.00  0.00     0.000 C 
BRANCH   4   5
ATOM      5  C   UNL     1      14.839 -34.231  24.012  1.00  0.00     0.000 C 
BRANCH   5   6
ATOM      6  C   UNL     1      14.620 -32.747  24.363  1.00  0.00     0.006 C 
BRANCH   6   7
ATOM      7  C   UNL     1      14.059 -31.910  23.196  1.00  0.00     0.053 C 
BRANCH   7   8
ATOM      8  C   UNL     1      13.948 -30.458  23.553  1.00  0.00     0.041 C 
ATOM      9  O   UNL     1      14.970 -29.720  23.549  1.00  0.00    -0.550 OA
ATOM     10  O   UNL     1      12.708 -29.910  23.862  1.00  0.00    -0.550 OA
ENDBRANCH   7   8
ENDBRANCH   6   7
ENDBRANCH   5   6
ENDBRANCH   4   5
ENDBRANCH   3   4
ENDBRANCH   2   3
ENDBRANCH   1   2
BRANCH   1  11
ATOM     11  C   UNL     1      17.081 -35.232  19.529  1.00  0.00     0.000 C 
BRANCH  11  12
ATOM     12  C   UNL     1      18.153 -34.237  19.061  1.00  0.00    -0.000 C 
BRANCH  12  13
ATOM     13  C   UNL     1      19.333 -34.199  20.045  1.00  0.00    -0.000 C 
BRANCH  13  14
ATOM     14  C   UNL     1      19.471 -32.848  20.775  1.00  0.00    -0.000 C 
BRANCH  14  15
ATOM     15  C   UNL     1      18.240 -31.926  20.663  1.00  0.00    -0.000 C 
BRANCH  15  16
ATOM     16  C   UNL     1      17.584 -31.598  22.025  1.00  0.00    -0.000 C 
BRANCH  16  17
ATOM     17  C   UNL     1      18.529 -31.803  23.223  1.00  0.00    -0.003 C 
ATOM     18  C   UNL     1      17.938 -31.298  24.540  1.00  0.00     0.004 C 
ENDBRANCH  16  17
ENDBRANCH  15  16
ENDBRANCH  14  15
ENDBRANCH  13  14
ENDBRANCH  12  13
ENDBRANCH  11  12
ENDBRANCH   1  11
TORSDOF 14
ENDMDL
MODEL 7
REMARK VINA RESULT:    -4.315      3.060      4.657
REMARK INTER + INTRA:          -9.737
REMARK INTER:                  -7.354
REMARK INTRA:                  -2.383
REMARK UNBOUND:                -1.890
REMARK SMILES CCCCCCCCCCCCCCCC(=O)[O-]
REMARK SMILES IDX 9 1 10 2 11 3 12 4 13 5 14 6 15 7 16 8 17 9 18 10 8 11 7 12
REMARK SMILES IDX 6 13 5 14 4 15 3 16 2 17 1 18
REMARK H PARENT
REMARK Flexibility Score: inf
ROOT
ATOM      1  C   UNL     1      16.472 -34.444  19.355  1.00  0.00     0.000 C 
ENDROOT
BRANCH   1   2
ATOM      2  C   UNL     1      15.416 -34.961  20.347  1.00  0.00     0.000 C 
BRANCH   2   3
ATOM      3  C   UNL     1      14.984 -33.895  21.367  1.00  0.00     0.000 C 
BRANCH   3   4
ATOM      4  C   UNL     1      14.025 -32.851  20.766  1.00  0.00     0.000 C 
BRANCH   4   5
ATOM      5  C   UNL     1      14.188 -31.456  21.408  1.00  0.00     0.000 C 
BRANCH   5   6
ATOM      6  C   UNL     1      15.655 -31.026  21.605  1.00  0.00     0.006 C 
BRANCH   6   7
ATOM      7  C   UNL     1      16.057 -30.853  23.084  1.00  0.00     0.053 C 
BRANCH   7   8
ATOM      8  C   UNL     1      17.245 -31.695  23.441  1.00  0.00     0.041 C 
ATOM      9  O   UNL     1      17.150 -32.592  24.321  1.00  0.00    -0.550 OA
ATOM     10  O   UNL     1      18.455 -31.508  22.780  1.00  0.00    -0.550 OA
ENDBRANCH   7   8
ENDBRANCH   6   7
ENDBRANCH   5   6
ENDBRANCH   4   5
ENDBRANCH   3   4
ENDBRANCH   2   3
ENDBRANCH   1   2
BRANCH   1  11
ATOM     11  C   UNL     1      17.628 -33.714  20.060  1.00  0.00     0.000 C 
BRANCH  11  12
ATOM     12  C   UNL     1      19.000 -34.312  19.716  1.00  0.00    -0.000 C 
BRANCH  12  13
ATOM     13  C   UNL     1      19.675 -34.891  20.969  1.00  0.00    -0.000 C 
BRANCH  13  14
ATOM     14  C   UNL     1      18.716 -35.027  22.168  1.00  0.00    -0.000 C 
BRANCH  14  15
ATOM     15  C   UNL     1      18.143 -36.443  22.377  1.00  0.00    -0.000 C 
BRANCH  15  16
ATOM     16  C   UNL     1      18.699 -37.491  21.385  1.00  0.00    -0.000 C 
BRANCH  16  17
ATOM     17  C   UNL     1      17.636 -38.042  20.417  1.00  0.00    -0.003 C 
ATOM     18  C   UNL     1      18.007 -37.837  18.948  1.00  0.00     0.004 C 
ENDBRANCH  16  17
ENDBRANCH  15  16
ENDBRANCH  14  15
ENDBRANCH  13  14
ENDBRANCH  12  13
ENDBRANCH  11  12
ENDBRANCH   1  11
TORSDOF 14
ENDMDL
MODEL 8
REMARK VINA RESULT:    -4.287      1.799      2.760
REMARK INTER + INTRA:          -9.686
REMARK INTER:                  -7.486
REMARK INTRA:                  -2.200
REMARK UNBOUND:                -1.890
REMARK SMILES CCCCCCCCCCCCCCCC(=O)[O-]
REMARK SMILES IDX 9 1 10 2 11 3 12 4 13 5 14 6 15 7 16 8 17 9 18 10 8 11 7 12
REMARK SMILES IDX 6 13 5 14 4 15 3 16 2 17 1 18
REMARK H PARENT
REMARK Flexibility Score: inf
ROOT
ATOM      1  C   UNL     1      16.875 -35.371  22.581  1.00  0.00     0.000 C 
ENDROOT
BRANCH   1   2
ATOM      2  C   UNL     1      17.527 -34.607  23.746  1.00  0.00     0.000 C 
BRANCH   2   3
ATOM      3  C   UNL     1      16.684 -33.412  24.219  1.00  0.00     0.000 C 
BRANCH   3   4
ATOM      4  C   UNL     1      17.480 -32.093  24.239  1.00  0.00     0.000 C 
BRANCH   4   5
ATOM      5  C   UNL     1      16.615 -30.871  23.860  1.00  0.00     0.000 C 
BRANCH   5   6
ATOM      6  C   UNL     1      15.894 -31.011  22.506  1.00  0.00     0.006 C 
BRANCH   6   7
ATOM      7  C   UNL     1      14.478 -30.402  22.490  1.00  0.00     0.053 C 
BRANCH   7   8
ATOM      8  C   UNL     1      13.668 -30.841  23.672  1.00  0.00     0.041 C 
ATOM      9  O   UNL     1      13.218 -29.993  24.488  1.00  0.00    -0.550 OA
ATOM     10  O   UNL     1      13.382 -32.189  23.857  1.00  0.00    -0.550 OA
ENDBRANCH   7   8
ENDBRANCH   6   7
ENDBRANCH   5   6
ENDBRANCH   4   5
ENDBRANCH   3   4
ENDBRANCH   2   3
ENDBRANCH   1   2
BRANCH   1  11
ATOM     11  C   UNL     1      15.711 -34.591  21.949  1.00  0.00     0.000 C 
BRANCH  11  12
ATOM     12  C   UNL     1      15.426 -35.024  20.503  1.00  0.00    -0.000 C 
BRANCH  12  13
ATOM     13  C   UNL     1      16.655 -35.708  19.884  1.00  0.00    -0.000 C 
BRANCH  13  14
ATOM     14  C   UNL     1      17.646 -34.715  19.247  1.00  0.00    -0.000 C 
BRANCH  14  15
ATOM     15  C   UNL     1      19.113 -34.893  19.692  1.00  0.00    -0.000 C 
BRANCH  15  16
ATOM     16  C   UNL     1      19.805 -33.569  20.094  1.00  0.00    -0.000 C 
BRANCH  16  17
ATOM     17  C   UNL     1      18.900 -32.630  20.911  1.00  0.00    -0.003 C 
ATOM     18  C   UNL     1      19.566 -31.290  21.228  1.00  0.00     0.004 C 
ENDBRANCH  16  17
ENDBRANCH  15  16
ENDBRANCH  14  15
ENDBRANCH  13  14
ENDBRANCH  12  13
ENDBRANCH  11  12
ENDBRANCH   1  11
TORSDOF 14
ENDMDL
MODEL 9
REMARK VINA RESULT:    -4.209      3.789      6.360
REMARK INTER + INTRA:          -9.544
REMARK INTER:                  -7.248
REMARK INTRA:                  -2.297
REMARK UNBOUND:                -1.890
REMARK SMILES CCCCCCCCCCCCCCCC(=O)[O-]
REMARK SMILES IDX 9 1 10 2 11 3 12 4 13 5 14 6 15 7 16 8 17 9 18 10 8 11 7 12
REMARK SMILES IDX 6 13 5 14 4 15 3 16 2 17 1 18
REMARK H PARENT
REMARK Flexibility Score: inf
ROOT
ATOM      1  C   UNL     1      12.705 -31.616  21.594  1.00  0.00     0.000 C 
ENDROOT
BRANCH   1   2
ATOM      2  C   UNL     1      13.491 -32.350  20.495  1.00  0.00     0.000 C 
BRANCH   2   3
ATOM      3  C   UNL     1      14.560 -33.299  21.061  1.00  0.00     0.000 C 
BRANCH   3   4
ATOM      4  C   UNL     1      15.119 -34.267  20.001  1.00  0.00     0.000 C 
BRANCH   4   5
ATOM      5  C   UNL     1      16.658 -34.201  19.890  1.00  0.00     0.000 C 
BRANCH   5   6
ATOM      6  C   UNL     1      17.327 -35.570  19.659  1.00  0.00     0.006 C 
BRANCH   6   7
ATOM      7  C   UNL     1      17.244 -36.514  20.876  1.00  0.00     0.053 C 
BRANCH   7   8
ATOM      8  C   UNL     1      18.283 -36.189  21.907  1.00  0.00     0.041 C 
ATOM      9  O   UNL     1      19.359 -35.624  21.572  1.00  0.00    -0.550 OA
ATOM     10  O   UNL     1      18.050 -36.483  23.246  1.00  0.00    -0.550 OA
ENDBRANCH   7   8
ENDBRANCH   6   7
ENDBRANCH   5   6
ENDBRANCH   4   5
ENDBRANCH   3   4
ENDBRANCH   2   3
ENDBRANCH   1   2
BRANCH   1  11
ATOM     11  C   UNL     1      13.480 -31.547  22.920  1.00  0.00     0.000 C 
BRANCH  11  12
ATOM     12  C   UNL     1      13.611 -30.113  23.453  1.00  0.00    -0.000 C 
BRANCH  12  13
ATOM     13  C   UNL     1      15.077 -29.654  23.439  1.00  0.00    -0.000 C 
BRANCH  13  14
ATOM     14  C   UNL     1      15.728 -29.745  22.045  1.00  0.00    -0.000 C 
BRANCH  14  15
ATOM     15  C   UNL     1      17.018 -30.590  21.990  1.00  0.00    -0.000 C 
BRANCH  15  16
ATOM     16  C   UNL     1      17.383 -31.255  23.338  1.00  0.00    -0.000 C 
BRANCH  16  17
ATOM     17  C   UNL     1      17.386 -32.793  23.281  1.00  0.00    -0.003 C 
ATOM     18  C   UNL     1      16.433 -33.428  24.293  1.00  0.00     0.004 C 
ENDBRANCH  16  17
ENDBRANCH  15  16
ENDBRANCH  14  15
ENDBRANCH  13  14
ENDBRANCH  12  13
ENDBRANCH  11  12
ENDBRANCH   1  11
TORSDOF 14
ENDMDL
