MODEL 1
REMARK VINA RESULT:    -3.184      0.000      0.000
REMARK INTER + INTRA:          -4.008
REMARK INTER:                  -3.928
REMARK INTRA:                  -0.080
REMARK UNBOUND:                -0.080
REMARK SMILES CCCCCC(=O)[O-]
REMARK SMILES IDX 4 1 5 2 6 3 7 4 8 5 3 6 2 7 1 8
REMARK H PARENT
REMARK Flexibility Score: inf
ROOT
ATOM      1  C   UNL     1      18.098 -12.034 186.529  1.00  0.00     0.006 C 
ENDROOT
BRANCH   1   2
ATOM      2  C   UNL     1      19.330 -11.742 187.401  1.00  0.00     0.053 C 
BRANCH   2   3
ATOM      3  C   UNL     1      19.639 -10.278 187.464  1.00  0.00     0.041 C 
ATOM      4  O   UNL     1      19.834  -9.625 186.406  1.00  0.00    -0.550 OA
ATOM      5  O   UNL     1      19.677  -9.628 188.692  1.00  0.00    -0.550 OA
ENDBRANCH   2   3
ENDBRANCH   1   2
BRANCH   1   6
ATOM      6  C   UNL     1      17.591 -13.489 186.605  1.00  0.00     0.000 C 
BRANCH   6   7
ATOM      7  C   UNL     1      18.673 -14.538 186.918  1.00  0.00    -0.003 C 
ATOM      8  C   UNL     1      18.096 -15.924 187.200  1.00  0.00     0.004 C 
ENDBRANCH   6   7
ENDBRANCH   1   6
TORSDOF 4
ENDMDL
MODEL 2
REMARK VINA RESULT:    -3.144      0.999      1.471
REMARK INTER + INTRA:          -3.960
REMARK INTER:                  -3.868
REMARK INTRA:                  -0.092
REMARK UNBOUND:                -0.080
REMARK SMILES CCCCCC(=O)[O-]
REMARK SMILES IDX 4 1 5 2 6 3 7 4 8 5 3 6 2 7 1 8
REMARK H PARENT
REMARK Flexibility Score: inf
ROOT
ATOM      1  C   UNL     1      19.407 -11.892 187.563  1.00  0.00     0.006 C 
ENDROOT
BRANCH   1   2
ATOM      2  C   UNL     1      19.907 -10.454 187.353  1.00  0.00     0.053 C 
BRANCH   2   3
ATOM      3  C   UNL     1      19.170  -9.472 188.211  1.00  0.00     0.041 C 
ATOM      4  O   UNL     1      18.233  -8.785 187.727  1.00  0.00    -0.550 OA
ATOM      5  O   UNL     1      19.496  -9.341 189.556  1.00  0.00    -0.550 OA
ENDBRANCH   2   3
ENDBRANCH   1   2
BRANCH   1   6
ATOM      6  C   UNL     1      18.274 -12.321 186.607  1.00  0.00     0.000 C 
BRANCH   6   7
ATOM      7  C   UNL     1      17.641 -13.688 186.924  1.00  0.00    -0.003 C 
ATOM      8  C   UNL     1      18.645 -14.838 186.871  1.00  0.00     0.004 C 
ENDBRANCH   6   7
ENDBRANCH   1   6
TORSDOF 4
ENDMDL
MODEL 3
REMARK VINA RESULT:    -3.131      3.081      4.705
REMARK INTER + INTRA:          -3.943
REMARK INTER:                  -3.863
REMARK INTRA:                  -0.079
REMARK UNBOUND:                -0.080
REMARK SMILES CCCCCC(=O)[O-]
REMARK SMILES IDX 4 1 5 2 6 3 7 4 8 5 3 6 2 7 1 8
REMARK H PARENT
REMARK Flexibility Score: inf
ROOT
ATOM      1  C   UNL     1      18.443 -12.187 186.585  1.00  0.00     0.006 C 
ENDROOT
BRANCH   1   2
ATOM      2  C   UNL     1      17.450 -13.234 187.115  1.00  0.00     0.053 C 
BRANCH   2   3
ATOM      3  C   UNL     1      17.812 -14.621 186.680  1.00  0.00     0.041 C 
ATOM      4  O   UNL     1      16.959 -15.348 186.105  1.00  0.00    -0.550 OA
ATOM      5  O   UNL     1      19.101 -15.099 186.879  1.00  0.00    -0.550 OA
ENDBRANCH   2   3
ENDBRANCH   1   2
BRANCH   1   6
ATOM      6  C   UNL     1      19.497 -11.726 187.614  1.00  0.00     0.000 C 
BRANCH   6   7
ATOM      7  C   UNL     1      19.793 -10.216 187.606  1.00  0.00    -0.003 C 
ATOM      8  C   UNL     1      19.327  -9.510 188.878  1.00  0.00     0.004 C 
ENDBRANCH   6   7
ENDBRANCH   1   6
TORSDOF 4
ENDMDL
MODEL 4
REMARK VINA RESULT:    -3.056      1.402      1.977
REMARK INTER + INTRA:          -3.851
REMARK INTER:                  -3.795
REMARK INTRA:                  -0.056
REMARK UNBOUND:                -0.080
REMARK SMILES CCCCCC(=O)[O-]
REMARK SMILES IDX 4 1 5 2 6 3 7 4 8 5 3 6 2 7 1 8
REMARK H PARENT
REMARK Flexibility Score: inf
ROOT
ATOM      1  C   UNL     1      18.895 -10.998 186.927  1.00  0.00     0.006 C 
ENDROOT
BRANCH   1   2
ATOM      2  C   UNL     1      19.809 -10.069 187.743  1.00  0.00     0.053 C 
BRANCH   2   3
ATOM      3  C   UNL     1      19.056  -9.338 188.812  1.00  0.00     0.041 C 
ATOM      4  O   UNL     1      19.645  -8.969 189.862  1.00  0.00    -0.550 OA
ATOM      5  O   UNL     1      17.713  -9.034 188.632  1.00  0.00    -0.550 OA
ENDBRANCH   2   3
ENDBRANCH   1   2
BRANCH   1   6
ATOM      6  C   UNL     1      19.078 -12.500 187.226  1.00  0.00     0.000 C 
BRANCH   6   7
ATOM      7  C   UNL     1      17.969 -13.411 186.673  1.00  0.00    -0.003 C 
ATOM      8  C   UNL     1      18.254 -14.897 186.886  1.00  0.00     0.004 C 
ENDBRANCH   6   7
ENDBRANCH   1   6
TORSDOF 4
ENDMDL
MODEL 5
REMARK VINA RESULT:    -2.916      1.574      2.688
REMARK INTER + INTRA:          -3.678
REMARK INTER:                  -3.561
REMARK INTRA:                  -0.117
REMARK UNBOUND:                -0.080
REMARK SMILES CCCCCC(=O)[O-]
REMARK SMILES IDX 4 1 5 2 6 3 7 4 8 5 3 6 2 7 1 8
REMARK H PARENT
REMARK Flexibility Score: inf
ROOT
ATOM      1  C   UNL     1      19.488 -10.352 187.967  1.00  0.00     0.006 C 
ENDROOT
BRANCH   1   2
ATOM      2  C   UNL     1      19.920  -9.286 186.948  1.00  0.00     0.053 C 
BRANCH   2   3
ATOM      3  C   UNL     1      18.756  -8.500 186.429  1.00  0.00     0.041 C 
ATOM      4  O   UNL     1      18.274  -7.557 187.110  1.00  0.00    -0.550 OA
ATOM      5  O   UNL     1      18.225  -8.787 185.178  1.00  0.00    -0.550 OA
ENDBRANCH   2   3
ENDBRANCH   1   2
BRANCH   1   6
ATOM      6  C   UNL     1      19.555 -11.802 187.444  1.00  0.00     0.000 C 
BRANCH   6   7
ATOM      7  C   UNL     1      18.263 -12.315 186.784  1.00  0.00    -0.003 C 
ATOM      8  C   UNL     1      18.116 -13.834 186.859  1.00  0.00     0.004 C 
ENDBRANCH   6   7
ENDBRANCH   1   6
TORSDOF 4
ENDMDL
MODEL 6
REMARK VINA RESULT:    -2.877      2.574      4.695
REMARK INTER + INTRA:          -3.630
REMARK INTER:                  -3.548
REMARK INTRA:                  -0.082
REMARK UNBOUND:                -0.080
REMARK SMILES CCCCCC(=O)[O-]
REMARK SMILES IDX 4 1 5 2 6 3 7 4 8 5 3 6 2 7 1 8
REMARK H PARENT
REMARK Flexibility Score: inf
ROOT
ATOM      1  C   UNL     1      19.372 -10.500 186.865  1.00  0.00     0.006 C 
ENDROOT
BRANCH   1   2
ATOM      2  C   UNL     1      19.355 -11.897 187.506  1.00  0.00     0.053 C 
BRANCH   2   3
ATOM      3  C   UNL     1      18.411 -12.825 186.805  1.00  0.00     0.041 C 
ATOM      4  O   UNL     1      17.478 -12.364 186.097  1.00  0.00    -0.550 OA
ATOM      5  O   UNL     1      18.582 -14.200 186.908  1.00  0.00    -0.550 OA
ENDBRANCH   2   3
ENDBRANCH   1   2
BRANCH   1   6
ATOM      6  C   UNL     1      19.874  -9.376 187.795  1.00  0.00     0.000 C 
BRANCH   6   7
ATOM      7  C   UNL     1      19.329  -9.431 189.233  1.00  0.00    -0.003 C 
ATOM      8  C   UNL     1      19.081  -8.046 189.830  1.00  0.00     0.004 C 
ENDBRANCH   6   7
ENDBRANCH   1   6
TORSDOF 4
ENDMDL
MODEL 7
REMARK VINA RESULT:    -2.822      2.404      3.552
REMARK INTER + INTRA:          -3.562
REMARK INTER:                  -3.451
REMARK INTRA:                  -0.112
REMARK UNBOUND:                -0.080
REMARK SMILES CCCCCC(=O)[O-]
REMARK SMILES IDX 4 1 5 2 6 3 7 4 8 5 3 6 2 7 1 8
REMARK H PARENT
REMARK Flexibility Score: inf
ROOT
ATOM      1  C   UNL     1      19.537  -9.142 187.831  1.00  0.00     0.006 C 
ENDROOT
BRANCH   1   2
ATOM      2  C   UNL     1      19.065  -9.510 189.247  1.00  0.00     0.053 C 
BRANCH   2   3
ATOM      3  C   UNL     1      19.420  -8.454 190.248  1.00  0.00     0.041 C 
ATOM      4  O   UNL     1      19.924  -8.776 191.356  1.00  0.00    -0.550 OA
ATOM      5  O   UNL     1      19.227  -7.113 189.944  1.00  0.00    -0.550 OA
ENDBRANCH   2   3
ENDBRANCH   1   2
BRANCH   1   6
ATOM      6  C   UNL     1      19.765 -10.351 186.899  1.00  0.00     0.000 C 
BRANCH   6   7
ATOM      7  C   UNL     1      19.465 -11.722 187.529  1.00  0.00    -0.003 C 
ATOM      8  C   UNL     1      18.293 -12.442 186.863  1.00  0.00     0.004 C 
ENDBRANCH   6   7
ENDBRANCH   1   6
TORSDOF 4
ENDMDL
MODEL 8
REMARK VINA RESULT:    -2.755      2.480      4.142
REMARK INTER + INTRA:          -3.480
REMARK INTER:                  -3.254
REMARK INTRA:                  -0.226
REMARK UNBOUND:                -0.080
REMARK SMILES CCCCCC(=O)[O-]
REMARK SMILES IDX 4 1 5 2 6 3 7 4 8 5 3 6 2 7 1 8
REMARK H PARENT
REMARK Flexibility Score: inf
ROOT
ATOM      1  C   UNL     1      18.598 -12.441 186.884  1.00  0.00     0.006 C 
ENDROOT
BRANCH   1   2
ATOM      2  C   UNL     1      17.198 -11.805 186.883  1.00  0.00     0.053 C 
BRANCH   2   3
ATOM      3  C   UNL     1      16.823 -11.277 185.532  1.00  0.00     0.041 C 
ATOM      4  O   UNL     1      16.302 -12.039 184.676  1.00  0.00    -0.550 OA
ATOM      5  O   UNL     1      17.016  -9.935 185.232  1.00  0.00    -0.550 OA
ENDBRANCH   2   3
ENDBRANCH   1   2
BRANCH   1   6
ATOM      6  C   UNL     1      19.680 -11.605 187.598  1.00  0.00     0.000 C 
BRANCH   6   7
ATOM      7  C   UNL     1      19.172 -10.307 188.250  1.00  0.00    -0.003 C 
ATOM      8  C   UNL     1      19.696  -9.048 187.561  1.00  0.00     0.004 C 
ENDBRANCH   6   7
ENDBRANCH   1   6
TORSDOF 4
ENDMDL
MODEL 9
REMARK VINA RESULT:    -2.719      4.196      5.457
REMARK INTER + INTRA:          -3.435
REMARK INTER:                  -3.383
REMARK INTRA:                  -0.052
REMARK UNBOUND:                -0.080
REMARK SMILES CCCCCC(=O)[O-]
REMARK SMILES IDX 4 1 5 2 6 3 7 4 8 5 3 6 2 7 1 8
REMARK H PARENT
REMARK Flexibility Score: inf
ROOT
ATOM      1  C   UNL     1      17.044 -14.804 187.153  1.00  0.00     0.006 C 
ENDROOT
BRANCH   1   2
ATOM      2  C   UNL     1      16.676 -15.888 186.127  1.00  0.00     0.053 C 
BRANCH   2   3
ATOM      3  C   UNL     1      15.396 -15.576 185.415  1.00  0.00     0.041 C 
ATOM      4  O   UNL     1      15.300 -15.763 184.173  1.00  0.00    -0.550 OA
ATOM      5  O   UNL     1      14.298 -15.111 186.128  1.00  0.00    -0.550 OA
ENDBRANCH   2   3
ENDBRANCH   1   2
BRANCH   1   6
ATOM      6  C   UNL     1      18.343 -14.036 186.834  1.00  0.00     0.000 C 
BRANCH   6   7
ATOM      7  C   UNL     1      18.203 -12.503 186.815  1.00  0.00    -0.003 C 
ATOM      8  C   UNL     1      19.397 -11.787 187.443  1.00  0.00     0.004 C 
ENDBRANCH   6   7
ENDBRANCH   1   6
TORSDOF 4
ENDMDL
