MODEL 1
REMARK VINA RESULT:    -2.588      0.000      0.000
REMARK INTER + INTRA:          -2.895
REMARK INTER:                  -2.739
REMARK INTRA:                  -0.156
REMARK UNBOUND:                -0.156
REMARK SMILES CC(C)[C@H]1CC[C@@H](C)CC1=O
REMARK SMILES IDX 8 1 7 2 6 3 5 4 4 5 10 6 11 7 9 8 2 9 1 10 3 11
REMARK H PARENT
REMARK Flexibility Score: inf
ROOT
ATOM      1  C   UNL     1     112.950 119.652 108.461  1.00  0.00     0.008 C 
ATOM      2  C   UNL     1     113.950 120.818 108.434  1.00  0.00    -0.007 C 
ATOM      3  C   UNL     1     113.893 121.664 109.724  1.00  0.00     0.004 C 
ATOM      4  C   UNL     1     112.590 122.474 109.839  1.00  0.00     0.012 C 
ATOM      5  C   UNL     1     112.374 123.389 108.610  1.00  0.00     0.058 C 
ATOM      6  C   UNL     1     112.547 122.587 107.331  1.00  0.00     0.136 C 
ATOM      7  O   UNL     1     111.788 122.729 106.384  1.00  0.00    -0.299 OA
ATOM      8  C   UNL     1     113.754 121.701 107.187  1.00  0.00     0.079 C 
ENDROOT
BRANCH   5   9
ATOM      9  C   UNL     1     111.030 124.184 108.661  1.00  0.00    -0.007 C 
ATOM     10  C   UNL     1     110.282 124.047 109.998  1.00  0.00     0.008 C 
ATOM     11  C   UNL     1     111.232 125.669 108.319  1.00  0.00     0.008 C 
ENDBRANCH   5   9
TORSDOF 1
ENDMDL
MODEL 2
REMARK VINA RESULT:    -2.584      9.226     10.982
REMARK INTER + INTRA:          -2.891
REMARK INTER:                  -2.735
REMARK INTRA:                  -0.156
REMARK UNBOUND:                -0.156
REMARK SMILES CC(C)[C@H]1CC[C@@H](C)CC1=O
REMARK SMILES IDX 8 1 7 2 6 3 5 4 4 5 10 6 11 7 9 8 2 9 1 10 3 11
REMARK H PARENT
REMARK Flexibility Score: inf
ROOT
ATOM      1  C   UNL     1     112.367 112.973 108.414  1.00  0.00     0.008 C 
ATOM      2  C   UNL     1     111.208 113.982 108.387  1.00  0.00    -0.007 C 
ATOM      3  C   UNL     1     110.368 113.938 109.682  1.00  0.00     0.004 C 
ATOM      4  C   UNL     1     109.550 112.642 109.809  1.00  0.00     0.012 C 
ATOM      5  C   UNL     1     108.626 112.425 108.586  1.00  0.00     0.058 C 
ATOM      6  C   UNL     1     109.423 112.584 107.302  1.00  0.00     0.136 C 
ATOM      7  O   UNL     1     109.271 111.820 106.360  1.00  0.00    -0.299 OA
ATOM      8  C   UNL     1     110.317 113.784 107.146  1.00  0.00     0.079 C 
ENDROOT
BRANCH   5   9
ATOM      9  C   UNL     1     107.822 111.087 108.649  1.00  0.00    -0.007 C 
ATOM     10  C   UNL     1     107.956 110.349 109.993  1.00  0.00     0.008 C 
ATOM     11  C   UNL     1     106.339 111.295 108.307  1.00  0.00     0.008 C 
ENDBRANCH   5   9
TORSDOF 1
ENDMDL
MODEL 3
REMARK VINA RESULT:    -2.577     12.744     15.572
REMARK INTER + INTRA:          -2.884
REMARK INTER:                  -2.728
REMARK INTRA:                  -0.156
REMARK UNBOUND:                -0.156
REMARK SMILES CC(C)[C@H]1CC[C@@H](C)CC1=O
REMARK SMILES IDX 8 1 7 2 6 3 5 4 4 5 10 6 11 7 9 8 2 9 1 10 3 11
REMARK H PARENT
REMARK Flexibility Score: inf
ROOT
ATOM      1  C   UNL     1     119.029 112.366 108.398  1.00  0.00     0.008 C 
ATOM      2  C   UNL     1     118.027 111.202 108.348  1.00  0.00    -0.007 C 
ATOM      3  C   UNL     1     118.054 110.354 109.639  1.00  0.00     0.004 C 
ATOM      4  C   UNL     1     119.352 109.542 109.783  1.00  0.00     0.012 C 
ATOM      5  C   UNL     1     119.595 108.627 108.559  1.00  0.00     0.058 C 
ATOM      6  C   UNL     1     119.453 109.430 107.277  1.00  0.00     0.136 C 
ATOM      7  O   UNL     1     120.234 109.288 106.347  1.00  0.00    -0.299 OA
ATOM      8  C   UNL     1     118.251 110.319 107.106  1.00  0.00     0.079 C 
ENDROOT
BRANCH   5   9
ATOM      9  C   UNL     1     120.936 107.830 108.640  1.00  0.00    -0.007 C 
ATOM     10  C   UNL     1     121.650 107.959 109.997  1.00  0.00     0.008 C 
ATOM     11  C   UNL     1     120.742 106.348 108.284  1.00  0.00     0.008 C 
ENDBRANCH   5   9
TORSDOF 1
ENDMDL
MODEL 4
REMARK VINA RESULT:    -2.516     12.358     14.200
REMARK INTER + INTRA:          -2.819
REMARK INTER:                  -2.635
REMARK INTRA:                  -0.184
REMARK UNBOUND:                -0.156
REMARK SMILES CC(C)[C@H]1CC[C@@H](C)CC1=O
REMARK SMILES IDX 8 1 7 2 6 3 5 4 4 5 10 6 11 7 9 8 2 9 1 10 3 11
REMARK H PARENT
REMARK Flexibility Score: inf
ROOT
ATOM      1  C   UNL     1     119.722 107.939 109.467  1.00  0.00     0.008 C 
ATOM      2  C   UNL     1     119.832 109.337 108.840  1.00  0.00    -0.007 C 
ATOM      3  C   UNL     1     118.958 110.376 109.577  1.00  0.00     0.004 C 
ATOM      4  C   UNL     1     117.454 110.138 109.361  1.00  0.00     0.012 C 
ATOM      5  C   UNL     1     117.086 110.125 107.857  1.00  0.00     0.058 C 
ATOM      6  C   UNL     1     118.021 109.194 107.104  1.00  0.00     0.136 C 
ATOM      7  O   UNL     1     117.603 108.433 106.243  1.00  0.00    -0.299 OA
ATOM      8  C   UNL     1     119.503 109.308 107.336  1.00  0.00     0.079 C 
ENDROOT
BRANCH   5   9
ATOM      9  C   UNL     1     115.575 109.826 107.594  1.00  0.00    -0.007 C 
ATOM     10  C   UNL     1     114.931 108.918 108.656  1.00  0.00     0.008 C 
ATOM     11  C   UNL     1     114.757 111.117 107.437  1.00  0.00     0.008 C 
ENDBRANCH   5   9
TORSDOF 1
ENDMDL
MODEL 5
REMARK VINA RESULT:    -2.510     10.462     11.845
REMARK INTER + INTRA:          -2.813
REMARK INTER:                  -2.629
REMARK INTRA:                  -0.184
REMARK UNBOUND:                -0.156
REMARK SMILES CC(C)[C@H]1CC[C@@H](C)CC1=O
REMARK SMILES IDX 8 1 7 2 6 3 5 4 4 5 10 6 11 7 9 8 2 9 1 10 3 11
REMARK H PARENT
REMARK Flexibility Score: inf
ROOT
ATOM      1  C   UNL     1     124.111 119.704 109.410  1.00  0.00     0.008 C 
ATOM      2  C   UNL     1     122.698 119.829 108.819  1.00  0.00    -0.007 C 
ATOM      3  C   UNL     1     121.667 118.976 109.589  1.00  0.00     0.004 C 
ATOM      4  C   UNL     1     121.877 117.467 109.381  1.00  0.00     0.012 C 
ATOM      5  C   UNL     1     121.845 117.086 107.881  1.00  0.00     0.058 C 
ATOM      6  C   UNL     1     122.770 118.001 107.096  1.00  0.00     0.136 C 
ATOM      7  O   UNL     1     123.502 117.564 106.219  1.00  0.00    -0.299 OA
ATOM      8  C   UNL     1     122.683 119.486 107.317  1.00  0.00     0.079 C 
ENDROOT
BRANCH   5   9
ATOM      9  C   UNL     1     122.115 115.569 107.623  1.00  0.00    -0.007 C 
ATOM     10  C   UNL     1     123.024 114.916 108.679  1.00  0.00     0.008 C 
ATOM     11  C   UNL     1     120.809 114.772 107.485  1.00  0.00     0.008 C 
ENDBRANCH   5   9
TORSDOF 1
ENDMDL
MODEL 6
REMARK VINA RESULT:    -2.500      8.977     10.886
REMARK INTER + INTRA:          -2.802
REMARK INTER:                  -2.645
REMARK INTRA:                  -0.157
REMARK UNBOUND:                -0.156
REMARK SMILES CC(C)[C@H]1CC[C@@H](C)CC1=O
REMARK SMILES IDX 8 1 7 2 6 3 5 4 4 5 10 6 11 7 9 8 2 9 1 10 3 11
REMARK H PARENT
REMARK Flexibility Score: inf
ROOT
ATOM      1  C   UNL     1     119.236 119.318 107.832  1.00  0.00     0.008 C 
ATOM      2  C   UNL     1     120.039 118.093 108.298  1.00  0.00    -0.007 C 
ATOM      3  C   UNL     1     120.641 118.293 109.706  1.00  0.00     0.004 C 
ATOM      4  C   UNL     1     121.772 119.335 109.720  1.00  0.00     0.012 C 
ATOM      5  C   UNL     1     122.899 118.972 108.723  1.00  0.00     0.058 C 
ATOM      6  C   UNL     1     122.302 118.657 107.362  1.00  0.00     0.136 C 
ATOM      7  O   UNL     1     122.817 119.067 106.332  1.00  0.00    -0.299 OA
ATOM      8  C   UNL     1     121.132 117.715 107.281  1.00  0.00     0.079 C 
ENDROOT
BRANCH   5   9
ATOM      9  C   UNL     1     124.039 120.038 108.664  1.00  0.00    -0.007 C 
ATOM     10  C   UNL     1     123.906 121.143 109.726  1.00  0.00     0.008 C 
ATOM     11  C   UNL     1     125.430 119.391 108.746  1.00  0.00     0.008 C 
ENDBRANCH   5   9
TORSDOF 1
ENDMDL
MODEL 7
REMARK VINA RESULT:    -2.496      2.033      4.262
REMARK INTER + INTRA:          -2.798
REMARK INTER:                  -2.615
REMARK INTRA:                  -0.183
REMARK UNBOUND:                -0.156
REMARK SMILES CC(C)[C@H]1CC[C@@H](C)CC1=O
REMARK SMILES IDX 8 1 7 2 6 3 5 4 4 5 10 6 11 7 9 8 2 9 1 10 3 11
REMARK H PARENT
REMARK Flexibility Score: inf
ROOT
ATOM      1  C   UNL     1     112.319 124.134 109.377  1.00  0.00     0.008 C 
ATOM      2  C   UNL     1     112.173 122.714 108.808  1.00  0.00    -0.007 C 
ATOM      3  C   UNL     1     113.016 121.684 109.590  1.00  0.00     0.004 C 
ATOM      4  C   UNL     1     114.527 121.872 109.372  1.00  0.00     0.012 C 
ATOM      5  C   UNL     1     114.900 121.812 107.871  1.00  0.00     0.058 C 
ATOM      6  C   UNL     1     113.994 122.736 107.076  1.00  0.00     0.136 C 
ATOM      7  O   UNL     1     114.435 123.449 106.185  1.00  0.00    -0.299 OA
ATOM      8  C   UNL     1     112.508 122.672 107.305  1.00  0.00     0.079 C 
ENDROOT
BRANCH   5   9
ATOM      9  C   UNL     1     116.419 122.059 107.602  1.00  0.00    -0.007 C 
ATOM     10  C   UNL     1     117.106 122.915 108.680  1.00  0.00     0.008 C 
ATOM     11  C   UNL     1     117.186 120.742 107.407  1.00  0.00     0.008 C 
ENDBRANCH   5   9
TORSDOF 1
ENDMDL
MODEL 8
REMARK VINA RESULT:    -2.482      6.813      8.842
REMARK INTER + INTRA:          -2.784
REMARK INTER:                  -2.599
REMARK INTRA:                  -0.184
REMARK UNBOUND:                -0.156
REMARK SMILES CC(C)[C@H]1CC[C@@H](C)CC1=O
REMARK SMILES IDX 8 1 7 2 6 3 5 4 4 5 10 6 11 7 9 8 2 9 1 10 3 11
REMARK H PARENT
REMARK Flexibility Score: inf
ROOT
ATOM      1  C   UNL     1     107.891 112.293 109.326  1.00  0.00     0.008 C 
ATOM      2  C   UNL     1     109.320 112.198 108.769  1.00  0.00    -0.007 C 
ATOM      3  C   UNL     1     110.315 113.070 109.566  1.00  0.00     0.004 C 
ATOM      4  C   UNL     1     110.079 114.575 109.354  1.00  0.00     0.012 C 
ATOM      5  C   UNL     1     110.140 114.959 107.855  1.00  0.00     0.058 C 
ATOM      6  C   UNL     1     109.253 114.027 107.047  1.00  0.00     0.136 C 
ATOM      7  O   UNL     1     108.535 114.449 106.153  1.00  0.00    -0.299 OA
ATOM      8  C   UNL     1     109.365 112.543 107.269  1.00  0.00     0.079 C 
ENDROOT
BRANCH   5   9
ATOM      9  C   UNL     1     109.845 116.470 107.593  1.00  0.00    -0.007 C 
ATOM     10  C   UNL     1     108.884 117.099 108.617  1.00  0.00     0.008 C 
ATOM     11  C   UNL     1     111.137 117.297 107.504  1.00  0.00     0.008 C 
ENDBRANCH   5   9
TORSDOF 1
ENDMDL
MODEL 9
REMARK VINA RESULT:    -2.481     12.354     14.498
REMARK INTER + INTRA:          -2.782
REMARK INTER:                  -2.614
REMARK INTRA:                  -0.169
REMARK UNBOUND:                -0.156
REMARK SMILES CC(C)[C@H]1CC[C@@H](C)CC1=O
REMARK SMILES IDX 8 1 7 2 6 3 5 4 4 5 10 6 11 7 9 8 2 9 1 10 3 11
REMARK H PARENT
REMARK Flexibility Score: inf
ROOT
ATOM      1  C   UNL     1     113.787 108.040 105.872  1.00  0.00     0.008 C 
ATOM      2  C   UNL     1     114.591 107.209 106.884  1.00  0.00    -0.007 C 
ATOM      3  C   UNL     1     114.466 107.761 108.321  1.00  0.00     0.004 C 
ATOM      4  C   UNL     1     115.186 109.108 108.498  1.00  0.00     0.012 C 
ATOM      5  C   UNL     1     116.681 109.015 108.108  1.00  0.00     0.058 C 
ATOM      6  C   UNL     1     116.819 108.362 106.743  1.00  0.00     0.136 C 
ATOM      7  O   UNL     1     117.604 108.791 105.909  1.00  0.00    -0.299 OA
ATOM      8  C   UNL     1     116.068 107.088 106.467  1.00  0.00     0.079 C 
ENDROOT
BRANCH   5   9
ATOM      9  C   UNL     1     117.434 110.379 108.216  1.00  0.00    -0.007 C 
ATOM     10  C   UNL     1     116.610 111.580 107.721  1.00  0.00     0.008 C 
ATOM     11  C   UNL     1     117.941 110.640 109.643  1.00  0.00     0.008 C 
ENDBRANCH   5   9
TORSDOF 1
ENDMDL
