MODEL 1
REMARK VINA RESULT:    -4.201      0.000      0.000
REMARK INTER + INTRA:          -5.516
REMARK INTER:                  -5.429
REMARK INTRA:                  -0.087
REMARK UNBOUND:                -0.087
REMARK SMILES CCCCCCC(C)=O
REMARK SMILES IDX 4 1 3 2 2 3 1 4 5 5 6 6 7 7 9 8 8 9
REMARK H PARENT
REMARK Flexibility Score: inf
ROOT
ATOM      1  C   UNL     1      25.831  56.863  -8.987  1.00  0.00     0.000 C 
ENDROOT
BRANCH   1   2
ATOM      2  C   UNL     1      24.377  56.597  -8.569  1.00  0.00    -0.000 C 
BRANCH   2   3
ATOM      3  C   UNL     1      24.198  55.148  -8.102  1.00  0.00    -0.003 C 
ATOM      4  C   UNL     1      22.994  55.013  -7.173  1.00  0.00     0.004 C 
ENDBRANCH   2   3
ENDBRANCH   1   2
BRANCH   1   5
ATOM      5  C   UNL     1      26.086  58.335  -9.357  1.00  0.00     0.008 C 
BRANCH   5   6
ATOM      6  C   UNL     1      27.079  58.529 -10.516  1.00  0.00     0.075 C 
BRANCH   6   7
ATOM      7  C   UNL     1      28.026  59.674 -10.265  1.00  0.00     0.129 C 
ATOM      8  O   UNL     1      27.790  60.465  -9.364  1.00  0.00    -0.300 OA
ATOM      9  C   UNL     1      29.261  59.860 -11.095  1.00  0.00     0.087 C 
ENDBRANCH   6   7
ENDBRANCH   5   6
ENDBRANCH   1   5
TORSDOF 5
ENDMDL
MODEL 2
REMARK VINA RESULT:    -4.116      2.122      5.859
REMARK INTER + INTRA:          -5.406
REMARK INTER:                  -5.318
REMARK INTRA:                  -0.087
REMARK UNBOUND:                -0.087
REMARK SMILES CCCCCCC(C)=O
REMARK SMILES IDX 4 1 3 2 2 3 1 4 5 5 6 6 7 7 9 8 8 9
REMARK H PARENT
REMARK Flexibility Score: inf
ROOT
ATOM      1  C   UNL     1      26.370  58.576  -9.377  1.00  0.00     0.000 C 
ENDROOT
BRANCH   1   2
ATOM      2  C   UNL     1      27.395  58.856 -10.487  1.00  0.00    -0.000 C 
BRANCH   2   3
ATOM      3  C   UNL     1      27.991  60.260 -10.340  1.00  0.00    -0.003 C 
ATOM      4  C   UNL     1      29.505  60.241 -10.537  1.00  0.00     0.004 C 
ENDBRANCH   2   3
ENDBRANCH   1   2
BRANCH   1   5
ATOM      5  C   UNL     1      25.871  57.120  -9.379  1.00  0.00     0.008 C 
BRANCH   5   6
ATOM      6  C   UNL     1      24.551  56.907  -8.620  1.00  0.00     0.075 C 
BRANCH   6   7
ATOM      7  C   UNL     1      24.505  55.569  -7.926  1.00  0.00     0.129 C 
ATOM      8  O   UNL     1      25.513  54.882  -7.877  1.00  0.00    -0.300 OA
ATOM      9  C   UNL     1      23.245  55.066  -7.288  1.00  0.00     0.087 C 
ENDBRANCH   6   7
ENDBRANCH   5   6
ENDBRANCH   1   5
TORSDOF 5
ENDMDL
MODEL 3
REMARK VINA RESULT:    -3.913      1.353      2.264
REMARK INTER + INTRA:          -5.144
REMARK INTER:                  -4.977
REMARK INTRA:                  -0.167
REMARK UNBOUND:                -0.087
REMARK SMILES CCCCCCC(C)=O
REMARK SMILES IDX 4 1 3 2 2 3 1 4 5 5 6 6 7 7 9 8 8 9
REMARK H PARENT
REMARK Flexibility Score: inf
ROOT
ATOM      1  C   UNL     1      26.962  58.488 -10.109  1.00  0.00     0.000 C 
ENDROOT
BRANCH   1   2
ATOM      2  C   UNL     1      25.741  58.170  -9.232  1.00  0.00    -0.000 C 
BRANCH   2   3
ATOM      3  C   UNL     1      25.700  56.681  -8.870  1.00  0.00    -0.003 C 
ATOM      4  C   UNL     1      24.290  56.247  -8.480  1.00  0.00     0.004 C 
ENDBRANCH   2   3
ENDBRANCH   1   2
BRANCH   1   5
ATOM      5  C   UNL     1      27.504  59.910  -9.883  1.00  0.00     0.008 C 
BRANCH   5   6
ATOM      6  C   UNL     1      28.509  60.377 -10.950  1.00  0.00     0.075 C 
BRANCH   6   7
ATOM      7  C   UNL     1      29.695  59.451 -11.054  1.00  0.00     0.129 C 
ATOM      8  O   UNL     1      30.423  59.293 -10.086  1.00  0.00    -0.300 OA
ATOM      9  C   UNL     1      29.997  58.713 -12.324  1.00  0.00     0.087 C 
ENDBRANCH   6   7
ENDBRANCH   5   6
ENDBRANCH   1   5
TORSDOF 5
ENDMDL
MODEL 4
REMARK VINA RESULT:    -3.886      0.870      1.210
REMARK INTER + INTRA:          -5.109
REMARK INTER:                  -4.969
REMARK INTRA:                  -0.140
REMARK UNBOUND:                -0.087
REMARK SMILES CCCCCCC(C)=O
REMARK SMILES IDX 4 1 3 2 2 3 1 4 5 5 6 6 7 7 9 8 8 9
REMARK H PARENT
REMARK Flexibility Score: inf
ROOT
ATOM      1  C   UNL     1      25.000  56.307  -9.059  1.00  0.00     0.000 C 
ENDROOT
BRANCH   1   2
ATOM      2  C   UNL     1      25.098  55.228  -7.970  1.00  0.00    -0.000 C 
BRANCH   2   3
ATOM      3  C   UNL     1      24.050  55.459  -6.876  1.00  0.00    -0.003 C 
ATOM      4  C   UNL     1      22.744  54.741  -7.203  1.00  0.00     0.004 C 
ENDBRANCH   2   3
ENDBRANCH   1   2
BRANCH   1   5
ATOM      5  C   UNL     1      26.221  57.244  -9.081  1.00  0.00     0.008 C 
BRANCH   5   6
ATOM      6  C   UNL     1      25.882  58.712  -9.392  1.00  0.00     0.075 C 
BRANCH   6   7
ATOM      7  C   UNL     1      27.099  59.500  -9.803  1.00  0.00     0.129 C 
ATOM      8  O   UNL     1      27.393  60.516  -9.191  1.00  0.00    -0.300 OA
ATOM      9  C   UNL     1      27.964  59.060 -10.946  1.00  0.00     0.087 C 
ENDBRANCH   6   7
ENDBRANCH   5   6
ENDBRANCH   1   5
TORSDOF 5
ENDMDL
MODEL 5
REMARK VINA RESULT:    -3.862      3.486      6.753
REMARK INTER + INTRA:          -5.078
REMARK INTER:                  -4.809
REMARK INTRA:                  -0.269
REMARK UNBOUND:                -0.087
REMARK SMILES CCCCCCC(C)=O
REMARK SMILES IDX 4 1 3 2 2 3 1 4 5 5 6 6 7 7 9 8 8 9
REMARK H PARENT
REMARK Flexibility Score: inf
ROOT
ATOM      1  C   UNL     1      29.902  57.589 -13.153  1.00  0.00     0.000 C 
ENDROOT
BRANCH   1   2
ATOM      2  C   UNL     1      31.140  56.693 -13.313  1.00  0.00    -0.000 C 
BRANCH   2   3
ATOM      3  C   UNL     1      32.281  57.455 -13.996  1.00  0.00    -0.003 C 
ATOM      4  C   UNL     1      33.638  57.036 -13.434  1.00  0.00     0.004 C 
ENDBRANCH   2   3
ENDBRANCH   1   2
BRANCH   1   5
ATOM      5  C   UNL     1      30.245  58.990 -12.615  1.00  0.00     0.008 C 
BRANCH   5   6
ATOM      6  C   UNL     1      29.972  59.170 -11.113  1.00  0.00     0.075 C 
BRANCH   6   7
ATOM      7  C   UNL     1      28.582  59.688 -10.847  1.00  0.00     0.129 C 
ATOM      8  O   UNL     1      28.376  60.893 -10.859  1.00  0.00    -0.300 OA
ATOM      9  C   UNL     1      27.441  58.754 -10.574  1.00  0.00     0.087 C 
ENDBRANCH   6   7
ENDBRANCH   5   6
ENDBRANCH   1   5
TORSDOF 5
ENDMDL
MODEL 6
REMARK VINA RESULT:    -3.806     17.750     19.517
REMARK INTER + INTRA:          -5.005
REMARK INTER:                  -4.534
REMARK INTRA:                  -0.471
REMARK UNBOUND:                -0.087
REMARK SMILES CCCCCCC(C)=O
REMARK SMILES IDX 4 1 3 2 2 3 1 4 5 5 6 6 7 7 9 8 8 9
REMARK H PARENT
REMARK Flexibility Score: inf
ROOT
ATOM      1  C   UNL     1      15.991  43.098   1.548  1.00  0.00     0.000 C 
ENDROOT
BRANCH   1   2
ATOM      2  C   UNL     1      15.802  44.554   2.002  1.00  0.00    -0.000 C 
BRANCH   2   3
ATOM      3  C   UNL     1      15.054  45.365   0.938  1.00  0.00    -0.003 C 
ATOM      4  C   UNL     1      15.856  45.448  -0.358  1.00  0.00     0.004 C 
ENDBRANCH   2   3
ENDBRANCH   1   2
BRANCH   1   5
ATOM      5  C   UNL     1      17.461  42.646   1.592  1.00  0.00     0.008 C 
BRANCH   5   6
ATOM      6  C   UNL     1      18.424  43.692   2.179  1.00  0.00     0.075 C 
BRANCH   6   7
ATOM      7  C   UNL     1      19.586  43.972   1.260  1.00  0.00     0.129 C 
ATOM      8  O   UNL     1      20.655  43.412   1.454  1.00  0.00    -0.300 OA
ATOM      9  C   UNL     1      19.456  44.920   0.106  1.00  0.00     0.087 C 
ENDBRANCH   6   7
ENDBRANCH   5   6
ENDBRANCH   1   5
TORSDOF 5
ENDMDL
MODEL 7
REMARK VINA RESULT:    -3.726      3.212      4.996
REMARK INTER + INTRA:          -4.902
REMARK INTER:                  -4.738
REMARK INTRA:                  -0.164
REMARK UNBOUND:                -0.087
REMARK SMILES CCCCCCC(C)=O
REMARK SMILES IDX 4 1 3 2 2 3 1 4 5 5 6 6 7 7 9 8 8 9
REMARK H PARENT
REMARK Flexibility Score: inf
ROOT
ATOM      1  C   UNL     1      29.422  59.485 -10.490  1.00  0.00     0.000 C 
ENDROOT
BRANCH   1   2
ATOM      2  C   UNL     1      28.011  59.051 -10.914  1.00  0.00    -0.000 C 
BRANCH   2   3
ATOM      3  C   UNL     1      27.005  59.277  -9.780  1.00  0.00    -0.003 C 
ATOM      4  C   UNL     1      26.241  57.996  -9.456  1.00  0.00     0.004 C 
ENDBRANCH   2   3
ENDBRANCH   1   2
BRANCH   1   5
ATOM      5  C   UNL     1      30.509  59.027 -11.479  1.00  0.00     0.008 C 
BRANCH   5   6
ATOM      6  C   UNL     1      29.972  58.233 -12.681  1.00  0.00     0.075 C 
BRANCH   6   7
ATOM      7  C   UNL     1      31.019  57.325 -13.274  1.00  0.00     0.129 C 
ATOM      8  O   UNL     1      30.827  56.119 -13.298  1.00  0.00    -0.300 OA
ATOM      9  C   UNL     1      32.292  57.873 -13.845  1.00  0.00     0.087 C 
ENDBRANCH   6   7
ENDBRANCH   5   6
ENDBRANCH   1   5
TORSDOF 5
ENDMDL
MODEL 8
REMARK VINA RESULT:    -3.693      4.396      6.519
REMARK INTER + INTRA:          -4.860
REMARK INTER:                  -4.566
REMARK INTRA:                  -0.294
REMARK UNBOUND:                -0.087
REMARK SMILES CCCCCCC(C)=O
REMARK SMILES IDX 4 1 3 2 2 3 1 4 5 5 6 6 7 7 9 8 8 9
REMARK H PARENT
REMARK Flexibility Score: inf
ROOT
ATOM      1  C   UNL     1      30.339  58.813 -12.905  1.00  0.00     0.000 C 
ENDROOT
BRANCH   1   2
ATOM      2  C   UNL     1      30.158  59.137 -11.414  1.00  0.00    -0.000 C 
BRANCH   2   3
ATOM      3  C   UNL     1      28.855  59.908 -11.177  1.00  0.00    -0.003 C 
ATOM      4  C   UNL     1      27.755  58.986 -10.658  1.00  0.00     0.004 C 
ENDBRANCH   2   3
ENDBRANCH   1   2
BRANCH   1   5
ATOM      5  C   UNL     1      30.327  57.300 -13.192  1.00  0.00     0.008 C 
BRANCH   5   6
ATOM      6  C   UNL     1      31.540  56.804 -13.997  1.00  0.00     0.075 C 
BRANCH   6   7
ATOM      7  C   UNL     1      32.846  57.205 -13.360  1.00  0.00     0.129 C 
ATOM      8  O   UNL     1      33.131  56.778 -12.251  1.00  0.00    -0.300 OA
ATOM      9  C   UNL     1      33.809  58.113 -14.063  1.00  0.00     0.087 C 
ENDBRANCH   6   7
ENDBRANCH   5   6
ENDBRANCH   1   5
TORSDOF 5
ENDMDL
MODEL 9
REMARK VINA RESULT:    -3.685      5.589      7.414
REMARK INTER + INTRA:          -4.849
REMARK INTER:                  -4.378
REMARK INTRA:                  -0.471
REMARK UNBOUND:                -0.087
REMARK SMILES CCCCCCC(C)=O
REMARK SMILES IDX 4 1 3 2 2 3 1 4 5 5 6 6 7 7 9 8 8 9
REMARK H PARENT
REMARK Flexibility Score: inf
ROOT
ATOM      1  C   UNL     1      31.424  56.633 -13.822  1.00  0.00     0.000 C 
ENDROOT
BRANCH   1   2
ATOM      2  C   UNL     1      32.590  57.600 -14.079  1.00  0.00    -0.000 C 
BRANCH   2   3
ATOM      3  C   UNL     1      33.904  57.030 -13.535  1.00  0.00    -0.003 C 
ATOM      4  C   UNL     1      33.932  57.070 -12.009  1.00  0.00     0.004 C 
ENDBRANCH   2   3
ENDBRANCH   1   2
BRANCH   1   5
ATOM      5  C   UNL     1      30.185  57.334 -13.236  1.00  0.00     0.008 C 
BRANCH   5   6
ATOM      6  C   UNL     1      30.342  58.855 -13.072  1.00  0.00     0.075 C 
BRANCH   6   7
ATOM      7  C   UNL     1      30.096  59.301 -11.654  1.00  0.00     0.129 C 
ATOM      8  O   UNL     1      28.986  59.697 -11.331  1.00  0.00    -0.300 OA
ATOM      9  C   UNL     1      31.186  59.263 -10.625  1.00  0.00     0.087 C 
ENDBRANCH   6   7
ENDBRANCH   5   6
ENDBRANCH   1   5
TORSDOF 5
ENDMDL
