MODEL 1
REMARK VINA RESULT:    -2.212      0.000      0.000
REMARK INTER + INTRA:          -2.898
REMARK INTER:                  -2.600
REMARK INTRA:                  -0.298
REMARK UNBOUND:                -0.298
REMARK SMILES O=c1cc(-c2ccc(O)c(O)c2)oc2cc(O)cc(O)c12
REMARK SMILES IDX 4 1 3 2 2 3 1 4 21 5 19 6 18 7 16 8 15 9 14 10 13 11 5 12
REMARK SMILES IDX 6 13 7 14 8 15 12 16 10 17 9 18 11 20 20 22 17 24
REMARK H PARENT 9 19 11 21 20 23 17 25
REMARK Flexibility Score: inf
ROOT
ATOM      1  C   UNL     1      -8.211   9.013  -9.151  1.00  0.00     0.138 A 
ATOM      2  C   UNL     1      -9.165   9.166 -10.170  1.00  0.00     0.100 A 
ATOM      3  C   UNL     1      -8.744   9.480 -11.463  1.00  0.00     0.197 A 
ATOM      4  O   UNL     1      -9.607   9.617 -12.372  1.00  0.00    -0.289 OA
ATOM      5  C   UNL     1      -7.369   9.642 -11.727  1.00  0.00     0.107 A 
ATOM      6  C   UNL     1      -6.857   9.959 -13.008  1.00  0.00     0.134 A 
ATOM      7  C   UNL     1      -5.474  10.109 -13.185  1.00  0.00     0.093 A 
ATOM      8  C   UNL     1      -4.595   9.950 -12.111  1.00  0.00     0.123 A 
ATOM      9  C   UNL     1      -5.096   9.636 -10.843  1.00  0.00     0.094 A 
ATOM     10  C   UNL     1      -6.471   9.482 -10.644  1.00  0.00     0.146 A 
ATOM     11  O   UNL     1      -6.921   9.182  -9.430  1.00  0.00    -0.456 OA
ENDROOT
BRANCH   1  12
ATOM     12  C   UNL     1      -8.602   8.681  -7.758  1.00  0.00     0.021 A 
ATOM     13  C   UNL     1      -9.741   9.285  -7.196  1.00  0.00     0.016 A 
ATOM     14  C   UNL     1     -10.125   8.995  -5.885  1.00  0.00     0.051 A 
ATOM     15  C   UNL     1      -9.374   8.105  -5.108  1.00  0.00     0.157 A 
ATOM     16  C   UNL     1      -7.843   7.796  -6.966  1.00  0.00     0.062 A 
ATOM     17  C   UNL     1      -8.227   7.506  -5.650  1.00  0.00     0.158 A 
BRANCH  15  18
ATOM     18  O   UNL     1      -9.762   7.817  -3.800  1.00  0.00    -0.504 OA
ATOM     19  H   UNL     1     -10.048   6.884  -3.525  1.00  0.00     0.293 HD
ENDBRANCH  15  18
BRANCH  17  20
ATOM     20  O   UNL     1      -7.450   6.624  -4.899  1.00  0.00    -0.504 OA
ATOM     21  H   UNL     1      -7.495   5.621  -5.031  1.00  0.00     0.293 HD
ENDBRANCH  17  20
ENDBRANCH   1  12
BRANCH   6  22
ATOM     22  O   UNL     1      -7.710  10.125 -14.100  1.00  0.00    -0.507 OA
ATOM     23  H   UNL     1      -7.754  10.997 -14.613  1.00  0.00     0.293 HD
ENDBRANCH   6  22
BRANCH   8  24
ATOM     24  O   UNL     1      -3.226  10.105 -12.315  1.00  0.00    -0.508 OA
ATOM     25  H   UNL     1      -2.568   9.375 -12.069  1.00  0.00     0.293 HD
ENDBRANCH   8  24
TORSDOF 5
ENDMDL
MODEL 2
REMARK VINA RESULT:    -1.704     17.181     20.854
REMARK INTER + INTRA:          -2.300
REMARK INTER:                  -1.998
REMARK INTRA:                  -0.302
REMARK UNBOUND:                -0.298
REMARK SMILES O=c1cc(-c2ccc(O)c(O)c2)oc2cc(O)cc(O)c12
REMARK SMILES IDX 4 1 3 2 2 3 1 4 21 5 19 6 18 7 16 8 15 9 14 10 13 11 5 12
REMARK SMILES IDX 6 13 7 14 8 15 12 16 10 17 9 18 11 20 20 22 17 24
REMARK H PARENT 9 19 11 21 20 23 17 25
REMARK Flexibility Score: inf
ROOT
ATOM      1  C   UNL     1      -8.383  -5.163   4.648  1.00  0.00     0.138 A 
ATOM      2  C   UNL     1      -7.358  -5.672   5.463  1.00  0.00     0.100 A 
ATOM      3  C   UNL     1      -6.975  -7.007   5.329  1.00  0.00     0.197 A 
ATOM      4  O   UNL     1      -6.055  -7.457   6.065  1.00  0.00    -0.289 OA
ATOM      5  C   UNL     1      -7.623  -7.826   4.383  1.00  0.00     0.107 A 
ATOM      6  C   UNL     1      -7.296  -9.188   4.182  1.00  0.00     0.134 A 
ATOM      7  C   UNL     1      -7.994  -9.937   3.224  1.00  0.00     0.093 A 
ATOM      8  C   UNL     1      -9.010  -9.352   2.463  1.00  0.00     0.123 A 
ATOM      9  C   UNL     1      -9.337  -8.006   2.657  1.00  0.00     0.094 A 
ATOM     10  C   UNL     1      -8.654  -7.242   3.607  1.00  0.00     0.146 A 
ATOM     11  O   UNL     1      -8.982  -5.965   3.771  1.00  0.00    -0.456 OA
ENDROOT
BRANCH   1  12
ATOM     12  C   UNL     1      -8.832  -3.752   4.748  1.00  0.00     0.021 A 
ATOM     13  C   UNL     1      -8.854  -3.120   6.004  1.00  0.00     0.016 A 
ATOM     14  C   UNL     1      -9.280  -1.795   6.125  1.00  0.00     0.051 A 
ATOM     15  C   UNL     1      -9.701  -1.080   4.997  1.00  0.00     0.157 A 
ATOM     16  C   UNL     1      -9.270  -3.032   3.618  1.00  0.00     0.062 A 
ATOM     17  C   UNL     1      -9.699  -1.704   3.739  1.00  0.00     0.158 A 
BRANCH  15  18
ATOM     18  O   UNL     1     -10.123   0.242   5.121  1.00  0.00    -0.504 OA
ATOM     19  H   UNL     1      -9.710   0.869   5.802  1.00  0.00     0.293 HD
ENDBRANCH  15  18
BRANCH  17  20
ATOM     20  O   UNL     1     -10.124  -1.024   2.598  1.00  0.00    -0.504 OA
ATOM     21  H   UNL     1      -9.513  -0.872   1.804  1.00  0.00     0.293 HD
ENDBRANCH  17  20
ENDBRANCH   1  12
BRANCH   6  22
ATOM     22  O   UNL     1      -6.287  -9.801   4.927  1.00  0.00    -0.507 OA
ATOM     23  H   UNL     1      -6.497 -10.430   5.692  1.00  0.00     0.293 HD
ENDBRANCH   6  22
BRANCH   8  24
ATOM     24  O   UNL     1      -9.687 -10.118   1.517  1.00  0.00    -0.508 OA
ATOM     25  H   UNL     1      -9.611 -11.128   1.500  1.00  0.00     0.293 HD
ENDBRANCH   8  24
TORSDOF 5
ENDMDL
MODEL 3
REMARK VINA RESULT:    -0.400     14.170     15.598
REMARK INTER + INTRA:          -0.768
REMARK INTER:                  -0.476
REMARK INTRA:                  -0.293
REMARK UNBOUND:                -0.298
REMARK SMILES O=c1cc(-c2ccc(O)c(O)c2)oc2cc(O)cc(O)c12
REMARK SMILES IDX 4 1 3 2 2 3 1 4 21 5 19 6 18 7 16 8 15 9 14 10 13 11 5 12
REMARK SMILES IDX 6 13 7 14 8 15 12 16 10 17 9 18 11 20 20 22 17 24
REMARK H PARENT 9 19 11 21 20 23 17 25
REMARK Flexibility Score: inf
ROOT
ATOM      1  C   UNL     1      -8.841  -4.559 -11.842  1.00  0.00     0.138 A 
ATOM      2  C   UNL     1      -8.621  -4.856 -10.487  1.00  0.00     0.100 A 
ATOM      3  C   UNL     1      -8.396  -6.178 -10.101  1.00  0.00     0.197 A 
ATOM      4  O   UNL     1      -8.200  -6.436  -8.883  1.00  0.00    -0.289 OA
ATOM      5  C   UNL     1      -8.396  -7.196 -11.075  1.00  0.00     0.107 A 
ATOM      6  C   UNL     1      -8.175  -8.561 -10.771  1.00  0.00     0.134 A 
ATOM      7  C   UNL     1      -8.198  -9.515 -11.799  1.00  0.00     0.093 A 
ATOM      8  C   UNL     1      -8.437  -9.133 -13.121  1.00  0.00     0.123 A 
ATOM      9  C   UNL     1      -8.655  -7.785 -13.428  1.00  0.00     0.094 A 
ATOM     10  C   UNL     1      -8.636  -6.819 -12.419  1.00  0.00     0.146 A 
ATOM     11  O   UNL     1      -8.845  -5.545 -12.736  1.00  0.00    -0.456 OA
ENDROOT
BRANCH   1  12
ATOM     12  C   UNL     1      -9.087  -3.172 -12.309  1.00  0.00     0.021 A 
ATOM     13  C   UNL     1      -8.875  -2.850 -13.661  1.00  0.00     0.016 A 
ATOM     14  C   UNL     1      -9.091  -1.549 -14.124  1.00  0.00     0.051 A 
ATOM     15  C   UNL     1      -9.514  -0.546 -13.244  1.00  0.00     0.157 A 
ATOM     16  C   UNL     1      -9.499  -2.154 -11.426  1.00  0.00     0.062 A 
ATOM     17  C   UNL     1      -9.715  -0.850 -11.888  1.00  0.00     0.158 A 
BRANCH  15  18
ATOM     18  O   UNL     1      -9.731   0.750 -13.710  1.00  0.00    -0.504 OA
ATOM     19  H   UNL     1      -9.847   0.946 -14.698  1.00  0.00     0.293 HD
ENDBRANCH  15  18
BRANCH  17  20
ATOM     20  O   UNL     1     -10.123   0.129 -10.984  1.00  0.00    -0.504 OA
ATOM     21  H   UNL     1     -11.042   0.117 -10.556  1.00  0.00     0.293 HD
ENDBRANCH  17  20
ENDBRANCH   1  12
BRANCH   6  22
ATOM     22  O   UNL     1      -7.936  -8.974  -9.459  1.00  0.00    -0.507 OA
ATOM     23  H   UNL     1      -8.692  -9.171  -8.816  1.00  0.00     0.293 HD
ENDBRANCH   6  22
BRANCH   8  24
ATOM     24  O   UNL     1      -8.454 -10.100 -14.123  1.00  0.00    -0.508 OA
ATOM     25  H   UNL     1      -8.290 -11.079 -13.918  1.00  0.00     0.293 HD
ENDBRANCH   8  24
TORSDOF 5
ENDMDL
