MODEL 1
REMARK VINA RESULT:    -3.175      0.000      0.000
REMARK INTER + INTRA:          -3.585
REMARK INTER:                  -3.546
REMARK INTRA:                  -0.039
REMARK UNBOUND:                -0.039
REMARK SMILES CC(C)CC=O
REMARK SMILES IDX 4 1 2 2 1 3 3 4 5 5 6 6
REMARK H PARENT
REMARK Flexibility Score: inf
ROOT
ATOM      1  C   UNL     1      20.863  43.372   1.481  1.00  0.00     0.075 C 
ENDROOT
BRANCH   1   2
ATOM      2  C   UNL     1      19.751  44.444   1.434  1.00  0.00    -0.010 C 
ATOM      3  C   UNL     1      18.384  43.888   1.856  1.00  0.00     0.008 C 
ATOM      4  C   UNL     1      19.665  45.120   0.058  1.00  0.00     0.008 C 
ENDBRANCH   1   2
BRANCH   1   5
ATOM      5  C   UNL     1      20.821  42.406   0.330  1.00  0.00     0.224 C 
ATOM      6  O   UNL     1      21.777  42.286  -0.419  1.00  0.00    -0.303 OA
ENDBRANCH   1   5
TORSDOF 2
ENDMDL
MODEL 2
REMARK VINA RESULT:    -3.031      2.007      2.999
REMARK INTER + INTRA:          -3.424
REMARK INTER:                  -3.367
REMARK INTRA:                  -0.057
REMARK UNBOUND:                -0.039
REMARK SMILES CC(C)CC=O
REMARK SMILES IDX 4 1 2 2 1 3 3 4 5 5 6 6
REMARK H PARENT
REMARK Flexibility Score: inf
ROOT
ATOM      1  C   UNL     1      19.890  44.544   1.391  1.00  0.00     0.075 C 
ENDROOT
BRANCH   1   2
ATOM      2  C   UNL     1      19.992  43.003   1.370  1.00  0.00    -0.010 C 
ATOM      3  C   UNL     1      21.118  42.503   0.454  1.00  0.00     0.008 C 
ATOM      4  C   UNL     1      18.654  42.346   1.001  1.00  0.00     0.008 C 
ENDBRANCH   1   2
BRANCH   1   5
ATOM      5  C   UNL     1      19.866  45.167   0.023  1.00  0.00     0.224 C 
ATOM      6  O   UNL     1      18.835  45.638  -0.429  1.00  0.00    -0.303 OA
ENDBRANCH   1   5
TORSDOF 2
ENDMDL
MODEL 3
REMARK VINA RESULT:    -3.028      0.931      1.785
REMARK INTER + INTRA:          -3.421
REMARK INTER:                  -3.371
REMARK INTRA:                  -0.050
REMARK UNBOUND:                -0.039
REMARK SMILES CC(C)CC=O
REMARK SMILES IDX 4 1 2 2 1 3 3 4 5 5 6 6
REMARK H PARENT
REMARK Flexibility Score: inf
ROOT
ATOM      1  C   UNL     1      20.054  44.027   1.557  1.00  0.00     0.075 C 
ENDROOT
BRANCH   1   2
ATOM      2  C   UNL     1      19.174  44.304   0.318  1.00  0.00    -0.010 C 
ATOM      3  C   UNL     1      19.509  45.645  -0.350  1.00  0.00     0.008 C 
ATOM      4  C   UNL     1      17.677  44.217   0.648  1.00  0.00     0.008 C 
ENDBRANCH   1   2
BRANCH   1   5
ATOM      5  C   UNL     1      20.967  42.844   1.398  1.00  0.00     0.224 C 
ATOM      6  O   UNL     1      21.353  42.498   0.293  1.00  0.00    -0.303 OA
ENDBRANCH   1   5
TORSDOF 2
ENDMDL
MODEL 4
REMARK VINA RESULT:    -2.958      2.041      2.984
REMARK INTER + INTRA:          -3.344
REMARK INTER:                  -3.276
REMARK INTRA:                  -0.067
REMARK UNBOUND:                -0.039
REMARK SMILES CC(C)CC=O
REMARK SMILES IDX 4 1 2 2 1 3 3 4 5 5 6 6
REMARK H PARENT
REMARK Flexibility Score: inf
ROOT
ATOM      1  C   UNL     1      19.016  44.049   2.253  1.00  0.00     0.075 C 
ENDROOT
BRANCH   1   2
ATOM      2  C   UNL     1      20.155  44.325   1.247  1.00  0.00    -0.010 C 
ATOM      3  C   UNL     1      19.671  45.098   0.013  1.00  0.00     0.008 C 
ATOM      4  C   UNL     1      20.879  43.035   0.835  1.00  0.00     0.008 C 
ENDBRANCH   1   2
BRANCH   1   5
ATOM      5  C   UNL     1      17.721  43.646   1.605  1.00  0.00     0.224 C 
ATOM      6  O   UNL     1      17.397  42.471   1.537  1.00  0.00    -0.303 OA
ENDBRANCH   1   5
TORSDOF 2
ENDMDL
MODEL 5
REMARK VINA RESULT:    -2.924     14.984     15.777
REMARK INTER + INTRA:          -3.305
REMARK INTER:                  -3.303
REMARK INTRA:                  -0.002
REMARK UNBOUND:                -0.039
REMARK SMILES CC(C)CC=O
REMARK SMILES IDX 4 1 2 2 1 3 3 4 5 5 6 6
REMARK H PARENT
REMARK Flexibility Score: inf
ROOT
ATOM      1  C   UNL     1      14.755  44.391 -14.146  1.00  0.00     0.075 C 
ENDROOT
BRANCH   1   2
ATOM      2  C   UNL     1      14.171  43.248 -13.286  1.00  0.00    -0.010 C 
ATOM      3  C   UNL     1      15.062  42.905 -12.084  1.00  0.00     0.008 C 
ATOM      4  C   UNL     1      13.876  41.995 -14.123  1.00  0.00     0.008 C 
ENDBRANCH   1   2
BRANCH   1   5
ATOM      5  C   UNL     1      15.657  43.916 -15.251  1.00  0.00     0.224 C 
ATOM      6  O   UNL     1      16.777  43.500 -15.005  1.00  0.00    -0.303 OA
ENDBRANCH   1   5
TORSDOF 2
ENDMDL
MODEL 6
REMARK VINA RESULT:    -2.894     15.867     17.082
REMARK INTER + INTRA:          -3.272
REMARK INTER:                  -3.251
REMARK INTRA:                  -0.021
REMARK UNBOUND:                -0.039
REMARK SMILES CC(C)CC=O
REMARK SMILES IDX 4 1 2 2 1 3 3 4 5 5 6 6
REMARK H PARENT
REMARK Flexibility Score: inf
ROOT
ATOM      1  C   UNL     1      24.379  57.428  -8.583  1.00  0.00     0.075 C 
ENDROOT
BRANCH   1   2
ATOM      2  C   UNL     1      24.409  55.891  -8.428  1.00  0.00    -0.010 C 
ATOM      3  C   UNL     1      23.379  55.385  -7.409  1.00  0.00     0.008 C 
ATOM      4  C   UNL     1      25.815  55.377  -8.086  1.00  0.00     0.008 C 
ENDBRANCH   1   2
BRANCH   1   5
ATOM      5  C   UNL     1      25.656  58.006  -9.127  1.00  0.00     0.224 C 
ATOM      6  O   UNL     1      25.779  59.210  -9.281  1.00  0.00    -0.303 OA
ENDBRANCH   1   5
TORSDOF 2
ENDMDL
MODEL 7
REMARK VINA RESULT:    -2.864      2.344      2.991
REMARK INTER + INTRA:          -3.238
REMARK INTER:                  -3.201
REMARK INTRA:                  -0.036
REMARK UNBOUND:                -0.039
REMARK SMILES CC(C)CC=O
REMARK SMILES IDX 4 1 2 2 1 3 3 4 5 5 6 6
REMARK H PARENT
REMARK Flexibility Score: inf
ROOT
ATOM      1  C   UNL     1      18.670  42.617   1.124  1.00  0.00     0.075 C 
ENDROOT
BRANCH   1   2
ATOM      2  C   UNL     1      20.116  42.994   1.518  1.00  0.00    -0.010 C 
ATOM      3  C   UNL     1      20.247  44.470   1.919  1.00  0.00     0.008 C 
ATOM      4  C   UNL     1      21.122  42.636   0.415  1.00  0.00     0.008 C 
ENDBRANCH   1   2
BRANCH   1   5
ATOM      5  C   UNL     1      18.112  43.448   0.003  1.00  0.00     0.224 C 
ATOM      6  O   UNL     1      17.192  44.224   0.202  1.00  0.00    -0.303 OA
ENDBRANCH   1   5
TORSDOF 2
ENDMDL
MODEL 8
REMARK VINA RESULT:    -2.805      9.832     10.737
REMARK INTER + INTRA:          -3.172
REMARK INTER:                  -3.146
REMARK INTRA:                  -0.026
REMARK UNBOUND:                -0.039
REMARK SMILES CC(C)CC=O
REMARK SMILES IDX 4 1 2 2 1 3 3 4 5 5 6 6
REMARK H PARENT
REMARK Flexibility Score: inf
ROOT
ATOM      1  C   UNL     1      29.975  45.587   1.084  1.00  0.00     0.075 C 
ENDROOT
BRANCH   1   2
ATOM      2  C   UNL     1      31.118  44.548   1.117  1.00  0.00    -0.010 C 
ATOM      3  C   UNL     1      32.325  45.031   1.933  1.00  0.00     0.008 C 
ATOM      4  C   UNL     1      31.547  44.123  -0.295  1.00  0.00     0.008 C 
ENDBRANCH   1   2
BRANCH   1   5
ATOM      5  C   UNL     1      29.065  45.447  -0.104  1.00  0.00     0.224 C 
ATOM      6  O   UNL     1      28.292  46.342  -0.406  1.00  0.00    -0.303 OA
ENDBRANCH   1   5
TORSDOF 2
ENDMDL
MODEL 9
REMARK VINA RESULT:    -2.798      2.148      2.701
REMARK INTER + INTRA:          -3.164
REMARK INTER:                  -3.105
REMARK INTRA:                  -0.059
REMARK UNBOUND:                -0.039
REMARK SMILES CC(C)CC=O
REMARK SMILES IDX 4 1 2 2 1 3 3 4 5 5 6 6
REMARK H PARENT
REMARK Flexibility Score: inf
ROOT
ATOM      1  C   UNL     1      18.629  42.584   1.090  1.00  0.00     0.075 C 
ENDROOT
BRANCH   1   2
ATOM      2  C   UNL     1      19.904  43.453   1.172  1.00  0.00    -0.010 C 
ATOM      3  C   UNL     1      19.753  44.786   0.425  1.00  0.00     0.008 C 
ATOM      4  C   UNL     1      21.147  42.693   0.688  1.00  0.00     0.008 C 
ENDBRANCH   1   2
BRANCH   1   5
ATOM      5  C   UNL     1      18.464  41.875  -0.226  1.00  0.00     0.224 C 
ATOM      6  O   UNL     1      17.627  42.246  -1.033  1.00  0.00    -0.303 OA
ENDBRANCH   1   5
TORSDOF 2
ENDMDL
