MODEL 1
REMARK VINA RESULT:    -4.462      0.000      0.000
REMARK INTER + INTRA:         -17.317
REMARK INTER:                 -11.767
REMARK INTRA:                  -5.550
REMARK UNBOUND:                -5.550
REMARK SMILES CCCCCCCCCCCCCCCCCCCCCCCCCCCCCC(=O)[O-]
REMARK SMILES IDX 16 1 17 2 18 3 19 4 20 5 21 6 22 7 23 8 24 9 25 10 26 11
REMARK SMILES IDX 27 12 28 13 29 14 30 15 31 16 32 17 15 18 14 19 13 20 12 21
REMARK SMILES IDX 11 22 10 23 9 24 8 25 7 26 6 27 5 28 4 29 3 30 2 31 1 32
REMARK H PARENT
REMARK Flexibility Score: inf
ROOT
ATOM      1  C   UNL     1     207.737 208.680 157.428  1.00  0.00     0.000 C 
ENDROOT
BRANCH   1   2
ATOM      2  C   UNL     1     209.002 208.675 158.308  1.00  0.00     0.000 C 
BRANCH   2   3
ATOM      3  C   UNL     1     209.304 207.309 158.961  1.00  0.00     0.000 C 
BRANCH   3   4
ATOM      4  C   UNL     1     208.332 206.208 158.500  1.00  0.00     0.000 C 
BRANCH   4   5
ATOM      5  C   UNL     1     207.953 205.240 159.637  1.00  0.00     0.000 C 
BRANCH   5   6
ATOM      6  C   UNL     1     206.495 204.747 159.576  1.00  0.00     0.000 C 
BRANCH   6   7
ATOM      7  C   UNL     1     206.393 203.212 159.611  1.00  0.00     0.000 C 
BRANCH   7   8
ATOM      8  C   UNL     1     205.624 202.636 158.410  1.00  0.00     0.000 C 
BRANCH   8   9
ATOM      9  C   UNL     1     206.453 201.718 157.485  1.00  0.00     0.000 C 
BRANCH   9  10
ATOM     10  C   UNL     1     206.381 202.064 155.984  1.00  0.00     0.000 C 
BRANCH  10  11
ATOM     11  C   UNL     1     207.662 202.693 155.398  1.00  0.00     0.000 C 
BRANCH  11  12
ATOM     12  C   UNL     1     208.696 203.155 156.441  1.00  0.00     0.000 C 
BRANCH  12  13
ATOM     13  C   UNL     1     210.111 203.296 155.853  1.00  0.00     0.006 C 
BRANCH  13  14
ATOM     14  C   UNL     1     210.517 202.072 155.022  1.00  0.00     0.053 C 
BRANCH  14  15
ATOM     15  C   UNL     1     211.933 202.165 154.540  1.00  0.00     0.041 C 
ATOM     16  O   UNL     1     212.769 201.278 154.856  1.00  0.00    -0.550 OA
ATOM     17  O   UNL     1     212.328 203.229 153.737  1.00  0.00    -0.550 OA
ENDBRANCH  14  15
ENDBRANCH  13  14
ENDBRANCH  12  13
ENDBRANCH  11  12
ENDBRANCH  10  11
ENDBRANCH   9  10
ENDBRANCH   8   9
ENDBRANCH   7   8
ENDBRANCH   6   7
ENDBRANCH   5   6
ENDBRANCH   4   5
ENDBRANCH   3   4
ENDBRANCH   2   3
ENDBRANCH   1   2
BRANCH   1  18
ATOM     18  C   UNL     1     206.996 210.024 157.363  1.00  0.00     0.000 C 
BRANCH  18  19
ATOM     19  C   UNL     1     205.469 209.863 157.420  1.00  0.00     0.000 C 
BRANCH  19  20
ATOM     20  C   UNL     1     204.942 210.095 158.844  1.00  0.00     0.000 C 
BRANCH  20  21
ATOM     21  C   UNL     1     204.426 208.805 159.503  1.00  0.00     0.000 C 
BRANCH  21  22
ATOM     22  C   UNL     1     204.731 207.550 158.672  1.00  0.00     0.000 C 
BRANCH  22  23
ATOM     23  C   UNL     1     203.451 206.744 158.406  1.00  0.00     0.000 C 
BRANCH  23  24
ATOM     24  C   UNL     1     203.294 206.343 156.927  1.00  0.00    -0.000 C 
BRANCH  24  25
ATOM     25  C   UNL     1     204.246 205.226 156.451  1.00  0.00    -0.000 C 
BRANCH  25  26
ATOM     26  C   UNL     1     205.659 205.694 156.042  1.00  0.00    -0.000 C 
BRANCH  26  27
ATOM     27  C   UNL     1     205.697 206.825 154.997  1.00  0.00    -0.000 C 
BRANCH  27  28
ATOM     28  C   UNL     1     206.943 206.770 154.098  1.00  0.00    -0.000 C 
BRANCH  28  29
ATOM     29  C   UNL     1     208.225 206.413 154.874  1.00  0.00    -0.000 C 
BRANCH  29  30
ATOM     30  C   UNL     1     209.339 207.476 154.829  1.00  0.00    -0.000 C 
BRANCH  30  31
ATOM     31  C   UNL     1     210.747 206.874 154.944  1.00  0.00    -0.003 C 
ATOM     32  C   UNL     1     211.667 207.783 155.755  1.00  0.00     0.004 C 
ENDBRANCH  30  31
ENDBRANCH  29  30
ENDBRANCH  28  29
ENDBRANCH  27  28
ENDBRANCH  26  27
ENDBRANCH  25  26
ENDBRANCH  24  25
ENDBRANCH  23  24
ENDBRANCH  22  23
ENDBRANCH  21  22
ENDBRANCH  20  21
ENDBRANCH  19  20
ENDBRANCH  18  19
ENDBRANCH   1  18
TORSDOF 28
ENDMDL
MODEL 2
REMARK VINA RESULT:    -4.434      2.168      5.553
REMARK INTER + INTRA:         -17.243
REMARK INTER:                 -13.212
REMARK INTRA:                  -4.030
REMARK UNBOUND:                -5.550
REMARK SMILES CCCCCCCCCCCCCCCCCCCCCCCCCCCCCC(=O)[O-]
REMARK SMILES IDX 16 1 17 2 18 3 19 4 20 5 21 6 22 7 23 8 24 9 25 10 26 11
REMARK SMILES IDX 27 12 28 13 29 14 30 15 31 16 32 17 15 18 14 19 13 20 12 21
REMARK SMILES IDX 11 22 10 23 9 24 8 25 7 26 6 27 5 28 4 29 3 30 2 31 1 32
REMARK H PARENT
REMARK Flexibility Score: inf
ROOT
ATOM      1  C   UNL     1     209.613 207.139 156.003  1.00  0.00     0.000 C 
ENDROOT
BRANCH   1   2
ATOM      2  C   UNL     1     209.219 207.969 157.240  1.00  0.00     0.000 C 
BRANCH   2   3
ATOM      3  C   UNL     1     209.075 207.137 158.532  1.00  0.00     0.000 C 
BRANCH   3   4
ATOM      4  C   UNL     1     207.767 206.326 158.567  1.00  0.00     0.000 C 
BRANCH   4   5
ATOM      5  C   UNL     1     207.818 205.164 159.577  1.00  0.00     0.000 C 
BRANCH   5   6
ATOM      6  C   UNL     1     206.476 204.428 159.750  1.00  0.00     0.000 C 
BRANCH   6   7
ATOM      7  C   UNL     1     205.654 204.394 158.450  1.00  0.00     0.000 C 
BRANCH   7   8
ATOM      8  C   UNL     1     205.935 203.145 157.597  1.00  0.00     0.000 C 
BRANCH   8   9
ATOM      9  C   UNL     1     205.726 203.332 156.079  1.00  0.00     0.000 C 
BRANCH   9  10
ATOM     10  C   UNL     1     206.924 202.927 155.198  1.00  0.00     0.000 C 
BRANCH  10  11
ATOM     11  C   UNL     1     208.151 202.398 155.969  1.00  0.00     0.000 C 
BRANCH  11  12
ATOM     12  C   UNL     1     209.130 203.482 156.457  1.00  0.00     0.000 C 
BRANCH  12  13
ATOM     13  C   UNL     1     210.395 203.576 155.585  1.00  0.00     0.006 C 
BRANCH  13  14
ATOM     14  C   UNL     1     210.736 202.238 154.915  1.00  0.00     0.053 C 
BRANCH  14  15
ATOM     15  C   UNL     1     212.157 202.195 154.442  1.00  0.00     0.041 C 
ATOM     16  O   UNL     1     212.602 203.102 153.689  1.00  0.00    -0.550 OA
ATOM     17  O   UNL     1     212.992 201.156 154.834  1.00  0.00    -0.550 OA
ENDBRANCH  14  15
ENDBRANCH  13  14
ENDBRANCH  12  13
ENDBRANCH  11  12
ENDBRANCH  10  11
ENDBRANCH   9  10
ENDBRANCH   8   9
ENDBRANCH   7   8
ENDBRANCH   6   7
ENDBRANCH   5   6
ENDBRANCH   4   5
ENDBRANCH   3   4
ENDBRANCH   2   3
ENDBRANCH   1   2
BRANCH   1  18
ATOM     18  C   UNL     1     208.614 207.199 154.836  1.00  0.00     0.000 C 
BRANCH  18  19
ATOM     19  C   UNL     1     207.362 206.342 155.083  1.00  0.00     0.000 C 
BRANCH  19  20
ATOM     20  C   UNL     1     206.217 206.757 154.149  1.00  0.00     0.000 C 
BRANCH  20  21
ATOM     21  C   UNL     1     204.931 207.120 154.910  1.00  0.00     0.000 C 
BRANCH  21  22
ATOM     22  C   UNL     1     205.207 207.617 156.337  1.00  0.00     0.000 C 
BRANCH  22  23
ATOM     23  C   UNL     1     205.356 209.145 156.367  1.00  0.00     0.000 C 
BRANCH  23  24
ATOM     24  C   UNL     1     206.350 209.628 157.439  1.00  0.00    -0.000 C 
BRANCH  24  25
ATOM     25  C   UNL     1     205.707 210.320 158.659  1.00  0.00    -0.000 C 
BRANCH  25  26
ATOM     26  C   UNL     1     204.513 209.571 159.289  1.00  0.00    -0.000 C 
BRANCH  26  27
ATOM     27  C   UNL     1     203.311 210.457 159.667  1.00  0.00    -0.000 C 
BRANCH  27  28
ATOM     28  C   UNL     1     202.104 209.648 160.168  1.00  0.00    -0.000 C 
BRANCH  28  29
ATOM     29  C   UNL     1     200.898 210.535 160.531  1.00  0.00    -0.000 C 
BRANCH  29  30
ATOM     30  C   UNL     1     201.153 211.570 161.643  1.00  0.00    -0.000 C 
BRANCH  30  31
ATOM     31  C   UNL     1     200.044 211.596 162.704  1.00  0.00    -0.003 C 
ATOM     32  C   UNL     1     198.779 210.911 162.193  1.00  0.00     0.004 C 
ENDBRANCH  30  31
ENDBRANCH  29  30
ENDBRANCH  28  29
ENDBRANCH  27  28
ENDBRANCH  26  27
ENDBRANCH  25  26
ENDBRANCH  24  25
ENDBRANCH  23  24
ENDBRANCH  22  23
ENDBRANCH  21  22
ENDBRANCH  20  21
ENDBRANCH  19  20
ENDBRANCH  18  19
ENDBRANCH   1  18
TORSDOF 28
ENDMDL
MODEL 3
REMARK VINA RESULT:    -4.300      1.842      5.993
REMARK INTER + INTRA:         -16.889
REMARK INTER:                 -12.283
REMARK INTRA:                  -4.606
REMARK UNBOUND:                -5.550
REMARK SMILES CCCCCCCCCCCCCCCCCCCCCCCCCCCCCC(=O)[O-]
REMARK SMILES IDX 16 1 17 2 18 3 19 4 20 5 21 6 22 7 23 8 24 9 25 10 26 11
REMARK SMILES IDX 27 12 28 13 29 14 30 15 31 16 32 17 15 18 14 19 13 20 12 21
REMARK SMILES IDX 11 22 10 23 9 24 8 25 7 26 6 27 5 28 4 29 3 30 2 31 1 32
REMARK H PARENT
REMARK Flexibility Score: inf
ROOT
ATOM      1  C   UNL     1     206.386 203.645 159.534  1.00  0.00     0.000 C 
ENDROOT
BRANCH   1   2
ATOM      2  C   UNL     1     205.232 203.669 158.513  1.00  0.00     0.000 C 
BRANCH   2   3
ATOM      3  C   UNL     1     205.023 205.042 157.837  1.00  0.00     0.000 C 
BRANCH   3   4
ATOM      4  C   UNL     1     203.604 205.205 157.264  1.00  0.00     0.000 C 
BRANCH   4   5
ATOM      5  C   UNL     1     203.491 206.400 156.298  1.00  0.00     0.000 C 
BRANCH   5   6
ATOM      6  C   UNL     1     204.843 207.053 155.954  1.00  0.00     0.000 C 
BRANCH   6   7
ATOM      7  C   UNL     1     205.096 207.116 154.438  1.00  0.00     0.000 C 
BRANCH   7   8
ATOM      8  C   UNL     1     206.377 206.377 154.014  1.00  0.00     0.000 C 
BRANCH   8   9
ATOM      9  C   UNL     1     206.855 205.286 154.995  1.00  0.00     0.000 C 
BRANCH   9  10
ATOM     10  C   UNL     1     206.344 203.863 154.692  1.00  0.00     0.000 C 
BRANCH  10  11
ATOM     11  C   UNL     1     207.312 202.727 155.080  1.00  0.00     0.000 C 
BRANCH  11  12
ATOM     12  C   UNL     1     208.167 202.998 156.331  1.00  0.00     0.000 C 
BRANCH  12  13
ATOM     13  C   UNL     1     209.652 203.229 155.999  1.00  0.00     0.006 C 
BRANCH  13  14
ATOM     14  C   UNL     1     210.320 201.968 155.434  1.00  0.00     0.053 C 
BRANCH  14  15
ATOM     15  C   UNL     1     211.631 202.276 154.775  1.00  0.00     0.041 C 
ATOM     16  O   UNL     1     211.779 203.349 154.131  1.00  0.00    -0.550 OA
ATOM     17  O   UNL     1     212.689 201.381 154.875  1.00  0.00    -0.550 OA
ENDBRANCH  14  15
ENDBRANCH  13  14
ENDBRANCH  12  13
ENDBRANCH  11  12
ENDBRANCH  10  11
ENDBRANCH   9  10
ENDBRANCH   8   9
ENDBRANCH   7   8
ENDBRANCH   6   7
ENDBRANCH   5   6
ENDBRANCH   4   5
ENDBRANCH   3   4
ENDBRANCH   2   3
ENDBRANCH   1   2
BRANCH   1  18
ATOM     18  C   UNL     1     206.879 205.028 159.990  1.00  0.00     0.000 C 
BRANCH  18  19
ATOM     19  C   UNL     1     208.372 205.249 159.702  1.00  0.00     0.000 C 
BRANCH  19  20
ATOM     20  C   UNL     1     208.612 206.618 159.050  1.00  0.00     0.000 C 
BRANCH  20  21
ATOM     21  C   UNL     1     208.626 206.550 157.514  1.00  0.00     0.000 C 
BRANCH  21  22
ATOM     22  C   UNL     1     208.346 207.910 156.857  1.00  0.00     0.000 C 
BRANCH  22  23
ATOM     23  C   UNL     1     207.632 208.855 157.835  1.00  0.00     0.000 C 
BRANCH  23  24
ATOM     24  C   UNL     1     206.678 209.837 157.130  1.00  0.00    -0.000 C 
BRANCH  24  25
ATOM     25  C   UNL     1     205.317 210.037 157.828  1.00  0.00    -0.000 C 
BRANCH  25  26
ATOM     26  C   UNL     1     204.984 209.013 158.932  1.00  0.00    -0.000 C 
BRANCH  26  27
ATOM     27  C   UNL     1     203.893 209.453 159.926  1.00  0.00    -0.000 C 
BRANCH  27  28
ATOM     28  C   UNL     1     202.506 208.883 159.586  1.00  0.00    -0.000 C 
BRANCH  28  29
ATOM     29  C   UNL     1     201.354 209.751 160.125  1.00  0.00    -0.000 C 
BRANCH  29  30
ATOM     30  C   UNL     1     201.738 211.194 160.502  1.00  0.00    -0.000 C 
BRANCH  30  31
ATOM     31  C   UNL     1     201.084 211.668 161.808  1.00  0.00    -0.003 C 
ATOM     32  C   UNL     1     199.713 211.026 161.999  1.00  0.00     0.004 C 
ENDBRANCH  30  31
ENDBRANCH  29  30
ENDBRANCH  28  29
ENDBRANCH  27  28
ENDBRANCH  26  27
ENDBRANCH  25  26
ENDBRANCH  24  25
ENDBRANCH  23  24
ENDBRANCH  22  23
ENDBRANCH  21  22
ENDBRANCH  20  21
ENDBRANCH  19  20
ENDBRANCH  18  19
ENDBRANCH   1  18
TORSDOF 28
ENDMDL
MODEL 4
REMARK VINA RESULT:    -4.229      3.968      7.504
REMARK INTER + INTRA:         -16.702
REMARK INTER:                 -12.339
REMARK INTRA:                  -4.364
REMARK UNBOUND:                -5.550
REMARK SMILES CCCCCCCCCCCCCCCCCCCCCCCCCCCCCC(=O)[O-]
REMARK SMILES IDX 16 1 17 2 18 3 19 4 20 5 21 6 22 7 23 8 24 9 25 10 26 11
REMARK SMILES IDX 27 12 28 13 29 14 30 15 31 16 32 17 15 18 14 19 13 20 12 21
REMARK SMILES IDX 11 22 10 23 9 24 8 25 7 26 6 27 5 28 4 29 3 30 2 31 1 32
REMARK H PARENT
REMARK Flexibility Score: inf
ROOT
ATOM      1  C   UNL     1     205.026 207.107 155.726  1.00  0.00     0.000 C 
ENDROOT
BRANCH   1   2
ATOM      2  C   UNL     1     205.337 206.635 154.293  1.00  0.00     0.000 C 
BRANCH   2   3
ATOM      3  C   UNL     1     206.820 206.792 153.891  1.00  0.00     0.000 C 
BRANCH   3   4
ATOM      4  C   UNL     1     207.776 206.603 155.083  1.00  0.00     0.000 C 
BRANCH   4   5
ATOM      5  C   UNL     1     209.155 207.246 154.842  1.00  0.00     0.000 C 
BRANCH   5   6
ATOM      6  C   UNL     1     209.926 207.571 156.136  1.00  0.00     0.000 C 
BRANCH   6   7
ATOM      7  C   UNL     1     209.116 207.239 157.400  1.00  0.00     0.000 C 
BRANCH   7   8
ATOM      8  C   UNL     1     208.592 208.492 158.122  1.00  0.00     0.000 C 
BRANCH   8   9
ATOM      9  C   UNL     1     207.339 209.134 157.487  1.00  0.00     0.000 C 
BRANCH   9  10
ATOM     10  C   UNL     1     206.910 210.481 158.102  1.00  0.00     0.000 C 
BRANCH  10  11
ATOM     11  C   UNL     1     205.590 210.441 158.900  1.00  0.00     0.000 C 
BRANCH  11  12
ATOM     12  C   UNL     1     204.885 209.072 158.923  1.00  0.00     0.000 C 
BRANCH  12  13
ATOM     13  C   UNL     1     203.539 209.110 159.669  1.00  0.00     0.006 C 
BRANCH  13  14
ATOM     14  C   UNL     1     203.007 210.540 159.831  1.00  0.00     0.053 C 
BRANCH  14  15
ATOM     15  C   UNL     1     201.628 210.562 160.418  1.00  0.00     0.041 C 
ATOM     16  O   UNL     1     201.274 211.512 161.167  1.00  0.00    -0.550 OA
ATOM     17  O   UNL     1     200.733 209.538 160.135  1.00  0.00    -0.550 OA
ENDBRANCH  14  15
ENDBRANCH  13  14
ENDBRANCH  12  13
ENDBRANCH  11  12
ENDBRANCH  10  11
ENDBRANCH   9  10
ENDBRANCH   8   9
ENDBRANCH   7   8
ENDBRANCH   6   7
ENDBRANCH   5   6
ENDBRANCH   4   5
ENDBRANCH   3   4
ENDBRANCH   2   3
ENDBRANCH   1   2
BRANCH   1  18
ATOM     18  C   UNL     1     203.863 206.375 156.413  1.00  0.00     0.000 C 
BRANCH  18  19
ATOM     19  C   UNL     1     204.339 205.269 157.368  1.00  0.00     0.000 C 
BRANCH  19  20
ATOM     20  C   UNL     1     205.482 205.767 158.264  1.00  0.00     0.000 C 
BRANCH  20  21
ATOM     21  C   UNL     1     206.659 204.780 158.331  1.00  0.00     0.000 C 
BRANCH  21  22
ATOM     22  C   UNL     1     206.406 203.619 159.305  1.00  0.00     0.000 C 
BRANCH  22  23
ATOM     23  C   UNL     1     205.653 202.475 158.610  1.00  0.00     0.000 C 
BRANCH  23  24
ATOM     24  C   UNL     1     206.494 201.777 157.525  1.00  0.00    -0.000 C 
BRANCH  24  25
ATOM     25  C   UNL     1     206.138 202.165 156.075  1.00  0.00    -0.000 C 
BRANCH  25  26
ATOM     26  C   UNL     1     207.251 202.897 155.295  1.00  0.00    -0.000 C 
BRANCH  26  27
ATOM     27  C   UNL     1     208.681 202.399 155.574  1.00  0.00    -0.000 C 
BRANCH  27  28
ATOM     28  C   UNL     1     209.633 203.524 156.015  1.00  0.00    -0.000 C 
BRANCH  28  29
ATOM     29  C   UNL     1     211.020 203.428 155.352  1.00  0.00    -0.000 C 
BRANCH  29  30
ATOM     30  C   UNL     1     211.398 202.035 154.816  1.00  0.00    -0.000 C 
BRANCH  30  31
ATOM     31  C   UNL     1     212.789 201.998 154.168  1.00  0.00    -0.003 C 
ATOM     32  C   UNL     1     213.530 200.714 154.531  1.00  0.00     0.004 C 
ENDBRANCH  30  31
ENDBRANCH  29  30
ENDBRANCH  28  29
ENDBRANCH  27  28
ENDBRANCH  26  27
ENDBRANCH  25  26
ENDBRANCH  24  25
ENDBRANCH  23  24
ENDBRANCH  22  23
ENDBRANCH  21  22
ENDBRANCH  20  21
ENDBRANCH  19  20
ENDBRANCH  18  19
ENDBRANCH   1  18
TORSDOF 28
ENDMDL
MODEL 5
REMARK VINA RESULT:    -4.221      3.969      7.586
REMARK INTER + INTRA:         -16.681
REMARK INTER:                 -12.311
REMARK INTRA:                  -4.371
REMARK UNBOUND:                -5.550
REMARK SMILES CCCCCCCCCCCCCCCCCCCCCCCCCCCCCC(=O)[O-]
REMARK SMILES IDX 16 1 17 2 18 3 19 4 20 5 21 6 22 7 23 8 24 9 25 10 26 11
REMARK SMILES IDX 27 12 28 13 29 14 30 15 31 16 32 17 15 18 14 19 13 20 12 21
REMARK SMILES IDX 11 22 10 23 9 24 8 25 7 26 6 27 5 28 4 29 3 30 2 31 1 32
REMARK H PARENT
REMARK Flexibility Score: inf
ROOT
ATOM      1  C   UNL     1     208.054 205.827 158.409  1.00  0.00     0.000 C 
ENDROOT
BRANCH   1   2
ATOM      2  C   UNL     1     208.856 207.122 158.645  1.00  0.00     0.000 C 
BRANCH   2   3
ATOM      3  C   UNL     1     208.807 208.113 157.462  1.00  0.00     0.000 C 
BRANCH   3   4
ATOM      4  C   UNL     1     209.736 207.697 156.308  1.00  0.00     0.000 C 
BRANCH   4   5
ATOM      5  C   UNL     1     208.980 207.508 154.979  1.00  0.00     0.000 C 
BRANCH   5   6
ATOM      6  C   UNL     1     208.090 206.251 154.942  1.00  0.00     0.000 C 
BRANCH   6   7
ATOM      7  C   UNL     1     206.631 206.576 154.580  1.00  0.00     0.000 C 
BRANCH   7   8
ATOM      8  C   UNL     1     205.633 206.143 155.668  1.00  0.00     0.000 C 
BRANCH   8   9
ATOM      9  C   UNL     1     204.848 207.297 156.328  1.00  0.00     0.000 C 
BRANCH   9  10
ATOM     10  C   UNL     1     204.328 207.006 157.750  1.00  0.00     0.000 C 
BRANCH  10  11
ATOM     11  C   UNL     1     205.005 207.821 158.871  1.00  0.00     0.000 C 
BRANCH  11  12
ATOM     12  C   UNL     1     205.335 209.280 158.507  1.00  0.00     0.000 C 
BRANCH  12  13
ATOM     13  C   UNL     1     204.280 210.275 159.023  1.00  0.00     0.006 C 
BRANCH  13  14
ATOM     14  C   UNL     1     203.194 209.584 159.859  1.00  0.00     0.053 C 
BRANCH  14  15
ATOM     15  C   UNL     1     202.038 210.496 160.140  1.00  0.00     0.041 C 
ATOM     16  O   UNL     1     202.189 211.745 160.083  1.00  0.00    -0.550 OA
ATOM     17  O   UNL     1     200.793 209.967 160.458  1.00  0.00    -0.550 OA
ENDBRANCH  14  15
ENDBRANCH  13  14
ENDBRANCH  12  13
ENDBRANCH  11  12
ENDBRANCH  10  11
ENDBRANCH   9  10
ENDBRANCH   8   9
ENDBRANCH   7   8
ENDBRANCH   6   7
ENDBRANCH   5   6
ENDBRANCH   4   5
ENDBRANCH   3   4
ENDBRANCH   2   3
ENDBRANCH   1   2
BRANCH   1  18
ATOM     18  C   UNL     1     207.833 204.963 159.660  1.00  0.00     0.000 C 
BRANCH  18  19
ATOM     19  C   UNL     1     206.392 204.441 159.773  1.00  0.00     0.000 C 
BRANCH  19  20
ATOM     20  C   UNL     1     205.908 203.861 158.436  1.00  0.00     0.000 C 
BRANCH  20  21
ATOM     21  C   UNL     1     205.820 202.326 158.451  1.00  0.00     0.000 C 
BRANCH  21  22
ATOM     22  C   UNL     1     206.458 201.683 157.211  1.00  0.00     0.000 C 
BRANCH  22  23
ATOM     23  C   UNL     1     206.382 202.627 156.002  1.00  0.00     0.000 C 
BRANCH  23  24
ATOM     24  C   UNL     1     207.639 202.566 155.115  1.00  0.00    -0.000 C 
BRANCH  24  25
ATOM     25  C   UNL     1     208.960 202.322 155.873  1.00  0.00    -0.000 C 
BRANCH  25  26
ATOM     26  C   UNL     1     209.893 203.546 155.984  1.00  0.00    -0.000 C 
BRANCH  26  27
ATOM     27  C   UNL     1     211.235 203.416 155.238  1.00  0.00    -0.000 C 
BRANCH  27  28
ATOM     28  C   UNL     1     211.430 202.036 154.589  1.00  0.00    -0.000 C 
BRANCH  28  29
ATOM     29  C   UNL     1     212.892 201.763 154.191  1.00  0.00    -0.000 C 
BRANCH  29  30
ATOM     30  C   UNL     1     213.490 200.454 154.741  1.00  0.00    -0.000 C 
BRANCH  30  31
ATOM     31  C   UNL     1     214.635 199.907 153.876  1.00  0.00    -0.003 C 
ATOM     32  C   UNL     1     215.908 200.726 154.071  1.00  0.00     0.004 C 
ENDBRANCH  30  31
ENDBRANCH  29  30
ENDBRANCH  28  29
ENDBRANCH  27  28
ENDBRANCH  26  27
ENDBRANCH  25  26
ENDBRANCH  24  25
ENDBRANCH  23  24
ENDBRANCH  22  23
ENDBRANCH  21  22
ENDBRANCH  20  21
ENDBRANCH  19  20
ENDBRANCH  18  19
ENDBRANCH   1  18
TORSDOF 28
ENDMDL
MODEL 6
REMARK VINA RESULT:    -4.219      2.441      5.584
REMARK INTER + INTRA:         -16.676
REMARK INTER:                 -12.009
REMARK INTRA:                  -4.666
REMARK UNBOUND:                -5.550
REMARK SMILES CCCCCCCCCCCCCCCCCCCCCCCCCCCCCC(=O)[O-]
REMARK SMILES IDX 16 1 17 2 18 3 19 4 20 5 21 6 22 7 23 8 24 9 25 10 26 11
REMARK SMILES IDX 27 12 28 13 29 14 30 15 31 16 32 17 15 18 14 19 13 20 12 21
REMARK SMILES IDX 11 22 10 23 9 24 8 25 7 26 6 27 5 28 4 29 3 30 2 31 1 32
REMARK H PARENT
REMARK Flexibility Score: inf
ROOT
ATOM      1  C   UNL     1     208.487 206.084 156.598  1.00  0.00     0.000 C 
ENDROOT
BRANCH   1   2
ATOM      2  C   UNL     1     208.555 206.791 155.230  1.00  0.00     0.000 C 
BRANCH   2   3
ATOM      3  C   UNL     1     209.719 207.797 155.103  1.00  0.00     0.000 C 
BRANCH   3   4
ATOM      4  C   UNL     1     211.094 207.135 155.311  1.00  0.00     0.000 C 
BRANCH   4   5
ATOM      5  C   UNL     1     211.307 205.915 154.394  1.00  0.00     0.000 C 
BRANCH   5   6
ATOM      6  C   UNL     1     211.406 204.576 155.150  1.00  0.00     0.000 C 
BRANCH   6   7
ATOM      7  C   UNL     1     211.928 203.437 154.258  1.00  0.00     0.000 C 
BRANCH   7   8
ATOM      8  C   UNL     1     211.198 202.104 154.502  1.00  0.00     0.000 C 
BRANCH   8   9
ATOM      9  C   UNL     1     210.014 202.181 155.489  1.00  0.00     0.000 C 
BRANCH   9  10
ATOM     10  C   UNL     1     208.616 202.135 154.840  1.00  0.00     0.000 C 
BRANCH  10  11
ATOM     11  C   UNL     1     207.539 202.978 155.554  1.00  0.00     0.000 C 
BRANCH  11  12
ATOM     12  C   UNL     1     206.330 202.180 156.076  1.00  0.00     0.000 C 
BRANCH  12  13
ATOM     13  C   UNL     1     206.725 201.109 157.109  1.00  0.00     0.006 C 
BRANCH  13  14
ATOM     14  C   UNL     1     206.078 201.359 158.478  1.00  0.00     0.053 C 
BRANCH  14  15
ATOM     15  C   UNL     1     206.379 200.258 159.449  1.00  0.00     0.041 C 
ATOM     16  O   UNL     1     207.009 199.235 159.071  1.00  0.00    -0.550 OA
ATOM     17  O   UNL     1     205.970 200.364 160.773  1.00  0.00    -0.550 OA
ENDBRANCH  14  15
ENDBRANCH  13  14
ENDBRANCH  12  13
ENDBRANCH  11  12
ENDBRANCH  10  11
ENDBRANCH   9  10
ENDBRANCH   8   9
ENDBRANCH   7   8
ENDBRANCH   6   7
ENDBRANCH   5   6
ENDBRANCH   4   5
ENDBRANCH   3   4
ENDBRANCH   2   3
ENDBRANCH   1   2
BRANCH   1  18
ATOM     18  C   UNL     1     208.653 207.007 157.815  1.00  0.00     0.000 C 
BRANCH  18  19
ATOM     19  C   UNL     1     208.407 206.281 159.147  1.00  0.00     0.000 C 
BRANCH  19  20
ATOM     20  C   UNL     1     207.434 205.108 158.966  1.00  0.00     0.000 C 
BRANCH  20  21
ATOM     21  C   UNL     1     205.974 205.497 159.256  1.00  0.00     0.000 C 
BRANCH  21  22
ATOM     22  C   UNL     1     204.989 204.908 158.235  1.00  0.00     0.000 C 
BRANCH  22  23
ATOM     23  C   UNL     1     204.381 206.013 157.359  1.00  0.00     0.000 C 
BRANCH  23  24
ATOM     24  C   UNL     1     205.027 206.094 155.964  1.00  0.00    -0.000 C 
BRANCH  24  25
ATOM     25  C   UNL     1     205.025 207.498 155.325  1.00  0.00    -0.000 C 
BRANCH  25  26
ATOM     26  C   UNL     1     204.951 208.675 156.319  1.00  0.00    -0.000 C 
BRANCH  26  27
ATOM     27  C   UNL     1     206.311 209.257 156.748  1.00  0.00    -0.000 C 
BRANCH  27  28
ATOM     28  C   UNL     1     206.270 209.922 158.134  1.00  0.00    -0.000 C 
BRANCH  28  29
ATOM     29  C   UNL     1     205.202 209.310 159.060  1.00  0.00    -0.000 C 
BRANCH  29  30
ATOM     30  C   UNL     1     204.034 210.247 159.426  1.00  0.00    -0.000 C 
BRANCH  30  31
ATOM     31  C   UNL     1     202.798 209.493 159.935  1.00  0.00    -0.003 C 
ATOM     32  C   UNL     1     201.708 210.464 160.380  1.00  0.00     0.004 C 
ENDBRANCH  30  31
ENDBRANCH  29  30
ENDBRANCH  28  29
ENDBRANCH  27  28
ENDBRANCH  26  27
ENDBRANCH  25  26
ENDBRANCH  24  25
ENDBRANCH  23  24
ENDBRANCH  22  23
ENDBRANCH  21  22
ENDBRANCH  20  21
ENDBRANCH  19  20
ENDBRANCH  18  19
ENDBRANCH   1  18
TORSDOF 28
ENDMDL
MODEL 7
REMARK VINA RESULT:    -4.196      3.794      8.135
REMARK INTER + INTRA:         -16.615
REMARK INTER:                 -11.606
REMARK INTRA:                  -5.009
REMARK UNBOUND:                -5.550
REMARK SMILES CCCCCCCCCCCCCCCCCCCCCCCCCCCCCC(=O)[O-]
REMARK SMILES IDX 16 1 17 2 18 3 19 4 20 5 21 6 22 7 23 8 24 9 25 10 26 11
REMARK SMILES IDX 27 12 28 13 29 14 30 15 31 16 32 17 15 18 14 19 13 20 12 21
REMARK SMILES IDX 11 22 10 23 9 24 8 25 7 26 6 27 5 28 4 29 3 30 2 31 1 32
REMARK H PARENT
REMARK Flexibility Score: inf
ROOT
ATOM      1  C   UNL     1     210.761 202.426 155.636  1.00  0.00     0.000 C 
ENDROOT
BRANCH   1   2
ATOM      2  C   UNL     1     209.336 201.995 155.238  1.00  0.00     0.000 C 
BRANCH   2   3
ATOM      3  C   UNL     1     208.227 202.613 156.117  1.00  0.00     0.000 C 
BRANCH   3   4
ATOM      4  C   UNL     1     206.817 202.347 155.560  1.00  0.00     0.000 C 
BRANCH   4   5
ATOM      5  C   UNL     1     206.362 203.430 154.562  1.00  0.00     0.000 C 
BRANCH   5   6
ATOM      6  C   UNL     1     207.047 204.794 154.768  1.00  0.00     0.000 C 
BRANCH   6   7
ATOM      7  C   UNL     1     206.133 205.972 154.390  1.00  0.00     0.000 C 
BRANCH   7   8
ATOM      8  C   UNL     1     206.220 207.141 155.387  1.00  0.00     0.000 C 
BRANCH   8   9
ATOM      9  C   UNL     1     204.957 208.026 155.464  1.00  0.00     0.000 C 
BRANCH   9  10
ATOM     10  C   UNL     1     205.155 209.391 156.154  1.00  0.00     0.000 C 
BRANCH  10  11
ATOM     11  C   UNL     1     205.824 209.327 157.543  1.00  0.00     0.000 C 
BRANCH  11  12
ATOM     12  C   UNL     1     204.949 208.729 158.659  1.00  0.00     0.000 C 
BRANCH  12  13
ATOM     13  C   UNL     1     204.589 209.756 159.748  1.00  0.00     0.006 C 
BRANCH  13  14
ATOM     14  C   UNL     1     203.365 210.598 159.366  1.00  0.00     0.053 C 
BRANCH  14  15
ATOM     15  C   UNL     1     202.130 210.153 160.089  1.00  0.00     0.041 C 
ATOM     16  O   UNL     1     201.556 210.929 160.898  1.00  0.00    -0.550 OA
ATOM     17  O   UNL     1     201.610 208.884 159.867  1.00  0.00    -0.550 OA
ENDBRANCH  14  15
ENDBRANCH  13  14
ENDBRANCH  12  13
ENDBRANCH  11  12
ENDBRANCH  10  11
ENDBRANCH   9  10
ENDBRANCH   8   9
ENDBRANCH   7   8
ENDBRANCH   6   7
ENDBRANCH   5   6
ENDBRANCH   4   5
ENDBRANCH   3   4
ENDBRANCH   2   3
ENDBRANCH   1   2
BRANCH   1  18
ATOM     18  C   UNL     1     211.739 202.594 154.463  1.00  0.00     0.000 C 
BRANCH  18  19
ATOM     19  C   UNL     1     211.904 204.061 154.034  1.00  0.00     0.000 C 
BRANCH  19  20
ATOM     20  C   UNL     1     211.306 205.013 155.080  1.00  0.00     0.000 C 
BRANCH  20  21
ATOM     21  C   UNL     1     210.927 206.381 154.490  1.00  0.00     0.000 C 
BRANCH  21  22
ATOM     22  C   UNL     1     210.926 207.501 155.541  1.00  0.00     0.000 C 
BRANCH  22  23
ATOM     23  C   UNL     1     209.503 207.767 156.056  1.00  0.00     0.000 C 
BRANCH  23  24
ATOM     24  C   UNL     1     209.337 207.434 157.550  1.00  0.00    -0.000 C 
BRANCH  24  25
ATOM     25  C   UNL     1     208.540 206.146 157.846  1.00  0.00    -0.000 C 
BRANCH  25  26
ATOM     26  C   UNL     1     208.211 205.901 159.334  1.00  0.00    -0.000 C 
BRANCH  26  27
ATOM     27  C   UNL     1     206.738 205.564 159.632  1.00  0.00    -0.000 C 
BRANCH  27  28
ATOM     28  C   UNL     1     206.423 204.066 159.484  1.00  0.00    -0.000 C 
BRANCH  28  29
ATOM     29  C   UNL     1     205.232 203.794 158.546  1.00  0.00    -0.000 C 
BRANCH  29  30
ATOM     30  C   UNL     1     204.850 204.959 157.613  1.00  0.00    -0.000 C 
BRANCH  30  31
ATOM     31  C   UNL     1     203.388 204.900 157.148  1.00  0.00    -0.003 C 
ATOM     32  C   UNL     1     202.580 206.056 157.732  1.00  0.00     0.004 C 
ENDBRANCH  30  31
ENDBRANCH  29  30
ENDBRANCH  28  29
ENDBRANCH  27  28
ENDBRANCH  26  27
ENDBRANCH  25  26
ENDBRANCH  24  25
ENDBRANCH  23  24
ENDBRANCH  22  23
ENDBRANCH  21  22
ENDBRANCH  20  21
ENDBRANCH  19  20
ENDBRANCH  18  19
ENDBRANCH   1  18
TORSDOF 28
ENDMDL
MODEL 8
REMARK VINA RESULT:    -4.154      3.705      7.491
REMARK INTER + INTRA:         -16.505
REMARK INTER:                 -11.961
REMARK INTRA:                  -4.544
REMARK UNBOUND:                -5.550
REMARK SMILES CCCCCCCCCCCCCCCCCCCCCCCCCCCCCC(=O)[O-]
REMARK SMILES IDX 16 1 17 2 18 3 19 4 20 5 21 6 22 7 23 8 24 9 25 10 26 11
REMARK SMILES IDX 27 12 28 13 29 14 30 15 31 16 32 17 15 18 14 19 13 20 12 21
REMARK SMILES IDX 11 22 10 23 9 24 8 25 7 26 6 27 5 28 4 29 3 30 2 31 1 32
REMARK H PARENT
REMARK Flexibility Score: inf
ROOT
ATOM      1  C   UNL     1     204.565 206.948 156.277  1.00  0.00     0.000 C 
ENDROOT
BRANCH   1   2
ATOM      2  C   UNL     1     203.352 206.137 156.771  1.00  0.00     0.000 C 
BRANCH   2   3
ATOM      3  C   UNL     1     203.729 204.844 157.526  1.00  0.00     0.000 C 
BRANCH   3   4
ATOM      4  C   UNL     1     205.250 204.616 157.580  1.00  0.00     0.000 C 
BRANCH   4   5
ATOM      5  C   UNL     1     205.719 204.071 158.942  1.00  0.00     0.000 C 
BRANCH   5   6
ATOM      6  C   UNL     1     206.641 205.034 159.715  1.00  0.00     0.000 C 
BRANCH   6   7
ATOM      7  C   UNL     1     206.814 206.383 158.997  1.00  0.00     0.000 C 
BRANCH   7   8
ATOM      8  C   UNL     1     208.266 206.646 158.562  1.00  0.00     0.000 C 
BRANCH   8   9
ATOM      9  C   UNL     1     208.573 208.107 158.166  1.00  0.00     0.000 C 
BRANCH   9  10
ATOM     10  C   UNL     1     207.433 208.840 157.432  1.00  0.00     0.000 C 
BRANCH  10  11
ATOM     11  C   UNL     1     207.182 210.289 157.899  1.00  0.00     0.000 C 
BRANCH  11  12
ATOM     12  C   UNL     1     206.040 210.456 158.917  1.00  0.00     0.000 C 
BRANCH  12  13
ATOM     13  C   UNL     1     204.781 209.656 158.536  1.00  0.00     0.006 C 
BRANCH  13  14
ATOM     14  C   UNL     1     203.971 209.231 159.767  1.00  0.00     0.053 C 
BRANCH  14  15
ATOM     15  C   UNL     1     202.651 209.938 159.841  1.00  0.00     0.041 C 
ATOM     16  O   UNL     1     202.606 211.197 159.833  1.00  0.00    -0.550 OA
ATOM     17  O   UNL     1     201.471 209.208 159.914  1.00  0.00    -0.550 OA
ENDBRANCH  14  15
ENDBRANCH  13  14
ENDBRANCH  12  13
ENDBRANCH  11  12
ENDBRANCH  10  11
ENDBRANCH   9  10
ENDBRANCH   8   9
ENDBRANCH   7   8
ENDBRANCH   6   7
ENDBRANCH   5   6
ENDBRANCH   4   5
ENDBRANCH   3   4
ENDBRANCH   2   3
ENDBRANCH   1   2
BRANCH   1  18
ATOM     18  C   UNL     1     204.581 207.241 154.769  1.00  0.00     0.000 C 
BRANCH  18  19
ATOM     19  C   UNL     1     205.873 206.769 154.086  1.00  0.00     0.000 C 
BRANCH  19  20
ATOM     20  C   UNL     1     206.900 206.285 155.120  1.00  0.00     0.000 C 
BRANCH  20  21
ATOM     21  C   UNL     1     208.333 206.255 154.565  1.00  0.00     0.000 C 
BRANCH  21  22
ATOM     22  C   UNL     1     209.104 207.555 154.839  1.00  0.00     0.000 C 
BRANCH  22  23
ATOM     23  C   UNL     1     210.549 207.256 155.264  1.00  0.00     0.000 C 
BRANCH  23  24
ATOM     24  C   UNL     1     211.234 206.212 154.364  1.00  0.00    -0.000 C 
BRANCH  24  25
ATOM     25  C   UNL     1     211.600 204.887 155.065  1.00  0.00    -0.000 C 
BRANCH  25  26
ATOM     26  C   UNL     1     211.987 203.727 154.123  1.00  0.00    -0.000 C 
BRANCH  26  27
ATOM     27  C   UNL     1     211.399 202.354 154.499  1.00  0.00    -0.000 C 
BRANCH  27  28
ATOM     28  C   UNL     1     210.362 202.436 155.631  1.00  0.00    -0.000 C 
BRANCH  28  29
ATOM     29  C   UNL     1     208.972 201.923 155.209  1.00  0.00    -0.000 C 
BRANCH  29  30
ATOM     30  C   UNL     1     207.780 202.733 155.752  1.00  0.00    -0.000 C 
BRANCH  30  31
ATOM     31  C   UNL     1     206.519 201.881 155.954  1.00  0.00    -0.003 C 
ATOM     32  C   UNL     1     206.639 201.010 157.201  1.00  0.00     0.004 C 
ENDBRANCH  30  31
ENDBRANCH  29  30
ENDBRANCH  28  29
ENDBRANCH  27  28
ENDBRANCH  26  27
ENDBRANCH  25  26
ENDBRANCH  24  25
ENDBRANCH  23  24
ENDBRANCH  22  23
ENDBRANCH  21  22
ENDBRANCH  20  21
ENDBRANCH  19  20
ENDBRANCH  18  19
ENDBRANCH   1  18
TORSDOF 28
ENDMDL
MODEL 9
REMARK VINA RESULT:    -4.122      3.953      7.665
REMARK INTER + INTRA:         -16.419
REMARK INTER:                 -12.140
REMARK INTRA:                  -4.279
REMARK UNBOUND:                -5.550
REMARK SMILES CCCCCCCCCCCCCCCCCCCCCCCCCCCCCC(=O)[O-]
REMARK SMILES IDX 16 1 17 2 18 3 19 4 20 5 21 6 22 7 23 8 24 9 25 10 26 11
REMARK SMILES IDX 27 12 28 13 29 14 30 15 31 16 32 17 15 18 14 19 13 20 12 21
REMARK SMILES IDX 11 22 10 23 9 24 8 25 7 26 6 27 5 28 4 29 3 30 2 31 1 32
REMARK H PARENT
REMARK Flexibility Score: inf
ROOT
ATOM      1  C   UNL     1     203.819 204.950 157.443  1.00  0.00     0.000 C 
ENDROOT
BRANCH   1   2
ATOM      2  C   UNL     1     205.072 204.061 157.325  1.00  0.00     0.000 C 
BRANCH   2   3
ATOM      3  C   UNL     1     205.506 203.411 158.656  1.00  0.00     0.000 C 
BRANCH   3   4
ATOM      4  C   UNL     1     206.613 204.210 159.367  1.00  0.00     0.000 C 
BRANCH   4   5
ATOM      5  C   UNL     1     206.911 205.553 158.674  1.00  0.00     0.000 C 
BRANCH   5   6
ATOM      6  C   UNL     1     208.012 206.381 159.364  1.00  0.00     0.000 C 
BRANCH   6   7
ATOM      7  C   UNL     1     208.982 207.022 158.357  1.00  0.00     0.000 C 
BRANCH   7   8
ATOM      8  C   UNL     1     208.828 208.550 158.269  1.00  0.00     0.000 C 
BRANCH   8   9
ATOM      9  C   UNL     1     207.528 209.036 157.592  1.00  0.00     0.000 C 
BRANCH   9  10
ATOM     10  C   UNL     1     206.907 210.308 158.202  1.00  0.00     0.000 C 
BRANCH  10  11
ATOM     11  C   UNL     1     205.401 210.211 158.520  1.00  0.00     0.000 C 
BRANCH  11  12
ATOM     12  C   UNL     1     204.939 208.848 159.068  1.00  0.00     0.000 C 
BRANCH  12  13
ATOM     13  C   UNL     1     203.557 208.917 159.743  1.00  0.00     0.006 C 
BRANCH  13  14
ATOM     14  C   UNL     1     202.949 210.324 159.674  1.00  0.00     0.053 C 
BRANCH  14  15
ATOM     15  C   UNL     1     201.605 210.387 160.335  1.00  0.00     0.041 C 
ATOM     16  O   UNL     1     200.743 209.498 160.103  1.00  0.00    -0.550 OA
ATOM     17  O   UNL     1     201.307 211.423 161.211  1.00  0.00    -0.550 OA
ENDBRANCH  14  15
ENDBRANCH  13  14
ENDBRANCH  12  13
ENDBRANCH  11  12
ENDBRANCH  10  11
ENDBRANCH   9  10
ENDBRANCH   8   9
ENDBRANCH   7   8
ENDBRANCH   6   7
ENDBRANCH   5   6
ENDBRANCH   4   5
ENDBRANCH   3   4
ENDBRANCH   2   3
ENDBRANCH   1   2
BRANCH   1  18
ATOM     18  C   UNL     1     203.710 206.063 156.390  1.00  0.00     0.000 C 
BRANCH  18  19
ATOM     19  C   UNL     1     205.043 206.791 156.156  1.00  0.00     0.000 C 
BRANCH  19  20
ATOM     20  C   UNL     1     205.237 207.128 154.671  1.00  0.00     0.000 C 
BRANCH  20  21
ATOM     21  C   UNL     1     206.511 206.502 154.081  1.00  0.00     0.000 C 
BRANCH  21  22
ATOM     22  C   UNL     1     207.690 206.517 155.064  1.00  0.00     0.000 C 
BRANCH  22  23
ATOM     23  C   UNL     1     208.835 207.394 154.534  1.00  0.00     0.000 C 
BRANCH  23  24
ATOM     24  C   UNL     1     210.181 207.102 155.222  1.00  0.00    -0.000 C 
BRANCH  24  25
ATOM     25  C   UNL     1     211.188 206.302 154.371  1.00  0.00    -0.000 C 
BRANCH  25  26
ATOM     26  C   UNL     1     211.552 204.906 154.918  1.00  0.00    -0.000 C 
BRANCH  26  27
ATOM     27  C   UNL     1     211.930 203.862 153.849  1.00  0.00    -0.000 C 
BRANCH  27  28
ATOM     28  C   UNL     1     211.967 202.427 154.399  1.00  0.00    -0.000 C 
BRANCH  28  29
ATOM     29  C   UNL     1     210.768 202.102 155.309  1.00  0.00    -0.000 C 
BRANCH  29  30
ATOM     30  C   UNL     1     209.435 201.856 154.576  1.00  0.00    -0.000 C 
BRANCH  30  31
ATOM     31  C   UNL     1     208.209 202.230 155.421  1.00  0.00    -0.003 C 
ATOM     32  C   UNL     1     208.434 203.544 156.163  1.00  0.00     0.004 C 
ENDBRANCH  30  31
ENDBRANCH  29  30
ENDBRANCH  28  29
ENDBRANCH  27  28
ENDBRANCH  26  27
ENDBRANCH  25  26
ENDBRANCH  24  25
ENDBRANCH  23  24
ENDBRANCH  22  23
ENDBRANCH  21  22
ENDBRANCH  20  21
ENDBRANCH  19  20
ENDBRANCH  18  19
ENDBRANCH   1  18
TORSDOF 28
ENDMDL
