MODEL 1
REMARK VINA RESULT:    -5.560      0.000      0.000
REMARK INTER + INTRA:          -5.560
REMARK INTER:                  -5.560
REMARK INTRA:                   0.000
REMARK UNBOUND:                 0.000
REMARK SMILES O=c1ccc2ccccc2o1
REMARK SMILES IDX 7 1 8 2 9 3 10 4 5 5 6 6 4 7 3 8 2 9 1 10 11 11
REMARK H PARENT
REMARK Flexibility Score: inf
ROOT
ATOM      1  C   UNL     1      10.775  28.149  -0.161  1.00  0.00     0.001 A 
ATOM      2  C   UNL     1      10.567  27.312  -1.263  1.00  0.00     0.004 A 
ATOM      3  C   UNL     1       9.279  27.131  -1.776  1.00  0.00     0.048 A 
ATOM      4  C   UNL     1       8.192  27.788  -1.187  1.00  0.00     0.138 A 
ATOM      5  C   UNL     1       8.401  28.631  -0.073  1.00  0.00     0.018 A 
ATOM      6  C   UNL     1       9.696  28.809   0.436  1.00  0.00     0.012 A 
ATOM      7  C   UNL     1       7.296  29.273   0.495  1.00  0.00     0.019 A 
ATOM      8  C   UNL     1       6.029  29.063  -0.051  1.00  0.00     0.094 A 
ATOM      9  C   UNL     1       5.897  28.214  -1.153  1.00  0.00     0.336 A 
ATOM     10  O   UNL     1       4.762  28.011  -1.659  1.00  0.00    -0.246 OA
ATOM     11  O   UNL     1       6.965  27.615  -1.675  1.00  0.00    -0.423 OA
ENDROOT
TORSDOF 0
ENDMDL
MODEL 2
REMARK VINA RESULT:    -5.519      2.136      4.217
REMARK INTER + INTRA:          -5.519
REMARK INTER:                  -5.519
REMARK INTRA:                   0.000
REMARK UNBOUND:                 0.000
REMARK SMILES O=c1ccc2ccccc2o1
REMARK SMILES IDX 7 1 8 2 9 3 10 4 5 5 6 6 4 7 3 8 2 9 1 10 11 11
REMARK H PARENT
REMARK Flexibility Score: inf
ROOT
ATOM      1  C   UNL     1       6.187  29.470   0.314  1.00  0.00     0.001 A 
ATOM      2  C   UNL     1       7.110  29.851   1.294  1.00  0.00     0.004 A 
ATOM      3  C   UNL     1       8.441  29.434   1.208  1.00  0.00     0.048 A 
ATOM      4  C   UNL     1       8.856  28.631   0.138  1.00  0.00     0.138 A 
ATOM      5  C   UNL     1       7.924  28.245  -0.851  1.00  0.00     0.018 A 
ATOM      6  C   UNL     1       6.590  28.667  -0.759  1.00  0.00     0.012 A 
ATOM      7  C   UNL     1       8.367  27.442  -1.907  1.00  0.00     0.019 A 
ATOM      8  C   UNL     1       9.705  27.050  -1.953  1.00  0.00     0.094 A 
ATOM      9  C   UNL     1      10.571  27.470  -0.938  1.00  0.00     0.336 A 
ATOM     10  O   UNL     1      11.781  27.125  -0.962  1.00  0.00    -0.246 OA
ATOM     11  O   UNL     1      10.124  28.233   0.056  1.00  0.00    -0.423 OA
ENDROOT
TORSDOF 0
ENDMDL
MODEL 3
REMARK VINA RESULT:    -5.510      1.227      3.512
REMARK INTER + INTRA:          -5.510
REMARK INTER:                  -5.510
REMARK INTRA:                   0.000
REMARK UNBOUND:                 0.000
REMARK SMILES O=c1ccc2ccccc2o1
REMARK SMILES IDX 7 1 8 2 9 3 10 4 5 5 6 6 4 7 3 8 2 9 1 10 11 11
REMARK H PARENT
REMARK Flexibility Score: inf
ROOT
ATOM      1  C   UNL     1       6.990  29.862   1.492  1.00  0.00     0.001 A 
ATOM      2  C   UNL     1       5.995  29.491   0.580  1.00  0.00     0.004 A 
ATOM      3  C   UNL     1       6.322  28.730  -0.547  1.00  0.00     0.048 A 
ATOM      4  C   UNL     1       7.647  28.337  -0.767  1.00  0.00     0.138 A 
ATOM      5  C   UNL     1       8.652  28.713   0.153  1.00  0.00     0.018 A 
ATOM      6  C   UNL     1       8.318  29.476   1.281  1.00  0.00     0.012 A 
ATOM      7  C   UNL     1       9.967  28.306  -0.094  1.00  0.00     0.019 A 
ATOM      8  C   UNL     1      10.247  27.548  -1.231  1.00  0.00     0.094 A 
ATOM      9  C   UNL     1       9.201  27.213  -2.097  1.00  0.00     0.336 A 
ATOM     10  O   UNL     1       9.434  26.530  -3.129  1.00  0.00    -0.246 OA
ATOM     11  O   UNL     1       7.958  27.613  -1.840  1.00  0.00    -0.423 OA
ENDROOT
TORSDOF 0
ENDMDL
MODEL 4
REMARK VINA RESULT:    -5.416      1.386      2.208
REMARK INTER + INTRA:          -5.416
REMARK INTER:                  -5.416
REMARK INTRA:                   0.000
REMARK UNBOUND:                 0.000
REMARK SMILES O=c1ccc2ccccc2o1
REMARK SMILES IDX 7 1 8 2 9 3 10 4 5 5 6 6 4 7 3 8 2 9 1 10 11 11
REMARK H PARENT
REMARK Flexibility Score: inf
ROOT
ATOM      1  C   UNL     1      10.654  27.278  -1.279  1.00  0.00     0.001 A 
ATOM      2  C   UNL     1      10.940  28.102  -0.184  1.00  0.00     0.004 A 
ATOM      3  C   UNL     1       9.912  28.793   0.464  1.00  0.00     0.048 A 
ATOM      4  C   UNL     1       8.591  28.664   0.018  1.00  0.00     0.138 A 
ATOM      5  C   UNL     1       8.303  27.833  -1.088  1.00  0.00     0.018 A 
ATOM      6  C   UNL     1       9.339  27.142  -1.733  1.00  0.00     0.012 A 
ATOM      7  C   UNL     1       6.974  27.724  -1.512  1.00  0.00     0.019 A 
ATOM      8  C   UNL     1       5.980  28.432  -0.835  1.00  0.00     0.094 A 
ATOM      9  C   UNL     1       6.340  29.236   0.251  1.00  0.00     0.336 A 
ATOM     10  O   UNL     1       5.458  29.883   0.874  1.00  0.00    -0.246 OA
ATOM     11  O   UNL     1       7.612  29.322   0.634  1.00  0.00    -0.423 OA
ENDROOT
TORSDOF 0
ENDMDL
MODEL 5
REMARK VINA RESULT:    -5.407      1.268      1.638
REMARK INTER + INTRA:          -5.407
REMARK INTER:                  -5.407
REMARK INTRA:                   0.000
REMARK UNBOUND:                 0.000
REMARK SMILES O=c1ccc2ccccc2o1
REMARK SMILES IDX 7 1 8 2 9 3 10 4 5 5 6 6 4 7 3 8 2 9 1 10 11 11
REMARK H PARENT
REMARK Flexibility Score: inf
ROOT
ATOM      1  C   UNL     1      10.332  27.540  -1.220  1.00  0.00     0.001 A 
ATOM      2  C   UNL     1       9.306  27.147  -2.088  1.00  0.00     0.004 A 
ATOM      3  C   UNL     1       7.988  27.544  -1.843  1.00  0.00     0.048 A 
ATOM      4  C   UNL     1       7.690  28.337  -0.728  1.00  0.00     0.138 A 
ATOM      5  C   UNL     1       8.725  28.732   0.148  1.00  0.00     0.018 A 
ATOM      6  C   UNL     1      10.045  28.331  -0.103  1.00  0.00     0.012 A 
ATOM      7  C   UNL     1       8.397  29.523   1.253  1.00  0.00     0.019 A 
ATOM      8  C   UNL     1       7.068  29.895   1.458  1.00  0.00     0.094 A 
ATOM      9  C   UNL     1       6.096  29.466   0.549  1.00  0.00     0.336 A 
ATOM     10  O   UNL     1       4.891  29.791   0.716  1.00  0.00    -0.246 OA
ATOM     11  O   UNL     1       6.434  28.714  -0.496  1.00  0.00    -0.423 OA
ENDROOT
TORSDOF 0
ENDMDL
MODEL 6
REMARK VINA RESULT:    -5.397      9.481     11.111
REMARK INTER + INTRA:          -5.397
REMARK INTER:                  -5.397
REMARK INTRA:                   0.000
REMARK UNBOUND:                 0.000
REMARK SMILES O=c1ccc2ccccc2o1
REMARK SMILES IDX 7 1 8 2 9 3 10 4 5 5 6 6 4 7 3 8 2 9 1 10 11 11
REMARK H PARENT
REMARK Flexibility Score: inf
ROOT
ATOM      1  C   UNL     1       4.380  38.365   3.566  1.00  0.00     0.001 A 
ATOM      2  C   UNL     1       3.514  38.786   4.582  1.00  0.00     0.004 A 
ATOM      3  C   UNL     1       2.729  37.854   5.268  1.00  0.00     0.048 A 
ATOM      4  C   UNL     1       2.808  36.495   4.940  1.00  0.00     0.138 A 
ATOM      5  C   UNL     1       3.681  36.071   3.914  1.00  0.00     0.018 A 
ATOM      6  C   UNL     1       4.466  37.010   3.230  1.00  0.00     0.012 A 
ATOM      7  C   UNL     1       3.738  34.707   3.609  1.00  0.00     0.019 A 
ATOM      8  C   UNL     1       2.937  33.813   4.320  1.00  0.00     0.094 A 
ATOM      9  C   UNL     1       2.095  34.306   5.322  1.00  0.00     0.336 A 
ATOM     10  O   UNL     1       1.365  33.515   5.975  1.00  0.00    -0.246 OA
ATOM     11  O   UNL     1       2.061  35.608   5.594  1.00  0.00    -0.423 OA
ENDROOT
TORSDOF 0
ENDMDL
MODEL 7
REMARK VINA RESULT:    -5.396      2.025      2.719
REMARK INTER + INTRA:          -5.396
REMARK INTER:                  -5.396
REMARK INTRA:                   0.000
REMARK UNBOUND:                 0.000
REMARK SMILES O=c1ccc2ccccc2o1
REMARK SMILES IDX 7 1 8 2 9 3 10 4 5 5 6 6 4 7 3 8 2 9 1 10 11 11
REMARK H PARENT
REMARK Flexibility Score: inf
ROOT
ATOM      1  C   UNL     1       9.565  27.023  -1.906  1.00  0.00     0.001 A 
ATOM      2  C   UNL     1      10.501  27.339  -0.915  1.00  0.00     0.004 A 
ATOM      3  C   UNL     1      10.139  28.157   0.160  1.00  0.00     0.048 A 
ATOM      4  C   UNL     1       8.837  28.663   0.248  1.00  0.00     0.138 A 
ATOM      5  C   UNL     1       7.892  28.345  -0.753  1.00  0.00     0.018 A 
ATOM      6  C   UNL     1       8.261  27.524  -1.828  1.00  0.00     0.012 A 
ATOM      7  C   UNL     1       6.599  28.866  -0.640  1.00  0.00     0.019 A 
ATOM      8  C   UNL     1       6.282  29.678   0.451  1.00  0.00     0.094 A 
ATOM      9  C   UNL     1       7.270  29.950   1.403  1.00  0.00     0.336 A 
ATOM     10  O   UNL     1       7.003  30.681   2.393  1.00  0.00    -0.246 OA
ATOM     11  O   UNL     1       8.492  29.442   1.271  1.00  0.00    -0.423 OA
ENDROOT
TORSDOF 0
ENDMDL
MODEL 8
REMARK VINA RESULT:    -5.382      9.163     10.848
REMARK INTER + INTRA:          -5.382
REMARK INTER:                  -5.382
REMARK INTRA:                   0.000
REMARK UNBOUND:                 0.000
REMARK SMILES O=c1ccc2ccccc2o1
REMARK SMILES IDX 7 1 8 2 9 3 10 4 5 5 6 6 4 7 3 8 2 9 1 10 11 11
REMARK H PARENT
REMARK Flexibility Score: inf
ROOT
ATOM      1  C   UNL     1       3.481  38.868   4.851  1.00  0.00     0.001 A 
ATOM      2  C   UNL     1       4.314  38.590   3.762  1.00  0.00     0.004 A 
ATOM      3  C   UNL     1       4.414  37.286   3.267  1.00  0.00     0.048 A 
ATOM      4  C   UNL     1       3.680  36.253   3.862  1.00  0.00     0.138 A 
ATOM      5  C   UNL     1       2.840  36.534   4.963  1.00  0.00     0.018 A 
ATOM      6  C   UNL     1       2.744  37.844   5.454  1.00  0.00     0.012 A 
ATOM      7  C   UNL     1       2.120  35.482   5.538  1.00  0.00     0.019 A 
ATOM      8  C   UNL     1       2.250  34.196   5.011  1.00  0.00     0.094 A 
ATOM      9  C   UNL     1       3.101  33.993   3.920  1.00  0.00     0.336 A 
ATOM     10  O   UNL     1       3.232  32.840   3.431  1.00  0.00    -0.246 OA
ATOM     11  O   UNL     1       3.775  35.011   3.392  1.00  0.00    -0.423 OA
ENDROOT
TORSDOF 0
ENDMDL
MODEL 9
REMARK VINA RESULT:    -5.365      2.121      4.083
REMARK INTER + INTRA:          -5.365
REMARK INTER:                  -5.365
REMARK INTRA:                   0.000
REMARK UNBOUND:                 0.000
REMARK SMILES O=c1ccc2ccccc2o1
REMARK SMILES IDX 7 1 8 2 9 3 10 4 5 5 6 6 4 7 3 8 2 9 1 10 11 11
REMARK H PARENT
REMARK Flexibility Score: inf
ROOT
ATOM      1  C   UNL     1       6.707  28.863  -0.235  1.00  0.00     0.001 A 
ATOM      2  C   UNL     1       6.772  27.999  -1.334  1.00  0.00     0.004 A 
ATOM      3  C   UNL     1       8.004  27.490  -1.757  1.00  0.00     0.048 A 
ATOM      4  C   UNL     1       9.178  27.844  -1.081  1.00  0.00     0.138 A 
ATOM      5  C   UNL     1       9.112  28.718   0.027  1.00  0.00     0.018 A 
ATOM      6  C   UNL     1       7.874  29.225   0.446  1.00  0.00     0.012 A 
ATOM      7  C   UNL     1      10.301  29.055   0.681  1.00  0.00     0.019 A 
ATOM      8  C   UNL     1      11.508  28.523   0.225  1.00  0.00     0.094 A 
ATOM      9  C   UNL     1      11.496  27.665  -0.879  1.00  0.00     0.336 A 
ATOM     10  O   UNL     1      12.574  27.175  -1.306  1.00  0.00    -0.246 OA
ATOM     11  O   UNL     1      10.350  27.360  -1.484  1.00  0.00    -0.423 OA
ENDROOT
TORSDOF 0
ENDMDL
