MODEL 1
REMARK VINA RESULT:    -3.445      0.000      0.000
REMARK INTER + INTRA:          -4.167
REMARK INTER:                  -4.251
REMARK INTRA:                   0.084
REMARK UNBOUND:                 0.084
REMARK SMILES COc1cc(-c2[o+]c3cc(O)cc(O)c3cc2O)ccc1O
REMARK SMILES IDX 6 1 7 2 8 3 9 4 10 5 12 6 13 7 15 8 16 9 17 10 5 11 3 12
REMARK SMILES IDX 21 13 4 14 20 15 19 16 2 17 1 18 22 19 18 21 11 23 14 25
REMARK H PARENT 22 20 18 22 11 24 14 26
REMARK Flexibility Score: inf
ROOT
ATOM      1  C   UNL     1       6.510   1.389  13.141  1.00  0.00     0.402 A 
ATOM      2  O   UNL     1       6.805   0.638  12.083  1.00  0.00    -0.202 OA
ATOM      3  C   UNL     1       6.735  -0.689  12.088  1.00  0.00     0.368 A 
ATOM      4  C   UNL     1       7.063  -1.391  10.925  1.00  0.00     0.162 A 
ATOM      5  C   UNL     1       6.996  -2.786  10.900  1.00  0.00     0.128 A 
ATOM      6  C   UNL     1       6.599  -3.483  12.043  1.00  0.00     0.093 A 
ATOM      7  C   UNL     1       6.265  -2.804  13.222  1.00  0.00     0.136 A 
ATOM      8  C   UNL     1       6.334  -1.386  13.253  1.00  0.00     0.125 A 
ATOM      9  C   UNL     1       6.032  -0.623  14.391  1.00  0.00     0.078 A 
ATOM     10  C   UNL     1       6.127   0.771  14.347  1.00  0.00     0.223 A 
ENDROOT
BRANCH   1  11
ATOM     11  C   UNL     1       6.617   2.859  13.009  1.00  0.00     0.087 A 
ATOM     12  C   UNL     1       7.661   4.960  13.702  1.00  0.00     0.161 A 
ATOM     13  C   UNL     1       6.895   5.648  12.745  1.00  0.00     0.157 A 
ATOM     14  C   UNL     1       7.521   3.563  13.822  1.00  0.00     0.068 A 
ATOM     15  C   UNL     1       6.010   4.946  11.921  1.00  0.00     0.051 A 
ATOM     16  C   UNL     1       5.875   3.562  12.045  1.00  0.00     0.022 A 
BRANCH  12  17
ATOM     17  O   UNL     1       8.548   5.690  14.512  1.00  0.00    -0.493 OA
ATOM     18  C   UNL     1       9.638   6.465  14.022  1.00  0.00     0.278 C 
ENDBRANCH  12  17
BRANCH  13  19
ATOM     19  O   UNL     1       7.002   7.030  12.594  1.00  0.00    -0.504 OA
ATOM     20  H   UNL     1       6.775   7.675  13.342  1.00  0.00     0.293 HD
ENDBRANCH  13  19
ENDBRANCH   1  11
BRANCH  10  21
ATOM     21  O   UNL     1       5.875   1.527  15.492  1.00  0.00    -0.500 OA
ATOM     22  H   UNL     1       6.042   1.159  16.421  1.00  0.00     0.294 HD
ENDBRANCH  10  21
BRANCH   5  23
ATOM     23  O   UNL     1       7.321  -3.493   9.744  1.00  0.00    -0.507 OA
ATOM     24  H   UNL     1       6.696  -3.520   8.947  1.00  0.00     0.293 HD
ENDBRANCH   5  23
BRANCH   7  25
ATOM     25  O   UNL     1       5.875  -3.574  14.321  1.00  0.00    -0.507 OA
ATOM     26  H   UNL     1       6.187  -4.518  14.495  1.00  0.00     0.293 HD
ENDBRANCH   7  25
TORSDOF 6
ENDMDL
MODEL 2
REMARK VINA RESULT:    -2.577      2.378      8.172
REMARK INTER + INTRA:          -3.095
REMARK INTER:                  -4.003
REMARK INTRA:                   0.907
REMARK UNBOUND:                 0.084
REMARK SMILES COc1cc(-c2[o+]c3cc(O)cc(O)c3cc2O)ccc1O
REMARK SMILES IDX 6 1 7 2 8 3 9 4 10 5 12 6 13 7 15 8 16 9 17 10 5 11 3 12
REMARK SMILES IDX 21 13 4 14 20 15 19 16 2 17 1 18 22 19 18 21 11 23 14 25
REMARK H PARENT 22 20 18 22 11 24 14 26
REMARK Flexibility Score: inf
ROOT
ATOM      1  C   UNL     1       6.897   4.227  13.490  1.00  0.00     0.402 A 
ATOM      2  O   UNL     1       6.596   4.755  14.675  1.00  0.00    -0.202 OA
ATOM      3  C   UNL     1       6.615   6.061  14.918  1.00  0.00     0.368 A 
ATOM      4  C   UNL     1       6.280   6.520  16.194  1.00  0.00     0.162 A 
ATOM      5  C   UNL     1       6.288   7.888  16.477  1.00  0.00     0.128 A 
ATOM      6  C   UNL     1       6.631   8.802  15.478  1.00  0.00     0.093 A 
ATOM      7  C   UNL     1       6.970   8.369  14.190  1.00  0.00     0.136 A 
ATOM      8  C   UNL     1       6.966   6.979  13.899  1.00  0.00     0.125 A 
ATOM      9  C   UNL     1       7.305   6.453  12.642  1.00  0.00     0.078 A 
ATOM     10  C   UNL     1       7.283   5.071  12.432  1.00  0.00     0.223 A 
ENDROOT
BRANCH   1  11
ATOM     11  C   UNL     1       6.832   2.756  13.342  1.00  0.00     0.087 A 
ATOM     12  C   UNL     1       6.332   0.805  11.953  1.00  0.00     0.161 A 
ATOM     13  C   UNL     1       6.750  -0.036  12.999  1.00  0.00     0.157 A 
ATOM     14  C   UNL     1       6.383   2.202  12.131  1.00  0.00     0.068 A 
ATOM     15  C   UNL     1       7.217   0.514  14.196  1.00  0.00     0.051 A 
ATOM     16  C   UNL     1       7.265   1.898  14.367  1.00  0.00     0.022 A 
BRANCH  12  17
ATOM     17  O   UNL     1       5.875   0.225  10.758  1.00  0.00    -0.493 OA
ATOM     18  C   UNL     1       6.239  -1.073  10.299  1.00  0.00     0.278 C 
ENDBRANCH  12  17
BRANCH  13  19
ATOM     19  O   UNL     1       6.716  -1.425  12.865  1.00  0.00    -0.504 OA
ATOM     20  H   UNL     1       5.856  -1.928  12.680  1.00  0.00     0.293 HD
ENDBRANCH  13  19
ENDBRANCH   1  11
BRANCH  10  21
ATOM     21  O   UNL     1       7.666   4.544  11.198  1.00  0.00    -0.500 OA
ATOM     22  H   UNL     1       7.016   4.037  10.610  1.00  0.00     0.294 HD
ENDBRANCH  10  21
BRANCH   5  23
ATOM     23  O   UNL     1       5.956   8.353  17.747  1.00  0.00    -0.507 OA
ATOM     24  H   UNL     1       6.215   9.284  18.055  1.00  0.00     0.293 HD
ENDBRANCH   5  23
BRANCH   7  25
ATOM     25  O   UNL     1       7.299   9.346  13.247  1.00  0.00    -0.507 OA
ATOM     26  H   UNL     1       7.847   9.177  12.417  1.00  0.00     0.293 HD
ENDBRANCH   7  25
TORSDOF 6
ENDMDL
MODEL 3
REMARK VINA RESULT:    -2.087      1.302      2.481
REMARK INTER + INTRA:          -2.491
REMARK INTER:                  -2.841
REMARK INTRA:                   0.350
REMARK UNBOUND:                 0.084
REMARK SMILES COc1cc(-c2[o+]c3cc(O)cc(O)c3cc2O)ccc1O
REMARK SMILES IDX 6 1 7 2 8 3 9 4 10 5 12 6 13 7 15 8 16 9 17 10 5 11 3 12
REMARK SMILES IDX 21 13 4 14 20 15 19 16 2 17 1 18 22 19 18 21 11 23 14 25
REMARK H PARENT 22 20 18 22 11 24 14 26
REMARK Flexibility Score: inf
ROOT
ATOM      1  C   UNL     1       6.658   2.065  12.619  1.00  0.00     0.402 A 
ATOM      2  O   UNL     1       6.891   1.121  13.528  1.00  0.00    -0.202 OA
ATOM      3  C   UNL     1       6.769  -0.178  13.278  1.00  0.00     0.368 A 
ATOM      4  C   UNL     1       7.038  -1.095  14.298  1.00  0.00     0.162 A 
ATOM      5  C   UNL     1       6.921  -2.467  14.063  1.00  0.00     0.128 A 
ATOM      6  C   UNL     1       6.533  -2.925  12.802  1.00  0.00     0.093 A 
ATOM      7  C   UNL     1       6.257  -2.028  11.762  1.00  0.00     0.136 A 
ATOM      8  C   UNL     1       6.372  -0.633  11.998  1.00  0.00     0.125 A 
ATOM      9  C   UNL     1       6.103   0.339  11.021  1.00  0.00     0.078 A 
ATOM     10  C   UNL     1       6.234   1.696  11.328  1.00  0.00     0.223 A 
ENDROOT
BRANCH   1  11
ATOM     11  C   UNL     1       6.838   3.479  13.016  1.00  0.00     0.087 A 
ATOM     12  C   UNL     1       8.227   5.213  14.040  1.00  0.00     0.161 A 
ATOM     13  C   UNL     1       7.244   6.170  13.733  1.00  0.00     0.157 A 
ATOM     14  C   UNL     1       8.018   3.869  13.670  1.00  0.00     0.068 A 
ATOM     15  C   UNL     1       6.078   5.787  13.063  1.00  0.00     0.051 A 
ATOM     16  C   UNL     1       5.877   4.454  12.700  1.00  0.00     0.022 A 
BRANCH  12  17
ATOM     17  O   UNL     1       9.392   5.628  14.706  1.00  0.00    -0.493 OA
ATOM     18  C   UNL     1      10.232   6.695  14.277  1.00  0.00     0.278 C 
ENDBRANCH  12  17
BRANCH  13  19
ATOM     19  O   UNL     1       7.409   7.511  14.081  1.00  0.00    -0.504 OA
ATOM     20  H   UNL     1       7.353   7.831  15.040  1.00  0.00     0.293 HD
ENDBRANCH  13  19
ENDBRANCH   1  11
BRANCH  10  21
ATOM     21  O   UNL     1       5.920   2.664  10.373  1.00  0.00    -0.500 OA
ATOM     22  H   UNL     1       6.036   2.491   9.382  1.00  0.00     0.294 HD
ENDBRANCH  10  21
BRANCH   5  23
ATOM     23  O   UNL     1       7.188  -3.387  15.075  1.00  0.00    -0.507 OA
ATOM     24  H   UNL     1       7.904  -3.215  15.771  1.00  0.00     0.293 HD
ENDBRANCH   5  23
BRANCH   7  25
ATOM     25  O   UNL     1       5.877  -2.567  10.531  1.00  0.00    -0.507 OA
ATOM     26  H   UNL     1       4.921  -2.725  10.247  1.00  0.00     0.293 HD
ENDBRANCH   7  25
TORSDOF 6
ENDMDL
MODEL 4
REMARK VINA RESULT:    -1.659      1.748      2.545
REMARK INTER + INTRA:          -1.963
REMARK INTER:                  -2.833
REMARK INTRA:                   0.870
REMARK UNBOUND:                 0.084
REMARK SMILES COc1cc(-c2[o+]c3cc(O)cc(O)c3cc2O)ccc1O
REMARK SMILES IDX 6 1 7 2 8 3 9 4 10 5 12 6 13 7 15 8 16 9 17 10 5 11 3 12
REMARK SMILES IDX 21 13 4 14 20 15 19 16 2 17 1 18 22 19 18 21 11 23 14 25
REMARK H PARENT 22 20 18 22 11 24 14 26
REMARK Flexibility Score: inf
ROOT
ATOM      1  C   UNL     1       6.380  -0.112  12.408  1.00  0.00     0.402 A 
ATOM      2  O   UNL     1       6.305  -0.238  11.085  1.00  0.00    -0.202 OA
ATOM      3  C   UNL     1       6.173  -1.407  10.470  1.00  0.00     0.368 A 
ATOM      4  C   UNL     1       6.100  -1.437   9.075  1.00  0.00     0.162 A 
ATOM      5  C   UNL     1       5.958  -2.653   8.401  1.00  0.00     0.128 A 
ATOM      6  C   UNL     1       5.887  -3.845   9.126  1.00  0.00     0.093 A 
ATOM      7  C   UNL     1       5.958  -3.843  10.524  1.00  0.00     0.136 A 
ATOM      8  C   UNL     1       6.105  -2.610  11.213  1.00  0.00     0.125 A 
ATOM      9  C   UNL     1       6.198  -2.513  12.611  1.00  0.00     0.078 A 
ATOM     10  C   UNL     1       6.347  -1.263  13.218  1.00  0.00     0.223 A 
ENDROOT
BRANCH   1  11
ATOM     11  C   UNL     1       6.518   1.247  12.977  1.00  0.00     0.087 A 
ATOM     12  C   UNL     1       7.217   3.576  12.707  1.00  0.00     0.161 A 
ATOM     13  C   UNL     1       6.742   3.860  13.999  1.00  0.00     0.157 A 
ATOM     14  C   UNL     1       7.094   2.267  12.201  1.00  0.00     0.068 A 
ATOM     15  C   UNL     1       6.149   2.851  14.764  1.00  0.00     0.051 A 
ATOM     16  C   UNL     1       6.030   1.557  14.258  1.00  0.00     0.022 A 
BRANCH  12  17
ATOM     17  O   UNL     1       7.801   4.611  11.957  1.00  0.00    -0.493 OA
ATOM     18  C   UNL     1       8.511   5.712  12.515  1.00  0.00     0.278 C 
ENDBRANCH  12  17
BRANCH  13  19
ATOM     19  O   UNL     1       6.844   5.142  14.539  1.00  0.00    -0.504 OA
ATOM     20  H   UNL     1       7.533   5.811  14.217  1.00  0.00     0.293 HD
ENDBRANCH  13  19
ENDBRANCH   1  11
BRANCH  10  21
ATOM     21  O   UNL     1       6.489  -1.170  14.603  1.00  0.00    -0.500 OA
ATOM     22  H   UNL     1       6.246  -0.326  15.107  1.00  0.00     0.294 HD
ENDBRANCH  10  21
BRANCH   5  23
ATOM     23  O   UNL     1       5.885  -2.690   7.010  1.00  0.00    -0.507 OA
ATOM     24  H   UNL     1       6.548  -3.223   6.459  1.00  0.00     0.293 HD
ENDBRANCH   5  23
BRANCH   7  25
ATOM     25  O   UNL     1       5.878  -5.077  11.175  1.00  0.00    -0.507 OA
ATOM     26  H   UNL     1       5.081  -5.696  11.128  1.00  0.00     0.293 HD
ENDBRANCH   7  25
TORSDOF 6
ENDMDL
