MODEL 1
REMARK VINA RESULT:    -5.324      0.000      0.000
REMARK INTER + INTRA:          -6.026
REMARK INTER:                  -5.791
REMARK INTRA:                  -0.235
REMARK UNBOUND:                -0.235
REMARK SMILES O=C([O-])c1ccccc1O
REMARK SMILES IDX 4 1 9 2 5 3 8 4 6 5 7 6 2 7 1 8 3 9 10 10
REMARK H PARENT 10 11
REMARK Flexibility Score: inf
ROOT
ATOM      1  C   UNL     1      -9.389 -12.958  12.619  1.00  0.00     0.039 A 
ATOM      2  C   UNL     1      -8.229 -12.170  12.424  1.00  0.00     0.124 A 
ATOM      3  C   UNL     1      -9.328 -14.336  12.339  1.00  0.00     0.014 A 
ATOM      4  C   UNL     1      -7.048 -12.767  11.957  1.00  0.00     0.047 A 
ATOM      5  C   UNL     1      -8.146 -14.918  11.874  1.00  0.00     0.001 A 
ATOM      6  C   UNL     1      -7.007 -14.134  11.684  1.00  0.00     0.004 A 
ENDROOT
BRANCH   1   7
ATOM      7  C   UNL     1     -10.663 -12.374  13.111  1.00  0.00     0.075 C 
ATOM      8  O   UNL     1     -11.250 -11.462  12.471  1.00  0.00    -0.545 OA
ATOM      9  O   UNL     1     -11.231 -12.829  14.296  1.00  0.00    -0.545 OA
ENDBRANCH   1   7
BRANCH   2  10
ATOM     10  O   UNL     1      -8.244 -10.800  12.689  1.00  0.00    -0.507 OA
ATOM     11  H   UNL     1      -9.104 -10.264  12.674  1.00  0.00     0.293 HD
ENDBRANCH   2  10
TORSDOF 2
ENDMDL
MODEL 2
REMARK VINA RESULT:    -5.254      1.067      2.159
REMARK INTER + INTRA:          -5.950
REMARK INTER:                  -5.735
REMARK INTRA:                  -0.215
REMARK UNBOUND:                -0.235
REMARK SMILES O=C([O-])c1ccccc1O
REMARK SMILES IDX 4 1 9 2 5 3 8 4 6 5 7 6 2 7 1 8 3 9 10 10
REMARK H PARENT 10 11
REMARK Flexibility Score: inf
ROOT
ATOM      1  C   UNL     1      -9.284 -12.890  12.638  1.00  0.00     0.039 A 
ATOM      2  C   UNL     1      -9.099 -14.231  12.222  1.00  0.00     0.124 A 
ATOM      3  C   UNL     1      -8.185 -12.010  12.601  1.00  0.00     0.014 A 
ATOM      4  C   UNL     1      -7.836 -14.659  11.785  1.00  0.00     0.047 A 
ATOM      5  C   UNL     1      -6.934 -12.450  12.164  1.00  0.00     0.001 A 
ATOM      6  C   UNL     1      -6.760 -13.773  11.756  1.00  0.00     0.004 A 
ENDROOT
BRANCH   1   7
ATOM      7  C   UNL     1     -10.600 -12.387  13.109  1.00  0.00     0.075 C 
ATOM      8  O   UNL     1     -11.211 -11.481  12.484  1.00  0.00    -0.545 OA
ATOM      9  O   UNL     1     -11.181 -12.915  14.257  1.00  0.00    -0.545 OA
ENDBRANCH   1   7
BRANCH   2  10
ATOM     10  O   UNL     1     -10.159 -15.137  12.242  1.00  0.00    -0.507 OA
ATOM     11  H   UNL     1     -10.032 -16.111  11.992  1.00  0.00     0.293 HD
ENDBRANCH   2  10
TORSDOF 2
ENDMDL
MODEL 3
REMARK VINA RESULT:    -5.187      1.942      3.632
REMARK INTER + INTRA:          -5.877
REMARK INTER:                  -5.636
REMARK INTRA:                  -0.241
REMARK UNBOUND:                -0.235
REMARK SMILES O=C([O-])c1ccccc1O
REMARK SMILES IDX 4 1 9 2 5 3 8 4 6 5 7 6 2 7 1 8 3 9 10 10
REMARK H PARENT 10 11
REMARK Flexibility Score: inf
ROOT
ATOM      1  C   UNL     1      -8.317 -12.880  12.798  1.00  0.00     0.039 A 
ATOM      2  C   UNL     1      -9.442 -12.214  12.253  1.00  0.00     0.124 A 
ATOM      3  C   UNL     1      -8.420 -13.443  14.084  1.00  0.00     0.014 A 
ATOM      4  C   UNL     1     -10.629 -12.125  12.996  1.00  0.00     0.047 A 
ATOM      5  C   UNL     1      -9.608 -13.348  14.812  1.00  0.00     0.001 A 
ATOM      6  C   UNL     1     -10.711 -12.689  14.269  1.00  0.00     0.004 A 
ENDROOT
BRANCH   1   7
ATOM      7  C   UNL     1      -7.038 -13.001  12.052  1.00  0.00     0.075 C 
ATOM      8  O   UNL     1      -6.422 -11.980  11.648  1.00  0.00    -0.545 OA
ATOM      9  O   UNL     1      -6.498 -14.255  11.787  1.00  0.00    -0.545 OA
ENDBRANCH   1   7
BRANCH   2  10
ATOM     10  O   UNL     1      -9.386 -11.640  10.983  1.00  0.00    -0.507 OA
ATOM     11  H   UNL     1      -8.737 -11.970  10.278  1.00  0.00     0.293 HD
ENDBRANCH   2  10
TORSDOF 2
ENDMDL
MODEL 4
REMARK VINA RESULT:    -5.138      2.380      3.812
REMARK INTER + INTRA:          -5.824
REMARK INTER:                  -5.609
REMARK INTRA:                  -0.215
REMARK UNBOUND:                -0.235
REMARK SMILES O=C([O-])c1ccccc1O
REMARK SMILES IDX 4 1 9 2 5 3 8 4 6 5 7 6 2 7 1 8 3 9 10 10
REMARK H PARENT 10 11
REMARK Flexibility Score: inf
ROOT
ATOM      1  C   UNL     1      -8.363 -12.822  12.720  1.00  0.00     0.039 A 
ATOM      2  C   UNL     1      -8.598 -13.244  14.051  1.00  0.00     0.124 A 
ATOM      3  C   UNL     1      -9.429 -12.269  11.985  1.00  0.00     0.014 A 
ATOM      4  C   UNL     1      -9.877 -13.106  14.612  1.00  0.00     0.047 A 
ATOM      5  C   UNL     1     -10.697 -12.138  12.556  1.00  0.00     0.001 A 
ATOM      6  C   UNL     1     -10.921 -12.556  13.868  1.00  0.00     0.004 A 
ENDROOT
BRANCH   1   7
ATOM      7  C   UNL     1      -7.028 -12.946  12.081  1.00  0.00     0.075 C 
ATOM      8  O   UNL     1      -6.386 -11.927  11.713  1.00  0.00    -0.545 OA
ATOM      9  O   UNL     1      -6.463 -14.200  11.877  1.00  0.00    -0.545 OA
ENDBRANCH   1   7
BRANCH   2  10
ATOM     10  O   UNL     1      -7.572 -13.797  14.817  1.00  0.00    -0.507 OA
ATOM     11  H   UNL     1      -7.546 -13.698  15.825  1.00  0.00     0.293 HD
ENDBRANCH   2  10
TORSDOF 2
ENDMDL
MODEL 5
REMARK VINA RESULT:    -4.757      1.428      1.945
REMARK INTER + INTRA:          -5.409
REMARK INTER:                  -5.218
REMARK INTRA:                  -0.191
REMARK UNBOUND:                -0.235
REMARK SMILES O=C([O-])c1ccccc1O
REMARK SMILES IDX 4 1 9 2 5 3 8 4 6 5 7 6 2 7 1 8 3 9 10 10
REMARK H PARENT 10 11
REMARK Flexibility Score: inf
ROOT
ATOM      1  C   UNL     1      -9.802 -12.660  13.432  1.00  0.00     0.039 A 
ATOM      2  C   UNL     1      -9.245 -12.543  12.135  1.00  0.00     0.124 A 
ATOM      3  C   UNL     1      -9.005 -13.185  14.467  1.00  0.00     0.014 A 
ATOM      4  C   UNL     1      -7.921 -12.949  11.904  1.00  0.00     0.047 A 
ATOM      5  C   UNL     1      -7.690 -13.586  14.222  1.00  0.00     0.001 A 
ATOM      6  C   UNL     1      -7.149 -13.467  12.942  1.00  0.00     0.004 A 
ENDROOT
BRANCH   1   7
ATOM      7  C   UNL     1     -11.196 -12.245  13.729  1.00  0.00     0.075 C 
ATOM      8  O   UNL     1     -11.810 -12.698  14.731  1.00  0.00    -0.545 OA
ATOM      9  O   UNL     1     -11.850 -11.342  12.898  1.00  0.00    -0.545 OA
ENDBRANCH   1   7
BRANCH   2  10
ATOM     10  O   UNL     1      -9.997 -12.028  11.079  1.00  0.00    -0.507 OA
ATOM     11  H   UNL     1      -9.846 -12.325  10.123  1.00  0.00     0.293 HD
ENDBRANCH   2  10
TORSDOF 2
ENDMDL
MODEL 6
REMARK VINA RESULT:    -4.613      2.523      3.446
REMARK INTER + INTRA:          -5.252
REMARK INTER:                  -5.170
REMARK INTRA:                  -0.083
REMARK UNBOUND:                -0.235
REMARK SMILES O=C([O-])c1ccccc1O
REMARK SMILES IDX 4 1 9 2 5 3 8 4 6 5 7 6 2 7 1 8 3 9 10 10
REMARK H PARENT 10 11
REMARK Flexibility Score: inf
ROOT
ATOM      1  C   UNL     1      -8.716 -12.717  13.994  1.00  0.00     0.039 A 
ATOM      2  C   UNL     1      -8.429 -12.306  12.669  1.00  0.00     0.124 A 
ATOM      3  C   UNL     1     -10.061 -12.821  14.396  1.00  0.00     0.014 A 
ATOM      4  C   UNL     1      -9.480 -12.010  11.787  1.00  0.00     0.047 A 
ATOM      5  C   UNL     1     -11.096 -12.523  13.507  1.00  0.00     0.001 A 
ATOM      6  C   UNL     1     -10.806 -12.118  12.204  1.00  0.00     0.004 A 
ENDROOT
BRANCH   1   7
ATOM      7  C   UNL     1      -7.641 -13.042  14.966  1.00  0.00     0.075 C 
ATOM      8  O   UNL     1      -7.138 -14.195  15.018  1.00  0.00    -0.545 OA
ATOM      9  O   UNL     1      -7.169 -12.068  15.839  1.00  0.00    -0.545 OA
ENDBRANCH   1   7
BRANCH   2  10
ATOM     10  O   UNL     1      -7.111 -12.189  12.227  1.00  0.00    -0.507 OA
ATOM     11  H   UNL     1      -6.382 -11.812  12.821  1.00  0.00     0.293 HD
ENDBRANCH   2  10
TORSDOF 2
ENDMDL
MODEL 7
REMARK VINA RESULT:    -4.429      2.435      3.175
REMARK INTER + INTRA:          -5.052
REMARK INTER:                  -4.968
REMARK INTRA:                  -0.084
REMARK UNBOUND:                -0.235
REMARK SMILES O=C([O-])c1ccccc1O
REMARK SMILES IDX 4 1 9 2 5 3 8 4 6 5 7 6 2 7 1 8 3 9 10 10
REMARK H PARENT 10 11
REMARK Flexibility Score: inf
ROOT
ATOM      1  C   UNL     1      -9.011 -13.843  11.858  1.00  0.00     0.039 A 
ATOM      2  C   UNL     1      -7.615 -14.040  11.715  1.00  0.00     0.124 A 
ATOM      3  C   UNL     1      -9.471 -12.634  12.412  1.00  0.00     0.014 A 
ATOM      4  C   UNL     1      -6.722 -13.038  12.124  1.00  0.00     0.047 A 
ATOM      5  C   UNL     1      -8.571 -11.645  12.816  1.00  0.00     0.001 A 
ATOM      6  C   UNL     1      -7.198 -11.847  12.672  1.00  0.00     0.004 A 
ENDROOT
BRANCH   1   7
ATOM      7  C   UNL     1      -9.997 -14.872  11.440  1.00  0.00     0.075 C 
ATOM      8  O   UNL     1     -10.465 -15.697  12.268  1.00  0.00    -0.545 OA
ATOM      9  O   UNL     1     -10.421 -14.939  10.118  1.00  0.00    -0.545 OA
ENDBRANCH   1   7
BRANCH   2  10
ATOM     10  O   UNL     1      -7.114 -15.223  11.171  1.00  0.00    -0.507 OA
ATOM     11  H   UNL     1      -7.436 -15.577  10.278  1.00  0.00     0.293 HD
ENDBRANCH   2  10
TORSDOF 2
ENDMDL
MODEL 8
REMARK VINA RESULT:    -4.394      1.843      2.822
REMARK INTER + INTRA:          -5.014
REMARK INTER:                  -4.838
REMARK INTRA:                  -0.176
REMARK UNBOUND:                -0.235
REMARK SMILES O=C([O-])c1ccccc1O
REMARK SMILES IDX 4 1 9 2 5 3 8 4 6 5 7 6 2 7 1 8 3 9 10 10
REMARK H PARENT 10 11
REMARK Flexibility Score: inf
ROOT
ATOM      1  C   UNL     1      -8.686 -13.518  13.180  1.00  0.00     0.039 A 
ATOM      2  C   UNL     1      -9.235 -12.590  12.262  1.00  0.00     0.124 A 
ATOM      3  C   UNL     1      -8.918 -14.892  12.976  1.00  0.00     0.014 A 
ATOM      4  C   UNL     1      -9.995 -13.048  11.175  1.00  0.00     0.047 A 
ATOM      5  C   UNL     1      -9.676 -15.334  11.889  1.00  0.00     0.001 A 
ATOM      6  C   UNL     1     -10.214 -14.413  10.990  1.00  0.00     0.004 A 
ENDROOT
BRANCH   1   7
ATOM      7  C   UNL     1      -7.875 -13.084  14.346  1.00  0.00     0.075 C 
ATOM      8  O   UNL     1      -7.692 -13.847  15.331  1.00  0.00    -0.545 OA
ATOM      9  O   UNL     1      -7.300 -11.818  14.367  1.00  0.00    -0.545 OA
ENDBRANCH   1   7
BRANCH   2  10
ATOM     10  O   UNL     1      -9.031 -11.219  12.425  1.00  0.00    -0.507 OA
ATOM     11  H   UNL     1      -8.696 -10.831  13.299  1.00  0.00     0.293 HD
ENDBRANCH   2  10
TORSDOF 2
ENDMDL
MODEL 9
REMARK VINA RESULT:    -4.156      2.140      2.571
REMARK INTER + INTRA:          -4.755
REMARK INTER:                  -4.558
REMARK INTRA:                  -0.198
REMARK UNBOUND:                -0.235
REMARK SMILES O=C([O-])c1ccccc1O
REMARK SMILES IDX 4 1 9 2 5 3 8 4 6 5 7 6 2 7 1 8 3 9 10 10
REMARK H PARENT 10 11
REMARK Flexibility Score: inf
ROOT
ATOM      1  C   UNL     1      -9.006 -13.068  12.886  1.00  0.00     0.039 A 
ATOM      2  C   UNL     1      -7.770 -12.375  12.878  1.00  0.00     0.124 A 
ATOM      3  C   UNL     1      -9.523 -13.518  14.115  1.00  0.00     0.014 A 
ATOM      4  C   UNL     1      -7.088 -12.151  14.084  1.00  0.00     0.047 A 
ATOM      5  C   UNL     1      -8.833 -13.288  15.307  1.00  0.00     0.001 A 
ATOM      6  C   UNL     1      -7.616 -12.606  15.291  1.00  0.00     0.004 A 
ENDROOT
BRANCH   1   7
ATOM      7  C   UNL     1      -9.767 -13.330  11.638  1.00  0.00     0.075 C 
ATOM      8  O   UNL     1     -10.314 -12.392  11.001  1.00  0.00    -0.545 OA
ATOM      9  O   UNL     1      -9.888 -14.627  11.150  1.00  0.00    -0.545 OA
ENDBRANCH   1   7
BRANCH   2  10
ATOM     10  O   UNL     1      -7.220 -11.911  11.683  1.00  0.00    -0.507 OA
ATOM     11  H   UNL     1      -7.265 -12.454  10.829  1.00  0.00     0.293 HD
ENDBRANCH   2  10
TORSDOF 2
ENDMDL
