MODEL 1
REMARK VINA RESULT:    -4.320      0.000      0.000
REMARK INTER + INTRA:          -9.259
REMARK INTER:                  -7.603
REMARK INTRA:                  -1.657
REMARK UNBOUND:                -1.657
REMARK SMILES CCCCCCC=CCCCCCCCC(=O)[O-]
REMARK SMILES IDX 10 1 11 2 12 3 13 4 14 5 15 6 16 7 17 8 18 9 9 10 8 11 7 12
REMARK SMILES IDX 6 13 5 14 4 15 3 16 2 17 1 18
REMARK H PARENT
REMARK Flexibility Score: inf
ROOT
ATOM      1  C   UNL     1      43.769   8.796 118.677  1.00  0.00     0.004 C 
ENDROOT
BRANCH   1   2
ATOM      2  C   UNL     1      44.571   8.925 117.370  1.00  0.00     0.000 C 
BRANCH   2   3
ATOM      3  C   UNL     1      45.262   7.613 116.968  1.00  0.00     0.000 C 
BRANCH   3   4
ATOM      4  C   UNL     1      44.896   7.165 115.545  1.00  0.00     0.000 C 
BRANCH   4   5
ATOM      5  C   UNL     1      43.763   8.030 114.972  1.00  0.00     0.006 C 
BRANCH   5   6
ATOM      6  C   UNL     1      44.164   8.721 113.662  1.00  0.00     0.053 C 
BRANCH   6   7
ATOM      7  C   UNL     1      43.206   9.810 113.291  1.00  0.00     0.041 C 
ATOM      8  O   UNL     1      42.584  10.439 114.188  1.00  0.00    -0.550 OA
ATOM      9  O   UNL     1      42.972  10.108 111.954  1.00  0.00    -0.550 OA
ENDBRANCH   6   7
ENDBRANCH   5   6
ENDBRANCH   4   5
ENDBRANCH   3   4
ENDBRANCH   2   3
ENDBRANCH   1   2
BRANCH   1  10
ATOM     10  C   UNL     1      43.028  10.092 119.027  1.00  0.00     0.027 C 
BRANCH  10  11
ATOM     11  C   UNL     1      42.113   9.898 120.213  1.00  0.00    -0.031 C 
ATOM     12  C   UNL     1      41.809  10.845 121.122  1.00  0.00    -0.031 C 
BRANCH  12  13
ATOM     13  C   UNL     1      42.376  12.241 121.133  1.00  0.00     0.027 C 
BRANCH  13  14
ATOM     14  C   UNL     1      43.641  12.314 121.996  1.00  0.00     0.004 C 
BRANCH  14  15
ATOM     15  C   UNL     1      44.856  12.727 121.156  1.00  0.00     0.000 C 
BRANCH  15  16
ATOM     16  C   UNL     1      45.824  11.550 120.973  1.00  0.00    -0.000 C 
BRANCH  16  17
ATOM     17  C   UNL     1      45.469  10.350 121.864  1.00  0.00    -0.003 C 
ATOM     18  C   UNL     1      46.216   9.076 121.466  1.00  0.00     0.004 C 
ENDBRANCH  16  17
ENDBRANCH  15  16
ENDBRANCH  14  15
ENDBRANCH  13  14
ENDBRANCH  12  13
ENDBRANCH  10  11
ENDBRANCH   1  10
TORSDOF 13
ENDMDL
MODEL 2
REMARK VINA RESULT:    -4.317      2.123      2.548
REMARK INTER + INTRA:          -9.254
REMARK INTER:                  -7.578
REMARK INTRA:                  -1.676
REMARK UNBOUND:                -1.657
REMARK SMILES CCCCCCC=CCCCCCCCC(=O)[O-]
REMARK SMILES IDX 10 1 11 2 12 3 13 4 14 5 15 6 16 7 17 8 18 9 9 10 8 11 7 12
REMARK SMILES IDX 6 13 5 14 4 15 3 16 2 17 1 18
REMARK H PARENT
REMARK Flexibility Score: inf
ROOT
ATOM      1  C   UNL     1      43.412   9.142 118.221  1.00  0.00     0.004 C 
ENDROOT
BRANCH   1   2
ATOM      2  C   UNL     1      44.383   9.377 117.052  1.00  0.00     0.000 C 
BRANCH   2   3
ATOM      3  C   UNL     1      43.769  10.237 115.936  1.00  0.00     0.000 C 
BRANCH   3   4
ATOM      4  C   UNL     1      43.761   9.523 114.577  1.00  0.00     0.000 C 
BRANCH   4   5
ATOM      5  C   UNL     1      44.470   8.163 114.668  1.00  0.00     0.006 C 
BRANCH   5   6
ATOM      6  C   UNL     1      45.570   8.008 113.609  1.00  0.00     0.053 C 
BRANCH   6   7
ATOM      7  C   UNL     1      46.866   7.566 114.214  1.00  0.00     0.041 C 
ATOM      8  O   UNL     1      47.807   7.168 113.476  1.00  0.00    -0.550 OA
ATOM      9  O   UNL     1      47.025   7.559 115.595  1.00  0.00    -0.550 OA
ENDBRANCH   6   7
ENDBRANCH   5   6
ENDBRANCH   4   5
ENDBRANCH   3   4
ENDBRANCH   2   3
ENDBRANCH   1   2
BRANCH   1  10
ATOM     10  C   UNL     1      43.181  10.417 119.042  1.00  0.00     0.027 C 
BRANCH  10  11
ATOM     11  C   UNL     1      42.267  10.156 120.216  1.00  0.00    -0.031 C 
ATOM     12  C   UNL     1      42.001  11.034 121.202  1.00  0.00    -0.031 C 
BRANCH  12  13
ATOM     13  C   UNL     1      42.615  12.405 121.323  1.00  0.00     0.027 C 
BRANCH  13  14
ATOM     14  C   UNL     1      43.917  12.356 122.132  1.00  0.00     0.004 C 
BRANCH  14  15
ATOM     15  C   UNL     1      45.108  12.818 121.284  1.00  0.00     0.000 C 
BRANCH  15  16
ATOM     16  C   UNL     1      46.079  11.658 121.021  1.00  0.00    -0.000 C 
BRANCH  16  17
ATOM     17  C   UNL     1      45.748  10.410 121.853  1.00  0.00    -0.003 C 
ATOM     18  C   UNL     1      45.900   9.112 121.058  1.00  0.00     0.004 C 
ENDBRANCH  16  17
ENDBRANCH  15  16
ENDBRANCH  14  15
ENDBRANCH  13  14
ENDBRANCH  12  13
ENDBRANCH  10  11
ENDBRANCH   1  10
TORSDOF 13
ENDMDL
MODEL 3
REMARK VINA RESULT:    -4.296      1.997      3.258
REMARK INTER + INTRA:          -9.218
REMARK INTER:                  -7.529
REMARK INTRA:                  -1.690
REMARK UNBOUND:                -1.657
REMARK SMILES CCCCCCC=CCCCCCCCC(=O)[O-]
REMARK SMILES IDX 10 1 11 2 12 3 13 4 14 5 15 6 16 7 17 8 18 9 9 10 8 11 7 12
REMARK SMILES IDX 6 13 5 14 4 15 3 16 2 17 1 18
REMARK H PARENT
REMARK Flexibility Score: inf
ROOT
ATOM      1  C   UNL     1      44.545   8.686 119.443  1.00  0.00     0.004 C 
ENDROOT
BRANCH   1   2
ATOM      2  C   UNL     1      43.358   8.764 118.467  1.00  0.00     0.000 C 
BRANCH   2   3
ATOM      3  C   UNL     1      43.726   8.298 117.049  1.00  0.00     0.000 C 
BRANCH   3   4
ATOM      4  C   UNL     1      43.688   9.440 116.024  1.00  0.00     0.000 C 
BRANCH   4   5
ATOM      5  C   UNL     1      44.952   9.435 115.150  1.00  0.00     0.006 C 
BRANCH   5   6
ATOM      6  C   UNL     1      45.741   8.125 115.277  1.00  0.00     0.053 C 
BRANCH   6   7
ATOM      7  C   UNL     1      45.613   7.277 114.050  1.00  0.00     0.041 C 
ATOM      8  O   UNL     1      44.730   6.380 113.989  1.00  0.00    -0.550 OA
ATOM      9  O   UNL     1      46.490   7.453 112.986  1.00  0.00    -0.550 OA
ENDBRANCH   6   7
ENDBRANCH   5   6
ENDBRANCH   4   5
ENDBRANCH   3   4
ENDBRANCH   2   3
ENDBRANCH   1   2
BRANCH   1  10
ATOM     10  C   UNL     1      45.480   9.894 119.308  1.00  0.00     0.027 C 
BRANCH  10  11
ATOM     11  C   UNL     1      46.452   9.967 120.462  1.00  0.00    -0.031 C 
ATOM     12  C   UNL     1      46.605  11.025 121.281  1.00  0.00    -0.031 C 
BRANCH  12  13
ATOM     13  C   UNL     1      45.868  12.333 121.145  1.00  0.00     0.027 C 
BRANCH  13  14
ATOM     14  C   UNL     1      45.060  12.644 122.410  1.00  0.00     0.004 C 
BRANCH  14  15
ATOM     15  C   UNL     1      43.775  11.808 122.459  1.00  0.00     0.000 C 
BRANCH  15  16
ATOM     16  C   UNL     1      42.701  12.395 121.530  1.00  0.00    -0.000 C 
BRANCH  16  17
ATOM     17  C   UNL     1      42.052  11.331 120.632  1.00  0.00    -0.003 C 
ATOM     18  C   UNL     1      41.542  10.124 121.419  1.00  0.00     0.004 C 
ENDBRANCH  16  17
ENDBRANCH  15  16
ENDBRANCH  14  15
ENDBRANCH  13  14
ENDBRANCH  12  13
ENDBRANCH  10  11
ENDBRANCH   1  10
TORSDOF 13
ENDMDL
MODEL 4
REMARK VINA RESULT:    -4.296      4.447      7.146
REMARK INTER + INTRA:          -9.217
REMARK INTER:                  -8.018
REMARK INTRA:                  -1.199
REMARK UNBOUND:                -1.657
REMARK SMILES CCCCCCC=CCCCCCCCC(=O)[O-]
REMARK SMILES IDX 10 1 11 2 12 3 13 4 14 5 15 6 16 7 17 8 18 9 9 10 8 11 7 12
REMARK SMILES IDX 6 13 5 14 4 15 3 16 2 17 1 18
REMARK H PARENT
REMARK Flexibility Score: inf
ROOT
ATOM      1  C   UNL     1      43.061   9.908 112.604  1.00  0.00     0.004 C 
ENDROOT
BRANCH   1   2
ATOM      2  C   UNL     1      43.930   9.156 113.626  1.00  0.00     0.000 C 
BRANCH   2   3
ATOM      3  C   UNL     1      43.199   7.963 114.261  1.00  0.00     0.000 C 
BRANCH   3   4
ATOM      4  C   UNL     1      43.515   7.804 115.755  1.00  0.00     0.000 C 
BRANCH   4   5
ATOM      5  C   UNL     1      44.414   8.947 116.251  1.00  0.00     0.006 C 
BRANCH   5   6
ATOM      6  C   UNL     1      43.684   9.879 117.228  1.00  0.00     0.053 C 
BRANCH   6   7
ATOM      7  C   UNL     1      43.850   9.436 118.648  1.00  0.00     0.041 C 
ATOM      8  O   UNL     1      44.902   9.718 119.281  1.00  0.00    -0.550 OA
ATOM      9  O   UNL     1      42.858   8.681 119.263  1.00  0.00    -0.550 OA
ENDBRANCH   6   7
ENDBRANCH   5   6
ENDBRANCH   4   5
ENDBRANCH   3   4
ENDBRANCH   2   3
ENDBRANCH   1   2
BRANCH   1  10
ATOM     10  C   UNL     1      41.867  10.606 113.268  1.00  0.00     0.027 C 
BRANCH  10  11
ATOM     11  C   UNL     1      42.318  11.541 114.366  1.00  0.00    -0.031 C 
ATOM     12  C   UNL     1      42.037  12.856 114.428  1.00  0.00    -0.031 C 
BRANCH  12  13
ATOM     13  C   UNL     1      41.269  13.623 113.382  1.00  0.00     0.027 C 
BRANCH  13  14
ATOM     14  C   UNL     1      41.853  15.028 113.190  1.00  0.00     0.004 C 
BRANCH  14  15
ATOM     15  C   UNL     1      40.745  16.046 112.893  1.00  0.00     0.000 C 
BRANCH  15  16
ATOM     16  C   UNL     1      40.036  16.480 114.185  1.00  0.00    -0.000 C 
BRANCH  16  17
ATOM     17  C   UNL     1      40.706  17.693 114.848  1.00  0.00    -0.003 C 
ATOM     18  C   UNL     1      41.293  17.366 116.221  1.00  0.00     0.004 C 
ENDBRANCH  16  17
ENDBRANCH  15  16
ENDBRANCH  14  15
ENDBRANCH  13  14
ENDBRANCH  12  13
ENDBRANCH  10  11
ENDBRANCH   1  10
TORSDOF 13
ENDMDL
MODEL 5
REMARK VINA RESULT:    -4.268      1.209      2.035
REMARK INTER + INTRA:          -9.169
REMARK INTER:                  -7.229
REMARK INTRA:                  -1.940
REMARK UNBOUND:                -1.657
REMARK SMILES CCCCCCC=CCCCCCCCC(=O)[O-]
REMARK SMILES IDX 10 1 11 2 12 3 13 4 14 5 15 6 16 7 17 8 18 9 9 10 8 11 7 12
REMARK SMILES IDX 6 13 5 14 4 15 3 16 2 17 1 18
REMARK H PARENT
REMARK Flexibility Score: inf
ROOT
ATOM      1  C   UNL     1      42.954  10.948 119.360  1.00  0.00     0.004 C 
ENDROOT
BRANCH   1   2
ATOM      2  C   UNL     1      43.002   9.411 119.305  1.00  0.00     0.000 C 
BRANCH   2   3
ATOM      3  C   UNL     1      43.474   8.882 117.942  1.00  0.00     0.000 C 
BRANCH   3   4
ATOM      4  C   UNL     1      44.828   9.470 117.518  1.00  0.00     0.000 C 
BRANCH   4   5
ATOM      5  C   UNL     1      44.802   9.900 116.043  1.00  0.00     0.006 C 
BRANCH   5   6
ATOM      6  C   UNL     1      43.762   9.119 115.228  1.00  0.00     0.053 C 
BRANCH   6   7
ATOM      7  C   UNL     1      43.198   9.941 114.111  1.00  0.00     0.041 C 
ATOM      8  O   UNL     1      43.369   9.586 112.914  1.00  0.00    -0.550 OA
ATOM      9  O   UNL     1      42.514  11.118 114.388  1.00  0.00    -0.550 OA
ENDBRANCH   6   7
ENDBRANCH   5   6
ENDBRANCH   4   5
ENDBRANCH   3   4
ENDBRANCH   2   3
ENDBRANCH   1   2
BRANCH   1  10
ATOM     10  C   UNL     1      42.295  11.456 120.648  1.00  0.00     0.027 C 
BRANCH  10  11
ATOM     11  C   UNL     1      42.672  10.599 121.833  1.00  0.00    -0.031 C 
ATOM     12  C   UNL     1      43.287  11.041 122.946  1.00  0.00    -0.031 C 
BRANCH  12  13
ATOM     13  C   UNL     1      43.751  12.458 123.169  1.00  0.00     0.027 C 
BRANCH  13  14
ATOM     14  C   UNL     1      45.270  12.573 122.998  1.00  0.00     0.004 C 
BRANCH  14  15
ATOM     15  C   UNL     1      45.638  12.846 121.534  1.00  0.00     0.000 C 
BRANCH  15  16
ATOM     16  C   UNL     1      46.758  11.907 121.064  1.00  0.00    -0.000 C 
BRANCH  16  17
ATOM     17  C   UNL     1      46.245  10.500 120.722  1.00  0.00    -0.003 C 
ATOM     18  C   UNL     1      46.843   9.417 121.621  1.00  0.00     0.004 C 
ENDBRANCH  16  17
ENDBRANCH  15  16
ENDBRANCH  14  15
ENDBRANCH  13  14
ENDBRANCH  12  13
ENDBRANCH  10  11
ENDBRANCH   1  10
TORSDOF 13
ENDMDL
MODEL 6
REMARK VINA RESULT:    -4.256      4.670      8.647
REMARK INTER + INTRA:          -9.147
REMARK INTER:                  -7.664
REMARK INTRA:                  -1.482
REMARK UNBOUND:                -1.657
REMARK SMILES CCCCCCC=CCCCCCCCC(=O)[O-]
REMARK SMILES IDX 10 1 11 2 12 3 13 4 14 5 15 6 16 7 17 8 18 9 9 10 8 11 7 12
REMARK SMILES IDX 6 13 5 14 4 15 3 16 2 17 1 18
REMARK H PARENT
REMARK Flexibility Score: inf
ROOT
ATOM      1  C   UNL     1      47.261   6.486 112.724  1.00  0.00     0.004 C 
ENDROOT
BRANCH   1   2
ATOM      2  C   UNL     1      46.472   7.330 113.739  1.00  0.00     0.000 C 
BRANCH   2   3
ATOM      3  C   UNL     1      45.063   6.777 114.002  1.00  0.00     0.000 C 
BRANCH   3   4
ATOM      4  C   UNL     1      44.061   7.874 114.389  1.00  0.00     0.000 C 
BRANCH   4   5
ATOM      5  C   UNL     1      43.340   7.522 115.699  1.00  0.00     0.006 C 
BRANCH   5   6
ATOM      6  C   UNL     1      43.693   8.491 116.836  1.00  0.00     0.053 C 
BRANCH   6   7
ATOM      7  C   UNL     1      44.339   9.740 116.322  1.00  0.00     0.041 C 
ATOM      8  O   UNL     1      43.629  10.698 115.913  1.00  0.00    -0.550 OA
ATOM      9  O   UNL     1      45.724   9.836 116.262  1.00  0.00    -0.550 OA
ENDBRANCH   6   7
ENDBRANCH   5   6
ENDBRANCH   4   5
ENDBRANCH   3   4
ENDBRANCH   2   3
ENDBRANCH   1   2
BRANCH   1  10
ATOM     10  C   UNL     1      48.372   7.295 112.044  1.00  0.00     0.027 C 
BRANCH  10  11
ATOM     11  C   UNL     1      48.984   6.529 110.894  1.00  0.00    -0.031 C 
ATOM     12  C   UNL     1      50.201   5.954 110.906  1.00  0.00    -0.031 C 
BRANCH  12  13
ATOM     13  C   UNL     1      51.177   6.027 112.052  1.00  0.00     0.027 C 
BRANCH  13  14
ATOM     14  C   UNL     1      51.348   4.657 112.719  1.00  0.00     0.004 C 
BRANCH  14  15
ATOM     15  C   UNL     1      50.416   4.516 113.930  1.00  0.00     0.000 C 
BRANCH  15  16
ATOM     16  C   UNL     1      50.843   5.460 115.064  1.00  0.00    -0.000 C 
BRANCH  16  17
ATOM     17  C   UNL     1      49.734   6.446 115.460  1.00  0.00    -0.003 C 
ATOM     18  C   UNL     1      50.137   7.906 115.247  1.00  0.00     0.004 C 
ENDBRANCH  16  17
ENDBRANCH  15  16
ENDBRANCH  14  15
ENDBRANCH  13  14
ENDBRANCH  12  13
ENDBRANCH  10  11
ENDBRANCH   1  10
TORSDOF 13
ENDMDL
MODEL 7
REMARK VINA RESULT:    -4.207      4.625      8.872
REMARK INTER + INTRA:          -9.061
REMARK INTER:                  -7.569
REMARK INTRA:                  -1.493
REMARK UNBOUND:                -1.657
REMARK SMILES CCCCCCC=CCCCCCCCC(=O)[O-]
REMARK SMILES IDX 10 1 11 2 12 3 13 4 14 5 15 6 16 7 17 8 18 9 9 10 8 11 7 12
REMARK SMILES IDX 6 13 5 14 4 15 3 16 2 17 1 18
REMARK H PARENT
REMARK Flexibility Score: inf
ROOT
ATOM      1  C   UNL     1      46.516   7.052 113.263  1.00  0.00     0.004 C 
ENDROOT
BRANCH   1   2
ATOM      2  C   UNL     1      45.931   7.832 114.453  1.00  0.00     0.000 C 
BRANCH   2   3
ATOM      3  C   UNL     1      46.562   7.427 115.794  1.00  0.00     0.000 C 
BRANCH   3   4
ATOM      4  C   UNL     1      45.623   7.670 116.985  1.00  0.00     0.000 C 
BRANCH   4   5
ATOM      5  C   UNL     1      44.711   8.879 116.727  1.00  0.00     0.006 C 
BRANCH   5   6
ATOM      6  C   UNL     1      43.488   8.894 117.654  1.00  0.00     0.053 C 
BRANCH   6   7
ATOM      7  C   UNL     1      43.700   9.780 118.842  1.00  0.00     0.041 C 
ATOM      8  O   UNL     1      43.067  10.864 118.944  1.00  0.00    -0.550 OA
ATOM      9  O   UNL     1      44.623   9.428 119.820  1.00  0.00    -0.550 OA
ENDBRANCH   6   7
ENDBRANCH   5   6
ENDBRANCH   4   5
ENDBRANCH   3   4
ENDBRANCH   2   3
ENDBRANCH   1   2
BRANCH   1  10
ATOM     10  C   UNL     1      47.852   7.640 112.792  1.00  0.00     0.027 C 
BRANCH  10  11
ATOM     11  C   UNL     1      47.948   7.645 111.284  1.00  0.00    -0.031 C 
ATOM     12  C   UNL     1      48.847   6.950 110.561  1.00  0.00    -0.031 C 
BRANCH  12  13
ATOM     13  C   UNL     1      49.942   6.094 111.143  1.00  0.00     0.027 C 
BRANCH  13  14
ATOM     14  C   UNL     1      49.480   4.641 111.302  1.00  0.00     0.004 C 
BRANCH  14  15
ATOM     15  C   UNL     1      49.326   4.273 112.783  1.00  0.00     0.000 C 
BRANCH  15  16
ATOM     16  C   UNL     1      50.571   4.682 113.584  1.00  0.00    -0.000 C 
BRANCH  16  17
ATOM     17  C   UNL     1      50.234   5.584 114.781  1.00  0.00    -0.003 C 
ATOM     18  C   UNL     1      50.927   6.945 114.709  1.00  0.00     0.004 C 
ENDBRANCH  16  17
ENDBRANCH  15  16
ENDBRANCH  14  15
ENDBRANCH  13  14
ENDBRANCH  12  13
ENDBRANCH  10  11
ENDBRANCH   1  10
TORSDOF 13
ENDMDL
MODEL 8
REMARK VINA RESULT:    -4.204      4.551      8.718
REMARK INTER + INTRA:          -9.055
REMARK INTER:                  -7.441
REMARK INTRA:                  -1.614
REMARK UNBOUND:                -1.657
REMARK SMILES CCCCCCC=CCCCCCCCC(=O)[O-]
REMARK SMILES IDX 10 1 11 2 12 3 13 4 14 5 15 6 16 7 17 8 18 9 9 10 8 11 7 12
REMARK SMILES IDX 6 13 5 14 4 15 3 16 2 17 1 18
REMARK H PARENT
REMARK Flexibility Score: inf
ROOT
ATOM      1  C   UNL     1      48.208   7.814 114.598  1.00  0.00     0.004 C 
ENDROOT
BRANCH   1   2
ATOM      2  C   UNL     1      47.714   8.138 116.019  1.00  0.00     0.000 C 
BRANCH   2   3
ATOM      3  C   UNL     1      47.071   9.529 116.119  1.00  0.00     0.000 C 
BRANCH   3   4
ATOM      4  C   UNL     1      45.792   9.529 116.969  1.00  0.00     0.000 C 
BRANCH   4   5
ATOM      5  C   UNL     1      44.633   8.858 116.216  1.00  0.00     0.006 C 
BRANCH   5   6
ATOM      6  C   UNL     1      44.054   9.759 115.117  1.00  0.00     0.053 C 
BRANCH   6   7
ATOM      7  C   UNL     1      44.139   9.116 113.768  1.00  0.00     0.041 C 
ATOM      8  O   UNL     1      43.498   9.596 112.796  1.00  0.00    -0.550 OA
ATOM      9  O   UNL     1      44.897   7.965 113.591  1.00  0.00    -0.550 OA
ENDBRANCH   6   7
ENDBRANCH   5   6
ENDBRANCH   4   5
ENDBRANCH   3   4
ENDBRANCH   2   3
ENDBRANCH   1   2
BRANCH   1  10
ATOM     10  C   UNL     1      49.729   7.630 114.546  1.00  0.00     0.027 C 
BRANCH  10  11
ATOM     11  C   UNL     1      50.180   6.519 115.466  1.00  0.00    -0.031 C 
ATOM     12  C   UNL     1      50.682   5.336 115.065  1.00  0.00    -0.031 C 
BRANCH  12  13
ATOM     13  C   UNL     1      50.827   4.904 113.628  1.00  0.00     0.027 C 
BRANCH  13  14
ATOM     14  C   UNL     1      49.546   4.231 113.123  1.00  0.00     0.004 C 
BRANCH  14  15
ATOM     15  C   UNL     1      49.326   4.518 111.632  1.00  0.00     0.000 C 
BRANCH  15  16
ATOM     16  C   UNL     1      50.150   5.732 111.178  1.00  0.00    -0.000 C 
BRANCH  16  17
ATOM     17  C   UNL     1      49.340   6.703 110.306  1.00  0.00    -0.003 C 
ATOM     18  C   UNL     1      48.168   7.335 111.058  1.00  0.00     0.004 C 
ENDBRANCH  16  17
ENDBRANCH  15  16
ENDBRANCH  14  15
ENDBRANCH  13  14
ENDBRANCH  12  13
ENDBRANCH  10  11
ENDBRANCH   1  10
TORSDOF 13
ENDMDL
MODEL 9
REMARK VINA RESULT:    -4.192      5.433      8.312
REMARK INTER + INTRA:          -9.035
REMARK INTER:                  -6.737
REMARK INTRA:                  -2.298
REMARK UNBOUND:                -1.657
REMARK SMILES CCCCCCC=CCCCCCCCC(=O)[O-]
REMARK SMILES IDX 10 1 11 2 12 3 13 4 14 5 15 6 16 7 17 8 18 9 9 10 8 11 7 12
REMARK SMILES IDX 6 13 5 14 4 15 3 16 2 17 1 18
REMARK H PARENT
REMARK Flexibility Score: inf
ROOT
ATOM      1  C   UNL     1      41.795  14.435 114.315  1.00  0.00     0.004 C 
ENDROOT
BRANCH   1   2
ATOM      2  C   UNL     1      41.256  12.997 114.387  1.00  0.00     0.000 C 
BRANCH   2   3
ATOM      3  C   UNL     1      42.346  11.942 114.140  1.00  0.00     0.000 C 
BRANCH   3   4
ATOM      4  C   UNL     1      41.862  10.790 113.249  1.00  0.00     0.000 C 
BRANCH   4   5
ATOM      5  C   UNL     1      43.034   9.885 112.838  1.00  0.00     0.006 C 
BRANCH   5   6
ATOM      6  C   UNL     1      43.368   8.841 113.912  1.00  0.00     0.053 C 
BRANCH   6   7
ATOM      7  C   UNL     1      44.842   8.740 114.150  1.00  0.00     0.041 C 
ATOM      8  O   UNL     1      45.365   9.318 115.140  1.00  0.00    -0.550 OA
ATOM      9  O   UNL     1      45.646   8.036 113.261  1.00  0.00    -0.550 OA
ENDBRANCH   6   7
ENDBRANCH   5   6
ENDBRANCH   4   5
ENDBRANCH   3   4
ENDBRANCH   2   3
ENDBRANCH   1   2
BRANCH   1  10
ATOM     10  C   UNL     1      40.952  15.320 113.389  1.00  0.00     0.027 C 
BRANCH  10  11
ATOM     11  C   UNL     1      39.475  15.058 113.575  1.00  0.00    -0.031 C 
ATOM     12  C   UNL     1      38.661  14.517 112.648  1.00  0.00    -0.031 C 
BRANCH  12  13
ATOM     13  C   UNL     1      39.080  14.134 111.252  1.00  0.00     0.027 C 
BRANCH  13  14
ATOM     14  C   UNL     1      39.461  12.651 111.179  1.00  0.00     0.004 C 
BRANCH  14  15
ATOM     15  C   UNL     1      40.572  12.420 110.147  1.00  0.00     0.000 C 
BRANCH  15  16
ATOM     16  C   UNL     1      41.493  13.644 110.046  1.00  0.00    -0.000 C 
BRANCH  16  17
ATOM     17  C   UNL     1      42.874  13.397 110.670  1.00  0.00    -0.003 C 
ATOM     18  C   UNL     1      43.574  14.691 111.089  1.00  0.00     0.004 C 
ENDBRANCH  16  17
ENDBRANCH  15  16
ENDBRANCH  14  15
ENDBRANCH  13  14
ENDBRANCH  12  13
ENDBRANCH  10  11
ENDBRANCH   1  10
TORSDOF 13
ENDMDL
