MODEL 1
REMARK VINA RESULT:    -3.971      0.000      0.000
REMARK INTER + INTRA:          -9.408
REMARK INTER:                  -6.757
REMARK INTRA:                  -2.651
REMARK UNBOUND:                -2.651
REMARK SMILES CC(=O)CCC[C@H](C)CCC[C@@H](C)CCCC(C)C
REMARK SMILES IDX 10 1 11 2 12 3 13 4 14 5 15 6 16 7 17 8 18 9 19 10 9 11 7 12
REMARK SMILES IDX 8 13 6 14 5 15 4 16 2 17 3 18 1 19
REMARK H PARENT
REMARK Flexibility Score: inf
ROOT
ATOM      1  C   UNL     1     117.557 114.595 112.564  1.00  0.00     0.001 C 
ENDROOT
BRANCH   1   2
ATOM      2  C   UNL     1     118.059 114.273 113.983  1.00  0.00     0.003 C 
BRANCH   2   3
ATOM      3  C   UNL     1     117.439 115.189 115.067  1.00  0.00    -0.014 C 
ATOM      4  C   UNL     1     116.448 114.409 115.951  1.00  0.00     0.007 C 
BRANCH   3   5
ATOM      5  C   UNL     1     118.567 115.819 115.920  1.00  0.00     0.003 C 
BRANCH   5   6
ATOM      6  C   UNL     1     119.347 116.919 115.175  1.00  0.00     0.001 C 
BRANCH   6   7
ATOM      7  C   UNL     1     118.432 117.864 114.372  1.00  0.00     0.003 C 
BRANCH   7   8
ATOM      8  C   UNL     1     118.676 117.863 112.844  1.00  0.00    -0.017 C 
ATOM      9  C   UNL     1     120.151 118.105 112.492  1.00  0.00     0.007 C 
ATOM     10  C   UNL     1     117.801 118.934 112.179  1.00  0.00     0.007 C 
ENDBRANCH   7   8
ENDBRANCH   6   7
ENDBRANCH   5   6
ENDBRANCH   3   5
ENDBRANCH   2   3
ENDBRANCH   1   2
BRANCH   1  11
ATOM     11  C   UNL     1     116.248 113.846 112.258  1.00  0.00     0.003 C 
BRANCH  11  12
ATOM     12  C   UNL     1     115.057 114.793 111.972  1.00  0.00    -0.014 C 
ATOM     13  C   UNL     1     113.886 114.429 112.901  1.00  0.00     0.007 C 
BRANCH  12  14
ATOM     14  C   UNL     1     115.466 116.282 112.133  1.00  0.00     0.004 C 
BRANCH  14  15
ATOM     15  C   UNL     1     114.407 117.190 112.786  1.00  0.00     0.008 C 
BRANCH  15  16
ATOM     16  C   UNL     1     114.817 117.681 114.181  1.00  0.00     0.075 C 
BRANCH  16  17
ATOM     17  C   UNL     1     114.817 119.187 114.235  1.00  0.00     0.129 C 
ATOM     18  O   UNL     1     114.431 119.823 113.266  1.00  0.00    -0.300 OA
ATOM     19  C   UNL     1     115.295 119.925 115.450  1.00  0.00     0.087 C 
ENDBRANCH  16  17
ENDBRANCH  15  16
ENDBRANCH  14  15
ENDBRANCH  12  14
ENDBRANCH  11  12
ENDBRANCH   1  11
TORSDOF 12
ENDMDL
MODEL 2
REMARK VINA RESULT:    -3.921      1.324      4.429
REMARK INTER + INTRA:          -9.322
REMARK INTER:                  -6.980
REMARK INTRA:                  -2.342
REMARK UNBOUND:                -2.651
REMARK SMILES CC(=O)CCC[C@H](C)CCC[C@@H](C)CCCC(C)C
REMARK SMILES IDX 10 1 11 2 12 3 13 4 14 5 15 6 16 7 17 8 18 9 19 10 9 11 7 12
REMARK SMILES IDX 8 13 6 14 5 15 4 16 2 17 3 18 1 19
REMARK H PARENT
REMARK Flexibility Score: inf
ROOT
ATOM      1  C   UNL     1     118.321 117.239 111.989  1.00  0.00     0.001 C 
ENDROOT
BRANCH   1   2
ATOM      2  C   UNL     1     118.970 115.920 112.447  1.00  0.00     0.003 C 
BRANCH   2   3
ATOM      3  C   UNL     1     117.944 114.779 112.650  1.00  0.00    -0.014 C 
ATOM      4  C   UNL     1     118.462 113.455 112.056  1.00  0.00     0.007 C 
BRANCH   3   5
ATOM      5  C   UNL     1     117.631 114.625 114.159  1.00  0.00     0.003 C 
BRANCH   5   6
ATOM      6  C   UNL     1     116.136 114.378 114.444  1.00  0.00     0.001 C 
BRANCH   6   7
ATOM      7  C   UNL     1     115.244 114.603 113.209  1.00  0.00     0.003 C 
BRANCH   7   8
ATOM      8  C   UNL     1     113.968 115.439 113.471  1.00  0.00    -0.017 C 
ATOM      9  C   UNL     1     113.291 115.063 114.797  1.00  0.00     0.007 C 
ATOM     10  C   UNL     1     112.979 115.252 112.312  1.00  0.00     0.007 C 
ENDBRANCH   7   8
ENDBRANCH   6   7
ENDBRANCH   5   6
ENDBRANCH   3   5
ENDBRANCH   2   3
ENDBRANCH   1   2
BRANCH   1  11
ATOM     11  C   UNL     1     118.693 118.395 112.934  1.00  0.00     0.003 C 
BRANCH  11  12
ATOM     12  C   UNL     1     118.868 117.946 114.406  1.00  0.00    -0.014 C 
ATOM     13  C   UNL     1     120.240 118.419 114.919  1.00  0.00     0.007 C 
BRANCH  12  14
ATOM     14  C   UNL     1     117.715 118.475 115.300  1.00  0.00     0.004 C 
BRANCH  14  15
ATOM     15  C   UNL     1     116.316 117.925 114.965  1.00  0.00     0.008 C 
BRANCH  15  16
ATOM     16  C   UNL     1     115.204 118.967 115.144  1.00  0.00     0.075 C 
BRANCH  16  17
ATOM     17  C   UNL     1     114.814 119.562 113.816  1.00  0.00     0.129 C 
ATOM     18  O   UNL     1     114.382 120.705 113.773  1.00  0.00    -0.300 OA
ATOM     19  C   UNL     1     114.929 118.777 112.543  1.00  0.00     0.087 C 
ENDBRANCH  16  17
ENDBRANCH  15  16
ENDBRANCH  14  15
ENDBRANCH  12  14
ENDBRANCH  11  12
ENDBRANCH   1  11
TORSDOF 12
ENDMDL
MODEL 3
REMARK VINA RESULT:    -3.884      1.950      4.227
REMARK INTER + INTRA:          -9.260
REMARK INTER:                  -6.662
REMARK INTRA:                  -2.598
REMARK UNBOUND:                -2.651
REMARK SMILES CC(=O)CCC[C@H](C)CCC[C@@H](C)CCCC(C)C
REMARK SMILES IDX 10 1 11 2 12 3 13 4 14 5 15 6 16 7 17 8 18 9 19 10 9 11 7 12
REMARK SMILES IDX 8 13 6 14 5 15 4 16 2 17 3 18 1 19
REMARK H PARENT
REMARK Flexibility Score: inf
ROOT
ATOM      1  C   UNL     1     113.972 116.254 114.408  1.00  0.00     0.001 C 
ENDROOT
BRANCH   1   2
ATOM      2  C   UNL     1     114.229 114.774 114.072  1.00  0.00     0.003 C 
BRANCH   2   3
ATOM      3  C   UNL     1     114.111 114.467 112.559  1.00  0.00    -0.014 C 
ATOM      4  C   UNL     1     113.014 115.327 111.903  1.00  0.00     0.007 C 
BRANCH   3   5
ATOM      5  C   UNL     1     115.481 114.696 111.875  1.00  0.00     0.003 C 
BRANCH   5   6
ATOM      6  C   UNL     1     116.646 114.003 112.608  1.00  0.00     0.001 C 
BRANCH   6   7
ATOM      7  C   UNL     1     117.797 114.968 112.952  1.00  0.00     0.003 C 
BRANCH   7   8
ATOM      8  C   UNL     1     118.468 114.719 114.325  1.00  0.00    -0.017 C 
ATOM      9  C   UNL     1     117.581 113.882 115.259  1.00  0.00     0.007 C 
ATOM     10  C   UNL     1     118.803 116.061 114.989  1.00  0.00     0.007 C 
ENDBRANCH   7   8
ENDBRANCH   6   7
ENDBRANCH   5   6
ENDBRANCH   3   5
ENDBRANCH   2   3
ENDBRANCH   1   2
BRANCH   1  11
ATOM     11  C   UNL     1     115.270 116.954 114.846  1.00  0.00     0.003 C 
BRANCH  11  12
ATOM     12  C   UNL     1     115.829 117.926 113.777  1.00  0.00    -0.014 C 
ATOM     13  C   UNL     1     114.676 118.410 112.881  1.00  0.00     0.007 C 
BRANCH  12  14
ATOM     14  C   UNL     1     116.578 119.117 114.432  1.00  0.00     0.004 C 
BRANCH  14  15
ATOM     15  C   UNL     1     116.234 119.379 115.910  1.00  0.00     0.008 C 
BRANCH  15  16
ATOM     16  C   UNL     1     115.059 120.350 116.088  1.00  0.00     0.075 C 
BRANCH  16  17
ATOM     17  C   UNL     1     114.395 120.143 117.424  1.00  0.00     0.129 C 
ATOM     18  O   UNL     1     114.299 121.082 118.200  1.00  0.00    -0.300 OA
ATOM     19  C   UNL     1     113.860 118.803 117.832  1.00  0.00     0.087 C 
ENDBRANCH  16  17
ENDBRANCH  15  16
ENDBRANCH  14  15
ENDBRANCH  12  14
ENDBRANCH  11  12
ENDBRANCH   1  11
TORSDOF 12
ENDMDL
MODEL 4
REMARK VINA RESULT:    -3.881      2.110      3.941
REMARK INTER + INTRA:          -9.255
REMARK INTER:                  -6.697
REMARK INTRA:                  -2.558
REMARK UNBOUND:                -2.651
REMARK SMILES CC(=O)CCC[C@H](C)CCC[C@@H](C)CCCC(C)C
REMARK SMILES IDX 10 1 11 2 12 3 13 4 14 5 15 6 16 7 17 8 18 9 19 10 9 11 7 12
REMARK SMILES IDX 8 13 6 14 5 15 4 16 2 17 3 18 1 19
REMARK H PARENT
REMARK Flexibility Score: inf
ROOT
ATOM      1  C   UNL     1     115.257 116.042 112.314  1.00  0.00     0.001 C 
ENDROOT
BRANCH   1   2
ATOM      2  C   UNL     1     114.875 114.970 113.349  1.00  0.00     0.003 C 
BRANCH   2   3
ATOM      3  C   UNL     1     115.008 115.464 114.811  1.00  0.00    -0.014 C 
ATOM      4  C   UNL     1     113.807 115.009 115.662  1.00  0.00     0.007 C 
BRANCH   3   5
ATOM      5  C   UNL     1     116.340 114.953 115.412  1.00  0.00     0.003 C 
BRANCH   5   6
ATOM      6  C   UNL     1     117.022 113.877 114.544  1.00  0.00     0.001 C 
BRANCH   6   7
ATOM      7  C   UNL     1     118.459 114.256 114.139  1.00  0.00     0.003 C 
BRANCH   7   8
ATOM      8  C   UNL     1     118.779 114.081 112.635  1.00  0.00    -0.017 C 
ATOM      9  C   UNL     1     118.773 115.420 111.881  1.00  0.00     0.007 C 
ATOM     10  C   UNL     1     117.766 113.122 111.998  1.00  0.00     0.007 C 
ENDBRANCH   7   8
ENDBRANCH   6   7
ENDBRANCH   5   6
ENDBRANCH   3   5
ENDBRANCH   2   3
ENDBRANCH   1   2
BRANCH   1  11
ATOM     11  C   UNL     1     114.749 117.429 112.742  1.00  0.00     0.003 C 
BRANCH  11  12
ATOM     12  C   UNL     1     115.657 118.587 112.259  1.00  0.00    -0.014 C 
ATOM     13  C   UNL     1     115.024 119.930 112.662  1.00  0.00     0.007 C 
BRANCH  12  14
ATOM     14  C   UNL     1     117.097 118.448 112.820  1.00  0.00     0.004 C 
BRANCH  14  15
ATOM     15  C   UNL     1     117.210 118.464 114.356  1.00  0.00     0.008 C 
BRANCH  15  16
ATOM     16  C   UNL     1     118.588 118.015 114.860  1.00  0.00     0.075 C 
BRANCH  16  17
ATOM     17  C   UNL     1     118.728 118.281 116.336  1.00  0.00     0.129 C 
ATOM     18  O   UNL     1     119.723 118.856 116.751  1.00  0.00    -0.300 OA
ATOM     19  C   UNL     1     117.678 117.843 117.313  1.00  0.00     0.087 C 
ENDBRANCH  16  17
ENDBRANCH  15  16
ENDBRANCH  14  15
ENDBRANCH  12  14
ENDBRANCH  11  12
ENDBRANCH   1  11
TORSDOF 12
ENDMDL
MODEL 5
REMARK VINA RESULT:    -3.851      1.729      3.295
REMARK INTER + INTRA:          -9.203
REMARK INTER:                  -6.867
REMARK INTRA:                  -2.336
REMARK UNBOUND:                -2.651
REMARK SMILES CC(=O)CCC[C@H](C)CCC[C@@H](C)CCCC(C)C
REMARK SMILES IDX 10 1 11 2 12 3 13 4 14 5 15 6 16 7 17 8 18 9 19 10 9 11 7 12
REMARK SMILES IDX 8 13 6 14 5 15 4 16 2 17 3 18 1 19
REMARK H PARENT
REMARK Flexibility Score: inf
ROOT
ATOM      1  C   UNL     1     114.151 116.056 113.508  1.00  0.00     0.001 C 
ENDROOT
BRANCH   1   2
ATOM      2  C   UNL     1     114.798 114.666 113.635  1.00  0.00     0.003 C 
BRANCH   2   3
ATOM      3  C   UNL     1     116.308 114.729 113.973  1.00  0.00    -0.014 C 
ATOM      4  C   UNL     1     116.604 114.042 115.319  1.00  0.00     0.007 C 
BRANCH   3   5
ATOM      5  C   UNL     1     117.123 114.080 112.827  1.00  0.00     0.003 C 
BRANCH   5   6
ATOM      6  C   UNL     1     118.478 114.773 112.582  1.00  0.00     0.001 C 
BRANCH   6   7
ATOM      7  C   UNL     1     118.335 116.267 112.238  1.00  0.00     0.003 C 
BRANCH   7   8
ATOM      8  C   UNL     1     119.218 117.218 113.082  1.00  0.00    -0.017 C 
ATOM      9  C   UNL     1     118.864 117.164 114.576  1.00  0.00     0.007 C 
ATOM     10  C   UNL     1     119.072 118.655 112.566  1.00  0.00     0.007 C 
ENDBRANCH   7   8
ENDBRANCH   6   7
ENDBRANCH   5   6
ENDBRANCH   3   5
ENDBRANCH   2   3
ENDBRANCH   1   2
BRANCH   1  11
ATOM     11  C   UNL     1     114.962 117.115 114.274  1.00  0.00     0.003 C 
BRANCH  11  12
ATOM     12  C   UNL     1     115.470 118.265 113.369  1.00  0.00    -0.014 C 
ATOM     13  C   UNL     1     114.847 118.122 111.969  1.00  0.00     0.007 C 
BRANCH  12  14
ATOM     14  C   UNL     1     115.159 119.653 113.989  1.00  0.00     0.004 C 
BRANCH  14  15
ATOM     15  C   UNL     1     115.625 119.844 115.444  1.00  0.00     0.008 C 
BRANCH  15  16
ATOM     16  C   UNL     1     114.725 120.799 116.240  1.00  0.00     0.075 C 
BRANCH  16  17
ATOM     17  C   UNL     1     114.017 120.063 117.348  1.00  0.00     0.129 C 
ATOM     18  O   UNL     1     113.222 120.664 118.056  1.00  0.00    -0.300 OA
ATOM     19  C   UNL     1     114.275 118.610 117.611  1.00  0.00     0.087 C 
ENDBRANCH  16  17
ENDBRANCH  15  16
ENDBRANCH  14  15
ENDBRANCH  12  14
ENDBRANCH  11  12
ENDBRANCH   1  11
TORSDOF 12
ENDMDL
MODEL 6
REMARK VINA RESULT:    -3.835      1.826      3.723
REMARK INTER + INTRA:          -9.176
REMARK INTER:                  -6.479
REMARK INTRA:                  -2.698
REMARK UNBOUND:                -2.651
REMARK SMILES CC(=O)CCC[C@H](C)CCC[C@@H](C)CCCC(C)C
REMARK SMILES IDX 10 1 11 2 12 3 13 4 14 5 15 6 16 7 17 8 18 9 19 10 9 11 7 12
REMARK SMILES IDX 8 13 6 14 5 15 4 16 2 17 3 18 1 19
REMARK H PARENT
REMARK Flexibility Score: inf
ROOT
ATOM      1  C   UNL     1     116.985 113.877 112.351  1.00  0.00     0.001 C 
ENDROOT
BRANCH   1   2
ATOM      2  C   UNL     1     118.172 113.700 113.315  1.00  0.00     0.003 C 
BRANCH   2   3
ATOM      3  C   UNL     1     117.749 113.706 114.805  1.00  0.00    -0.014 C 
ATOM      4  C   UNL     1     118.543 112.661 115.611  1.00  0.00     0.007 C 
BRANCH   3   5
ATOM      5  C   UNL     1     117.943 115.126 115.393  1.00  0.00     0.003 C 
BRANCH   5   6
ATOM      6  C   UNL     1     116.697 115.648 116.134  1.00  0.00     0.001 C 
BRANCH   6   7
ATOM      7  C   UNL     1     115.461 114.750 115.937  1.00  0.00     0.003 C 
BRANCH   7   8
ATOM      8  C   UNL     1     114.120 115.381 116.384  1.00  0.00    -0.017 C 
ATOM      9  C   UNL     1     112.962 115.006 115.448  1.00  0.00     0.007 C 
ATOM     10  C   UNL     1     114.261 116.907 116.451  1.00  0.00     0.007 C 
ENDBRANCH   7   8
ENDBRANCH   6   7
ENDBRANCH   5   6
ENDBRANCH   3   5
ENDBRANCH   2   3
ENDBRANCH   1   2
BRANCH   1  11
ATOM     11  C   UNL     1     116.869 115.336 111.880  1.00  0.00     0.003 C 
BRANCH  11  12
ATOM     12  C   UNL     1     115.416 115.872 111.910  1.00  0.00    -0.014 C 
ATOM     13  C   UNL     1     114.447 114.697 112.130  1.00  0.00     0.007 C 
BRANCH  12  14
ATOM     14  C   UNL     1     115.238 116.965 112.999  1.00  0.00     0.004 C 
BRANCH  14  15
ATOM     15  C   UNL     1     115.971 118.291 112.726  1.00  0.00     0.008 C 
BRANCH  15  16
ATOM     16  C   UNL     1     117.083 118.582 113.743  1.00  0.00     0.075 C 
BRANCH  16  17
ATOM     17  C   UNL     1     118.438 118.480 113.092  1.00  0.00     0.129 C 
ATOM     18  O   UNL     1     118.529 118.565 111.877  1.00  0.00    -0.300 OA
ATOM     19  C   UNL     1     119.680 118.263 113.903  1.00  0.00     0.087 C 
ENDBRANCH  16  17
ENDBRANCH  15  16
ENDBRANCH  14  15
ENDBRANCH  12  14
ENDBRANCH  11  12
ENDBRANCH   1  11
TORSDOF 12
ENDMDL
MODEL 7
REMARK VINA RESULT:    -3.831      1.709      4.080
REMARK INTER + INTRA:          -9.170
REMARK INTER:                  -6.601
REMARK INTRA:                  -2.569
REMARK UNBOUND:                -2.651
REMARK SMILES CC(=O)CCC[C@H](C)CCC[C@@H](C)CCCC(C)C
REMARK SMILES IDX 10 1 11 2 12 3 13 4 14 5 15 6 16 7 17 8 18 9 19 10 9 11 7 12
REMARK SMILES IDX 8 13 6 14 5 15 4 16 2 17 3 18 1 19
REMARK H PARENT
REMARK Flexibility Score: inf
ROOT
ATOM      1  C   UNL     1     117.465 118.139 111.876  1.00  0.00     0.001 C 
ENDROOT
BRANCH   1   2
ATOM      2  C   UNL     1     118.867 118.463 112.420  1.00  0.00     0.003 C 
BRANCH   2   3
ATOM      3  C   UNL     1     119.316 117.502 113.549  1.00  0.00    -0.014 C 
ATOM      4  C   UNL     1     119.909 118.282 114.737  1.00  0.00     0.007 C 
BRANCH   3   5
ATOM      5  C   UNL     1     118.116 116.633 113.998  1.00  0.00     0.003 C 
BRANCH   5   6
ATOM      6  C   UNL     1     118.191 115.184 113.478  1.00  0.00     0.001 C 
BRANCH   6   7
ATOM      7  C   UNL     1     116.865 114.418 113.645  1.00  0.00     0.003 C 
BRANCH   7   8
ATOM      8  C   UNL     1     115.916 114.986 114.729  1.00  0.00    -0.017 C 
ATOM      9  C   UNL     1     116.151 114.339 116.102  1.00  0.00     0.007 C 
ATOM     10  C   UNL     1     114.458 114.780 114.300  1.00  0.00     0.007 C 
ENDBRANCH   7   8
ENDBRANCH   6   7
ENDBRANCH   5   6
ENDBRANCH   3   5
ENDBRANCH   2   3
ENDBRANCH   1   2
BRANCH   1  11
ATOM     11  C   UNL     1     116.474 119.272 112.191  1.00  0.00     0.003 C 
BRANCH  11  12
ATOM     12  C   UNL     1     115.043 118.762 112.498  1.00  0.00    -0.014 C 
ATOM     13  C   UNL     1     114.858 117.367 111.876  1.00  0.00     0.007 C 
BRANCH  12  14
ATOM     14  C   UNL     1     114.764 118.744 114.025  1.00  0.00     0.004 C 
BRANCH  14  15
ATOM     15  C   UNL     1     115.865 119.368 114.903  1.00  0.00     0.008 C 
BRANCH  15  16
ATOM     16  C   UNL     1     116.040 118.646 116.246  1.00  0.00     0.075 C 
BRANCH  16  17
ATOM     17  C   UNL     1     114.731 118.580 116.988  1.00  0.00     0.129 C 
ATOM     18  O   UNL     1     114.160 119.616 117.294  1.00  0.00    -0.300 OA
ATOM     19  C   UNL     1     114.117 117.268 117.375  1.00  0.00     0.087 C 
ENDBRANCH  16  17
ENDBRANCH  15  16
ENDBRANCH  14  15
ENDBRANCH  12  14
ENDBRANCH  11  12
ENDBRANCH   1  11
TORSDOF 12
ENDMDL
MODEL 8
REMARK VINA RESULT:    -3.806      2.055      3.856
REMARK INTER + INTRA:          -9.127
REMARK INTER:                  -6.437
REMARK INTRA:                  -2.690
REMARK UNBOUND:                -2.651
REMARK SMILES CC(=O)CCC[C@H](C)CCC[C@@H](C)CCCC(C)C
REMARK SMILES IDX 10 1 11 2 12 3 13 4 14 5 15 6 16 7 17 8 18 9 19 10 9 11 7 12
REMARK SMILES IDX 8 13 6 14 5 15 4 16 2 17 3 18 1 19
REMARK H PARENT
REMARK Flexibility Score: inf
ROOT
ATOM      1  C   UNL     1     118.802 116.754 112.350  1.00  0.00     0.001 C 
ENDROOT
BRANCH   1   2
ATOM      2  C   UNL     1     118.587 117.883 113.372  1.00  0.00     0.003 C 
BRANCH   2   3
ATOM      3  C   UNL     1     117.934 117.393 114.689  1.00  0.00    -0.014 C 
ATOM      4  C   UNL     1     118.984 116.772 115.630  1.00  0.00     0.007 C 
BRANCH   3   5
ATOM      5  C   UNL     1     117.201 118.571 115.374  1.00  0.00     0.003 C 
BRANCH   5   6
ATOM      6  C   UNL     1     116.182 119.268 114.452  1.00  0.00     0.001 C 
BRANCH   6   7
ATOM      7  C   UNL     1     114.987 118.366 114.088  1.00  0.00     0.003 C 
BRANCH   7   8
ATOM      8  C   UNL     1     114.439 118.558 112.654  1.00  0.00    -0.017 C 
ATOM      9  C   UNL     1     114.374 117.236 111.875  1.00  0.00     0.007 C 
ATOM     10  C   UNL     1     115.313 119.566 111.896  1.00  0.00     0.007 C 
ENDBRANCH   7   8
ENDBRANCH   6   7
ENDBRANCH   5   6
ENDBRANCH   3   5
ENDBRANCH   2   3
ENDBRANCH   1   2
BRANCH   1  11
ATOM     11  C   UNL     1     117.467 116.097 111.961  1.00  0.00     0.003 C 
BRANCH  11  12
ATOM     12  C   UNL     1     117.502 114.551 112.040  1.00  0.00    -0.014 C 
ATOM     13  C   UNL     1     118.861 114.103 112.608  1.00  0.00     0.007 C 
BRANCH  12  14
ATOM     14  C   UNL     1     116.324 114.000 112.887  1.00  0.00     0.004 C 
BRANCH  14  15
ATOM     15  C   UNL     1     116.052 114.752 114.204  1.00  0.00     0.008 C 
BRANCH  15  16
ATOM     16  C   UNL     1     114.568 114.757 114.594  1.00  0.00     0.075 C 
BRANCH  16  17
ATOM     17  C   UNL     1     114.411 114.905 116.085  1.00  0.00     0.129 C 
ATOM     18  O   UNL     1     113.547 114.265 116.665  1.00  0.00    -0.300 OA
ATOM     19  C   UNL     1     115.283 115.835 116.874  1.00  0.00     0.087 C 
ENDBRANCH  16  17
ENDBRANCH  15  16
ENDBRANCH  14  15
ENDBRANCH  12  14
ENDBRANCH  11  12
ENDBRANCH   1  11
TORSDOF 12
ENDMDL
MODEL 9
REMARK VINA RESULT:    -3.697      2.080      4.479
REMARK INTER + INTRA:          -8.942
REMARK INTER:                  -6.357
REMARK INTRA:                  -2.586
REMARK UNBOUND:                -2.651
REMARK SMILES CC(=O)CCC[C@H](C)CCC[C@@H](C)CCCC(C)C
REMARK SMILES IDX 10 1 11 2 12 3 13 4 14 5 15 6 16 7 17 8 18 9 19 10 9 11 7 12
REMARK SMILES IDX 8 13 6 14 5 15 4 16 2 17 3 18 1 19
REMARK H PARENT
REMARK Flexibility Score: inf
ROOT
ATOM      1  C   UNL     1     115.898 119.239 112.724  1.00  0.00     0.001 C 
ENDROOT
BRANCH   1   2
ATOM      2  C   UNL     1     115.613 117.987 111.875  1.00  0.00     0.003 C 
BRANCH   2   3
ATOM      3  C   UNL     1     115.455 116.702 112.725  1.00  0.00    -0.014 C 
ATOM      4  C   UNL     1     114.044 116.104 112.566  1.00  0.00     0.007 C 
BRANCH   3   5
ATOM      5  C   UNL     1     116.542 115.676 112.321  1.00  0.00     0.003 C 
BRANCH   5   6
ATOM      6  C   UNL     1     117.974 116.233 112.442  1.00  0.00     0.001 C 
BRANCH   6   7
ATOM      7  C   UNL     1     118.429 116.405 113.904  1.00  0.00     0.003 C 
BRANCH   7   8
ATOM      8  C   UNL     1     118.914 117.828 114.272  1.00  0.00    -0.017 C 
ATOM      9  C   UNL     1     119.643 118.512 113.106  1.00  0.00     0.007 C 
ATOM     10  C   UNL     1     119.839 117.761 115.494  1.00  0.00     0.007 C 
ENDBRANCH   7   8
ENDBRANCH   6   7
ENDBRANCH   5   6
ENDBRANCH   3   5
ENDBRANCH   2   3
ENDBRANCH   1   2
BRANCH   1  11
ATOM     11  C   UNL     1     114.759 119.498 113.725  1.00  0.00     0.003 C 
BRANCH  11  12
ATOM     12  C   UNL     1     115.238 119.526 115.198  1.00  0.00    -0.014 C 
ATOM     13  C   UNL     1     114.746 120.821 115.866  1.00  0.00     0.007 C 
BRANCH  12  14
ATOM     14  C   UNL     1     114.756 118.270 115.973  1.00  0.00     0.004 C 
BRANCH  14  15
ATOM     15  C   UNL     1     115.860 117.263 116.348  1.00  0.00     0.008 C 
BRANCH  15  16
ATOM     16  C   UNL     1     115.322 116.036 117.096  1.00  0.00     0.075 C 
BRANCH  16  17
ATOM     17  C   UNL     1     114.774 115.021 116.128  1.00  0.00     0.129 C 
ATOM     18  O   UNL     1     115.544 114.386 115.422  1.00  0.00    -0.300 OA
ATOM     19  C   UNL     1     113.299 114.779 115.999  1.00  0.00     0.087 C 
ENDBRANCH  16  17
ENDBRANCH  15  16
ENDBRANCH  14  15
ENDBRANCH  12  14
ENDBRANCH  11  12
ENDBRANCH   1  11
TORSDOF 12
ENDMDL
