MODEL 1
REMARK VINA RESULT:    -4.240      0.000      0.000
REMARK INTER + INTRA:          -4.804
REMARK INTER:                  -4.612
REMARK INTRA:                  -0.193
REMARK UNBOUND:                -0.193
REMARK SMILES CC(=O)[C@@H]1CC[C@@H]2[C@@H]3CC=C4C[C@@H](O)CC[C@@]4(C)[C@@H]3CC[C@@]21C
REMARK SMILES IDX 4 1 5 2 6 3 7 4 22 5 21 6 20 7 19 8 8 9 9 10 10 11 11 12
REMARK SMILES IDX 17 13 16 14 15 15 13 16 12 17 18 18 23 19 2 20 1 21 3 22
REMARK SMILES IDX 14 23
REMARK H PARENT 14 24
REMARK Flexibility Score: inf
ROOT
ATOM      1  C   UNL     1     185.263 187.587 202.469  1.00  0.00     0.062 C 
ATOM      2  C   UNL     1     185.271 188.589 203.624  1.00  0.00     0.012 C 
ATOM      3  C   UNL     1     186.637 188.446 204.288  1.00  0.00     0.005 C 
ATOM      4  C   UNL     1     187.513 187.598 203.341  1.00  0.00    -0.001 C 
ATOM      5  C   UNL     1     186.740 187.510 201.994  1.00  0.00    -0.020 C 
ATOM      6  C   UNL     1     187.124 188.674 201.005  1.00  0.00     0.008 C 
ATOM      7  C   UNL     1     187.926 189.809 201.648  1.00  0.00     0.005 C 
ATOM      8  C   UNL     1     189.251 189.267 202.237  1.00  0.00     0.003 C 
ATOM      9  C   UNL     1     189.000 188.051 203.208  1.00  0.00     0.000 C 
ATOM     10  C   UNL     1     189.672 188.188 204.588  1.00  0.00     0.031 C 
ATOM     11  C   UNL     1     191.064 188.713 204.447  1.00  0.00    -0.027 C 
ATOM     12  C   UNL     1     191.355 189.727 203.611  1.00  0.00    -0.065 C 
ATOM     13  C   UNL     1     190.233 190.391 202.776  1.00  0.00    -0.008 C 
ATOM     14  C   UNL     1     190.803 191.213 201.552  1.00  0.00     0.014 C 
ATOM     15  C   UNL     1     192.274 190.961 201.234  1.00  0.00     0.033 C 
ATOM     16  C   UNL     1     193.107 191.209 202.486  1.00  0.00     0.118 C 
ATOM     17  C   UNL     1     192.820 190.113 203.508  1.00  0.00     0.063 C 
ATOM     18  C   UNL     1     189.495 191.392 203.702  1.00  0.00     0.016 C 
ATOM     19  C   UNL     1     187.017 186.148 201.310  1.00  0.00     0.012 C 
ENDROOT
BRANCH   1  20
ATOM     20  C   UNL     1     184.226 187.848 201.384  1.00  0.00     0.133 C 
ATOM     21  C   UNL     1     183.654 189.213 201.119  1.00  0.00     0.088 C 
ATOM     22  O   UNL     1     183.824 186.909 200.714  1.00  0.00    -0.300 OA
ENDBRANCH   1  20
BRANCH  16  23
ATOM     23  O   UNL     1     194.474 191.195 202.166  1.00  0.00    -0.393 OA
ATOM     24  H   UNL     1     194.558 191.572 201.252  1.00  0.00     0.210 HD
ENDBRANCH  16  23
TORSDOF 2
ENDMDL
MODEL 2
REMARK VINA RESULT:    -4.235      3.254      4.839
REMARK INTER + INTRA:          -4.800
REMARK INTER:                  -4.605
REMARK INTRA:                  -0.195
REMARK UNBOUND:                -0.193
REMARK SMILES CC(=O)[C@@H]1CC[C@@H]2[C@@H]3CC=C4C[C@@H](O)CC[C@@]4(C)[C@@H]3CC[C@@]21C
REMARK SMILES IDX 4 1 5 2 6 3 7 4 22 5 21 6 20 7 19 8 8 9 9 10 10 11 11 12
REMARK SMILES IDX 17 13 16 14 15 15 13 16 12 17 18 18 23 19 2 20 1 21 3 22
REMARK SMILES IDX 14 23
REMARK H PARENT 14 24
REMARK Flexibility Score: inf
ROOT
ATOM      1  C   UNL     1     187.603 193.107 202.480  1.00  0.00     0.062 C 
ATOM      2  C   UNL     1     188.630 193.107 203.613  1.00  0.00     0.012 C 
ATOM      3  C   UNL     1     188.503 191.745 204.289  1.00  0.00     0.005 C 
ATOM      4  C   UNL     1     187.635 190.863 203.366  1.00  0.00    -0.001 C 
ATOM      5  C   UNL     1     187.517 191.627 202.017  1.00  0.00    -0.020 C 
ATOM      6  C   UNL     1     188.658 191.237 201.005  1.00  0.00     0.008 C 
ATOM      7  C   UNL     1     189.808 190.440 201.628  1.00  0.00     0.005 C 
ATOM      8  C   UNL     1     189.280 189.119 202.237  1.00  0.00     0.003 C 
ATOM      9  C   UNL     1     188.086 189.375 203.233  1.00  0.00     0.000 C 
ATOM     10  C   UNL     1     188.254 188.712 204.614  1.00  0.00     0.031 C 
ATOM     11  C   UNL     1     188.776 187.320 204.471  1.00  0.00    -0.027 C 
ATOM     12  C   UNL     1     189.772 187.024 203.614  1.00  0.00    -0.065 C 
ATOM     13  C   UNL     1     190.416 188.141 202.757  1.00  0.00    -0.008 C 
ATOM     14  C   UNL     1     191.212 187.564 201.519  1.00  0.00     0.014 C 
ATOM     15  C   UNL     1     190.954 186.090 201.216  1.00  0.00     0.033 C 
ATOM     16  C   UNL     1     191.230 185.265 202.468  1.00  0.00     0.118 C 
ATOM     17  C   UNL     1     190.157 185.558 203.513  1.00  0.00     0.063 C 
ATOM     18  C   UNL     1     191.437 188.886 203.656  1.00  0.00     0.016 C 
ATOM     19  C   UNL     1     186.140 191.345 201.365  1.00  0.00     0.012 C 
ENDROOT
BRANCH   1  20
ATOM     20  C   UNL     1     187.839 194.138 201.383  1.00  0.00     0.133 C 
ATOM     21  C   UNL     1     189.192 194.731 201.105  1.00  0.00     0.088 C 
ATOM     22  O   UNL     1     186.889 194.515 200.714  1.00  0.00    -0.300 OA
ENDBRANCH   1  20
BRANCH  16  23
ATOM     23  O   UNL     1     191.210 183.896 202.157  1.00  0.00    -0.393 OA
ATOM     24  H   UNL     1     190.629 183.458 202.832  1.00  0.00     0.210 HD
ENDBRANCH  16  23
TORSDOF 2
ENDMDL
MODEL 3
REMARK VINA RESULT:    -4.223      1.258      6.851
REMARK INTER + INTRA:          -4.786
REMARK INTER:                  -4.594
REMARK INTRA:                  -0.192
REMARK UNBOUND:                -0.193
REMARK SMILES CC(=O)[C@@H]1CC[C@@H]2[C@@H]3CC=C4C[C@@H](O)CC[C@@]4(C)[C@@H]3CC[C@@]21C
REMARK SMILES IDX 4 1 5 2 6 3 7 4 22 5 21 6 20 7 19 8 8 9 9 10 10 11 11 12
REMARK SMILES IDX 17 13 16 14 15 15 13 16 12 17 18 18 23 19 2 20 1 21 3 22
REMARK SMILES IDX 14 23
REMARK H PARENT 14 24
REMARK Flexibility Score: inf
ROOT
ATOM      1  C   UNL     1     193.119 190.794 202.484  1.00  0.00     0.062 C 
ATOM      2  C   UNL     1     193.123 189.761 203.611  1.00  0.00     0.012 C 
ATOM      3  C   UNL     1     191.764 189.884 204.293  1.00  0.00     0.005 C 
ATOM      4  C   UNL     1     190.878 190.758 203.378  1.00  0.00    -0.001 C 
ATOM      5  C   UNL     1     191.636 190.883 202.027  1.00  0.00    -0.020 C 
ATOM      6  C   UNL     1     191.243 189.746 201.011  1.00  0.00     0.008 C 
ATOM      7  C   UNL     1     190.449 188.593 201.630  1.00  0.00     0.005 C 
ATOM      8  C   UNL     1     189.130 189.118 202.248  1.00  0.00     0.003 C 
ATOM      9  C   UNL     1     189.390 190.307 203.248  1.00  0.00     0.000 C 
ATOM     10  C   UNL     1     188.732 190.131 204.631  1.00  0.00     0.031 C 
ATOM     11  C   UNL     1     187.339 189.609 204.491  1.00  0.00    -0.027 C 
ATOM     12  C   UNL     1     187.040 188.617 203.630  1.00  0.00    -0.065 C 
ATOM     13  C   UNL     1     188.154 187.978 202.766  1.00  0.00    -0.008 C 
ATOM     14  C   UNL     1     187.572 187.189 201.526  1.00  0.00     0.014 C 
ATOM     15  C   UNL     1     186.097 187.448 201.230  1.00  0.00     0.033 C 
ATOM     16  C   UNL     1     185.278 187.166 202.483  1.00  0.00     0.118 C 
ATOM     17  C   UNL     1     185.574 188.234 203.532  1.00  0.00     0.063 C 
ATOM     18  C   UNL     1     188.902 186.953 203.657  1.00  0.00     0.016 C 
ATOM     19  C   UNL     1     191.351 192.262 201.383  1.00  0.00     0.012 C 
ENDROOT
BRANCH   1  20
ATOM     20  C   UNL     1     194.145 190.564 201.382  1.00  0.00     0.133 C 
ATOM     21  C   UNL     1     194.722 189.209 201.080  1.00  0.00     0.088 C 
ATOM     22  O   UNL     1     194.532 191.520 200.728  1.00  0.00    -0.300 OA
ENDBRANCH   1  20
BRANCH  16  23
ATOM     23  O   UNL     1     183.907 187.187 202.178  1.00  0.00    -0.393 OA
ATOM     24  H   UNL     1     183.550 186.288 202.401  1.00  0.00     0.210 HD
ENDBRANCH  16  23
TORSDOF 2
ENDMDL
MODEL 4
REMARK VINA RESULT:    -4.210      3.265      4.855
REMARK INTER + INTRA:          -4.772
REMARK INTER:                  -4.584
REMARK INTRA:                  -0.188
REMARK UNBOUND:                -0.193
REMARK SMILES CC(=O)[C@@H]1CC[C@@H]2[C@@H]3CC=C4C[C@@H](O)CC[C@@]4(C)[C@@H]3CC[C@@]21C
REMARK SMILES IDX 4 1 5 2 6 3 7 4 22 5 21 6 20 7 19 8 8 9 9 10 10 11 11 12
REMARK SMILES IDX 17 13 16 14 15 15 13 16 12 17 18 18 23 19 2 20 1 21 3 22
REMARK SMILES IDX 14 23
REMARK H PARENT 14 24
REMARK Flexibility Score: inf
ROOT
ATOM      1  C   UNL     1     190.782 185.277 202.517  1.00  0.00     0.062 C 
ATOM      2  C   UNL     1     189.764 185.285 203.658  1.00  0.00     0.012 C 
ATOM      3  C   UNL     1     189.893 186.655 204.319  1.00  0.00     0.005 C 
ATOM      4  C   UNL     1     190.751 187.530 203.380  1.00  0.00    -0.001 C 
ATOM      5  C   UNL     1     190.860 186.753 202.038  1.00  0.00    -0.020 C 
ATOM      6  C   UNL     1     189.709 187.128 201.032  1.00  0.00     0.008 C 
ATOM      7  C   UNL     1     188.562 187.928 201.655  1.00  0.00     0.005 C 
ATOM      8  C   UNL     1     189.091 189.257 202.247  1.00  0.00     0.003 C 
ATOM      9  C   UNL     1     190.294 189.015 203.235  1.00  0.00     0.000 C 
ATOM     10  C   UNL     1     190.136 189.691 204.611  1.00  0.00     0.031 C 
ATOM     11  C   UNL     1     189.607 191.081 204.458  1.00  0.00    -0.027 C 
ATOM     12  C   UNL     1     188.604 191.364 203.607  1.00  0.00    -0.065 C 
ATOM     13  C   UNL     1     187.956 190.237 202.767  1.00  0.00    -0.008 C 
ATOM     14  C   UNL     1     187.149 190.799 201.529  1.00  0.00     0.014 C 
ATOM     15  C   UNL     1     187.399 192.271 201.209  1.00  0.00     0.033 C 
ATOM     16  C   UNL     1     187.132 193.107 202.455  1.00  0.00     0.118 C 
ATOM     17  C   UNL     1     188.214 192.828 203.493  1.00  0.00     0.063 C 
ATOM     18  C   UNL     1     186.945 189.499 203.682  1.00  0.00     0.016 C 
ATOM     19  C   UNL     1     192.230 187.032 201.371  1.00  0.00     0.012 C 
ENDROOT
BRANCH   1  20
ATOM     20  C   UNL     1     190.540 184.234 201.432  1.00  0.00     0.133 C 
ATOM     21  C   UNL     1     189.179 183.666 201.142  1.00  0.00     0.088 C 
ATOM     22  O   UNL     1     191.492 183.826 200.784  1.00  0.00    -0.300 OA
ENDBRANCH   1  20
BRANCH  16  23
ATOM     23  O   UNL     1     187.144 194.473 202.130  1.00  0.00    -0.393 OA
ATOM     24  H   UNL     1     186.440 194.905 202.680  1.00  0.00     0.210 HD
ENDBRANCH  16  23
TORSDOF 2
ENDMDL
MODEL 5
REMARK VINA RESULT:    -4.105      1.265      1.743
REMARK INTER + INTRA:          -4.657
REMARK INTER:                  -4.463
REMARK INTRA:                  -0.194
REMARK UNBOUND:                -0.193
REMARK SMILES CC(=O)[C@@H]1CC[C@@H]2[C@@H]3CC=C4C[C@@H](O)CC[C@@]4(C)[C@@H]3CC[C@@]21C
REMARK SMILES IDX 4 1 5 2 6 3 7 4 22 5 21 6 20 7 19 8 8 9 9 10 10 11 11 12
REMARK SMILES IDX 17 13 16 14 15 15 13 16 12 17 18 18 23 19 2 20 1 21 3 22
REMARK SMILES IDX 14 23
REMARK H PARENT 14 24
REMARK Flexibility Score: inf
ROOT
ATOM      1  C   UNL     1     184.454 187.394 200.998  1.00  0.00     0.062 C 
ATOM      2  C   UNL     1     184.202 188.709 201.735  1.00  0.00     0.012 C 
ATOM      3  C   UNL     1     185.098 188.672 202.970  1.00  0.00     0.005 C 
ATOM      4  C   UNL     1     186.076 187.492 202.782  1.00  0.00    -0.001 C 
ATOM      5  C   UNL     1     185.937 187.043 201.300  1.00  0.00    -0.020 C 
ATOM      6  C   UNL     1     186.946 187.789 200.349  1.00  0.00     0.008 C 
ATOM      7  C   UNL     1     187.637 188.999 200.986  1.00  0.00     0.005 C 
ATOM      8  C   UNL     1     188.438 188.563 202.237  1.00  0.00     0.003 C 
ATOM      9  C   UNL     1     187.543 187.750 203.247  1.00  0.00     0.000 C 
ATOM     10  C   UNL     1     187.591 188.266 204.699  1.00  0.00     0.031 C 
ATOM     11  C   UNL     1     188.993 188.597 205.095  1.00  0.00    -0.027 C 
ATOM     12  C   UNL     1     189.823 189.260 204.268  1.00  0.00    -0.065 C 
ATOM     13  C   UNL     1     189.329 189.713 202.873  1.00  0.00    -0.008 C 
ATOM     14  C   UNL     1     190.524 190.046 201.893  1.00  0.00     0.014 C 
ATOM     15  C   UNL     1     191.898 189.581 202.368  1.00  0.00     0.033 C 
ATOM     16  C   UNL     1     192.165 190.146 203.759  1.00  0.00     0.118 C 
ATOM     17  C   UNL     1     191.243 189.466 204.766  1.00  0.00     0.063 C 
ATOM     18  C   UNL     1     188.514 191.018 203.069  1.00  0.00     0.016 C 
ATOM     19  C   UNL     1     186.165 185.515 201.184  1.00  0.00     0.012 C 
ENDROOT
BRANCH   1  20
ATOM     20  C   UNL     1     184.050 187.380 199.529  1.00  0.00     0.133 C 
ATOM     21  C   UNL     1     183.847 188.638 198.731  1.00  0.00     0.088 C 
ATOM     22  O   UNL     1     183.862 186.305 198.980  1.00  0.00    -0.300 OA
ENDBRANCH   1  20
BRANCH  16  23
ATOM     23  O   UNL     1     193.500 189.914 204.125  1.00  0.00    -0.393 OA
ATOM     24  H   UNL     1     193.561 190.075 205.102  1.00  0.00     0.210 HD
ENDBRANCH  16  23
TORSDOF 2
ENDMDL
MODEL 6
REMARK VINA RESULT:    -3.735      3.565      6.515
REMARK INTER + INTRA:          -4.255
REMARK INTER:                  -4.071
REMARK INTRA:                  -0.184
REMARK UNBOUND:                -0.193
REMARK SMILES CC(=O)[C@@H]1CC[C@@H]2[C@@H]3CC=C4C[C@@H](O)CC[C@@]4(C)[C@@H]3CC[C@@]21C
REMARK SMILES IDX 4 1 5 2 6 3 7 4 22 5 21 6 20 7 19 8 8 9 9 10 10 11 11 12
REMARK SMILES IDX 17 13 16 14 15 15 13 16 12 17 18 18 23 19 2 20 1 21 3 22
REMARK SMILES IDX 14 23
REMARK H PARENT 14 24
REMARK Flexibility Score: inf
ROOT
ATOM      1  C   UNL     1     189.631 188.567 203.064  1.00  0.00     0.062 C 
ATOM      2  C   UNL     1     190.174 189.189 201.777  1.00  0.00     0.012 C 
ATOM      3  C   UNL     1     188.955 189.457 200.899  1.00  0.00     0.005 C 
ATOM      4  C   UNL     1     187.708 189.278 201.791  1.00  0.00    -0.001 C 
ATOM      5  C   UNL     1     188.226 189.203 203.255  1.00  0.00    -0.020 C 
ATOM      6  C   UNL     1     188.286 190.618 203.943  1.00  0.00     0.008 C 
ATOM      7  C   UNL     1     188.124 191.796 202.978  1.00  0.00     0.005 C 
ATOM      8  C   UNL     1     186.762 191.711 202.247  1.00  0.00     0.003 C 
ATOM      9  C   UNL     1     186.559 190.307 201.560  1.00  0.00     0.000 C 
ATOM     10  C   UNL     1     186.155 190.377 200.074  1.00  0.00     0.031 C 
ATOM     11  C   UNL     1     185.122 191.434 199.858  1.00  0.00    -0.027 C 
ATOM     12  C   UNL     1     185.216 192.644 200.441  1.00  0.00    -0.065 C 
ATOM     13  C   UNL     1     186.423 192.975 201.351  1.00  0.00    -0.008 C 
ATOM     14  C   UNL     1     186.145 194.217 202.288  1.00  0.00     0.014 C 
ATOM     15  C   UNL     1     184.685 194.659 202.358  1.00  0.00     0.033 C 
ATOM     16  C   UNL     1     184.173 194.922 200.947  1.00  0.00     0.118 C 
ATOM     17  C   UNL     1     184.059 193.598 200.197  1.00  0.00     0.063 C 
ATOM     18  C   UNL     1     187.611 193.350 200.427  1.00  0.00     0.016 C 
ATOM     19  C   UNL     1     187.320 188.267 204.093  1.00  0.00     0.012 C 
ENDROOT
BRANCH   1  20
ATOM     20  C   UNL     1     190.564 188.635 204.267  1.00  0.00     0.133 C 
ATOM     21  C   UNL     1     191.601 189.710 204.431  1.00  0.00     0.088 C 
ATOM     22  O   UNL     1     190.482 187.769 205.125  1.00  0.00    -0.300 OA
ENDBRANCH   1  20
BRANCH  16  23
ATOM     23  O   UNL     1     182.910 195.533 200.999  1.00  0.00    -0.393 OA
ATOM     24  H   UNL     1     182.263 194.887 200.613  1.00  0.00     0.210 HD
ENDBRANCH  16  23
TORSDOF 2
ENDMDL
MODEL 7
REMARK VINA RESULT:    -3.691      2.187      7.138
REMARK INTER + INTRA:          -4.207
REMARK INTER:                  -4.014
REMARK INTRA:                  -0.193
REMARK UNBOUND:                -0.193
REMARK SMILES CC(=O)[C@@H]1CC[C@@H]2[C@@H]3CC=C4C[C@@H](O)CC[C@@]4(C)[C@@H]3CC[C@@]21C
REMARK SMILES IDX 4 1 5 2 6 3 7 4 22 5 21 6 20 7 19 8 8 9 9 10 10 11 11 12
REMARK SMILES IDX 17 13 16 14 15 15 13 16 12 17 18 18 23 19 2 20 1 21 3 22
REMARK SMILES IDX 14 23
REMARK H PARENT 14 24
REMARK Flexibility Score: inf
ROOT
ATOM      1  C   UNL     1     189.694 189.723 203.025  1.00  0.00     0.062 C 
ATOM      2  C   UNL     1     188.977 190.323 201.814  1.00  0.00     0.012 C 
ATOM      3  C   UNL     1     188.701 189.154 200.873  1.00  0.00     0.005 C 
ATOM      4  C   UNL     1     188.977 187.859 201.668  1.00  0.00    -0.001 C 
ATOM      5  C   UNL     1     189.121 188.284 203.157  1.00  0.00    -0.020 C 
ATOM      6  C   UNL     1     187.748 188.245 203.928  1.00  0.00     0.008 C 
ATOM      7  C   UNL     1     186.521 188.099 203.023  1.00  0.00     0.005 C 
ATOM      8  C   UNL     1     186.611 186.791 202.199  1.00  0.00     0.003 C 
ATOM      9  C   UNL     1     187.977 186.688 201.421  1.00  0.00     0.000 C 
ATOM     10  C   UNL     1     187.832 186.379 199.918  1.00  0.00     0.031 C 
ATOM     11  C   UNL     1     186.802 185.321 199.694  1.00  0.00    -0.027 C 
ATOM     12  C   UNL     1     185.626 185.329 200.350  1.00  0.00    -0.065 C 
ATOM     13  C   UNL     1     185.307 186.462 201.356  1.00  0.00    -0.008 C 
ATOM     14  C   UNL     1     184.134 186.075 202.343  1.00  0.00     0.014 C 
ATOM     15  C   UNL     1     183.749 184.598 202.340  1.00  0.00     0.033 C 
ATOM     16  C   UNL     1     183.421 184.168 200.915  1.00  0.00     0.118 C 
ATOM     17  C   UNL     1     184.701 184.154 200.084  1.00  0.00     0.063 C 
ATOM     18  C   UNL     1     184.836 187.692 200.537  1.00  0.00     0.016 C 
ATOM     19  C   UNL     1     190.136 187.363 203.878  1.00  0.00     0.012 C 
ENDROOT
BRANCH   1  20
ATOM     20  C   UNL     1     189.666 190.572 204.288  1.00  0.00     0.133 C 
ATOM     21  C   UNL     1     188.617 191.620 204.540  1.00  0.00     0.088 C 
ATOM     22  O   UNL     1     190.542 190.413 205.125  1.00  0.00    -0.300 OA
ENDBRANCH   1  20
BRANCH  16  23
ATOM     23  O   UNL     1     182.859 182.882 200.917  1.00  0.00    -0.393 OA
ATOM     24  H   UNL     1     183.374 182.345 201.574  1.00  0.00     0.210 HD
ENDBRANCH  16  23
TORSDOF 2
ENDMDL
MODEL 8
REMARK VINA RESULT:    -3.660      4.218      5.641
REMARK INTER + INTRA:          -4.173
REMARK INTER:                  -3.984
REMARK INTRA:                  -0.190
REMARK UNBOUND:                -0.193
REMARK SMILES CC(=O)[C@@H]1CC[C@@H]2[C@@H]3CC=C4C[C@@H](O)CC[C@@]4(C)[C@@H]3CC[C@@]21C
REMARK SMILES IDX 4 1 5 2 6 3 7 4 22 5 21 6 20 7 19 8 8 9 9 10 10 11 11 12
REMARK SMILES IDX 17 13 16 14 15 15 13 16 12 17 18 18 23 19 2 20 1 21 3 22
REMARK SMILES IDX 14 23
REMARK H PARENT 14 24
REMARK Flexibility Score: inf
ROOT
ATOM      1  C   UNL     1     188.708 189.722 203.019  1.00  0.00     0.062 C 
ATOM      2  C   UNL     1     188.123 189.049 201.777  1.00  0.00     0.012 C 
ATOM      3  C   UNL     1     189.305 188.788 200.849  1.00  0.00     0.005 C 
ATOM      4  C   UNL     1     190.588 189.027 201.675  1.00  0.00    -0.001 C 
ATOM      5  C   UNL     1     190.138 189.131 203.160  1.00  0.00    -0.020 C 
ATOM      6  C   UNL     1     190.150 187.736 203.889  1.00  0.00     0.008 C 
ATOM      7  C   UNL     1     190.299 186.534 202.951  1.00  0.00     0.005 C 
ATOM      8  C   UNL     1     191.622 186.635 202.153  1.00  0.00     0.003 C 
ATOM      9  C   UNL     1     191.754 188.023 201.418  1.00  0.00     0.000 C 
ATOM     10  C   UNL     1     192.088 187.920 199.917  1.00  0.00     0.031 C 
ATOM     11  C   UNL     1     193.140 186.886 199.680  1.00  0.00    -0.027 C 
ATOM     12  C   UNL     1     193.108 185.691 200.301  1.00  0.00    -0.065 C 
ATOM     13  C   UNL     1     191.954 185.354 201.277  1.00  0.00    -0.008 C 
ATOM     14  C   UNL     1     192.311 184.148 202.234  1.00  0.00     0.014 C 
ATOM     15  C   UNL     1     193.785 183.747 202.246  1.00  0.00     0.033 C 
ATOM     16  C   UNL     1     194.237 183.458 200.820  1.00  0.00     0.118 C 
ATOM     17  C   UNL     1     194.278 184.762 200.028  1.00  0.00     0.063 C 
ATOM     18  C   UNL     1     190.735 184.921 200.422  1.00  0.00     0.016 C 
ATOM     19  C   UNL     1     191.056 190.115 203.926  1.00  0.00     0.012 C 
ENDROOT
BRANCH   1  20
ATOM     20  C   UNL     1     187.836 189.666 204.266  1.00  0.00     0.133 C 
ATOM     21  C   UNL     1     186.789 188.607 204.477  1.00  0.00     0.088 C 
ATOM     22  O   UNL     1     187.975 190.525 205.123  1.00  0.00    -0.300 OA
ENDBRANCH   1  20
BRANCH  16  23
ATOM     23  O   UNL     1     195.517 182.882 200.828  1.00  0.00    -0.393 OA
ATOM     24  H   UNL     1     196.117 183.510 200.346  1.00  0.00     0.210 HD
ENDBRANCH  16  23
TORSDOF 2
ENDMDL
MODEL 9
REMARK VINA RESULT:    -3.647      2.796      4.870
REMARK INTER + INTRA:          -4.160
REMARK INTER:                  -3.979
REMARK INTRA:                  -0.181
REMARK UNBOUND:                -0.193
REMARK SMILES CC(=O)[C@@H]1CC[C@@H]2[C@@H]3CC=C4C[C@@H](O)CC[C@@]4(C)[C@@H]3CC[C@@]21C
REMARK SMILES IDX 4 1 5 2 6 3 7 4 22 5 21 6 20 7 19 8 8 9 9 10 10 11 11 12
REMARK SMILES IDX 17 13 16 14 15 15 13 16 12 17 18 18 23 19 2 20 1 21 3 22
REMARK SMILES IDX 14 23
REMARK H PARENT 14 24
REMARK Flexibility Score: inf
ROOT
ATOM      1  C   UNL     1     188.601 188.858 203.075  1.00  0.00     0.062 C 
ATOM      2  C   UNL     1     189.348 188.208 201.911  1.00  0.00     0.012 C 
ATOM      3  C   UNL     1     189.681 189.341 200.945  1.00  0.00     0.005 C 
ATOM      4  C   UNL     1     189.401 190.665 201.689  1.00  0.00    -0.001 C 
ATOM      5  C   UNL     1     189.196 190.290 203.184  1.00  0.00    -0.020 C 
ATOM      6  C   UNL     1     190.541 190.329 204.002  1.00  0.00     0.008 C 
ATOM      7  C   UNL     1     191.802 190.423 203.139  1.00  0.00     0.005 C 
ATOM      8  C   UNL     1     191.767 191.706 202.273  1.00  0.00     0.003 C 
ATOM      9  C   UNL     1     190.432 191.810 201.442  1.00  0.00     0.000 C 
ATOM     10  C   UNL     1     190.636 192.068 199.937  1.00  0.00     0.031 C 
ATOM     11  C   UNL     1     191.694 193.100 199.718  1.00  0.00    -0.027 C 
ATOM     12  C   UNL     1     192.845 193.091 200.416  1.00  0.00    -0.065 C 
ATOM     13  C   UNL     1     193.106 191.985 201.467  1.00  0.00    -0.008 C 
ATOM     14  C   UNL     1     194.250 192.381 202.484  1.00  0.00     0.014 C 
ATOM     15  C   UNL     1     194.664 193.850 202.450  1.00  0.00     0.033 C 
ATOM     16  C   UNL     1     195.051 194.229 201.025  1.00  0.00     0.118 C 
ATOM     17  C   UNL     1     193.802 194.240 200.148  1.00  0.00     0.063 C 
ATOM     18  C   UNL     1     193.582 190.721 200.704  1.00  0.00     0.016 C 
ATOM     19  C   UNL     1     188.174 191.251 203.839  1.00  0.00     0.012 C 
ENDROOT
BRANCH   1  20
ATOM     20  C   UNL     1     188.567 188.049 204.365  1.00  0.00     0.133 C 
ATOM     21  C   UNL     1     189.640 187.061 204.732  1.00  0.00     0.088 C 
ATOM     22  O   UNL     1     187.621 188.190 205.125  1.00  0.00    -0.300 OA
ENDBRANCH   1  20
BRANCH  16  23
ATOM     23  O   UNL     1     195.637 195.504 201.008  1.00  0.00    -0.393 OA
ATOM     24  H   UNL     1     195.851 195.734 201.950  1.00  0.00     0.210 HD
ENDBRANCH  16  23
TORSDOF 2
ENDMDL
