MODEL 1
REMARK VINA RESULT:    -4.094      0.000      0.000
REMARK INTER + INTRA:          -5.017
REMARK INTER:                  -4.932
REMARK INTRA:                  -0.085
REMARK UNBOUND:                -0.085
REMARK SMILES CC[C@@H](C)[C@@H]([NH3+])C(=O)[O-]
REMARK SMILES IDX 3 1 4 2 5 3 6 4 7 8 8 9 9 10 2 11 1 12
REMARK H PARENT 6 5 6 6 6 7
REMARK Flexibility Score: inf
ROOT
ATOM      1  C   UNL     1     121.403 155.163 159.735  1.00  0.00     0.050 C 
ATOM      2  C   UNL     1     122.678 155.928 160.133  1.00  0.00     0.014 C 
ENDROOT
BRANCH   1   3
ATOM      3  C   UNL     1     121.227 155.087 158.185  1.00  0.00     0.230 C 
BRANCH   3   4
ATOM      4  N   UNL     1     120.046 154.320 157.768  1.00  0.00    -0.350 N 
ATOM      5  H   UNL     1     119.341 154.931 157.298  1.00  0.00     0.345 HD
ATOM      6  H   UNL     1     120.337 153.577 157.092  1.00  0.00     0.345 HD
ATOM      7  H   UNL     1     119.610 153.844 158.591  1.00  0.00     0.345 HD
ENDBRANCH   3   4
BRANCH   3   8
ATOM      8  C   UNL     1     121.218 156.469 157.574  1.00  0.00     0.099 C 
ATOM      9  O   UNL     1     122.129 156.834 156.783  1.00  0.00    -0.544 OA
ATOM     10  O   UNL     1     120.168 157.335 157.848  1.00  0.00    -0.544 OA
ENDBRANCH   3   8
ENDBRANCH   1   3
BRANCH   1  11
ATOM     11  C   UNL     1     121.248 153.804 160.478  1.00  0.00     0.006 C 
ATOM     12  C   UNL     1     121.366 153.866 162.007  1.00  0.00     0.004 C 
ENDBRANCH   1  11
TORSDOF 4
ENDMDL
MODEL 2
REMARK VINA RESULT:    -3.984      6.713      8.804
REMARK INTER + INTRA:          -4.884
REMARK INTER:                  -4.797
REMARK INTRA:                  -0.087
REMARK UNBOUND:                -0.085
REMARK SMILES CC[C@@H](C)[C@@H]([NH3+])C(=O)[O-]
REMARK SMILES IDX 3 1 4 2 5 3 6 4 7 8 8 9 9 10 2 11 1 12
REMARK H PARENT 6 5 6 6 6 7
REMARK Flexibility Score: inf
ROOT
ATOM      1  C   UNL     1     118.772 158.389 151.154  1.00  0.00     0.050 C 
ATOM      2  C   UNL     1     120.074 159.085 150.720  1.00  0.00     0.014 C 
ENDROOT
BRANCH   1   3
ATOM      3  C   UNL     1     118.536 158.500 152.694  1.00  0.00     0.230 C 
BRANCH   3   4
ATOM      4  N   UNL     1     117.116 158.469 153.070  1.00  0.00    -0.350 N 
ATOM      5  H   UNL     1     116.544 157.967 152.354  1.00  0.00     0.345 HD
ATOM      6  H   UNL     1     117.011 157.968 153.982  1.00  0.00     0.345 HD
ATOM      7  H   UNL     1     116.751 159.440 153.199  1.00  0.00     0.345 HD
ENDBRANCH   3   4
BRANCH   3   8
ATOM      8  C   UNL     1     119.317 157.443 153.439  1.00  0.00     0.099 C 
ATOM      9  O   UNL     1     120.440 157.704 153.945  1.00  0.00    -0.544 OA
ATOM     10  O   UNL     1     118.770 156.178 153.610  1.00  0.00    -0.544 OA
ENDBRANCH   3   8
ENDBRANCH   1   3
BRANCH   1  11
ATOM     11  C   UNL     1     117.548 158.777 150.274  1.00  0.00     0.006 C 
ATOM     12  C   UNL     1     117.615 160.163 149.618  1.00  0.00     0.004 C 
ENDBRANCH   1  11
TORSDOF 4
ENDMDL
MODEL 3
REMARK VINA RESULT:    -3.957      1.715      2.100
REMARK INTER + INTRA:          -4.851
REMARK INTER:                  -4.857
REMARK INTRA:                   0.005
REMARK UNBOUND:                -0.085
REMARK SMILES CC[C@@H](C)[C@@H]([NH3+])C(=O)[O-]
REMARK SMILES IDX 3 1 4 2 5 3 6 4 7 8 8 9 9 10 2 11 1 12
REMARK H PARENT 6 5 6 6 6 7
REMARK Flexibility Score: inf
ROOT
ATOM      1  C   UNL     1     121.182 154.867 159.827  1.00  0.00     0.050 C 
ATOM      2  C   UNL     1     121.812 154.228 161.077  1.00  0.00     0.014 C 
ENDROOT
BRANCH   1   3
ATOM      3  C   UNL     1     121.999 156.100 159.327  1.00  0.00     0.230 C 
BRANCH   3   4
ATOM      4  N   UNL     1     123.451 155.943 159.490  1.00  0.00    -0.350 N 
ATOM      5  H   UNL     1     123.872 155.440 158.678  1.00  0.00     0.345 HD
ATOM      6  H   UNL     1     123.895 156.888 159.556  1.00  0.00     0.345 HD
ATOM      7  H   UNL     1     123.665 155.431 160.376  1.00  0.00     0.345 HD
ENDBRANCH   3   4
BRANCH   3   8
ATOM      8  C   UNL     1     121.648 156.437 157.896  1.00  0.00     0.099 C 
ATOM      9  O   UNL     1     122.445 156.177 156.956  1.00  0.00    -0.544 OA
ATOM     10  O   UNL     1     120.412 156.999 157.606  1.00  0.00    -0.544 OA
ENDBRANCH   3   8
ENDBRANCH   1   3
BRANCH   1  11
ATOM     11  C   UNL     1     120.824 153.828 158.724  1.00  0.00     0.006 C 
ATOM     12  C   UNL     1     120.596 152.391 159.214  1.00  0.00     0.004 C 
ENDBRANCH   1  11
TORSDOF 4
ENDMDL
MODEL 4
REMARK VINA RESULT:    -3.903      5.261      6.753
REMARK INTER + INTRA:          -4.787
REMARK INTER:                  -4.692
REMARK INTRA:                  -0.095
REMARK UNBOUND:                -0.085
REMARK SMILES CC[C@@H](C)[C@@H]([NH3+])C(=O)[O-]
REMARK SMILES IDX 3 1 4 2 5 3 6 4 7 8 8 9 9 10 2 11 1 12
REMARK H PARENT 6 5 6 6 6 7
REMARK Flexibility Score: inf
ROOT
ATOM      1  C   UNL     1     120.215 157.636 153.400  1.00  0.00     0.050 C 
ATOM      2  C   UNL     1     121.252 158.213 152.419  1.00  0.00     0.014 C 
ENDROOT
BRANCH   1   3
ATOM      3  C   UNL     1     118.881 157.255 152.681  1.00  0.00     0.230 C 
BRANCH   3   4
ATOM      4  N   UNL     1     118.037 156.343 153.465  1.00  0.00    -0.350 N 
ATOM      5  H   UNL     1     117.675 156.807 154.327  1.00  0.00     0.345 HD
ATOM      6  H   UNL     1     117.219 156.046 152.884  1.00  0.00     0.345 HD
ATOM      7  H   UNL     1     118.570 155.482 153.722  1.00  0.00     0.345 HD
ENDBRANCH   3   4
BRANCH   3   8
ATOM      8  C   UNL     1     118.113 158.490 152.275  1.00  0.00     0.099 C 
ATOM      9  O   UNL     1     117.522 159.197 153.135  1.00  0.00    -0.544 OA
ATOM     10  O   UNL     1     118.094 158.881 150.943  1.00  0.00    -0.544 OA
ENDBRANCH   3   8
ENDBRANCH   1   3
BRANCH   1  11
ATOM     11  C   UNL     1     120.799 156.530 154.326  1.00  0.00     0.006 C 
ATOM     12  C   UNL     1     120.675 156.793 155.833  1.00  0.00     0.004 C 
ENDBRANCH   1  11
TORSDOF 4
ENDMDL
MODEL 5
REMARK VINA RESULT:    -3.853      3.825      4.629
REMARK INTER + INTRA:          -4.727
REMARK INTER:                  -4.631
REMARK INTRA:                  -0.096
REMARK UNBOUND:                -0.085
REMARK SMILES CC[C@@H](C)[C@@H]([NH3+])C(=O)[O-]
REMARK SMILES IDX 3 1 4 2 5 3 6 4 7 8 8 9 9 10 2 11 1 12
REMARK H PARENT 6 5 6 6 6 7
REMARK Flexibility Score: inf
ROOT
ATOM      1  C   UNL     1     120.527 151.862 159.590  1.00  0.00     0.050 C 
ATOM      2  C   UNL     1     120.369 152.386 158.152  1.00  0.00     0.014 C 
ENDROOT
BRANCH   1   3
ATOM      3  C   UNL     1     120.306 152.989 160.649  1.00  0.00     0.230 C 
BRANCH   3   4
ATOM      4  N   UNL     1     119.410 152.593 161.744  1.00  0.00    -0.350 N 
ATOM      5  H   UNL     1     119.862 152.735 162.675  1.00  0.00     0.345 HD
ATOM      6  H   UNL     1     118.543 153.177 161.709  1.00  0.00     0.345 HD
ATOM      7  H   UNL     1     119.123 151.594 161.638  1.00  0.00     0.345 HD
ENDBRANCH   3   4
BRANCH   3   8
ATOM      8  C   UNL     1     121.626 153.493 161.185  1.00  0.00     0.099 C 
ATOM      9  O   UNL     1     122.289 152.816 162.016  1.00  0.00    -0.544 OA
ATOM     10  O   UNL     1     122.140 154.697 160.722  1.00  0.00    -0.544 OA
ENDBRANCH   3   8
ENDBRANCH   1   3
BRANCH   1  11
ATOM     11  C   UNL     1     119.730 150.551 159.854  1.00  0.00     0.006 C 
ATOM     12  C   UNL     1     118.643 150.215 158.823  1.00  0.00     0.004 C 
ENDBRANCH   1  11
TORSDOF 4
ENDMDL
MODEL 6
REMARK VINA RESULT:    -3.847      4.240      5.632
REMARK INTER + INTRA:          -4.719
REMARK INTER:                  -4.615
REMARK INTRA:                  -0.104
REMARK UNBOUND:                -0.085
REMARK SMILES CC[C@@H](C)[C@@H]([NH3+])C(=O)[O-]
REMARK SMILES IDX 3 1 4 2 5 3 6 4 7 8 8 9 9 10 2 11 1 12
REMARK H PARENT 6 5 6 6 6 7
REMARK Flexibility Score: inf
ROOT
ATOM      1  C   UNL     1     121.258 156.229 154.361  1.00  0.00     0.050 C 
ATOM      2  C   UNL     1     121.534 154.875 153.684  1.00  0.00     0.014 C 
ENDROOT
BRANCH   1   3
ATOM      3  C   UNL     1     120.350 157.147 153.483  1.00  0.00     0.230 C 
BRANCH   3   4
ATOM      4  N   UNL     1     119.626 158.164 154.258  1.00  0.00    -0.350 N 
ATOM      5  H   UNL     1     119.510 159.047 153.712  1.00  0.00     0.345 HD
ATOM      6  H   UNL     1     118.675 157.802 154.500  1.00  0.00     0.345 HD
ATOM      7  H   UNL     1     120.125 158.364 155.154  1.00  0.00     0.345 HD
ENDBRANCH   3   4
BRANCH   3   8
ATOM      8  C   UNL     1     121.143 157.782 152.365  1.00  0.00     0.099 C 
ATOM      9  O   UNL     1     121.917 158.750 152.588  1.00  0.00    -0.544 OA
ATOM     10  O   UNL     1     121.055 157.262 151.080  1.00  0.00    -0.544 OA
ENDBRANCH   3   8
ENDBRANCH   1   3
BRANCH   1  11
ATOM     11  C   UNL     1     120.808 156.089 155.845  1.00  0.00     0.006 C 
ATOM     12  C   UNL     1     121.840 156.519 156.896  1.00  0.00     0.004 C 
ENDBRANCH   1  11
TORSDOF 4
ENDMDL
MODEL 7
REMARK VINA RESULT:    -3.838      2.179      2.838
REMARK INTER + INTRA:          -4.709
REMARK INTER:                  -4.617
REMARK INTRA:                  -0.092
REMARK UNBOUND:                -0.085
REMARK SMILES CC[C@@H](C)[C@@H]([NH3+])C(=O)[O-]
REMARK SMILES IDX 3 1 4 2 5 3 6 4 7 8 8 9 9 10 2 11 1 12
REMARK H PARENT 6 5 6 6 6 7
REMARK Flexibility Score: inf
ROOT
ATOM      1  C   UNL     1     121.438 155.662 157.894  1.00  0.00     0.050 C 
ATOM      2  C   UNL     1     120.808 154.442 158.589  1.00  0.00     0.014 C 
ENDROOT
BRANCH   1   3
ATOM      3  C   UNL     1     120.385 156.477 157.078  1.00  0.00     0.230 C 
BRANCH   3   4
ATOM      4  N   UNL     1     120.172 157.836 157.594  1.00  0.00    -0.350 N 
ATOM      5  H   UNL     1     119.542 158.386 156.967  1.00  0.00     0.345 HD
ATOM      6  H   UNL     1     119.726 157.781 158.539  1.00  0.00     0.345 HD
ATOM      7  H   UNL     1     121.084 158.333 157.704  1.00  0.00     0.345 HD
ENDBRANCH   3   4
BRANCH   3   8
ATOM      8  C   UNL     1     120.743 156.506 155.610  1.00  0.00     0.099 C 
ATOM      9  O   UNL     1     120.289 157.402 154.850  1.00  0.00    -0.544 OA
ATOM     10  O   UNL     1     121.621 155.559 155.099  1.00  0.00    -0.544 OA
ENDBRANCH   3   8
ENDBRANCH   1   3
BRANCH   1  11
ATOM     11  C   UNL     1     122.331 156.512 158.845  1.00  0.00     0.006 C 
ATOM     12  C   UNL     1     122.664 155.867 160.197  1.00  0.00     0.004 C 
ENDBRANCH   1  11
TORSDOF 4
ENDMDL
MODEL 8
REMARK VINA RESULT:    -3.741      7.854      9.551
REMARK INTER + INTRA:          -4.592
REMARK INTER:                  -4.461
REMARK INTRA:                  -0.131
REMARK UNBOUND:                -0.085
REMARK SMILES CC[C@@H](C)[C@@H]([NH3+])C(=O)[O-]
REMARK SMILES IDX 3 1 4 2 5 3 6 4 7 8 8 9 9 10 2 11 1 12
REMARK H PARENT 6 5 6 6 6 7
REMARK Flexibility Score: inf
ROOT
ATOM      1  C   UNL     1     117.941 158.891 150.184  1.00  0.00     0.050 C 
ATOM      2  C   UNL     1     117.518 160.273 149.655  1.00  0.00     0.014 C 
ENDROOT
BRANCH   1   3
ATOM      3  C   UNL     1     118.180 158.905 151.727  1.00  0.00     0.230 C 
BRANCH   3   4
ATOM      4  N   UNL     1     117.247 158.045 152.469  1.00  0.00    -0.350 N 
ATOM      5  H   UNL     1     116.509 157.655 151.841  1.00  0.00     0.345 HD
ATOM      6  H   UNL     1     117.774 157.246 152.891  1.00  0.00     0.345 HD
ATOM      7  H   UNL     1     116.803 158.578 153.250  1.00  0.00     0.345 HD
ENDBRANCH   3   4
BRANCH   3   8
ATOM      8  C   UNL     1     119.613 158.559 152.056  1.00  0.00     0.099 C 
ATOM      9  O   UNL     1     120.553 158.896 151.288  1.00  0.00    -0.544 OA
ATOM     10  O   UNL     1     119.906 157.902 153.244  1.00  0.00    -0.544 OA
ENDBRANCH   3   8
ENDBRANCH   1   3
BRANCH   1  11
ATOM     11  C   UNL     1     117.032 157.736 149.672  1.00  0.00     0.006 C 
ATOM     12  C   UNL     1     117.766 156.528 149.074  1.00  0.00     0.004 C 
ENDBRANCH   1  11
TORSDOF 4
ENDMDL
MODEL 9
REMARK VINA RESULT:    -3.657      8.063      8.964
REMARK INTER + INTRA:          -4.490
REMARK INTER:                  -4.449
REMARK INTRA:                  -0.041
REMARK UNBOUND:                -0.085
REMARK SMILES CC[C@@H](C)[C@@H]([NH3+])C(=O)[O-]
REMARK SMILES IDX 3 1 4 2 5 3 6 4 7 8 8 9 9 10 2 11 1 12
REMARK H PARENT 6 5 6 6 6 7
REMARK Flexibility Score: inf
ROOT
ATOM      1  C   UNL     1     118.770 158.956 151.341  1.00  0.00     0.050 C 
ATOM      2  C   UNL     1     117.821 159.218 150.158  1.00  0.00     0.014 C 
ENDROOT
BRANCH   1   3
ATOM      3  C   UNL     1     118.276 157.775 152.236  1.00  0.00     0.230 C 
BRANCH   3   4
ATOM      4  N   UNL     1     117.150 158.136 153.109  1.00  0.00    -0.350 N 
ATOM      5  H   UNL     1     117.481 158.617 153.975  1.00  0.00     0.345 HD
ATOM      6  H   UNL     1     116.511 158.786 152.597  1.00  0.00     0.345 HD
ATOM      7  H   UNL     1     116.599 157.286 153.364  1.00  0.00     0.345 HD
ENDBRANCH   3   4
BRANCH   3   8
ATOM      8  C   UNL     1     117.943 156.563 151.397  1.00  0.00     0.099 C 
ATOM      9  O   UNL     1     116.747 156.260 151.143  1.00  0.00    -0.544 OA
ATOM     10  O   UNL     1     118.969 155.798 150.859  1.00  0.00    -0.544 OA
ENDBRANCH   3   8
ENDBRANCH   1   3
BRANCH   1  11
ATOM     11  C   UNL     1     120.266 158.874 150.918  1.00  0.00     0.006 C 
ATOM     12  C   UNL     1     121.249 158.471 152.026  1.00  0.00     0.004 C 
ENDBRANCH   1  11
TORSDOF 4
ENDMDL
