MODEL 1
REMARK VINA RESULT:    -3.382      0.000      0.000
REMARK INTER + INTRA:          -4.309
REMARK INTER:                  -4.173
REMARK INTRA:                  -0.136
REMARK UNBOUND:                -0.136
REMARK SMILES CCCCCC(=O)[O-]
REMARK SMILES IDX 4 1 5 2 6 3 7 4 8 5 3 6 2 7 1 8
REMARK H PARENT
REMARK Flexibility Score: inf
ROOT
ATOM      1  C   UNL     1      27.909  42.520  27.229  1.00  0.00     0.006 C 
ENDROOT
BRANCH   1   2
ATOM      2  C   UNL     1      27.126  43.150  26.070  1.00  0.00     0.053 C 
BRANCH   2   3
ATOM      3  C   UNL     1      26.391  42.119  25.270  1.00  0.00     0.041 C 
ATOM      4  O   UNL     1      26.035  42.369  24.087  1.00  0.00    -0.550 OA
ATOM      5  O   UNL     1      26.130  40.869  25.817  1.00  0.00    -0.550 OA
ENDBRANCH   2   3
ENDBRANCH   1   2
BRANCH   1   6
ATOM      6  C   UNL     1      29.419  42.450  26.938  1.00  0.00     0.000 C 
BRANCH   6   7
ATOM      7  C   UNL     1      29.814  43.242  25.682  1.00  0.00    -0.003 C 
ATOM      8  C   UNL     1      30.713  44.437  25.997  1.00  0.00     0.004 C 
ENDBRANCH   6   7
ENDBRANCH   1   6
TORSDOF 4
ENDMDL
MODEL 2
REMARK VINA RESULT:    -3.287      1.136      1.389
REMARK INTER + INTRA:          -4.193
REMARK INTER:                  -4.052
REMARK INTRA:                  -0.141
REMARK UNBOUND:                -0.136
REMARK SMILES CCCCCC(=O)[O-]
REMARK SMILES IDX 4 1 5 2 6 3 7 4 8 5 3 6 2 7 1 8
REMARK H PARENT
REMARK Flexibility Score: inf
ROOT
ATOM      1  C   UNL     1      27.825  43.266  26.299  1.00  0.00     0.006 C 
ENDROOT
BRANCH   1   2
ATOM      2  C   UNL     1      26.420  42.985  26.848  1.00  0.00     0.053 C 
BRANCH   2   3
ATOM      3  C   UNL     1      26.063  41.534  26.747  1.00  0.00     0.041 C 
ATOM      4  O   UNL     1      25.932  40.991  25.617  1.00  0.00    -0.550 OA
ATOM      5  O   UNL     1      25.912  40.772  27.898  1.00  0.00    -0.550 OA
ENDBRANCH   2   3
ENDBRANCH   1   2
BRANCH   1   6
ATOM      6  C   UNL     1      28.912  42.486  27.061  1.00  0.00     0.000 C 
BRANCH   6   7
ATOM      7  C   UNL     1      30.309  42.674  26.449  1.00  0.00    -0.003 C 
ATOM      8  C   UNL     1      30.527  44.083  25.898  1.00  0.00     0.004 C 
ENDBRANCH   6   7
ENDBRANCH   1   6
TORSDOF 4
ENDMDL
MODEL 3
REMARK VINA RESULT:    -3.280     15.683     16.399
REMARK INTER + INTRA:          -4.184
REMARK INTER:                  -3.930
REMARK INTRA:                  -0.253
REMARK UNBOUND:                -0.136
REMARK SMILES CCCCCC(=O)[O-]
REMARK SMILES IDX 4 1 5 2 6 3 7 4 8 5 3 6 2 7 1 8
REMARK H PARENT
REMARK Flexibility Score: inf
ROOT
ATOM      1  C   UNL     1      29.845  52.502  38.870  1.00  0.00     0.006 C 
ENDROOT
BRANCH   1   2
ATOM      2  C   UNL     1      30.477  51.135  38.576  1.00  0.00     0.053 C 
BRANCH   2   3
ATOM      3  C   UNL     1      30.111  50.119  39.614  1.00  0.00     0.041 C 
ATOM      4  O   UNL     1      30.892  49.886  40.576  1.00  0.00    -0.550 OA
ATOM      5  O   UNL     1      28.893  49.456  39.541  1.00  0.00    -0.550 OA
ENDBRANCH   2   3
ENDBRANCH   1   2
BRANCH   1   6
ATOM      6  C   UNL     1      28.615  52.774  37.987  1.00  0.00     0.000 C 
BRANCH   6   7
ATOM      7  C   UNL     1      27.293  52.597  38.749  1.00  0.00    -0.003 C 
ATOM      8  C   UNL     1      27.472  52.666  40.266  1.00  0.00     0.004 C 
ENDBRANCH   6   7
ENDBRANCH   1   6
TORSDOF 4
ENDMDL
MODEL 4
REMARK VINA RESULT:    -3.266      2.716      4.202
REMARK INTER + INTRA:          -4.166
REMARK INTER:                  -4.050
REMARK INTRA:                  -0.116
REMARK UNBOUND:                -0.136
REMARK SMILES CCCCCC(=O)[O-]
REMARK SMILES IDX 4 1 5 2 6 3 7 4 8 5 3 6 2 7 1 8
REMARK H PARENT
REMARK Flexibility Score: inf
ROOT
ATOM      1  C   UNL     1      27.931  42.443  27.199  1.00  0.00     0.006 C 
ENDROOT
BRANCH   1   2
ATOM      2  C   UNL     1      28.563  43.566  26.366  1.00  0.00     0.053 C 
BRANCH   2   3
ATOM      3  C   UNL     1      30.043  43.385  26.221  1.00  0.00     0.041 C 
ATOM      4  O   UNL     1      30.575  42.274  26.487  1.00  0.00    -0.550 OA
ATOM      5  O   UNL     1      30.830  44.431  25.757  1.00  0.00    -0.550 OA
ENDBRANCH   2   3
ENDBRANCH   1   2
BRANCH   1   6
ATOM      6  C   UNL     1      26.501  42.111  26.737  1.00  0.00     0.000 C 
BRANCH   6   7
ATOM      7  C   UNL     1      26.351  42.163  25.208  1.00  0.00    -0.003 C 
ATOM      8  C   UNL     1      25.639  40.934  24.644  1.00  0.00     0.004 C 
ENDBRANCH   6   7
ENDBRANCH   1   6
TORSDOF 4
ENDMDL
MODEL 5
REMARK VINA RESULT:    -3.262     15.474     15.992
REMARK INTER + INTRA:          -4.162
REMARK INTER:                  -3.951
REMARK INTRA:                  -0.211
REMARK UNBOUND:                -0.136
REMARK SMILES CCCCCC(=O)[O-]
REMARK SMILES IDX 4 1 5 2 6 3 7 4 8 5 3 6 2 7 1 8
REMARK H PARENT
REMARK Flexibility Score: inf
ROOT
ATOM      1  C   UNL     1      30.492  51.155  38.514  1.00  0.00     0.006 C 
ENDROOT
BRANCH   1   2
ATOM      2  C   UNL     1      30.610  50.384  39.836  1.00  0.00     0.053 C 
BRANCH   2   3
ATOM      3  C   UNL     1      29.609  49.273  39.923  1.00  0.00     0.041 C 
ATOM      4  O   UNL     1      28.422  49.458  39.543  1.00  0.00    -0.550 OA
ATOM      5  O   UNL     1      29.995  48.023  40.389  1.00  0.00    -0.550 OA
ENDBRANCH   2   3
ENDBRANCH   1   2
BRANCH   1   6
ATOM      6  C   UNL     1      29.908  52.564  38.714  1.00  0.00     0.000 C 
BRANCH   6   7
ATOM      7  C   UNL     1      28.567  52.755  37.989  1.00  0.00    -0.003 C 
ATOM      8  C   UNL     1      27.380  52.812  38.950  1.00  0.00     0.004 C 
ENDBRANCH   6   7
ENDBRANCH   1   6
TORSDOF 4
ENDMDL
MODEL 6
REMARK VINA RESULT:    -3.260      2.691      4.062
REMARK INTER + INTRA:          -4.159
REMARK INTER:                  -4.045
REMARK INTRA:                  -0.114
REMARK UNBOUND:                -0.136
REMARK SMILES CCCCCC(=O)[O-]
REMARK SMILES IDX 4 1 5 2 6 3 7 4 8 5 3 6 2 7 1 8
REMARK H PARENT
REMARK Flexibility Score: inf
ROOT
ATOM      1  C   UNL     1      27.825  42.491  27.260  1.00  0.00     0.006 C 
ENDROOT
BRANCH   1   2
ATOM      2  C   UNL     1      28.389  43.323  26.101  1.00  0.00     0.053 C 
BRANCH   2   3
ATOM      3  C   UNL     1      29.886  43.275  26.059  1.00  0.00     0.041 C 
ATOM      4  O   UNL     1      30.543  44.291  25.708  1.00  0.00    -0.550 OA
ATOM      5  O   UNL     1      30.557  42.121  26.443  1.00  0.00    -0.550 OA
ENDBRANCH   2   3
ENDBRANCH   1   2
BRANCH   1   6
ATOM      6  C   UNL     1      26.417  41.949  26.954  1.00  0.00     0.000 C 
BRANCH   6   7
ATOM      7  C   UNL     1      26.451  40.674  26.098  1.00  0.00    -0.003 C 
ATOM      8  C   UNL     1      25.612  40.794  24.826  1.00  0.00     0.004 C 
ENDBRANCH   6   7
ENDBRANCH   1   6
TORSDOF 4
ENDMDL
MODEL 7
REMARK VINA RESULT:    -3.032     15.877     16.370
REMARK INTER + INTRA:          -3.878
REMARK INTER:                  -3.660
REMARK INTRA:                  -0.218
REMARK UNBOUND:                -0.136
REMARK SMILES CCCCCC(=O)[O-]
REMARK SMILES IDX 4 1 5 2 6 3 7 4 8 5 3 6 2 7 1 8
REMARK H PARENT
REMARK Flexibility Score: inf
ROOT
ATOM      1  C   UNL     1      28.150  51.287  40.614  1.00  0.00     0.006 C 
ENDROOT
BRANCH   1   2
ATOM      2  C   UNL     1      28.434  50.014  39.805  1.00  0.00     0.053 C 
BRANCH   2   3
ATOM      3  C   UNL     1      29.887  49.650  39.834  1.00  0.00     0.041 C 
ATOM      4  O   UNL     1      30.749  50.445  39.372  1.00  0.00    -0.550 OA
ATOM      5  O   UNL     1      30.294  48.451  40.404  1.00  0.00    -0.550 OA
ENDBRANCH   2   3
ENDBRANCH   1   2
BRANCH   1   6
ATOM      6  C   UNL     1      27.248  52.271  39.849  1.00  0.00     0.000 C 
BRANCH   6   7
ATOM      7  C   UNL     1      27.777  52.581  38.440  1.00  0.00    -0.003 C 
ATOM      8  C   UNL     1      29.061  53.409  38.461  1.00  0.00     0.004 C 
ENDBRANCH   6   7
ENDBRANCH   1   6
TORSDOF 4
ENDMDL
MODEL 8
REMARK VINA RESULT:    -3.020     16.148     16.742
REMARK INTER + INTRA:          -3.863
REMARK INTER:                  -3.657
REMARK INTRA:                  -0.206
REMARK UNBOUND:                -0.136
REMARK SMILES CCCCCC(=O)[O-]
REMARK SMILES IDX 4 1 5 2 6 3 7 4 8 5 3 6 2 7 1 8
REMARK H PARENT
REMARK Flexibility Score: inf
ROOT
ATOM      1  C   UNL     1      30.052  52.563  38.637  1.00  0.00     0.006 C 
ENDROOT
BRANCH   1   2
ATOM      2  C   UNL     1      28.539  52.760  38.468  1.00  0.00     0.053 C 
BRANCH   2   3
ATOM      3  C   UNL     1      27.857  52.988  39.782  1.00  0.00     0.041 C 
ATOM      4  O   UNL     1      26.866  52.284  40.112  1.00  0.00    -0.550 OA
ATOM      5  O   UNL     1      28.338  53.953  40.658  1.00  0.00    -0.550 OA
ENDBRANCH   2   3
ENDBRANCH   1   2
BRANCH   1   6
ATOM      6  C   UNL     1      30.468  51.093  38.454  1.00  0.00     0.000 C 
BRANCH   6   7
ATOM      7  C   UNL     1      30.412  50.297  39.767  1.00  0.00    -0.003 C 
ATOM      8  C   UNL     1      29.186  49.388  39.854  1.00  0.00     0.004 C 
ENDBRANCH   6   7
ENDBRANCH   1   6
TORSDOF 4
ENDMDL
MODEL 9
REMARK VINA RESULT:    -2.745      2.523      4.329
REMARK INTER + INTRA:          -3.523
REMARK INTER:                  -3.412
REMARK INTRA:                  -0.111
REMARK UNBOUND:                -0.136
REMARK SMILES CCCCCC(=O)[O-]
REMARK SMILES IDX 4 1 5 2 6 3 7 4 8 5 3 6 2 7 1 8
REMARK H PARENT
REMARK Flexibility Score: inf
ROOT
ATOM      1  C   UNL     1      26.085  41.386  25.888  1.00  0.00     0.006 C 
ENDROOT
BRANCH   1   2
ATOM      2  C   UNL     1      26.905  42.620  25.491  1.00  0.00     0.053 C 
BRANCH   2   3
ATOM      3  C   UNL     1      27.959  42.938  26.507  1.00  0.00     0.041 C 
ATOM      4  O   UNL     1      27.888  42.452  27.668  1.00  0.00    -0.550 OA
ATOM      5  O   UNL     1      29.040  43.740  26.163  1.00  0.00    -0.550 OA
ENDBRANCH   2   3
ENDBRANCH   1   2
BRANCH   1   6
ATOM      6  C   UNL     1      25.493  40.665  24.664  1.00  0.00     0.000 C 
BRANCH   6   7
ATOM      7  C   UNL     1      25.810  39.162  24.656  1.00  0.00    -0.003 C 
ATOM      8  C   UNL     1      26.798  38.761  25.751  1.00  0.00     0.004 C 
ENDBRANCH   6   7
ENDBRANCH   1   6
TORSDOF 4
ENDMDL
