MODEL 1
REMARK VINA RESULT:    -4.487      0.000      0.000
REMARK INTER + INTRA:          -6.342
REMARK INTER:                  -6.061
REMARK INTRA:                  -0.281
REMARK UNBOUND:                -0.281
REMARK SMILES CCCCCCCC(=O)[O-]
REMARK SMILES IDX 5 1 6 2 7 3 8 4 9 5 10 6 4 7 3 8 2 9 1 10
REMARK H PARENT
REMARK Flexibility Score: inf
ROOT
ATOM      1  C   UNL     1     -15.649  33.414 -11.267  1.00  0.00     0.000 C 
ENDROOT
BRANCH   1   2
ATOM      2  C   UNL     1     -14.529  34.407 -10.931  1.00  0.00     0.006 C 
BRANCH   2   3
ATOM      3  C   UNL     1     -14.380  34.574  -9.415  1.00  0.00     0.053 C 
BRANCH   3   4
ATOM      4  C   UNL     1     -13.295  35.556  -9.102  1.00  0.00     0.041 C 
ATOM      5  O   UNL     1     -12.478  35.903  -9.995  1.00  0.00    -0.550 OA
ATOM      6  O   UNL     1     -13.216  36.123  -7.837  1.00  0.00    -0.550 OA
ENDBRANCH   3   4
ENDBRANCH   2   3
ENDBRANCH   1   2
BRANCH   1   7
ATOM      7  C   UNL     1     -16.870  33.635 -10.367  1.00  0.00     0.000 C 
BRANCH   7   8
ATOM      8  C   UNL     1     -18.106  34.000 -11.196  1.00  0.00    -0.000 C 
BRANCH   8   9
ATOM      9  C   UNL     1     -17.876  33.708 -12.683  1.00  0.00    -0.003 C 
ATOM     10  C   UNL     1     -19.091  34.105 -13.518  1.00  0.00     0.004 C 
ENDBRANCH   8   9
ENDBRANCH   7   8
ENDBRANCH   1   7
TORSDOF 6
ENDMDL
MODEL 2
REMARK VINA RESULT:    -4.422     13.388     14.341
REMARK INTER + INTRA:          -6.254
REMARK INTER:                  -6.166
REMARK INTRA:                  -0.089
REMARK UNBOUND:                -0.281
REMARK SMILES CCCCCCCC(=O)[O-]
REMARK SMILES IDX 5 1 6 2 7 3 8 4 9 5 10 6 4 7 3 8 2 9 1 10
REMARK H PARENT
REMARK Flexibility Score: inf
ROOT
ATOM      1  C   UNL     1     -20.798  24.558  -5.789  1.00  0.00     0.000 C 
ENDROOT
BRANCH   1   2
ATOM      2  C   UNL     1     -20.728  23.874  -4.418  1.00  0.00     0.006 C 
BRANCH   2   3
ATOM      3  C   UNL     1     -19.989  22.536  -4.510  1.00  0.00     0.053 C 
BRANCH   3   4
ATOM      4  C   UNL     1     -20.447  21.611  -3.427  1.00  0.00     0.041 C 
ATOM      5  O   UNL     1     -20.125  20.393  -3.455  1.00  0.00    -0.550 OA
ATOM      6  O   UNL     1     -21.190  22.102  -2.362  1.00  0.00    -0.550 OA
ENDBRANCH   3   4
ENDBRANCH   2   3
ENDBRANCH   1   2
BRANCH   1   7
ATOM      7  C   UNL     1     -22.186  25.163  -6.033  1.00  0.00     0.000 C 
BRANCH   7   8
ATOM      8  C   UNL     1     -22.525  26.212  -4.968  1.00  0.00    -0.000 C 
BRANCH   8   9
ATOM      9  C   UNL     1     -23.679  25.738  -4.078  1.00  0.00    -0.003 C 
ATOM     10  C   UNL     1     -23.179  25.345  -2.690  1.00  0.00     0.004 C 
ENDBRANCH   8   9
ENDBRANCH   7   8
ENDBRANCH   1   7
TORSDOF 6
ENDMDL
MODEL 3
REMARK VINA RESULT:    -4.238      0.928      1.706
REMARK INTER + INTRA:          -6.006
REMARK INTER:                  -5.612
REMARK INTRA:                  -0.393
REMARK UNBOUND:                -0.281
REMARK SMILES CCCCCCCC(=O)[O-]
REMARK SMILES IDX 5 1 6 2 7 3 8 4 9 5 10 6 4 7 3 8 2 9 1 10
REMARK H PARENT
REMARK Flexibility Score: inf
ROOT
ATOM      1  C   UNL     1     -15.642  33.202 -11.227  1.00  0.00     0.000 C 
ENDROOT
BRANCH   1   2
ATOM      2  C   UNL     1     -14.700  34.371 -10.912  1.00  0.00     0.006 C 
BRANCH   2   3
ATOM      3  C   UNL     1     -14.458  34.491  -9.404  1.00  0.00     0.053 C 
BRANCH   3   4
ATOM      4  C   UNL     1     -13.371  35.481  -9.126  1.00  0.00     0.041 C 
ATOM      5  O   UNL     1     -12.590  35.840 -10.046  1.00  0.00    -0.550 OA
ATOM      6  O   UNL     1     -13.251  36.044  -7.862  1.00  0.00    -0.550 OA
ENDBRANCH   3   4
ENDBRANCH   2   3
ENDBRANCH   1   2
BRANCH   1   7
ATOM      7  C   UNL     1     -16.706  33.613 -12.251  1.00  0.00     0.000 C 
BRANCH   7   8
ATOM      8  C   UNL     1     -18.036  33.941 -11.561  1.00  0.00    -0.000 C 
BRANCH   8   9
ATOM      9  C   UNL     1     -18.198  33.134 -10.268  1.00  0.00    -0.003 C 
ATOM     10  C   UNL     1     -18.840  33.976  -9.169  1.00  0.00     0.004 C 
ENDBRANCH   8   9
ENDBRANCH   7   8
ENDBRANCH   1   7
TORSDOF 6
ENDMDL
MODEL 4
REMARK VINA RESULT:    -4.072     13.583     14.499
REMARK INTER + INTRA:          -5.781
REMARK INTER:                  -5.352
REMARK INTRA:                  -0.429
REMARK UNBOUND:                -0.281
REMARK SMILES CCCCCCCC(=O)[O-]
REMARK SMILES IDX 5 1 6 2 7 3 8 4 9 5 10 6 4 7 3 8 2 9 1 10
REMARK H PARENT
REMARK Flexibility Score: inf
ROOT
ATOM      1  C   UNL     1     -22.005  25.004  -2.898  1.00  0.00     0.000 C 
ENDROOT
BRANCH   1   2
ATOM      2  C   UNL     1     -21.878  23.481  -2.766  1.00  0.00     0.006 C 
BRANCH   2   3
ATOM      3  C   UNL     1     -20.752  22.945  -3.656  1.00  0.00     0.053 C 
BRANCH   3   4
ATOM      4  C   UNL     1     -20.372  21.560  -3.240  1.00  0.00     0.041 C 
ATOM      5  O   UNL     1     -19.664  20.843  -3.995  1.00  0.00    -0.550 OA
ATOM      6  O   UNL     1     -20.760  21.077  -1.997  1.00  0.00    -0.550 OA
ENDBRANCH   3   4
ENDBRANCH   2   3
ENDBRANCH   1   2
BRANCH   1   7
ATOM      7  C   UNL     1     -23.375  25.397  -3.462  1.00  0.00     0.000 C 
BRANCH   7   8
ATOM      8  C   UNL     1     -23.364  25.379  -4.995  1.00  0.00    -0.000 C 
BRANCH   8   9
ATOM      9  C   UNL     1     -22.115  26.076  -5.544  1.00  0.00    -0.003 C 
ATOM     10  C   UNL     1     -21.346  25.161  -6.495  1.00  0.00     0.004 C 
ENDBRANCH   8   9
ENDBRANCH   7   8
ENDBRANCH   1   7
TORSDOF 6
ENDMDL
MODEL 5
REMARK VINA RESULT:    -3.912     12.943     14.101
REMARK INTER + INTRA:          -5.566
REMARK INTER:                  -5.271
REMARK INTRA:                  -0.295
REMARK UNBOUND:                -0.281
REMARK SMILES CCCCCCCC(=O)[O-]
REMARK SMILES IDX 5 1 6 2 7 3 8 4 9 5 10 6 4 7 3 8 2 9 1 10
REMARK H PARENT
REMARK Flexibility Score: inf
ROOT
ATOM      1  C   UNL     1     -23.209  25.284  -3.176  1.00  0.00     0.000 C 
ENDROOT
BRANCH   1   2
ATOM      2  C   UNL     1     -23.419  25.552  -4.672  1.00  0.00     0.006 C 
BRANCH   2   3
ATOM      3  C   UNL     1     -22.147  26.118  -5.312  1.00  0.00     0.053 C 
BRANCH   3   4
ATOM      4  C   UNL     1     -21.709  25.257  -6.454  1.00  0.00     0.041 C 
ATOM      5  O   UNL     1     -22.250  25.380  -7.585  1.00  0.00    -0.550 OA
ATOM      6  O   UNL     1     -20.671  24.351  -6.283  1.00  0.00    -0.550 OA
ENDBRANCH   3   4
ENDBRANCH   2   3
ENDBRANCH   1   2
BRANCH   1   7
ATOM      7  C   UNL     1     -21.802  24.736  -2.907  1.00  0.00     0.000 C 
BRANCH   7   8
ATOM      8  C   UNL     1     -21.833  23.217  -2.699  1.00  0.00    -0.000 C 
BRANCH   8   9
ATOM      9  C   UNL     1     -20.693  22.535  -3.462  1.00  0.00    -0.003 C 
ATOM     10  C   UNL     1     -20.361  21.174  -2.855  1.00  0.00     0.004 C 
ENDBRANCH   8   9
ENDBRANCH   7   8
ENDBRANCH   1   7
TORSDOF 6
ENDMDL
MODEL 6
REMARK VINA RESULT:    -3.883     11.960     14.117
REMARK INTER + INTRA:          -5.526
REMARK INTER:                  -5.126
REMARK INTRA:                  -0.400
REMARK UNBOUND:                -0.281
REMARK SMILES CCCCCCCC(=O)[O-]
REMARK SMILES IDX 5 1 6 2 7 3 8 4 9 5 10 6 4 7 3 8 2 9 1 10
REMARK H PARENT
REMARK Flexibility Score: inf
ROOT
ATOM      1  C   UNL     1      -5.410  36.593   0.340  1.00  0.00     0.000 C 
ENDROOT
BRANCH   1   2
ATOM      2  C   UNL     1      -6.454  35.918   1.239  1.00  0.00     0.006 C 
BRANCH   2   3
ATOM      3  C   UNL     1      -6.242  34.401   1.283  1.00  0.00     0.053 C 
BRANCH   3   4
ATOM      4  C   UNL     1      -7.515  33.686   0.955  1.00  0.00     0.041 C 
ATOM      5  O   UNL     1      -8.412  34.264   0.286  1.00  0.00    -0.550 OA
ATOM      6  O   UNL     1      -7.690  32.365   1.346  1.00  0.00    -0.550 OA
ENDBRANCH   3   4
ENDBRANCH   2   3
ENDBRANCH   1   2
BRANCH   1   7
ATOM      7  C   UNL     1      -6.039  37.727  -0.479  1.00  0.00     0.000 C 
BRANCH   7   8
ATOM      8  C   UNL     1      -7.549  37.812  -0.232  1.00  0.00    -0.000 C 
BRANCH   8   9
ATOM      9  C   UNL     1      -8.323  37.821  -1.556  1.00  0.00    -0.003 C 
ATOM     10  C   UNL     1      -9.731  37.262  -1.376  1.00  0.00     0.004 C 
ENDBRANCH   8   9
ENDBRANCH   7   8
ENDBRANCH   1   7
TORSDOF 6
ENDMDL
MODEL 7
REMARK VINA RESULT:    -3.761     12.940     14.118
REMARK INTER + INTRA:          -5.361
REMARK INTER:                  -5.055
REMARK INTRA:                  -0.306
REMARK UNBOUND:                -0.281
REMARK SMILES CCCCCCCC(=O)[O-]
REMARK SMILES IDX 5 1 6 2 7 3 8 4 9 5 10 6 4 7 3 8 2 9 1 10
REMARK H PARENT
REMARK Flexibility Score: inf
ROOT
ATOM      1  C   UNL     1     -20.734  24.566  -6.082  1.00  0.00     0.000 C 
ENDROOT
BRANCH   1   2
ATOM      2  C   UNL     1     -21.880  25.572  -5.922  1.00  0.00     0.006 C 
BRANCH   2   3
ATOM      3  C   UNL     1     -23.045  24.958  -5.139  1.00  0.00     0.053 C 
BRANCH   3   4
ATOM      4  C   UNL     1     -23.264  25.701  -3.859  1.00  0.00     0.041 C 
ATOM      5  O   UNL     1     -23.701  26.882  -3.879  1.00  0.00    -0.550 OA
ATOM      6  O   UNL     1     -23.032  25.073  -2.642  1.00  0.00    -0.550 OA
ENDBRANCH   3   4
ENDBRANCH   2   3
ENDBRANCH   1   2
BRANCH   1   7
ATOM      7  C   UNL     1     -20.446  23.844  -4.760  1.00  0.00     0.000 C 
BRANCH   7   8
ATOM      8  C   UNL     1     -19.728  22.512  -5.005  1.00  0.00    -0.000 C 
BRANCH   8   9
ATOM      9  C   UNL     1     -20.025  21.512  -3.882  1.00  0.00    -0.003 C 
ATOM     10  C   UNL     1     -20.949  22.122  -2.832  1.00  0.00     0.004 C 
ENDBRANCH   8   9
ENDBRANCH   7   8
ENDBRANCH   1   7
TORSDOF 6
ENDMDL
MODEL 8
REMARK VINA RESULT:    -3.701     13.860     15.215
REMARK INTER + INTRA:          -5.280
REMARK INTER:                  -4.826
REMARK INTRA:                  -0.454
REMARK UNBOUND:                -0.281
REMARK SMILES CCCCCCCC(=O)[O-]
REMARK SMILES IDX 5 1 6 2 7 3 8 4 9 5 10 6 4 7 3 8 2 9 1 10
REMARK H PARENT
REMARK Flexibility Score: inf
ROOT
ATOM      1  C   UNL     1      -4.494  34.561   0.128  1.00  0.00     0.000 C 
ENDROOT
BRANCH   1   2
ATOM      2  C   UNL     1      -5.091  33.898   1.376  1.00  0.00     0.006 C 
BRANCH   2   3
ATOM      3  C   UNL     1      -6.475  34.473   1.694  1.00  0.00     0.053 C 
BRANCH   3   4
ATOM      4  C   UNL     1      -7.545  33.640   1.062  1.00  0.00     0.041 C 
ATOM      5  O   UNL     1      -8.374  34.165   0.273  1.00  0.00    -0.550 OA
ATOM      6  O   UNL     1      -7.597  32.274   1.305  1.00  0.00    -0.550 OA
ENDBRANCH   3   4
ENDBRANCH   2   3
ENDBRANCH   1   2
BRANCH   1   7
ATOM      7  C   UNL     1      -4.099  36.015   0.412  1.00  0.00     0.000 C 
BRANCH   7   8
ATOM      8  C   UNL     1      -4.842  36.979  -0.519  1.00  0.00    -0.000 C 
BRANCH   8   9
ATOM      9  C   UNL     1      -5.874  37.806   0.256  1.00  0.00    -0.003 C 
ATOM     10  C   UNL     1      -7.237  37.770  -0.429  1.00  0.00     0.004 C 
ENDBRANCH   8   9
ENDBRANCH   7   8
ENDBRANCH   1   7
TORSDOF 6
ENDMDL
MODEL 9
REMARK VINA RESULT:    -3.549      3.193      5.193
REMARK INTER + INTRA:          -5.074
REMARK INTER:                  -4.820
REMARK INTRA:                  -0.255
REMARK UNBOUND:                -0.281
REMARK SMILES CCCCCCCC(=O)[O-]
REMARK SMILES IDX 5 1 6 2 7 3 8 4 9 5 10 6 4 7 3 8 2 9 1 10
REMARK H PARENT
REMARK Flexibility Score: inf
ROOT
ATOM      1  C   UNL     1     -15.078  34.015 -11.411  1.00  0.00     0.000 C 
ENDROOT
BRANCH   1   2
ATOM      2  C   UNL     1     -15.977  33.284 -12.416  1.00  0.00     0.006 C 
BRANCH   2   3
ATOM      3  C   UNL     1     -17.309  32.884 -11.772  1.00  0.00     0.053 C 
BRANCH   3   4
ATOM      4  C   UNL     1     -18.319  33.974 -11.940  1.00  0.00     0.041 C 
ATOM      5  O   UNL     1     -18.774  34.246 -13.083  1.00  0.00    -0.550 OA
ATOM      6  O   UNL     1     -18.794  34.658 -10.829  1.00  0.00    -0.550 OA
ENDBRANCH   3   4
ENDBRANCH   2   3
ENDBRANCH   1   2
BRANCH   1   7
ATOM      7  C   UNL     1     -15.464  33.663  -9.969  1.00  0.00     0.000 C 
BRANCH   7   8
ATOM      8  C   UNL     1     -14.694  34.529  -8.966  1.00  0.00    -0.000 C 
BRANCH   8   9
ATOM      9  C   UNL     1     -13.486  35.199  -9.632  1.00  0.00    -0.003 C 
ATOM     10  C   UNL     1     -12.849  36.233  -8.708  1.00  0.00     0.004 C 
ENDBRANCH   8   9
ENDBRANCH   7   8
ENDBRANCH   1   7
TORSDOF 6
ENDMDL
