MODEL 1
REMARK VINA RESULT:    -0.867      0.000      0.000
REMARK INTER + INTRA:          -2.194
REMARK INTER:                  -1.679
REMARK INTRA:                  -0.515
REMARK UNBOUND:                -0.515
REMARK SMILES CCCCCCCCCCCCCCCCCC(=O)[O-]
REMARK SMILES IDX 10 1 11 2 12 3 13 4 14 5 15 6 16 7 17 8 18 9 19 10 20 11
REMARK SMILES IDX 9 12 8 13 7 14 6 15 5 16 4 17 3 18 2 19 1 20
REMARK H PARENT
REMARK Flexibility Score: inf
ROOT
ATOM      1  C   UNL     1      33.112  24.298  33.834  1.00  0.00     0.000 C 
ENDROOT
BRANCH   1   2
ATOM      2  C   UNL     1      31.991  25.063  34.561  1.00  0.00     0.000 C 
BRANCH   2   3
ATOM      3  C   UNL     1      30.677  25.081  33.762  1.00  0.00     0.000 C 
BRANCH   3   4
ATOM      4  C   UNL     1      30.860  24.598  32.313  1.00  0.00     0.000 C 
BRANCH   4   5
ATOM      5  C   UNL     1      29.764  25.124  31.372  1.00  0.00     0.000 C 
BRANCH   5   6
ATOM      6  C   UNL     1      30.166  25.053  29.892  1.00  0.00     0.000 C 
BRANCH   6   7
ATOM      7  C   UNL     1      29.126  24.269  29.078  1.00  0.00     0.006 C 
BRANCH   7   8
ATOM      8  C   UNL     1      29.758  23.502  27.908  1.00  0.00     0.053 C 
BRANCH   8   9
ATOM      9  C   UNL     1      30.160  22.116  28.307  1.00  0.00     0.041 C 
ATOM     10  O   UNL     1      29.410  21.138  28.047  1.00  0.00    -0.550 OA
ATOM     11  O   UNL     1      31.379  21.900  28.938  1.00  0.00    -0.550 OA
ENDBRANCH   8   9
ENDBRANCH   7   8
ENDBRANCH   6   7
ENDBRANCH   5   6
ENDBRANCH   4   5
ENDBRANCH   3   4
ENDBRANCH   2   3
ENDBRANCH   1   2
BRANCH   1  12
ATOM     12  C   UNL     1      34.468  25.017  33.921  1.00  0.00     0.000 C 
BRANCH  12  13
ATOM     13  C   UNL     1      35.177  25.116  32.558  1.00  0.00    -0.000 C 
BRANCH  13  14
ATOM     14  C   UNL     1      36.395  24.185  32.458  1.00  0.00    -0.000 C 
BRANCH  14  15
ATOM     15  C   UNL     1      37.122  24.308  31.110  1.00  0.00    -0.000 C 
BRANCH  15  16
ATOM     16  C   UNL     1      36.228  23.831  29.958  1.00  0.00    -0.000 C 
BRANCH  16  17
ATOM     17  C   UNL     1      36.107  24.912  28.874  1.00  0.00    -0.000 C 
BRANCH  17  18
ATOM     18  C   UNL     1      34.777  24.833  28.105  1.00  0.00    -0.000 C 
BRANCH  18  19
ATOM     19  C   UNL     1      33.693  24.067  28.878  1.00  0.00    -0.003 C 
ATOM     20  C   UNL     1      33.207  24.871  30.081  1.00  0.00     0.004 C 
ENDBRANCH  18  19
ENDBRANCH  17  18
ENDBRANCH  16  17
ENDBRANCH  15  16
ENDBRANCH  14  15
ENDBRANCH  13  14
ENDBRANCH  12  13
ENDBRANCH   1  12
TORSDOF 16
ENDMDL
MODEL 2
REMARK VINA RESULT:     0.193      1.540      2.159
REMARK INTER + INTRA:          -0.141
REMARK INTER:                   1.077
REMARK INTRA:                  -1.218
REMARK UNBOUND:                -0.515
REMARK SMILES CCCCCCCCCCCCCCCCCC(=O)[O-]
REMARK SMILES IDX 10 1 11 2 12 3 13 4 14 5 15 6 16 7 17 8 18 9 19 10 20 11
REMARK SMILES IDX 9 12 8 13 7 14 6 15 5 16 4 17 3 18 2 19 1 20
REMARK H PARENT
REMARK Flexibility Score: inf
ROOT
ATOM      1  C   UNL     1      33.145  23.817  33.964  1.00  0.00     0.000 C 
ENDROOT
BRANCH   1   2
ATOM      2  C   UNL     1      32.295  24.773  34.820  1.00  0.00     0.000 C 
BRANCH   2   3
ATOM      3  C   UNL     1      30.789  24.483  34.708  1.00  0.00     0.000 C 
BRANCH   3   4
ATOM      4  C   UNL     1      30.155  25.125  33.461  1.00  0.00     0.000 C 
BRANCH   4   5
ATOM      5  C   UNL     1      29.117  24.211  32.790  1.00  0.00     0.000 C 
BRANCH   5   6
ATOM      6  C   UNL     1      29.616  23.619  31.464  1.00  0.00     0.000 C 
BRANCH   6   7
ATOM      7  C   UNL     1      31.114  23.896  31.269  1.00  0.00     0.006 C 
BRANCH   7   8
ATOM      8  C   UNL     1      31.399  24.670  29.975  1.00  0.00     0.053 C 
BRANCH   8   9
ATOM      9  C   UNL     1      31.534  23.752  28.799  1.00  0.00     0.041 C 
ATOM     10  O   UNL     1      30.538  23.506  28.069  1.00  0.00    -0.550 OA
ATOM     11  O   UNL     1      32.768  23.193  28.492  1.00  0.00    -0.550 OA
ENDBRANCH   8   9
ENDBRANCH   7   8
ENDBRANCH   6   7
ENDBRANCH   5   6
ENDBRANCH   4   5
ENDBRANCH   3   4
ENDBRANCH   2   3
ENDBRANCH   1   2
BRANCH   1  12
ATOM     12  C   UNL     1      34.651  24.111  34.074  1.00  0.00     0.000 C 
BRANCH  12  13
ATOM     13  C   UNL     1      35.137  25.123  33.021  1.00  0.00    -0.000 C 
BRANCH  13  14
ATOM     14  C   UNL     1      36.658  25.074  32.813  1.00  0.00    -0.000 C 
BRANCH  14  15
ATOM     15  C   UNL     1      37.048  24.924  31.334  1.00  0.00    -0.000 C 
BRANCH  15  16
ATOM     16  C   UNL     1      35.816  25.043  30.428  1.00  0.00    -0.000 C 
BRANCH  16  17
ATOM     17  C   UNL     1      36.219  24.999  28.946  1.00  0.00    -0.000 C 
BRANCH  17  18
ATOM     18  C   UNL     1      37.063  23.762  28.598  1.00  0.00    -0.000 C 
BRANCH  18  19
ATOM     19  C   UNL     1      36.402  22.451  29.050  1.00  0.00    -0.003 C 
ATOM     20  C   UNL     1      36.516  21.379  27.970  1.00  0.00     0.004 C 
ENDBRANCH  18  19
ENDBRANCH  17  18
ENDBRANCH  16  17
ENDBRANCH  15  16
ENDBRANCH  14  15
ENDBRANCH  13  14
ENDBRANCH  12  13
ENDBRANCH   1  12
TORSDOF 16
ENDMDL
