MODEL 1
REMARK VINA RESULT:    -6.017      0.000      0.000
REMARK INTER + INTRA:          -6.193
REMARK INTER:                  -6.193
REMARK INTRA:                   0.000
REMARK UNBOUND:                 0.000
REMARK SMILES C=C1[C@H](O)C[C@]23C[C@H]1C(C)(C)[C@H]2CC[C@@H]3C
REMARK SMILES IDX 16 1 15 2 14 3 13 4 12 5 6 6 7 7 8 8 9 9 10 10 11 11 2 12
REMARK SMILES IDX 1 13 3 14 5 15 4 16
REMARK H PARENT 4 17
REMARK Flexibility Score: inf
ROOT
ATOM      1  C   UNL     1     149.340 142.445 141.826  1.00  0.00     0.008 C 
ATOM      2  C   UNL     1     148.777 141.039 142.080  1.00  0.00    -0.008 C 
ATOM      3  C   UNL     1     147.332 141.090 142.567  1.00  0.00     0.004 C 
ATOM      4  C   UNL     1     146.782 139.704 142.283  1.00  0.00     0.005 C 
ATOM      5  C   UNL     1     147.413 139.313 140.937  1.00  0.00     0.002 C 
ATOM      6  C   UNL     1     148.767 140.062 140.863  1.00  0.00    -0.020 C 
ATOM      7  C   UNL     1     149.823 138.958 140.970  1.00  0.00     0.016 C 
ATOM      8  C   UNL     1     149.195 137.849 140.139  1.00  0.00     0.023 C 
ATOM      9  C   UNL     1     147.724 137.803 140.651  1.00  0.00    -0.025 C 
ATOM     10  C   UNL     1     147.649 136.885 141.900  1.00  0.00     0.012 C 
ATOM     11  C   UNL     1     146.736 137.221 139.609  1.00  0.00     0.012 C 
ATOM     12  C   UNL     1     149.285 138.279 138.676  1.00  0.00    -0.045 C 
ATOM     13  C   UNL     1     149.517 137.358 137.726  1.00  0.00     0.011 C 
ATOM     14  C   UNL     1     148.937 139.718 138.277  1.00  0.00     0.140 C 
ATOM     15  C   UNL     1     148.944 140.731 139.465  1.00  0.00     0.044 C 
ENDROOT
BRANCH  14  16
ATOM     16  O   UNL     1     149.788 140.177 137.256  1.00  0.00    -0.389 OA
ATOM     17  H   UNL     1     150.421 139.441 137.044  1.00  0.00     0.211 HD
ENDBRANCH  14  16
TORSDOF 1
ENDMDL
MODEL 2
REMARK VINA RESULT:    -5.661      1.970      4.418
REMARK INTER + INTRA:          -5.826
REMARK INTER:                  -5.826
REMARK INTRA:                   0.000
REMARK UNBOUND:                 0.000
REMARK SMILES C=C1[C@H](O)C[C@]23C[C@H]1C(C)(C)[C@H]2CC[C@@H]3C
REMARK SMILES IDX 16 1 15 2 14 3 13 4 12 5 6 6 7 7 8 8 9 9 10 10 11 11 2 12
REMARK SMILES IDX 1 13 3 14 5 15 4 16
REMARK H PARENT 4 17
REMARK Flexibility Score: inf
ROOT
ATOM      1  C   UNL     1     147.226 136.328 141.993  1.00  0.00     0.008 C 
ATOM      2  C   UNL     1     147.852 137.047 140.789  1.00  0.00    -0.008 C 
ATOM      3  C   UNL     1     147.038 136.827 139.516  1.00  0.00     0.004 C 
ATOM      4  C   UNL     1     147.458 137.957 138.594  1.00  0.00     0.005 C 
ATOM      5  C   UNL     1     147.624 139.168 139.525  1.00  0.00     0.002 C 
ATOM      6  C   UNL     1     148.017 138.594 140.910  1.00  0.00    -0.020 C 
ATOM      7  C   UNL     1     149.472 139.029 141.107  1.00  0.00     0.016 C 
ATOM      8  C   UNL     1     149.455 140.435 140.526  1.00  0.00     0.023 C 
ATOM      9  C   UNL     1     148.697 140.257 139.176  1.00  0.00    -0.025 C 
ATOM     10  C   UNL     1     149.707 139.833 138.078  1.00  0.00     0.012 C 
ATOM     11  C   UNL     1     148.022 141.561 138.682  1.00  0.00     0.012 C 
ATOM     12  C   UNL     1     148.689 141.319 141.508  1.00  0.00    -0.045 C 
ATOM     13  C   UNL     1     149.080 142.589 141.703  1.00  0.00     0.011 C 
ATOM     14  C   UNL     1     147.380 140.817 142.130  1.00  0.00     0.140 C 
ATOM     15  C   UNL     1     147.178 139.271 142.038  1.00  0.00     0.044 C 
ENDROOT
BRANCH  14  16
ATOM     16  O   UNL     1     147.268 141.232 143.469  1.00  0.00    -0.389 OA
ATOM     17  H   UNL     1     147.104 142.212 143.464  1.00  0.00     0.211 HD
ENDBRANCH  14  16
TORSDOF 1
ENDMDL
MODEL 3
REMARK VINA RESULT:    -5.624      1.470      1.963
REMARK INTER + INTRA:          -5.789
REMARK INTER:                  -5.789
REMARK INTRA:                   0.000
REMARK UNBOUND:                 0.000
REMARK SMILES C=C1[C@H](O)C[C@]23C[C@H]1C(C)(C)[C@H]2CC[C@@H]3C
REMARK SMILES IDX 16 1 15 2 14 3 13 4 12 5 6 6 7 7 8 8 9 9 10 10 11 11 2 12
REMARK SMILES IDX 1 13 3 14 5 15 4 16
REMARK H PARENT 4 17
REMARK Flexibility Score: inf
ROOT
ATOM      1  C   UNL     1     149.466 143.458 141.377  1.00  0.00     0.008 C 
ATOM      2  C   UNL     1     149.371 141.925 141.394  1.00  0.00    -0.008 C 
ATOM      3  C   UNL     1     148.492 141.429 142.540  1.00  0.00     0.004 C 
ATOM      4  C   UNL     1     148.090 140.023 142.132  1.00  0.00     0.005 C 
ATOM      5  C   UNL     1     147.866 140.116 140.615  1.00  0.00     0.002 C 
ATOM      6  C   UNL     1     148.795 141.248 140.111  1.00  0.00    -0.020 C 
ATOM      7  C   UNL     1     149.862 140.529 139.282  1.00  0.00     0.016 C 
ATOM      8  C   UNL     1     149.038 139.463 138.576  1.00  0.00     0.023 C 
ATOM      9  C   UNL     1     148.169 138.863 139.722  1.00  0.00    -0.025 C 
ATOM     10  C   UNL     1     148.972 137.745 140.437  1.00  0.00     0.012 C 
ATOM     11  C   UNL     1     146.857 138.215 139.213  1.00  0.00     0.012 C 
ATOM     12  C   UNL     1     148.193 140.173 137.520  1.00  0.00    -0.045 C 
ATOM     13  C   UNL     1     147.958 139.572 136.342  1.00  0.00     0.011 C 
ATOM     14  C   UNL     1     147.472 141.481 137.869  1.00  0.00     0.140 C 
ATOM     15  C   UNL     1     148.022 142.196 139.143  1.00  0.00     0.044 C 
ENDROOT
BRANCH  14  16
ATOM     16  O   UNL     1     147.489 142.370 136.779  1.00  0.00    -0.389 OA
ATOM     17  H   UNL     1     148.286 142.150 136.228  1.00  0.00     0.211 HD
ENDBRANCH  14  16
TORSDOF 1
ENDMDL
MODEL 4
REMARK VINA RESULT:    -5.547      1.990      4.233
REMARK INTER + INTRA:          -5.709
REMARK INTER:                  -5.709
REMARK INTRA:                   0.000
REMARK UNBOUND:                 0.000
REMARK SMILES C=C1[C@H](O)C[C@]23C[C@H]1C(C)(C)[C@H]2CC[C@@H]3C
REMARK SMILES IDX 16 1 15 2 14 3 13 4 12 5 6 6 7 7 8 8 9 9 10 10 11 11 2 12
REMARK SMILES IDX 1 13 3 14 5 15 4 16
REMARK H PARENT 4 17
REMARK Flexibility Score: inf
ROOT
ATOM      1  C   UNL     1     147.188 141.691 136.576  1.00  0.00     0.008 C 
ATOM      2  C   UNL     1     147.599 140.417 137.331  1.00  0.00    -0.008 C 
ATOM      3  C   UNL     1     148.938 139.876 136.836  1.00  0.00     0.004 C 
ATOM      4  C   UNL     1     149.430 138.986 137.962  1.00  0.00     0.005 C 
ATOM      5  C   UNL     1     149.018 139.728 139.243  1.00  0.00     0.002 C 
ATOM      6  C   UNL     1     147.753 140.545 138.879  1.00  0.00    -0.020 C 
ATOM      7  C   UNL     1     146.620 139.864 139.653  1.00  0.00     0.016 C 
ATOM      8  C   UNL     1     147.304 139.530 140.970  1.00  0.00     0.023 C 
ATOM      9  C   UNL     1     148.657 138.897 140.523  1.00  0.00    -0.025 C 
ATOM     10  C   UNL     1     148.449 137.382 140.266  1.00  0.00     0.012 C 
ATOM     11  C   UNL     1     149.768 139.020 141.596  1.00  0.00     0.012 C 
ATOM     12  C   UNL     1     147.500 140.845 141.721  1.00  0.00    -0.045 C 
ATOM     13  C   UNL     1     147.374 140.872 143.058  1.00  0.00     0.011 C 
ATOM     14  C   UNL     1     148.012 142.083 140.976  1.00  0.00     0.140 C 
ATOM     15  C   UNL     1     147.870 142.002 139.423  1.00  0.00     0.044 C 
ENDROOT
BRANCH  14  16
ATOM     16  O   UNL     1     147.386 143.250 141.450  1.00  0.00    -0.389 OA
ATOM     17  H   UNL     1     146.825 143.608 140.712  1.00  0.00     0.211 HD
ENDBRANCH  14  16
TORSDOF 1
ENDMDL
MODEL 5
REMARK VINA RESULT:    -5.518      2.067      4.759
REMARK INTER + INTRA:          -5.679
REMARK INTER:                  -5.679
REMARK INTRA:                   0.000
REMARK UNBOUND:                 0.000
REMARK SMILES C=C1[C@H](O)C[C@]23C[C@H]1C(C)(C)[C@H]2CC[C@@H]3C
REMARK SMILES IDX 16 1 15 2 14 3 13 4 12 5 6 6 7 7 8 8 9 9 10 10 11 11 2 12
REMARK SMILES IDX 1 13 3 14 5 15 4 16
REMARK H PARENT 4 17
REMARK Flexibility Score: inf
ROOT
ATOM      1  C   UNL     1     148.707 135.133 140.085  1.00  0.00     0.008 C 
ATOM      2  C   UNL     1     149.186 136.476 139.513  1.00  0.00    -0.008 C 
ATOM      3  C   UNL     1     148.868 136.601 138.025  1.00  0.00     0.004 C 
ATOM      4  C   UNL     1     148.920 138.092 137.747  1.00  0.00     0.005 C 
ATOM      5  C   UNL     1     148.304 138.735 138.999  1.00  0.00     0.002 C 
ATOM      6  C   UNL     1     148.596 137.764 140.169  1.00  0.00    -0.020 C 
ATOM      7  C   UNL     1     149.607 138.509 141.045  1.00  0.00     0.016 C 
ATOM      8  C   UNL     1     149.081 139.935 140.978  1.00  0.00     0.023 C 
ATOM      9  C   UNL     1     148.809 140.147 139.458  1.00  0.00    -0.025 C 
ATOM     10  C   UNL     1     150.117 140.615 138.768  1.00  0.00     0.012 C 
ATOM     11  C   UNL     1     147.743 141.235 139.178  1.00  0.00     0.012 C 
ATOM     12  C   UNL     1     147.800 139.981 141.807  1.00  0.00    -0.045 C 
ATOM     13  C   UNL     1     147.513 141.078 142.528  1.00  0.00     0.011 C 
ATOM     14  C   UNL     1     146.762 138.859 141.677  1.00  0.00     0.140 C 
ATOM     15  C   UNL     1     147.313 137.548 141.032  1.00  0.00     0.044 C 
ENDROOT
BRANCH  14  16
ATOM     16  O   UNL     1     146.178 138.566 142.923  1.00  0.00    -0.389 OA
ATOM     17  H   UNL     1     145.304 139.037 142.959  1.00  0.00     0.211 HD
ENDBRANCH  14  16
TORSDOF 1
ENDMDL
MODEL 6
REMARK VINA RESULT:    -5.385      1.788      3.109
REMARK INTER + INTRA:          -5.543
REMARK INTER:                  -5.543
REMARK INTRA:                   0.000
REMARK UNBOUND:                 0.000
REMARK SMILES C=C1[C@H](O)C[C@]23C[C@H]1C(C)(C)[C@H]2CC[C@@H]3C
REMARK SMILES IDX 16 1 15 2 14 3 13 4 12 5 6 6 7 7 8 8 9 9 10 10 11 11 2 12
REMARK SMILES IDX 1 13 3 14 5 15 4 16
REMARK H PARENT 4 17
REMARK Flexibility Score: inf
ROOT
ATOM      1  C   UNL     1     148.985 141.035 142.834  1.00  0.00     0.008 C 
ATOM      2  C   UNL     1     148.224 141.367 141.541  1.00  0.00    -0.008 C 
ATOM      3  C   UNL     1     148.666 142.706 140.955  1.00  0.00     0.004 C 
ATOM      4  C   UNL     1     148.239 142.646 139.500  1.00  0.00     0.005 C 
ATOM      5  C   UNL     1     148.505 141.191 139.084  1.00  0.00     0.002 C 
ATOM      6  C   UNL     1     148.358 140.342 140.371  1.00  0.00    -0.020 C 
ATOM      7  C   UNL     1     147.086 139.520 140.146  1.00  0.00     0.016 C 
ATOM      8  C   UNL     1     147.203 139.168 138.671  1.00  0.00     0.023 C 
ATOM      9  C   UNL     1     147.581 140.526 138.006  1.00  0.00    -0.025 C 
ATOM     10  C   UNL     1     146.284 141.318 137.696  1.00  0.00     0.012 C 
ATOM     11  C   UNL     1     148.332 140.355 136.661  1.00  0.00     0.012 C 
ATOM     12  C   UNL     1     148.318 138.131 138.543  1.00  0.00    -0.045 C 
ATOM     13  C   UNL     1     148.205 137.142 137.641  1.00  0.00     0.011 C 
ATOM     14  C   UNL     1     149.631 138.321 139.312  1.00  0.00     0.140 C 
ATOM     15  C   UNL     1     149.541 139.333 140.497  1.00  0.00     0.044 C 
ENDROOT
BRANCH  14  16
ATOM     16  O   UNL     1     150.124 137.088 139.776  1.00  0.00    -0.389 OA
ATOM     17  H   UNL     1     151.013 136.946 139.356  1.00  0.00     0.211 HD
ENDBRANCH  14  16
TORSDOF 1
ENDMDL
MODEL 7
REMARK VINA RESULT:    -5.311      3.611      5.773
REMARK INTER + INTRA:          -5.466
REMARK INTER:                  -5.466
REMARK INTRA:                   0.000
REMARK UNBOUND:                 0.000
REMARK SMILES C=C1[C@H](O)C[C@]23C[C@H]1C(C)(C)[C@H]2CC[C@@H]3C
REMARK SMILES IDX 16 1 15 2 14 3 13 4 12 5 6 6 7 7 8 8 9 9 10 10 11 11 2 12
REMARK SMILES IDX 1 13 3 14 5 15 4 16
REMARK H PARENT 4 17
REMARK Flexibility Score: inf
ROOT
ATOM      1  C   UNL     1     146.672 135.610 137.105  1.00  0.00     0.008 C 
ATOM      2  C   UNL     1     147.044 136.961 137.734  1.00  0.00    -0.008 C 
ATOM      3  C   UNL     1     148.547 137.219 137.667  1.00  0.00     0.004 C 
ATOM      4  C   UNL     1     148.686 138.721 137.833  1.00  0.00     0.005 C 
ATOM      5  C   UNL     1     147.496 139.302 137.053  1.00  0.00     0.002 C 
ATOM      6  C   UNL     1     146.382 138.228 137.106  1.00  0.00    -0.020 C 
ATOM      7  C   UNL     1     145.297 138.841 137.996  1.00  0.00     0.016 C 
ATOM      8  C   UNL     1     145.325 140.297 137.555  1.00  0.00     0.023 C 
ATOM      9  C   UNL     1     146.845 140.641 137.544  1.00  0.00    -0.025 C 
ATOM     10  C   UNL     1     147.277 141.082 138.967  1.00  0.00     0.012 C 
ATOM     11  C   UNL     1     147.195 141.810 136.589  1.00  0.00     0.012 C 
ATOM     12  C   UNL     1     144.707 140.356 136.160  1.00  0.00    -0.045 C 
ATOM     13  C   UNL     1     143.949 141.410 135.812  1.00  0.00     0.011 C 
ATOM     14  C   UNL     1     145.095 139.312 135.106  1.00  0.00     0.140 C 
ATOM     15  C   UNL     1     145.754 138.024 135.692  1.00  0.00     0.044 C 
ENDROOT
BRANCH  14  16
ATOM     16  O   UNL     1     143.986 138.960 134.314  1.00  0.00    -0.389 OA
ATOM     17  H   UNL     1     143.709 139.773 133.814  1.00  0.00     0.211 HD
ENDBRANCH  14  16
TORSDOF 1
ENDMDL
MODEL 8
REMARK VINA RESULT:    -5.245      1.959      4.643
REMARK INTER + INTRA:          -5.398
REMARK INTER:                  -5.398
REMARK INTRA:                   0.000
REMARK UNBOUND:                 0.000
REMARK SMILES C=C1[C@H](O)C[C@]23C[C@H]1C(C)(C)[C@H]2CC[C@@H]3C
REMARK SMILES IDX 16 1 15 2 14 3 13 4 12 5 6 6 7 7 8 8 9 9 10 10 11 11 2 12
REMARK SMILES IDX 1 13 3 14 5 15 4 16
REMARK H PARENT 4 17
REMARK Flexibility Score: inf
ROOT
ATOM      1  C   UNL     1     149.547 135.503 139.340  1.00  0.00     0.008 C 
ATOM      2  C   UNL     1     149.133 136.625 138.376  1.00  0.00    -0.008 C 
ATOM      3  C   UNL     1     147.791 136.330 137.712  1.00  0.00     0.004 C 
ATOM      4  C   UNL     1     147.298 137.682 137.229  1.00  0.00     0.005 C 
ATOM      5  C   UNL     1     147.717 138.659 138.339  1.00  0.00     0.002 C 
ATOM      6  C   UNL     1     148.984 138.052 138.990  1.00  0.00    -0.020 C 
ATOM      7  C   UNL     1     150.117 139.000 138.586  1.00  0.00     0.016 C 
ATOM      8  C   UNL     1     149.436 140.356 138.692  1.00  0.00     0.023 C 
ATOM      9  C   UNL     1     148.079 140.136 137.957  1.00  0.00    -0.025 C 
ATOM     10  C   UNL     1     148.280 140.376 136.438  1.00  0.00     0.012 C 
ATOM     11  C   UNL     1     146.972 141.116 138.420  1.00  0.00     0.012 C 
ATOM     12  C   UNL     1     149.247 140.650 140.179  1.00  0.00    -0.045 C 
ATOM     13  C   UNL     1     149.377 141.908 140.630  1.00  0.00     0.011 C 
ATOM     14  C   UNL     1     148.738 139.549 141.118  1.00  0.00     0.140 C 
ATOM     15  C   UNL     1     148.876 138.103 140.546  1.00  0.00     0.044 C 
ENDROOT
BRANCH  14  16
ATOM     16  O   UNL     1     149.371 139.626 142.372  1.00  0.00    -0.389 OA
ATOM     17  H   UNL     1     149.841 140.500 142.415  1.00  0.00     0.211 HD
ENDBRANCH  14  16
TORSDOF 1
ENDMDL
MODEL 9
REMARK VINA RESULT:    -5.235      1.898      2.884
REMARK INTER + INTRA:          -5.388
REMARK INTER:                  -5.388
REMARK INTRA:                   0.000
REMARK UNBOUND:                 0.000
REMARK SMILES C=C1[C@H](O)C[C@]23C[C@H]1C(C)(C)[C@H]2CC[C@@H]3C
REMARK SMILES IDX 16 1 15 2 14 3 13 4 12 5 6 6 7 7 8 8 9 9 10 10 11 11 2 12
REMARK SMILES IDX 1 13 3 14 5 15 4 16
REMARK H PARENT 4 17
REMARK Flexibility Score: inf
ROOT
ATOM      1  C   UNL     1     148.991 142.076 141.258  1.00  0.00     0.008 C 
ATOM      2  C   UNL     1     149.414 140.739 140.629  1.00  0.00    -0.008 C 
ATOM      3  C   UNL     1     149.363 139.599 141.642  1.00  0.00     0.004 C 
ATOM      4  C   UNL     1     149.297 138.340 140.798  1.00  0.00     0.005 C 
ATOM      5  C   UNL     1     148.394 138.720 139.615  1.00  0.00     0.002 C 
ATOM      6  C   UNL     1     148.573 140.245 139.411  1.00  0.00    -0.020 C 
ATOM      7  C   UNL     1     149.317 140.370 138.078  1.00  0.00     0.016 C 
ATOM      8  C   UNL     1     148.656 139.277 137.252  1.00  0.00     0.023 C 
ATOM      9  C   UNL     1     148.646 138.054 138.218  1.00  0.00    -0.025 C 
ATOM     10  C   UNL     1     149.997 137.302 138.100  1.00  0.00     0.012 C 
ATOM     11  C   UNL     1     147.534 137.027 137.885  1.00  0.00     0.012 C 
ATOM     12  C   UNL     1     147.247 139.759 136.913  1.00  0.00    -0.045 C 
ATOM     13  C   UNL     1     146.712 139.461 135.717  1.00  0.00     0.011 C 
ATOM     14  C   UNL     1     146.383 140.421 137.994  1.00  0.00     0.140 C 
ATOM     15  C   UNL     1     147.186 140.937 139.229  1.00  0.00     0.044 C 
ENDROOT
BRANCH  14  16
ATOM     16  O   UNL     1     145.617 141.469 137.453  1.00  0.00    -0.389 OA
ATOM     17  H   UNL     1     144.789 141.069 137.077  1.00  0.00     0.211 HD
ENDBRANCH  14  16
TORSDOF 1
ENDMDL
