MODEL 1
REMARK VINA RESULT:     2.625      0.000      0.000
REMARK INTER + INTRA:           4.382
REMARK INTER:                   3.546
REMARK INTRA:                   0.836
REMARK UNBOUND:                 0.836
REMARK SMILES O=c1c(-c2ccc(O)cc2)coc2c([C@H]3O[C@H](CO)[C@@H](O)[C@@H](O)[C@H]3O)c(O)ccc12
REMARK SMILES IDX 3 1 11 2 12 3 13 4 30 5 2 6 1 7 29 8 28 9 26 10 14 11 4 12
REMARK SMILES IDX 5 13 6 14 7 15 10 16 9 17 8 18 15 20 24 21 16 22 22 23 17 24
REMARK SMILES IDX 20 25 25 26 23 28 18 30 19 31 21 33 27 35
REMARK H PARENT 8 19 25 27 23 29 19 32 21 34 27 36
REMARK Flexibility Score: inf
ROOT
ATOM      1  C   UNL     1     -33.182  11.258 -33.705  1.00  0.00     0.065 A 
ATOM      2  C   UNL     1     -34.291  11.599 -34.488  1.00  0.00     0.208 A 
ATOM      3  O   UNL     1     -34.362  11.224 -35.758  1.00  0.00    -0.463 OA
ATOM      4  C   UNL     1     -33.423  10.494 -36.357  1.00  0.00     0.147 A 
ATOM      5  C   UNL     1     -32.283  10.083 -35.626  1.00  0.00     0.066 A 
ATOM      6  C   UNL     1     -32.164  10.488 -34.283  1.00  0.00     0.200 A 
ATOM      7  O   UNL     1     -31.154  10.162 -33.599  1.00  0.00    -0.288 OA
ATOM      8  C   UNL     1     -31.322   9.275 -36.246  1.00  0.00     0.020 A 
ATOM      9  C   UNL     1     -31.489   8.876 -37.570  1.00  0.00     0.047 A 
ATOM     10  C   UNL     1     -32.600   9.297 -38.311  1.00  0.00     0.125 A 
ATOM     11  C   UNL     1     -33.571  10.135 -37.717  1.00  0.00     0.069 A 
ENDROOT
BRANCH   1  12
ATOM     12  C   UNL     1     -33.108  11.718 -32.307  1.00  0.00    -0.011 A 
ATOM     13  C   UNL     1     -31.872  11.734 -31.636  1.00  0.00     0.013 A 
ATOM     14  C   UNL     1     -31.785  12.234 -30.333  1.00  0.00     0.047 A 
ATOM     15  C   UNL     1     -32.937  12.709 -29.685  1.00  0.00     0.115 A 
ATOM     16  C   UNL     1     -34.258  12.200 -31.657  1.00  0.00     0.013 A 
ATOM     17  C   UNL     1     -34.172  12.687 -30.349  1.00  0.00     0.047 A 
BRANCH  15  18
ATOM     18  O   UNL     1     -32.865  13.203 -28.387  1.00  0.00    -0.508 OA
ATOM     19  H   UNL     1     -33.690  13.284 -27.804  1.00  0.00     0.293 HD
ENDBRANCH  15  18
ENDBRANCH   1  12
BRANCH  11  20
ATOM     20  C   UNL     1     -34.801  10.595 -38.490  1.00  0.00     0.188 C 
ATOM     21  C   UNL     1     -36.083  10.264 -37.698  1.00  0.00     0.179 C 
ATOM     22  O   UNL     1     -34.821  10.012 -39.787  1.00  0.00    -0.362 OA
ATOM     23  C   UNL     1     -37.298  10.792 -38.479  1.00  0.00     0.177 C 
ATOM     24  C   UNL     1     -35.897  10.483 -40.589  1.00  0.00     0.176 C 
ATOM     25  C   UNL     1     -37.280  10.264 -39.926  1.00  0.00     0.177 C 
BRANCH  21  26
ATOM     26  O   UNL     1     -36.183   8.875 -37.504  1.00  0.00    -0.387 OA
ATOM     27  H   UNL     1     -35.944   8.443 -38.369  1.00  0.00     0.211 HD
ENDBRANCH  21  26
BRANCH  23  28
ATOM     28  O   UNL     1     -38.498  10.420 -37.850  1.00  0.00    -0.387 OA
ATOM     29  H   UNL     1     -38.659  11.087 -37.131  1.00  0.00     0.211 HD
ENDBRANCH  23  28
BRANCH  24  30
ATOM     30  C   UNL     1     -35.672  11.930 -41.078  1.00  0.00     0.191 C 
BRANCH  30  31
ATOM     31  O   UNL     1     -36.872  12.656 -41.048  1.00  0.00    -0.394 OA
ATOM     32  H   UNL     1     -36.677  13.511 -40.582  1.00  0.00     0.210 HD
ENDBRANCH  30  31
ENDBRANCH  24  30
BRANCH  25  33
ATOM     33  O   UNL     1     -37.593   8.891 -39.955  1.00  0.00    -0.388 OA
ATOM     34  H   UNL     1     -37.591   8.574 -39.014  1.00  0.00     0.211 HD
ENDBRANCH  25  33
ENDBRANCH  11  20
BRANCH  10  35
ATOM     35  O   UNL     1     -32.736   8.876 -39.633  1.00  0.00    -0.507 OA
ATOM     36  H   UNL     1     -32.748   9.530 -40.406  1.00  0.00     0.293 HD
ENDBRANCH  10  35
TORSDOF 9
ENDMDL
MODEL 2
REMARK VINA RESULT:     3.753      0.932      1.781
REMARK INTER + INTRA:           5.906
REMARK INTER:                   2.518
REMARK INTRA:                   3.388
REMARK UNBOUND:                 0.836
REMARK SMILES O=c1c(-c2ccc(O)cc2)coc2c([C@H]3O[C@H](CO)[C@@H](O)[C@@H](O)[C@H]3O)c(O)ccc12
REMARK SMILES IDX 3 1 11 2 12 3 13 4 30 5 2 6 1 7 29 8 28 9 26 10 14 11 4 12
REMARK SMILES IDX 5 13 6 14 7 15 10 16 9 17 8 18 15 20 24 21 16 22 22 23 17 24
REMARK SMILES IDX 20 25 25 26 23 28 18 30 19 31 21 33 27 35
REMARK H PARENT 8 19 25 27 23 29 19 32 21 34 27 36
REMARK Flexibility Score: inf
ROOT
ATOM      1  C   UNL     1     -33.281  11.155 -33.321  1.00  0.00     0.065 A 
ATOM      2  C   UNL     1     -34.516  11.244 -33.974  1.00  0.00     0.208 A 
ATOM      3  O   UNL     1     -34.644  10.851 -35.234  1.00  0.00    -0.463 OA
ATOM      4  C   UNL     1     -33.642  10.335 -35.943  1.00  0.00     0.147 A 
ATOM      5  C   UNL     1     -32.367  10.185 -35.347  1.00  0.00     0.066 A 
ATOM      6  C   UNL     1     -32.191  10.618 -34.018  1.00  0.00     0.200 A 
ATOM      7  O   UNL     1     -31.066  10.521 -33.454  1.00  0.00    -0.288 OA
ATOM      8  C   UNL     1     -31.328   9.597 -36.080  1.00  0.00     0.020 A 
ATOM      9  C   UNL     1     -31.550   9.161 -37.384  1.00  0.00     0.047 A 
ATOM     10  C   UNL     1     -32.799   9.327 -37.993  1.00  0.00     0.125 A 
ATOM     11  C   UNL     1     -33.856   9.942 -37.284  1.00  0.00     0.069 A 
ENDROOT
BRANCH   1  12
ATOM     12  C   UNL     1     -33.155  11.632 -31.933  1.00  0.00    -0.011 A 
ATOM     13  C   UNL     1     -32.006  11.321 -31.184  1.00  0.00     0.013 A 
ATOM     14  C   UNL     1     -31.851  11.829 -29.890  1.00  0.00     0.047 A 
ATOM     15  C   UNL     1     -32.850  12.640 -29.330  1.00  0.00     0.115 A 
ATOM     16  C   UNL     1     -34.151  12.449 -31.370  1.00  0.00     0.013 A 
ATOM     17  C   UNL     1     -34.001  12.945 -30.071  1.00  0.00     0.047 A 
BRANCH  15  18
ATOM     18  O   UNL     1     -32.711  13.146 -28.041  1.00  0.00    -0.508 OA
ATOM     19  H   UNL     1     -32.399  12.563 -27.273  1.00  0.00     0.293 HD
ENDBRANCH  15  18
ENDBRANCH   1  12
BRANCH  11  20
ATOM     20  C   UNL     1     -35.233  10.121 -37.912  1.00  0.00     0.188 C 
ATOM     21  C   UNL     1     -35.323   9.333 -39.235  1.00  0.00     0.179 C 
ATOM     22  O   UNL     1     -35.519  11.501 -38.103  1.00  0.00    -0.362 OA
ATOM     23  C   UNL     1     -36.741   9.489 -39.811  1.00  0.00     0.177 C 
ATOM     24  C   UNL     1     -36.833  11.732 -38.597  1.00  0.00     0.176 C 
ATOM     25  C   UNL     1     -37.117  10.980 -39.920  1.00  0.00     0.177 C 
BRANCH  21  26
ATOM     26  O   UNL     1     -34.363   9.812 -40.145  1.00  0.00    -0.387 OA
ATOM     27  H   UNL     1     -34.131   9.054 -40.748  1.00  0.00     0.211 HD
ENDBRANCH  21  26
BRANCH  23  28
ATOM     28  O   UNL     1     -36.840   8.878 -41.071  1.00  0.00    -0.387 OA
ATOM     29  H   UNL     1     -37.375   8.051 -40.943  1.00  0.00     0.211 HD
ENDBRANCH  23  28
BRANCH  24  30
ATOM     30  C   UNL     1     -37.911  11.504 -37.516  1.00  0.00     0.191 C 
BRANCH  30  31
ATOM     31  O   UNL     1     -39.142  11.181 -38.105  1.00  0.00    -0.394 OA
ATOM     32  H   UNL     1     -38.956  10.961 -39.056  1.00  0.00     0.210 HD
ENDBRANCH  30  31
ENDBRANCH  24  30
BRANCH  25  33
ATOM     33  O   UNL     1     -36.399  11.594 -40.964  1.00  0.00    -0.388 OA
ATOM     34  H   UNL     1     -36.845  12.461 -41.151  1.00  0.00     0.211 HD
ENDBRANCH  25  33
ENDBRANCH  11  20
BRANCH  10  35
ATOM     35  O   UNL     1     -32.986   8.875 -39.299  1.00  0.00    -0.507 OA
ATOM     36  H   UNL     1     -33.881   8.945 -39.768  1.00  0.00     0.293 HD
ENDBRANCH  10  35
TORSDOF 9
ENDMDL
MODEL 3
REMARK VINA RESULT:     3.828      0.698      1.119
REMARK INTER + INTRA:           6.007
REMARK INTER:                   4.799
REMARK INTRA:                   1.209
REMARK UNBOUND:                 0.836
REMARK SMILES O=c1c(-c2ccc(O)cc2)coc2c([C@H]3O[C@H](CO)[C@@H](O)[C@@H](O)[C@H]3O)c(O)ccc12
REMARK SMILES IDX 3 1 11 2 12 3 13 4 30 5 2 6 1 7 29 8 28 9 26 10 14 11 4 12
REMARK SMILES IDX 5 13 6 14 7 15 10 16 9 17 8 18 15 20 24 21 16 22 22 23 17 24
REMARK SMILES IDX 20 25 25 26 23 28 18 30 19 31 21 33 27 35
REMARK H PARENT 8 19 25 27 23 29 19 32 21 34 27 36
REMARK Flexibility Score: inf
ROOT
ATOM      1  C   UNL     1     -33.102  11.222 -33.278  1.00  0.00     0.065 A 
ATOM      2  C   UNL     1     -34.169  11.539 -34.126  1.00  0.00     0.208 A 
ATOM      3  O   UNL     1     -34.155  11.167 -35.399  1.00  0.00    -0.463 OA
ATOM      4  C   UNL     1     -33.164  10.463 -35.942  1.00  0.00     0.147 A 
ATOM      5  C   UNL     1     -32.060  10.078 -35.144  1.00  0.00     0.066 A 
ATOM      6  C   UNL     1     -32.031  10.480 -33.795  1.00  0.00     0.200 A 
ATOM      7  O   UNL     1     -31.057  10.175 -33.053  1.00  0.00    -0.288 OA
ATOM      8  C   UNL     1     -31.043   9.295 -35.707  1.00  0.00     0.020 A 
ATOM      9  C   UNL     1     -31.120   8.898 -37.040  1.00  0.00     0.047 A 
ATOM     10  C   UNL     1     -32.194   9.294 -37.845  1.00  0.00     0.125 A 
ATOM     11  C   UNL     1     -33.219  10.106 -37.309  1.00  0.00     0.069 A 
ENDROOT
BRANCH   1  12
ATOM     12  C   UNL     1     -33.124  11.678 -31.877  1.00  0.00    -0.011 A 
ATOM     13  C   UNL     1     -34.349  11.816 -31.200  1.00  0.00     0.013 A 
ATOM     14  C   UNL     1     -34.370  12.181 -29.851  1.00  0.00     0.047 A 
ATOM     15  C   UNL     1     -33.166  12.426 -29.171  1.00  0.00     0.115 A 
ATOM     16  C   UNL     1     -31.920  11.919 -31.191  1.00  0.00     0.013 A 
ATOM     17  C   UNL     1     -31.943  12.298 -29.845  1.00  0.00     0.047 A 
BRANCH  15  18
ATOM     18  O   UNL     1     -33.174  12.797 -27.830  1.00  0.00    -0.508 OA
ATOM     19  H   UNL     1     -32.607  12.314 -27.143  1.00  0.00     0.293 HD
ENDBRANCH  15  18
ENDBRANCH   1  12
BRANCH  11  20
ATOM     20  C   UNL     1     -34.412  10.539 -38.154  1.00  0.00     0.188 C 
ATOM     21  C   UNL     1     -35.647  10.764 -37.257  1.00  0.00     0.179 C 
ATOM     22  O   UNL     1     -34.672   9.583 -39.175  1.00  0.00    -0.362 OA
ATOM     23  C   UNL     1     -36.813  11.253 -38.133  1.00  0.00     0.177 C 
ATOM     24  C   UNL     1     -35.715   9.983 -40.055  1.00  0.00     0.176 C 
ATOM     25  C   UNL     1     -37.040  10.291 -39.315  1.00  0.00     0.177 C 
BRANCH  21  26
ATOM     26  O   UNL     1     -35.988   9.569 -36.600  1.00  0.00    -0.387 OA
ATOM     27  H   UNL     1     -35.170   9.253 -36.128  1.00  0.00     0.211 HD
ENDBRANCH  21  26
BRANCH  23  28
ATOM     28  O   UNL     1     -37.991  11.370 -37.378  1.00  0.00    -0.387 OA
ATOM     29  H   UNL     1     -38.742  11.405 -38.029  1.00  0.00     0.211 HD
ENDBRANCH  23  28
BRANCH  24  30
ATOM     30  C   UNL     1     -35.270  11.110 -41.013  1.00  0.00     0.191 C 
BRANCH  30  31
ATOM     31  O   UNL     1     -36.269  12.088 -41.125  1.00  0.00    -0.394 OA
ATOM     32  H   UNL     1     -36.424  12.228 -42.096  1.00  0.00     0.210 HD
ENDBRANCH  30  31
ENDBRANCH  24  30
BRANCH  25  33
ATOM     33  O   UNL     1     -37.609   9.084 -38.865  1.00  0.00    -0.388 OA
ATOM     34  H   UNL     1     -36.887   8.402 -38.878  1.00  0.00     0.211 HD
ENDBRANCH  25  33
ENDBRANCH  11  20
BRANCH  10  35
ATOM     35  O   UNL     1     -32.240   8.875 -39.174  1.00  0.00    -0.507 OA
ATOM     36  H   UNL     1     -31.404   8.795 -39.741  1.00  0.00     0.293 HD
ENDBRANCH  10  35
TORSDOF 9
ENDMDL
MODEL 4
REMARK VINA RESULT:     4.036      1.486      2.381
REMARK INTER + INTRA:           6.288
REMARK INTER:                   2.611
REMARK INTRA:                   3.677
REMARK UNBOUND:                 0.836
REMARK SMILES O=c1c(-c2ccc(O)cc2)coc2c([C@H]3O[C@H](CO)[C@@H](O)[C@@H](O)[C@H]3O)c(O)ccc12
REMARK SMILES IDX 3 1 11 2 12 3 13 4 30 5 2 6 1 7 29 8 28 9 26 10 14 11 4 12
REMARK SMILES IDX 5 13 6 14 7 15 10 16 9 17 8 18 15 20 24 21 16 22 22 23 17 24
REMARK SMILES IDX 20 25 25 26 23 28 18 30 19 31 21 33 27 35
REMARK H PARENT 8 19 25 27 23 29 19 32 21 34 27 36
REMARK Flexibility Score: inf
ROOT
ATOM      1  C   UNL     1     -33.626  10.619 -34.894  1.00  0.00     0.065 A 
ATOM      2  C   UNL     1     -34.946  10.794 -35.322  1.00  0.00     0.208 A 
ATOM      3  O   UNL     1     -35.293  10.518 -36.572  1.00  0.00    -0.463 OA
ATOM      4  C   UNL     1     -34.440  10.045 -37.479  1.00  0.00     0.147 A 
ATOM      5  C   UNL     1     -33.091   9.813 -37.117  1.00  0.00     0.066 A 
ATOM      6  C   UNL     1     -32.684  10.121 -35.805  1.00  0.00     0.200 A 
ATOM      7  O   UNL     1     -31.487   9.949 -35.444  1.00  0.00    -0.288 OA
ATOM      8  C   UNL     1     -32.209   9.269 -38.059  1.00  0.00     0.020 A 
ATOM      9  C   UNL     1     -32.656   8.956 -39.341  1.00  0.00     0.047 A 
ATOM     10  C   UNL     1     -33.982   9.204 -39.718  1.00  0.00     0.125 A 
ATOM     11  C   UNL     1     -34.885   9.778 -38.794  1.00  0.00     0.069 A 
ENDROOT
BRANCH   1  12
ATOM     12  C   UNL     1     -33.256  10.967 -33.510  1.00  0.00    -0.011 A 
ATOM     13  C   UNL     1     -33.839  12.084 -32.886  1.00  0.00     0.013 A 
ATOM     14  C   UNL     1     -33.544  12.378 -31.551  1.00  0.00     0.047 A 
ATOM     15  C   UNL     1     -32.653  11.565 -30.833  1.00  0.00     0.115 A 
ATOM     16  C   UNL     1     -32.368  10.152 -32.787  1.00  0.00     0.013 A 
ATOM     17  C   UNL     1     -32.063  10.455 -31.456  1.00  0.00     0.047 A 
BRANCH  15  18
ATOM     18  O   UNL     1     -32.345  11.850 -29.507  1.00  0.00    -0.508 OA
ATOM     19  H   UNL     1     -32.017  12.765 -29.224  1.00  0.00     0.293 HD
ENDBRANCH  15  18
ENDBRANCH   1  12
BRANCH  11  20
ATOM     20  C   UNL     1     -36.339  10.043 -39.167  1.00  0.00     0.188 C 
ATOM     21  C   UNL     1     -36.813  11.376 -38.552  1.00  0.00     0.179 C 
ATOM     22  O   UNL     1     -37.163   8.957 -38.762  1.00  0.00    -0.362 OA
ATOM     23  C   UNL     1     -38.262  11.639 -38.994  1.00  0.00     0.177 C 
ATOM     24  C   UNL     1     -38.517   9.106 -39.171  1.00  0.00     0.176 C 
ATOM     25  C   UNL     1     -39.154  10.425 -38.668  1.00  0.00     0.177 C 
BRANCH  21  26
ATOM     26  O   UNL     1     -36.725  11.317 -37.150  1.00  0.00    -0.387 OA
ATOM     27  H   UNL     1     -36.754  12.254 -36.816  1.00  0.00     0.211 HD
ENDBRANCH  21  26
BRANCH  23  28
ATOM     28  O   UNL     1     -38.774  12.789 -38.372  1.00  0.00    -0.387 OA
ATOM     29  H   UNL     1     -38.016  13.212 -37.889  1.00  0.00     0.211 HD
ENDBRANCH  23  28
BRANCH  24  30
ATOM     30  C   UNL     1     -38.698   8.875 -40.686  1.00  0.00     0.191 C 
BRANCH  30  31
ATOM     31  O   UNL     1     -39.926   9.392 -41.124  1.00  0.00    -0.394 OA
ATOM     32  H   UNL     1     -40.610   9.096 -40.467  1.00  0.00     0.210 HD
ENDBRANCH  30  31
ENDBRANCH  24  30
BRANCH  25  33
ATOM     33  O   UNL     1     -39.372  10.333 -37.280  1.00  0.00    -0.388 OA
ATOM     34  H   UNL     1     -39.550   9.377 -37.078  1.00  0.00     0.211 HD
ENDBRANCH  25  33
ENDBRANCH  11  20
BRANCH  10  35
ATOM     35  O   UNL     1     -34.396   8.876 -41.007  1.00  0.00    -0.507 OA
ATOM     36  H   UNL     1     -34.088   9.397 -41.819  1.00  0.00     0.293 HD
ENDBRANCH  10  35
TORSDOF 9
ENDMDL
