MODEL 1
REMARK VINA RESULT:    -3.962      0.000      0.000
REMARK INTER + INTRA:          -6.813
REMARK INTER:                  -6.046
REMARK INTRA:                  -0.767
REMARK UNBOUND:                -0.767
REMARK SMILES CCCCCCCCCCC(=O)[O-]
REMARK SMILES IDX 7 1 8 2 9 3 10 4 11 5 12 6 13 7 6 8 5 9 4 10 3 11 2 12 1 13
REMARK H PARENT
REMARK Flexibility Score: inf
ROOT
ATOM      1  C   UNL     1     -32.468  13.036  14.194  1.00  0.00     0.000 C 
ENDROOT
BRANCH   1   2
ATOM      2  C   UNL     1     -31.989  11.764  13.480  1.00  0.00     0.000 C 
BRANCH   2   3
ATOM      3  C   UNL     1     -30.744  12.002  12.607  1.00  0.00     0.006 C 
BRANCH   3   4
ATOM      4  C   UNL     1     -29.408  11.752  13.326  1.00  0.00     0.053 C 
BRANCH   4   5
ATOM      5  C   UNL     1     -28.837  10.407  12.994  1.00  0.00     0.041 C 
ATOM      6  O   UNL     1     -27.705  10.075  13.432  1.00  0.00    -0.550 OA
ATOM      7  O   UNL     1     -29.570   9.511  12.227  1.00  0.00    -0.550 OA
ENDBRANCH   4   5
ENDBRANCH   3   4
ENDBRANCH   2   3
ENDBRANCH   1   2
BRANCH   1   8
ATOM      8  C   UNL     1     -32.272  14.272  13.307  1.00  0.00     0.000 C 
BRANCH   8   9
ATOM      9  C   UNL     1     -31.191  15.229  13.841  1.00  0.00    -0.000 C 
BRANCH   9  10
ATOM     10  C   UNL     1     -30.595  14.793  15.196  1.00  0.00    -0.000 C 
BRANCH  10  11
ATOM     11  C   UNL     1     -29.059  14.810  15.186  1.00  0.00    -0.000 C 
BRANCH  11  12
ATOM     12  C   UNL     1     -28.507  15.351  16.511  1.00  0.00    -0.003 C 
ATOM     13  C   UNL     1     -29.635  15.697  17.478  1.00  0.00     0.004 C 
ENDBRANCH  11  12
ENDBRANCH  10  11
ENDBRANCH   9  10
ENDBRANCH   8   9
ENDBRANCH   1   8
TORSDOF 9
ENDMDL
MODEL 2
REMARK VINA RESULT:    -3.939      1.445      1.883
REMARK INTER + INTRA:          -6.779
REMARK INTER:                  -5.518
REMARK INTRA:                  -1.261
REMARK UNBOUND:                -0.767
REMARK SMILES CCCCCCCCCCC(=O)[O-]
REMARK SMILES IDX 7 1 8 2 9 3 10 4 11 5 12 6 13 7 6 8 5 9 4 10 3 11 2 12 1 13
REMARK H PARENT
REMARK Flexibility Score: inf
ROOT
ATOM      1  C   UNL     1     -33.771  12.044  14.278  1.00  0.00     0.000 C 
ENDROOT
BRANCH   1   2
ATOM      2  C   UNL     1     -32.592  11.068  14.404  1.00  0.00     0.000 C 
BRANCH   2   3
ATOM      3  C   UNL     1     -32.058  10.596  13.040  1.00  0.00     0.006 C 
BRANCH   3   4
ATOM      4  C   UNL     1     -30.786  11.321  12.572  1.00  0.00     0.053 C 
BRANCH   4   5
ATOM      5  C   UNL     1     -29.684  10.362  12.243  1.00  0.00     0.041 C 
ATOM      6  O   UNL     1     -28.493  10.636  12.548  1.00  0.00    -0.550 OA
ATOM      7  O   UNL     1     -29.977   9.151  11.628  1.00  0.00    -0.550 OA
ENDBRANCH   4   5
ENDBRANCH   3   4
ENDBRANCH   2   3
ENDBRANCH   1   2
BRANCH   1   8
ATOM      8  C   UNL     1     -33.337  13.478  14.612  1.00  0.00     0.000 C 
BRANCH   8   9
ATOM      9  C   UNL     1     -32.970  14.299  13.363  1.00  0.00    -0.000 C 
BRANCH   9  10
ATOM     10  C   UNL     1     -31.509  14.796  13.358  1.00  0.00    -0.000 C 
BRANCH  10  11
ATOM     11  C   UNL     1     -30.905  14.840  14.769  1.00  0.00    -0.000 C 
BRANCH  11  12
ATOM     12  C   UNL     1     -29.597  14.043  14.833  1.00  0.00    -0.003 C 
ATOM     13  C   UNL     1     -29.680  12.927  15.869  1.00  0.00     0.004 C 
ENDBRANCH  11  12
ENDBRANCH  10  11
ENDBRANCH   9  10
ENDBRANCH   8   9
ENDBRANCH   1   8
TORSDOF 9
ENDMDL
MODEL 3
REMARK VINA RESULT:    -3.894      2.512      4.702
REMARK INTER + INTRA:          -6.710
REMARK INTER:                  -5.435
REMARK INTRA:                  -1.275
REMARK UNBOUND:                -0.767
REMARK SMILES CCCCCCCCCCC(=O)[O-]
REMARK SMILES IDX 7 1 8 2 9 3 10 4 11 5 12 6 13 7 6 8 5 9 4 10 3 11 2 12 1 13
REMARK H PARENT
REMARK Flexibility Score: inf
ROOT
ATOM      1  C   UNL     1     -33.281  13.763  13.795  1.00  0.00     0.000 C 
ENDROOT
BRANCH   1   2
ATOM      2  C   UNL     1     -32.029  14.227  13.037  1.00  0.00     0.000 C 
BRANCH   2   3
ATOM      3  C   UNL     1     -31.116  15.130  13.886  1.00  0.00     0.006 C 
BRANCH   3   4
ATOM      4  C   UNL     1     -30.660  14.500  15.212  1.00  0.00     0.053 C 
BRANCH   4   5
ATOM      5  C   UNL     1     -29.314  15.003  15.636  1.00  0.00     0.041 C 
ATOM      6  O   UNL     1     -28.318  14.865  14.879  1.00  0.00    -0.550 OA
ATOM      7  O   UNL     1     -29.168  15.652  16.856  1.00  0.00    -0.550 OA
ENDBRANCH   4   5
ENDBRANCH   3   4
ENDBRANCH   2   3
ENDBRANCH   1   2
BRANCH   1   8
ATOM      8  C   UNL     1     -33.449  12.241  13.702  1.00  0.00     0.000 C 
BRANCH   8   9
ATOM      9  C   UNL     1     -32.738  11.489  14.841  1.00  0.00    -0.000 C 
BRANCH   9  10
ATOM     10  C   UNL     1     -31.474  10.730  14.385  1.00  0.00    -0.000 C 
BRANCH  10  11
ATOM     11  C   UNL     1     -31.436  10.527  12.863  1.00  0.00    -0.000 C 
BRANCH  11  12
ATOM     12  C   UNL     1     -30.215  11.221  12.246  1.00  0.00    -0.003 C 
ATOM     13  C   UNL     1     -29.210  11.625  13.320  1.00  0.00     0.004 C 
ENDBRANCH  11  12
ENDBRANCH  10  11
ENDBRANCH   9  10
ENDBRANCH   8   9
ENDBRANCH   1   8
TORSDOF 9
ENDMDL
MODEL 4
REMARK VINA RESULT:    -3.878      1.703      2.701
REMARK INTER + INTRA:          -6.685
REMARK INTER:                  -5.762
REMARK INTRA:                  -0.924
REMARK UNBOUND:                -0.767
REMARK SMILES CCCCCCCCCCC(=O)[O-]
REMARK SMILES IDX 7 1 8 2 9 3 10 4 11 5 12 6 13 7 6 8 5 9 4 10 3 11 2 12 1 13
REMARK H PARENT
REMARK Flexibility Score: inf
ROOT
ATOM      1  C   UNL     1     -32.941  10.596  13.157  1.00  0.00     0.000 C 
ENDROOT
BRANCH   1   2
ATOM      2  C   UNL     1     -31.427  10.590  12.907  1.00  0.00     0.000 C 
BRANCH   2   3
ATOM      3  C   UNL     1     -30.633   9.956  14.063  1.00  0.00     0.006 C 
BRANCH   3   4
ATOM      4  C   UNL     1     -29.471  10.819  14.582  1.00  0.00     0.053 C 
BRANCH   4   5
ATOM      5  C   UNL     1     -28.732  11.491  13.466  1.00  0.00     0.041 C 
ATOM      6  O   UNL     1     -28.602  12.743  13.456  1.00  0.00    -0.550 OA
ATOM      7  O   UNL     1     -28.159  10.731  12.454  1.00  0.00    -0.550 OA
ENDBRANCH   4   5
ENDBRANCH   3   4
ENDBRANCH   2   3
ENDBRANCH   1   2
BRANCH   1   8
ATOM      8  C   UNL     1     -33.360  11.823  13.978  1.00  0.00     0.000 C 
BRANCH   8   9
ATOM      9  C   UNL     1     -33.978  12.938  13.117  1.00  0.00    -0.000 C 
BRANCH   9  10
ATOM     10  C   UNL     1     -33.279  14.305  13.281  1.00  0.00    -0.000 C 
BRANCH  10  11
ATOM     11  C   UNL     1     -31.754  14.199  13.125  1.00  0.00    -0.000 C 
BRANCH  11  12
ATOM     12  C   UNL     1     -31.033  14.992  14.221  1.00  0.00    -0.003 C 
ATOM     13  C   UNL     1     -31.297  14.394  15.599  1.00  0.00     0.004 C 
ENDBRANCH  11  12
ENDBRANCH  10  11
ENDBRANCH   9  10
ENDBRANCH   8   9
ENDBRANCH   1   8
TORSDOF 9
ENDMDL
MODEL 5
REMARK VINA RESULT:    -3.859      3.004      4.972
REMARK INTER + INTRA:          -6.657
REMARK INTER:                  -6.103
REMARK INTRA:                  -0.554
REMARK UNBOUND:                -0.767
REMARK SMILES CCCCCCCCCCC(=O)[O-]
REMARK SMILES IDX 7 1 8 2 9 3 10 4 11 5 12 6 13 7 6 8 5 9 4 10 3 11 2 12 1 13
REMARK H PARENT
REMARK Flexibility Score: inf
ROOT
ATOM      1  C   UNL     1     -30.222  15.058  16.910  1.00  0.00     0.000 C 
ENDROOT
BRANCH   1   2
ATOM      2  C   UNL     1     -29.126  15.005  15.835  1.00  0.00     0.000 C 
BRANCH   2   3
ATOM      3  C   UNL     1     -29.678  14.686  14.435  1.00  0.00     0.006 C 
BRANCH   3   4
ATOM      4  C   UNL     1     -31.211  14.731  14.333  1.00  0.00     0.053 C 
BRANCH   4   5
ATOM      5  C   UNL     1     -31.704  14.150  13.043  1.00  0.00     0.041 C 
ATOM      6  O   UNL     1     -32.933  14.165  12.770  1.00  0.00    -0.550 OA
ATOM      7  O   UNL     1     -30.802  13.620  12.130  1.00  0.00    -0.550 OA
ENDBRANCH   4   5
ENDBRANCH   3   4
ENDBRANCH   2   3
ENDBRANCH   1   2
BRANCH   1   8
ATOM      8  C   UNL     1     -29.723  15.780  18.169  1.00  0.00     0.000 C 
BRANCH   8   9
ATOM      9  C   UNL     1     -28.195  15.714  18.333  1.00  0.00    -0.000 C 
BRANCH   9  10
ATOM     10  C   UNL     1     -27.639  16.723  19.361  1.00  0.00    -0.000 C 
BRANCH  10  11
ATOM     11  C   UNL     1     -28.666  17.805  19.725  1.00  0.00    -0.000 C 
BRANCH  11  12
ATOM     12  C   UNL     1     -28.857  17.892  21.245  1.00  0.00    -0.003 C 
ATOM     13  C   UNL     1     -30.173  17.251  21.673  1.00  0.00     0.004 C 
ENDBRANCH  11  12
ENDBRANCH  10  11
ENDBRANCH   9  10
ENDBRANCH   8   9
ENDBRANCH   1   8
TORSDOF 9
ENDMDL
MODEL 6
REMARK VINA RESULT:    -3.842      3.203      4.997
REMARK INTER + INTRA:          -6.630
REMARK INTER:                  -5.441
REMARK INTRA:                  -1.189
REMARK UNBOUND:                -0.767
REMARK SMILES CCCCCCCCCCC(=O)[O-]
REMARK SMILES IDX 7 1 8 2 9 3 10 4 11 5 12 6 13 7 6 8 5 9 4 10 3 11 2 12 1 13
REMARK H PARENT
REMARK Flexibility Score: inf
ROOT
ATOM      1  C   UNL     1     -32.107  12.807  16.433  1.00  0.00     0.000 C 
ENDROOT
BRANCH   1   2
ATOM      2  C   UNL     1     -31.257  14.021  16.834  1.00  0.00     0.000 C 
BRANCH   2   3
ATOM      3  C   UNL     1     -29.745  13.748  16.742  1.00  0.00     0.006 C 
BRANCH   3   4
ATOM      4  C   UNL     1     -28.933  14.889  16.108  1.00  0.00     0.053 C 
BRANCH   4   5
ATOM      5  C   UNL     1     -28.204  15.697  17.137  1.00  0.00     0.041 C 
ATOM      6  O   UNL     1     -26.975  15.510  17.335  1.00  0.00    -0.550 OA
ATOM      7  O   UNL     1     -28.877  16.678  17.855  1.00  0.00    -0.550 OA
ENDBRANCH   4   5
ENDBRANCH   3   4
ENDBRANCH   2   3
ENDBRANCH   1   2
BRANCH   1   8
ATOM      8  C   UNL     1     -33.374  13.244  15.686  1.00  0.00     0.000 C 
BRANCH   8   9
ATOM      9  C   UNL     1     -33.266  13.057  14.162  1.00  0.00    -0.000 C 
BRANCH   9  10
ATOM     10  C   UNL     1     -32.801  14.326  13.416  1.00  0.00    -0.000 C 
BRANCH  10  11
ATOM     11  C   UNL     1     -31.291  14.314  13.136  1.00  0.00    -0.000 C 
BRANCH  11  12
ATOM     12  C   UNL     1     -30.846  12.957  12.579  1.00  0.00    -0.003 C 
ATOM     13  C   UNL     1     -29.655  12.406  13.358  1.00  0.00     0.004 C 
ENDBRANCH  11  12
ENDBRANCH  10  11
ENDBRANCH   9  10
ENDBRANCH   8   9
ENDBRANCH   1   8
TORSDOF 9
ENDMDL
MODEL 7
REMARK VINA RESULT:    -3.772      1.572      2.375
REMARK INTER + INTRA:          -6.524
REMARK INTER:                  -5.288
REMARK INTRA:                  -1.236
REMARK UNBOUND:                -0.767
REMARK SMILES CCCCCCCCCCC(=O)[O-]
REMARK SMILES IDX 7 1 8 2 9 3 10 4 11 5 12 6 13 7 6 8 5 9 4 10 3 11 2 12 1 13
REMARK H PARENT
REMARK Flexibility Score: inf
ROOT
ATOM      1  C   UNL     1     -32.604  14.400  13.428  1.00  0.00     0.000 C 
ENDROOT
BRANCH   1   2
ATOM      2  C   UNL     1     -31.136  14.336  12.984  1.00  0.00     0.000 C 
BRANCH   2   3
ATOM      3  C   UNL     1     -30.596  12.897  12.911  1.00  0.00     0.006 C 
BRANCH   3   4
ATOM      4  C   UNL     1     -29.382  12.629  13.815  1.00  0.00     0.053 C 
BRANCH   4   5
ATOM      5  C   UNL     1     -28.786  11.277  13.566  1.00  0.00     0.041 C 
ATOM      6  O   UNL     1     -28.624  10.472  14.520  1.00  0.00    -0.550 OA
ATOM      7  O   UNL     1     -28.439  10.898  12.276  1.00  0.00    -0.550 OA
ENDBRANCH   4   5
ENDBRANCH   3   4
ENDBRANCH   2   3
ENDBRANCH   1   2
BRANCH   1   8
ATOM      8  C   UNL     1     -33.258  13.013  13.370  1.00  0.00     0.000 C 
BRANCH   8   9
ATOM      9  C   UNL     1     -33.609  12.457  14.761  1.00  0.00    -0.000 C 
BRANCH   9  10
ATOM     10  C   UNL     1     -32.981  13.255  15.923  1.00  0.00    -0.000 C 
BRANCH  10  11
ATOM     11  C   UNL     1     -31.946  12.429  16.701  1.00  0.00    -0.000 C 
BRANCH  11  12
ATOM     12  C   UNL     1     -30.781  13.309  17.172  1.00  0.00    -0.003 C 
ATOM     13  C   UNL     1     -30.953  14.750  16.701  1.00  0.00     0.004 C 
ENDBRANCH  11  12
ENDBRANCH  10  11
ENDBRANCH   9  10
ENDBRANCH   8   9
ENDBRANCH   1   8
TORSDOF 9
ENDMDL
MODEL 8
REMARK VINA RESULT:    -3.761      1.116      2.110
REMARK INTER + INTRA:          -6.507
REMARK INTER:                  -5.911
REMARK INTRA:                  -0.595
REMARK UNBOUND:                -0.767
REMARK SMILES CCCCCCCCCCC(=O)[O-]
REMARK SMILES IDX 7 1 8 2 9 3 10 4 11 5 12 6 13 7 6 8 5 9 4 10 3 11 2 12 1 13
REMARK H PARENT
REMARK Flexibility Score: inf
ROOT
ATOM      1  C   UNL     1     -31.163  15.095  14.030  1.00  0.00     0.000 C 
ENDROOT
BRANCH   1   2
ATOM      2  C   UNL     1     -31.818  13.958  13.232  1.00  0.00     0.000 C 
BRANCH   2   3
ATOM      3  C   UNL     1     -30.794  13.086  12.484  1.00  0.00     0.006 C 
BRANCH   3   4
ATOM      4  C   UNL     1     -30.820  11.600  12.878  1.00  0.00     0.053 C 
BRANCH   4   5
ATOM      5  C   UNL     1     -29.519  10.919  12.582  1.00  0.00     0.041 C 
ATOM      6  O   UNL     1     -28.430  11.494  12.842  1.00  0.00    -0.550 OA
ATOM      7  O   UNL     1     -29.512   9.637  12.047  1.00  0.00    -0.550 OA
ENDBRANCH   4   5
ENDBRANCH   3   4
ENDBRANCH   2   3
ENDBRANCH   1   2
BRANCH   1   8
ATOM      8  C   UNL     1     -30.812  14.638  15.452  1.00  0.00     0.000 C 
BRANCH   8   9
ATOM      9  C   UNL     1     -29.336  14.232  15.605  1.00  0.00    -0.000 C 
BRANCH   9  10
ATOM     10  C   UNL     1     -28.470  15.302  16.302  1.00  0.00    -0.000 C 
BRANCH  10  11
ATOM     11  C   UNL     1     -29.203  15.968  17.476  1.00  0.00    -0.000 C 
BRANCH  11  12
ATOM     12  C   UNL     1     -29.039  15.148  18.762  1.00  0.00    -0.003 C 
ATOM     13  C   UNL     1     -27.592  14.705  18.953  1.00  0.00     0.004 C 
ENDBRANCH  11  12
ENDBRANCH  10  11
ENDBRANCH   9  10
ENDBRANCH   8   9
ENDBRANCH   1   8
TORSDOF 9
ENDMDL
MODEL 9
REMARK VINA RESULT:    -3.651      2.641      3.372
REMARK INTER + INTRA:          -6.340
REMARK INTER:                  -5.789
REMARK INTRA:                  -0.550
REMARK UNBOUND:                -0.767
REMARK SMILES CCCCCCCCCCC(=O)[O-]
REMARK SMILES IDX 7 1 8 2 9 3 10 4 11 5 12 6 13 7 6 8 5 9 4 10 3 11 2 12 1 13
REMARK H PARENT
REMARK Flexibility Score: inf
ROOT
ATOM      1  C   UNL     1     -33.189  13.242  15.974  1.00  0.00     0.000 C 
ENDROOT
BRANCH   1   2
ATOM      2  C   UNL     1     -33.172  12.599  14.580  1.00  0.00     0.000 C 
BRANCH   2   3
ATOM      3  C   UNL     1     -33.341  13.626  13.446  1.00  0.00     0.006 C 
BRANCH   3   4
ATOM      4  C   UNL     1     -32.271  14.729  13.427  1.00  0.00     0.053 C 
BRANCH   4   5
ATOM      5  C   UNL     1     -30.912  14.185  13.108  1.00  0.00     0.041 C 
ATOM      6  O   UNL     1     -29.946  14.398  13.886  1.00  0.00    -0.550 OA
ATOM      7  O   UNL     1     -30.722  13.417  11.966  1.00  0.00    -0.550 OA
ENDBRANCH   4   5
ENDBRANCH   3   4
ENDBRANCH   2   3
ENDBRANCH   1   2
BRANCH   1   8
ATOM      8  C   UNL     1     -31.801  13.178  16.626  1.00  0.00     0.000 C 
BRANCH   8   9
ATOM      9  C   UNL     1     -31.536  14.349  17.589  1.00  0.00    -0.000 C 
BRANCH   9  10
ATOM     10  C   UNL     1     -30.048  14.518  17.961  1.00  0.00    -0.000 C 
BRANCH  10  11
ATOM     11  C   UNL     1     -29.486  15.872  17.502  1.00  0.00    -0.000 C 
BRANCH  11  12
ATOM     12  C   UNL     1     -28.447  16.402  18.497  1.00  0.00    -0.003 C 
ATOM     13  C   UNL     1     -28.885  17.735  19.094  1.00  0.00     0.004 C 
ENDBRANCH  11  12
ENDBRANCH  10  11
ENDBRANCH   9  10
ENDBRANCH   8   9
ENDBRANCH   1   8
TORSDOF 9
ENDMDL
