MODEL 1
REMARK VINA RESULT:    -4.385      0.000      0.000
REMARK INTER + INTRA:         -10.818
REMARK INTER:                  -8.486
REMARK INTRA:                  -2.333
REMARK UNBOUND:                -2.333
REMARK SMILES CCCCCC=CCC=CCCCCCCCCOC(C)=O
REMARK SMILES IDX 12 1 11 2 10 3 9 4 8 5 7 6 6 7 5 8 4 9 3 10 2 11 1 12 13 13
REMARK SMILES IDX 14 14 15 15 16 16 17 17 18 18 19 19 20 20 22 21 21 22
REMARK H PARENT
REMARK Flexibility Score: inf
ROOT
ATOM      1  C   UNL     1      -1.751 -25.542  -7.282  1.00  0.00     0.004 C 
ENDROOT
BRANCH   1   2
ATOM      2  C   UNL     1      -1.122 -24.831  -8.488  1.00  0.00     0.027 C 
BRANCH   2   3
ATOM      3  C   UNL     1      -1.775 -23.499  -8.764  1.00  0.00    -0.031 C 
ATOM      4  C   UNL     1      -1.709 -22.810  -9.920  1.00  0.00    -0.027 C 
BRANCH   4   5
ATOM      5  C   UNL     1      -0.993 -23.260 -11.171  1.00  0.00     0.054 C 
BRANCH   5   6
ATOM      6  C   UNL     1      -0.679 -22.076 -12.048  1.00  0.00    -0.027 C 
ATOM      7  C   UNL     1       0.516 -21.461 -12.101  1.00  0.00    -0.031 C 
BRANCH   7   8
ATOM      8  C   UNL     1       1.739 -21.873 -11.314  1.00  0.00     0.027 C 
BRANCH   8   9
ATOM      9  C   UNL     1       2.009 -20.902 -10.157  1.00  0.00     0.004 C 
BRANCH   9  10
ATOM     10  C   UNL     1       1.571 -21.484  -8.802  1.00  0.00     0.000 C 
BRANCH  10  11
ATOM     11  C   UNL     1       0.703 -20.509  -7.993  1.00  0.00    -0.003 C 
ATOM     12  C   UNL     1      -0.194 -19.644  -8.880  1.00  0.00     0.004 C 
ENDBRANCH  10  11
ENDBRANCH   9  10
ENDBRANCH   8   9
ENDBRANCH   7   8
ENDBRANCH   5   6
ENDBRANCH   4   5
ENDBRANCH   2   3
ENDBRANCH   1   2
BRANCH   1  13
ATOM     13  C   UNL     1      -2.051 -27.024  -7.563  1.00  0.00     0.000 C 
BRANCH  13  14
ATOM     14  C   UNL     1      -1.371 -27.962  -6.553  1.00  0.00     0.000 C 
BRANCH  14  15
ATOM     15  C   UNL     1      -0.488 -29.022  -7.233  1.00  0.00     0.000 C 
BRANCH  15  16
ATOM     16  C   UNL     1       0.769 -28.402  -7.881  1.00  0.00     0.003 C 
BRANCH  16  17
ATOM     17  C   UNL     1       0.932 -28.750  -9.369  1.00  0.00     0.042 C 
BRANCH  17  18
ATOM     18  C   UNL     1      -0.342 -29.334  -9.992  1.00  0.00     0.233 C 
BRANCH  18  19
ATOM     19  O   UNL     1      -0.075 -30.609 -10.572  1.00  0.00    -0.466 OA
BRANCH  19  20
ATOM     20  C   UNL     1       0.153 -31.766  -9.819  1.00  0.00     0.302 C 
ATOM     21  O   UNL     1       1.282 -32.329  -9.824  1.00  0.00    -0.253 OA
ATOM     22  C   UNL     1      -0.941 -32.317  -8.969  1.00  0.00     0.139 C 
ENDBRANCH  19  20
ENDBRANCH  18  19
ENDBRANCH  17  18
ENDBRANCH  16  17
ENDBRANCH  15  16
ENDBRANCH  14  15
ENDBRANCH  13  14
ENDBRANCH   1  13
TORSDOF 16
ENDMDL
MODEL 2
REMARK VINA RESULT:    -4.321      1.587      3.464
REMARK INTER + INTRA:         -10.696
REMARK INTER:                  -8.251
REMARK INTRA:                  -2.445
REMARK UNBOUND:                -2.333
REMARK SMILES CCCCCC=CCC=CCCCCCCCCOC(C)=O
REMARK SMILES IDX 12 1 11 2 10 3 9 4 8 5 7 6 6 7 5 8 4 9 3 10 2 11 1 12 13 13
REMARK SMILES IDX 14 14 15 15 16 16 17 17 18 18 19 19 20 20 22 21 21 22
REMARK H PARENT
REMARK Flexibility Score: inf
ROOT
ATOM      1  C   UNL     1       0.957 -28.380  -9.292  1.00  0.00     0.004 C 
ENDROOT
BRANCH   1   2
ATOM      2  C   UNL     1       0.725 -26.889  -9.574  1.00  0.00     0.027 C 
BRANCH   2   3
ATOM      3  C   UNL     1      -0.680 -26.615 -10.054  1.00  0.00    -0.031 C 
ATOM      4  C   UNL     1      -1.601 -25.869  -9.415  1.00  0.00    -0.027 C 
BRANCH   4   5
ATOM      5  C   UNL     1      -1.390 -25.139  -8.110  1.00  0.00     0.054 C 
BRANCH   5   6
ATOM      6  C   UNL     1      -1.828 -23.704  -8.238  1.00  0.00    -0.027 C 
ATOM      7  C   UNL     1      -1.080 -22.722  -8.774  1.00  0.00    -0.031 C 
BRANCH   7   8
ATOM      8  C   UNL     1       0.302 -22.906  -9.356  1.00  0.00     0.027 C 
BRANCH   8   9
ATOM      9  C   UNL     1       0.250 -23.028 -10.885  1.00  0.00     0.004 C 
BRANCH   9  10
ATOM     10  C   UNL     1      -0.750 -22.039 -11.508  1.00  0.00     0.000 C 
BRANCH  10  11
ATOM     11  C   UNL     1      -1.452 -22.612 -12.748  1.00  0.00    -0.003 C 
ATOM     12  C   UNL     1      -1.857 -24.076 -12.572  1.00  0.00     0.004 C 
ENDBRANCH  10  11
ENDBRANCH   9  10
ENDBRANCH   8   9
ENDBRANCH   7   8
ENDBRANCH   5   6
ENDBRANCH   4   5
ENDBRANCH   2   3
ENDBRANCH   1   2
BRANCH   1  13
ATOM     13  C   UNL     1       1.008 -28.694  -7.788  1.00  0.00     0.000 C 
BRANCH  13  14
ATOM     14  C   UNL     1      -0.391 -28.754  -7.154  1.00  0.00     0.000 C 
BRANCH  14  15
ATOM     15  C   UNL     1      -1.358 -29.656  -7.941  1.00  0.00     0.000 C 
BRANCH  15  16
ATOM     16  C   UNL     1      -1.487 -31.059  -7.311  1.00  0.00     0.003 C 
BRANCH  16  17
ATOM     17  C   UNL     1      -1.135 -32.204  -8.274  1.00  0.00     0.042 C 
BRANCH  17  18
ATOM     18  C   UNL     1      -0.573 -31.710  -9.613  1.00  0.00     0.233 C 
BRANCH  18  19
ATOM     19  O   UNL     1       0.841 -31.893  -9.658  1.00  0.00    -0.466 OA
BRANCH  19  20
ATOM     20  C   UNL     1       1.451 -33.067 -10.113  1.00  0.00     0.302 C 
ATOM     21  O   UNL     1       2.604 -33.392  -9.717  1.00  0.00    -0.253 OA
ATOM     22  C   UNL     1       0.714 -33.965 -11.047  1.00  0.00     0.139 C 
ENDBRANCH  19  20
ENDBRANCH  18  19
ENDBRANCH  17  18
ENDBRANCH  16  17
ENDBRANCH  15  16
ENDBRANCH  14  15
ENDBRANCH  13  14
ENDBRANCH   1  13
TORSDOF 16
ENDMDL
MODEL 3
REMARK VINA RESULT:    -4.290      1.385      2.364
REMARK INTER + INTRA:         -10.636
REMARK INTER:                  -8.953
REMARK INTRA:                  -1.682
REMARK UNBOUND:                -2.333
REMARK SMILES CCCCCC=CCC=CCCCCCCCCOC(C)=O
REMARK SMILES IDX 12 1 11 2 10 3 9 4 8 5 7 6 6 7 5 8 4 9 3 10 2 11 1 12 13 13
REMARK SMILES IDX 14 14 15 15 16 16 17 17 18 18 19 19 20 20 22 21 21 22
REMARK H PARENT
REMARK Flexibility Score: inf
ROOT
ATOM      1  C   UNL     1       0.888 -28.187  -9.332  1.00  0.00     0.004 C 
ENDROOT
BRANCH   1   2
ATOM      2  C   UNL     1       0.722 -26.665  -9.450  1.00  0.00     0.027 C 
BRANCH   2   3
ATOM      3  C   UNL     1      -0.619 -26.284 -10.028  1.00  0.00    -0.031 C 
ATOM      4  C   UNL     1      -0.985 -25.052 -10.429  1.00  0.00    -0.027 C 
BRANCH   4   5
ATOM      5  C   UNL     1      -0.108 -23.823 -10.406  1.00  0.00     0.054 C 
BRANCH   5   6
ATOM      6  C   UNL     1      -0.630 -22.790 -11.370  1.00  0.00    -0.027 C 
ATOM      7  C   UNL     1       0.099 -21.777 -11.873  1.00  0.00    -0.031 C 
BRANCH   7   8
ATOM      8  C   UNL     1       1.559 -21.529 -11.573  1.00  0.00     0.027 C 
BRANCH   8   9
ATOM      9  C   UNL     1       1.734 -20.385 -10.566  1.00  0.00     0.004 C 
BRANCH   9  10
ATOM     10  C   UNL     1       1.902 -20.905  -9.127  1.00  0.00     0.000 C 
BRANCH  10  11
ATOM     11  C   UNL     1       0.594 -20.854  -8.324  1.00  0.00    -0.003 C 
ATOM     12  C   UNL     1      -0.210 -19.580  -8.589  1.00  0.00     0.004 C 
ENDBRANCH  10  11
ENDBRANCH   9  10
ENDBRANCH   8   9
ENDBRANCH   7   8
ENDBRANCH   5   6
ENDBRANCH   4   5
ENDBRANCH   2   3
ENDBRANCH   1   2
BRANCH   1  13
ATOM     13  C   UNL     1       1.057 -28.650  -7.876  1.00  0.00     0.000 C 
BRANCH  13  14
ATOM     14  C   UNL     1      -0.288 -28.779  -7.143  1.00  0.00     0.000 C 
BRANCH  14  15
ATOM     15  C   UNL     1      -1.339 -29.543  -7.968  1.00  0.00     0.000 C 
BRANCH  15  16
ATOM     16  C   UNL     1      -1.583 -30.967  -7.423  1.00  0.00     0.003 C 
BRANCH  16  17
ATOM     17  C   UNL     1      -1.290 -32.077  -8.445  1.00  0.00     0.042 C 
BRANCH  17  18
ATOM     18  C   UNL     1      -0.604 -31.559  -9.714  1.00  0.00     0.233 C 
BRANCH  18  19
ATOM     19  O   UNL     1       0.782 -31.899  -9.706  1.00  0.00    -0.466 OA
BRANCH  19  20
ATOM     20  C   UNL     1       1.274 -33.137 -10.135  1.00  0.00     0.302 C 
ATOM     21  O   UNL     1       0.560 -33.910 -10.831  1.00  0.00    -0.253 OA
ATOM     22  C   UNL     1       2.671 -33.529  -9.798  1.00  0.00     0.139 C 
ENDBRANCH  19  20
ENDBRANCH  18  19
ENDBRANCH  17  18
ENDBRANCH  16  17
ENDBRANCH  15  16
ENDBRANCH  14  15
ENDBRANCH  13  14
ENDBRANCH   1  13
TORSDOF 16
ENDMDL
MODEL 4
REMARK VINA RESULT:    -4.283      1.735      3.732
REMARK INTER + INTRA:         -10.621
REMARK INTER:                  -8.462
REMARK INTRA:                  -2.159
REMARK UNBOUND:                -2.333
REMARK SMILES CCCCCC=CCC=CCCCCCCCCOC(C)=O
REMARK SMILES IDX 12 1 11 2 10 3 9 4 8 5 7 6 6 7 5 8 4 9 3 10 2 11 1 12 13 13
REMARK SMILES IDX 14 14 15 15 16 16 17 17 18 18 19 19 20 20 22 21 21 22
REMARK H PARENT
REMARK Flexibility Score: inf
ROOT
ATOM      1  C   UNL     1       0.788 -29.036  -7.996  1.00  0.00     0.004 C 
ENDROOT
BRANCH   1   2
ATOM      2  C   UNL     1       0.943 -28.048  -9.160  1.00  0.00     0.027 C 
BRANCH   2   3
ATOM      3  C   UNL     1       0.260 -28.538 -10.414  1.00  0.00    -0.031 C 
ATOM      4  C   UNL     1      -0.946 -28.141 -10.863  1.00  0.00    -0.027 C 
BRANCH   4   5
ATOM      5  C   UNL     1      -1.831 -27.106 -10.210  1.00  0.00     0.054 C 
BRANCH   5   6
ATOM      6  C   UNL     1      -1.794 -25.820 -10.993  1.00  0.00    -0.027 C 
ATOM      7  C   UNL     1      -1.101 -24.724 -10.631  1.00  0.00    -0.031 C 
BRANCH   7   8
ATOM      8  C   UNL     1      -0.231 -24.618  -9.400  1.00  0.00     0.027 C 
BRANCH   8   9
ATOM      9  C   UNL     1       1.184 -24.146  -9.757  1.00  0.00     0.004 C 
BRANCH   9  10
ATOM     10  C   UNL     1       1.285 -22.611  -9.799  1.00  0.00     0.000 C 
BRANCH  10  11
ATOM     11  C   UNL     1       1.703 -22.083 -11.180  1.00  0.00    -0.003 C 
ATOM     12  C   UNL     1       0.836 -20.916 -11.651  1.00  0.00     0.004 C 
ENDBRANCH  10  11
ENDBRANCH   9  10
ENDBRANCH   8   9
ENDBRANCH   7   8
ENDBRANCH   5   6
ENDBRANCH   4   5
ENDBRANCH   2   3
ENDBRANCH   1   2
BRANCH   1  13
ATOM     13  C   UNL     1      -0.308 -28.611  -7.005  1.00  0.00     0.000 C 
BRANCH  13  14
ATOM     14  C   UNL     1      -1.609 -29.406  -7.195  1.00  0.00     0.000 C 
BRANCH  14  15
ATOM     15  C   UNL     1      -1.378 -30.760  -7.889  1.00  0.00     0.000 C 
BRANCH  15  16
ATOM     16  C   UNL     1      -1.678 -31.952  -6.954  1.00  0.00     0.003 C 
BRANCH  16  17
ATOM     17  C   UNL     1      -1.309 -33.317  -7.556  1.00  0.00     0.042 C 
BRANCH  17  18
ATOM     18  C   UNL     1      -1.119 -33.270  -9.077  1.00  0.00     0.233 C 
BRANCH  18  19
ATOM     19  O   UNL     1       0.119 -33.877  -9.444  1.00  0.00    -0.466 OA
BRANCH  19  20
ATOM     20  C   UNL     1       1.278 -33.149  -9.735  1.00  0.00     0.302 C 
ATOM     21  O   UNL     1       1.230 -31.900  -9.908  1.00  0.00    -0.253 OA
ATOM     22  C   UNL     1       2.590 -33.852  -9.802  1.00  0.00     0.139 C 
ENDBRANCH  19  20
ENDBRANCH  18  19
ENDBRANCH  17  18
ENDBRANCH  16  17
ENDBRANCH  15  16
ENDBRANCH  14  15
ENDBRANCH  13  14
ENDBRANCH   1  13
TORSDOF 16
ENDMDL
MODEL 5
REMARK VINA RESULT:    -4.223      1.251      2.704
REMARK INTER + INTRA:         -10.505
REMARK INTER:                  -8.300
REMARK INTRA:                  -2.206
REMARK UNBOUND:                -2.333
REMARK SMILES CCCCCC=CCC=CCCCCCCCCOC(C)=O
REMARK SMILES IDX 12 1 11 2 10 3 9 4 8 5 7 6 6 7 5 8 4 9 3 10 2 11 1 12 13 13
REMARK SMILES IDX 14 14 15 15 16 16 17 17 18 18 19 19 20 20 22 21 21 22
REMARK H PARENT
REMARK Flexibility Score: inf
ROOT
ATOM      1  C   UNL     1       0.852 -26.346  -9.695  1.00  0.00     0.004 C 
ENDROOT
BRANCH   1   2
ATOM      2  C   UNL     1      -0.068 -25.117  -9.695  1.00  0.00     0.027 C 
BRANCH   2   3
ATOM      3  C   UNL     1      -0.991 -25.101  -8.501  1.00  0.00    -0.031 C 
ATOM      4  C   UNL     1      -1.810 -24.090  -8.149  1.00  0.00    -0.027 C 
BRANCH   4   5
ATOM      5  C   UNL     1      -1.981 -22.794  -8.904  1.00  0.00     0.054 C 
BRANCH   5   6
ATOM      6  C   UNL     1      -1.482 -21.638  -8.078  1.00  0.00    -0.027 C 
ATOM      7  C   UNL     1      -0.239 -21.128  -8.150  1.00  0.00    -0.031 C 
BRANCH   7   8
ATOM      8  C   UNL     1       0.844 -21.614  -9.086  1.00  0.00     0.027 C 
BRANCH   8   9
ATOM      9  C   UNL     1       1.386 -20.469  -9.951  1.00  0.00     0.004 C 
BRANCH   9  10
ATOM     10  C   UNL     1       0.643 -20.360 -11.294  1.00  0.00     0.000 C 
BRANCH  10  11
ATOM     11  C   UNL     1       0.258 -21.732 -11.869  1.00  0.00    -0.003 C 
ATOM     12  C   UNL     1      -1.210 -21.803 -12.289  1.00  0.00     0.004 C 
ENDBRANCH  10  11
ENDBRANCH   9  10
ENDBRANCH   8   9
ENDBRANCH   7   8
ENDBRANCH   5   6
ENDBRANCH   4   5
ENDBRANCH   2   3
ENDBRANCH   1   2
BRANCH   1  13
ATOM     13  C   UNL     1       0.101 -27.644  -9.357  1.00  0.00     0.000 C 
BRANCH  13  14
ATOM     14  C   UNL     1       0.858 -28.510  -8.338  1.00  0.00     0.000 C 
BRANCH  14  15
ATOM     15  C   UNL     1       0.088 -28.675  -7.015  1.00  0.00     0.000 C 
BRANCH  15  16
ATOM     16  C   UNL     1      -1.342 -29.210  -7.238  1.00  0.00     0.003 C 
BRANCH  16  17
ATOM     17  C   UNL     1      -1.398 -30.717  -7.530  1.00  0.00     0.042 C 
BRANCH  17  18
ATOM     18  C   UNL     1      -2.028 -31.042  -8.891  1.00  0.00     0.233 C 
BRANCH  18  19
ATOM     19  O   UNL     1      -1.052 -30.945  -9.927  1.00  0.00    -0.466 OA
BRANCH  19  20
ATOM     20  C   UNL     1      -0.070 -31.916 -10.154  1.00  0.00     0.302 C 
ATOM     21  O   UNL     1       1.116 -31.738  -9.765  1.00  0.00    -0.253 OA
ATOM     22  C   UNL     1      -0.440 -33.193 -10.828  1.00  0.00     0.139 C 
ENDBRANCH  19  20
ENDBRANCH  18  19
ENDBRANCH  17  18
ENDBRANCH  16  17
ENDBRANCH  15  16
ENDBRANCH  14  15
ENDBRANCH  13  14
ENDBRANCH   1  13
TORSDOF 16
ENDMDL
MODEL 6
REMARK VINA RESULT:    -4.208      1.854      4.196
REMARK INTER + INTRA:         -10.477
REMARK INTER:                  -7.857
REMARK INTRA:                  -2.620
REMARK UNBOUND:                -2.333
REMARK SMILES CCCCCC=CCC=CCCCCCCCCOC(C)=O
REMARK SMILES IDX 12 1 11 2 10 3 9 4 8 5 7 6 6 7 5 8 4 9 3 10 2 11 1 12 13 13
REMARK SMILES IDX 14 14 15 15 16 16 17 17 18 18 19 19 20 20 22 21 21 22
REMARK H PARENT
REMARK Flexibility Score: inf
ROOT
ATOM      1  C   UNL     1       1.272 -28.668  -9.218  1.00  0.00     0.004 C 
ENDROOT
BRANCH   1   2
ATOM      2  C   UNL     1       0.965 -28.652  -7.714  1.00  0.00     0.027 C 
BRANCH   2   3
ATOM      3  C   UNL     1      -0.509 -28.821  -7.435  1.00  0.00    -0.031 C 
ATOM      4  C   UNL     1      -1.434 -27.842  -7.451  1.00  0.00    -0.027 C 
BRANCH   4   5
ATOM      5  C   UNL     1      -1.174 -26.392  -7.784  1.00  0.00     0.054 C 
BRANCH   5   6
ATOM      6  C   UNL     1      -1.425 -26.139  -9.247  1.00  0.00    -0.027 C 
ATOM      7  C   UNL     1      -0.542 -25.566 -10.085  1.00  0.00    -0.031 C 
BRANCH   7   8
ATOM      8  C   UNL     1       0.848 -25.113  -9.702  1.00  0.00     0.027 C 
BRANCH   8   9
ATOM      9  C   UNL     1       1.009 -23.598  -9.884  1.00  0.00     0.004 C 
BRANCH   9  10
ATOM     10  C   UNL     1      -0.129 -22.995 -10.726  1.00  0.00     0.000 C 
BRANCH  10  11
ATOM     11  C   UNL     1       0.346 -21.840 -11.620  1.00  0.00    -0.003 C 
ATOM     12  C   UNL     1       1.856 -21.614 -11.538  1.00  0.00     0.004 C 
ENDBRANCH  10  11
ENDBRANCH   9  10
ENDBRANCH   8   9
ENDBRANCH   7   8
ENDBRANCH   5   6
ENDBRANCH   4   5
ENDBRANCH   2   3
ENDBRANCH   1   2
BRANCH   1  13
ATOM     13  C   UNL     1       0.570 -29.823  -9.950  1.00  0.00     0.000 C 
BRANCH  13  14
ATOM     14  C   UNL     1      -0.379 -29.326 -11.053  1.00  0.00     0.000 C 
BRANCH  14  15
ATOM     15  C   UNL     1      -1.735 -30.055 -11.037  1.00  0.00     0.000 C 
BRANCH  15  16
ATOM     16  C   UNL     1      -1.784 -31.167  -9.968  1.00  0.00     0.003 C 
BRANCH  16  17
ATOM     17  C   UNL     1      -1.873 -32.584 -10.556  1.00  0.00     0.042 C 
BRANCH  17  18
ATOM     18  C   UNL     1      -1.348 -32.671 -11.994  1.00  0.00     0.233 C 
BRANCH  18  19
ATOM     19  O   UNL     1       0.037 -33.010 -12.000  1.00  0.00    -0.466 OA
BRANCH  19  20
ATOM     20  C   UNL     1       0.623 -33.876 -11.069  1.00  0.00     0.302 C 
ATOM     21  O   UNL     1       0.333 -35.104 -11.058  1.00  0.00    -0.253 OA
ATOM     22  C   UNL     1       1.630 -33.348 -10.106  1.00  0.00     0.139 C 
ENDBRANCH  19  20
ENDBRANCH  18  19
ENDBRANCH  17  18
ENDBRANCH  16  17
ENDBRANCH  15  16
ENDBRANCH  14  15
ENDBRANCH  13  14
ENDBRANCH   1  13
TORSDOF 16
ENDMDL
MODEL 7
REMARK VINA RESULT:    -4.208      1.513      2.352
REMARK INTER + INTRA:         -10.477
REMARK INTER:                  -8.262
REMARK INTRA:                  -2.214
REMARK UNBOUND:                -2.333
REMARK SMILES CCCCCC=CCC=CCCCCCCCCOC(C)=O
REMARK SMILES IDX 12 1 11 2 10 3 9 4 8 5 7 6 6 7 5 8 4 9 3 10 2 11 1 12 13 13
REMARK SMILES IDX 14 14 15 15 16 16 17 17 18 18 19 19 20 20 22 21 21 22
REMARK H PARENT
REMARK Flexibility Score: inf
ROOT
ATOM      1  C   UNL     1      -0.812 -27.114 -10.317  1.00  0.00     0.004 C 
ENDROOT
BRANCH   1   2
ATOM      2  C   UNL     1      -1.951 -26.098 -10.479  1.00  0.00     0.027 C 
BRANCH   2   3
ATOM      3  C   UNL     1      -1.668 -25.099 -11.576  1.00  0.00    -0.031 C 
ATOM      4  C   UNL     1      -1.194 -23.850 -11.404  1.00  0.00    -0.027 C 
BRANCH   4   5
ATOM      5  C   UNL     1      -0.826 -23.224 -10.080  1.00  0.00     0.054 C 
BRANCH   5   6
ATOM      6  C   UNL     1       0.583 -23.595  -9.701  1.00  0.00    -0.027 C 
ATOM      7  C   UNL     1       1.687 -23.001 -10.189  1.00  0.00    -0.031 C 
BRANCH   7   8
ATOM      8  C   UNL     1       1.690 -21.853 -11.173  1.00  0.00     0.027 C 
BRANCH   8   9
ATOM      9  C   UNL     1       1.727 -20.500 -10.449  1.00  0.00     0.004 C 
BRANCH   9  10
ATOM     10  C   UNL     1       0.613 -19.557 -10.936  1.00  0.00     0.000 C 
BRANCH  10  11
ATOM     11  C   UNL     1      -0.247 -19.016  -9.784  1.00  0.00    -0.003 C 
ATOM     12  C   UNL     1      -0.128 -19.858  -8.514  1.00  0.00     0.004 C 
ENDBRANCH  10  11
ENDBRANCH   9  10
ENDBRANCH   8   9
ENDBRANCH   7   8
ENDBRANCH   5   6
ENDBRANCH   4   5
ENDBRANCH   2   3
ENDBRANCH   1   2
BRANCH   1  13
ATOM     13  C   UNL     1      -0.205 -27.096  -8.905  1.00  0.00     0.000 C 
BRANCH  13  14
ATOM     14  C   UNL     1      -1.133 -26.430  -7.876  1.00  0.00     0.000 C 
BRANCH  14  15
ATOM     15  C   UNL     1      -1.616 -27.413  -6.794  1.00  0.00     0.000 C 
BRANCH  15  16
ATOM     16  C   UNL     1      -0.977 -28.809  -6.951  1.00  0.00     0.003 C 
BRANCH  16  17
ATOM     17  C   UNL     1      -1.987 -29.914  -7.301  1.00  0.00     0.042 C 
BRANCH  17  18
ATOM     18  C   UNL     1      -1.324 -31.270  -7.571  1.00  0.00     0.233 C 
BRANCH  18  19
ATOM     19  O   UNL     1      -1.054 -31.424  -8.963  1.00  0.00    -0.466 OA
BRANCH  19  20
ATOM     20  C   UNL     1       0.239 -31.449  -9.499  1.00  0.00     0.302 C 
ATOM     21  O   UNL     1       0.947 -30.406  -9.528  1.00  0.00    -0.253 OA
ATOM     22  C   UNL     1       0.799 -32.734 -10.006  1.00  0.00     0.139 C 
ENDBRANCH  19  20
ENDBRANCH  18  19
ENDBRANCH  17  18
ENDBRANCH  16  17
ENDBRANCH  15  16
ENDBRANCH  14  15
ENDBRANCH  13  14
ENDBRANCH   1  13
TORSDOF 16
ENDMDL
MODEL 8
REMARK VINA RESULT:    -4.171      1.658      4.865
REMARK INTER + INTRA:         -10.405
REMARK INTER:                  -7.679
REMARK INTRA:                  -2.726
REMARK UNBOUND:                -2.333
REMARK SMILES CCCCCC=CCC=CCCCCCCCCOC(C)=O
REMARK SMILES IDX 12 1 11 2 10 3 9 4 8 5 7 6 6 7 5 8 4 9 3 10 2 11 1 12 13 13
REMARK SMILES IDX 14 14 15 15 16 16 17 17 18 18 19 19 20 20 22 21 21 22
REMARK H PARENT
REMARK Flexibility Score: inf
ROOT
ATOM      1  C   UNL     1       0.414 -28.686 -10.343  1.00  0.00     0.004 C 
ENDROOT
BRANCH   1   2
ATOM      2  C   UNL     1       0.884 -28.067  -9.019  1.00  0.00     0.027 C 
BRANCH   2   3
ATOM      3  C   UNL     1       0.685 -29.005  -7.853  1.00  0.00    -0.031 C 
ATOM      4  C   UNL     1      -0.440 -29.131  -7.124  1.00  0.00    -0.027 C 
BRANCH   4   5
ATOM      5  C   UNL     1      -1.728 -28.378  -7.358  1.00  0.00     0.054 C 
BRANCH   5   6
ATOM      6  C   UNL     1      -1.841 -27.225  -6.396  1.00  0.00    -0.027 C 
ATOM      7  C   UNL     1      -2.003 -25.940  -6.760  1.00  0.00    -0.031 C 
BRANCH   7   8
ATOM      8  C   UNL     1      -2.124 -25.452  -8.185  1.00  0.00     0.027 C 
BRANCH   8   9
ATOM      9  C   UNL     1      -0.758 -25.045  -8.752  1.00  0.00     0.004 C 
BRANCH   9  10
ATOM     10  C   UNL     1      -0.877 -24.438 -10.161  1.00  0.00     0.000 C 
BRANCH  10  11
ATOM     11  C   UNL     1      -0.109 -23.115 -10.301  1.00  0.00    -0.003 C 
ATOM     12  C   UNL     1      -0.447 -22.117  -9.192  1.00  0.00     0.004 C 
ENDBRANCH  10  11
ENDBRANCH   9  10
ENDBRANCH   8   9
ENDBRANCH   7   8
ENDBRANCH   5   6
ENDBRANCH   4   5
ENDBRANCH   2   3
ENDBRANCH   1   2
BRANCH   1  13
ATOM     13  C   UNL     1      -0.902 -28.072 -10.846  1.00  0.00     0.000 C 
BRANCH  13  14
ATOM     14  C   UNL     1      -1.937 -29.140 -11.234  1.00  0.00     0.000 C 
BRANCH  14  15
ATOM     15  C   UNL     1      -1.286 -30.411 -11.807  1.00  0.00     0.000 C 
BRANCH  15  16
ATOM     16  C   UNL     1      -1.784 -31.690 -11.100  1.00  0.00     0.003 C 
BRANCH  16  17
ATOM     17  C   UNL     1      -1.668 -31.632  -9.568  1.00  0.00     0.042 C 
BRANCH  17  18
ATOM     18  C   UNL     1      -0.530 -32.501  -9.019  1.00  0.00     0.233 C 
BRANCH  18  19
ATOM     19  O   UNL     1       0.660 -32.305  -9.781  1.00  0.00    -0.466 OA
BRANCH  19  20
ATOM     20  C   UNL     1       1.527 -33.344 -10.137  1.00  0.00     0.302 C 
ATOM     21  O   UNL     1       2.585 -33.555  -9.484  1.00  0.00    -0.253 OA
ATOM     22  C   UNL     1       1.176 -34.236 -11.279  1.00  0.00     0.139 C 
ENDBRANCH  19  20
ENDBRANCH  18  19
ENDBRANCH  17  18
ENDBRANCH  16  17
ENDBRANCH  15  16
ENDBRANCH  14  15
ENDBRANCH  13  14
ENDBRANCH   1  13
TORSDOF 16
ENDMDL
MODEL 9
REMARK VINA RESULT:    -4.150      1.227      1.971
REMARK INTER + INTRA:         -10.364
REMARK INTER:                  -8.054
REMARK INTRA:                  -2.310
REMARK UNBOUND:                -2.333
REMARK SMILES CCCCCC=CCC=CCCCCCCCCOC(C)=O
REMARK SMILES IDX 12 1 11 2 10 3 9 4 8 5 7 6 6 7 5 8 4 9 3 10 2 11 1 12 13 13
REMARK SMILES IDX 14 14 15 15 16 16 17 17 18 18 19 19 20 20 22 21 21 22
REMARK H PARENT
REMARK Flexibility Score: inf
ROOT
ATOM      1  C   UNL     1      -1.787 -25.668  -7.057  1.00  0.00     0.004 C 
ENDROOT
BRANCH   1   2
ATOM      2  C   UNL     1      -1.632 -24.579  -8.127  1.00  0.00     0.027 C 
BRANCH   2   3
ATOM      3  C   UNL     1      -0.555 -24.919  -9.129  1.00  0.00    -0.031 C 
ATOM      4  C   UNL     1      -0.575 -24.618 -10.442  1.00  0.00    -0.027 C 
BRANCH   4   5
ATOM      5  C   UNL     1      -1.666 -23.853 -11.153  1.00  0.00     0.054 C 
BRANCH   5   6
ATOM      6  C   UNL     1      -1.091 -22.648 -11.848  1.00  0.00    -0.027 C 
ATOM      7  C   UNL     1      -1.272 -21.376 -11.448  1.00  0.00    -0.031 C 
BRANCH   7   8
ATOM      8  C   UNL     1      -2.055 -20.956 -10.225  1.00  0.00     0.027 C 
BRANCH   8   9
ATOM      9  C   UNL     1      -1.194 -21.039  -8.957  1.00  0.00     0.004 C 
BRANCH   9  10
ATOM     10  C   UNL     1       0.166 -20.343  -9.139  1.00  0.00     0.000 C 
BRANCH  10  11
ATOM     11  C   UNL     1       1.340 -21.204  -8.650  1.00  0.00    -0.003 C 
ATOM     12  C   UNL     1       1.963 -22.041  -9.768  1.00  0.00     0.004 C 
ENDBRANCH  10  11
ENDBRANCH   9  10
ENDBRANCH   8   9
ENDBRANCH   7   8
ENDBRANCH   5   6
ENDBRANCH   4   5
ENDBRANCH   2   3
ENDBRANCH   1   2
BRANCH   1  13
ATOM     13  C   UNL     1      -2.063 -27.054  -7.662  1.00  0.00     0.000 C 
BRANCH  13  14
ATOM     14  C   UNL     1      -1.424 -28.189  -6.845  1.00  0.00     0.000 C 
BRANCH  14  15
ATOM     15  C   UNL     1       0.039 -28.453  -7.246  1.00  0.00     0.000 C 
BRANCH  15  16
ATOM     16  C   UNL     1       0.236 -28.424  -8.776  1.00  0.00     0.003 C 
BRANCH  16  17
ATOM     17  C   UNL     1      -0.164 -29.733  -9.475  1.00  0.00     0.042 C 
BRANCH  17  18
ATOM     18  C   UNL     1       1.016 -30.690  -9.678  1.00  0.00     0.233 C 
BRANCH  18  19
ATOM     19  O   UNL     1       0.566 -32.044  -9.676  1.00  0.00    -0.466 OA
BRANCH  19  20
ATOM     20  C   UNL     1       1.347 -33.116 -10.123  1.00  0.00     0.302 C 
ATOM     21  O   UNL     1       2.521 -33.283  -9.694  1.00  0.00    -0.253 OA
ATOM     22  C   UNL     1       0.769 -34.094 -11.088  1.00  0.00     0.139 C 
ENDBRANCH  19  20
ENDBRANCH  18  19
ENDBRANCH  17  18
ENDBRANCH  16  17
ENDBRANCH  15  16
ENDBRANCH  14  15
ENDBRANCH  13  14
ENDBRANCH   1  13
TORSDOF 16
ENDMDL
