MODEL 1
REMARK VINA RESULT:    -3.841      0.000      0.000
REMARK INTER + INTRA:         -13.502
REMARK INTER:                  -8.781
REMARK INTRA:                  -4.721
REMARK UNBOUND:                -4.721
REMARK SMILES CCCCCCCCCCCCCCCCCCCCCCCC(=O)[O-]
REMARK SMILES IDX 13 1 14 2 15 3 16 4 17 5 18 6 19 7 20 8 21 9 22 10 23 11
REMARK SMILES IDX 24 12 25 13 26 14 12 15 11 16 10 17 9 18 8 19 7 20 6 21 5 22
REMARK SMILES IDX 4 23 3 24 2 25 1 26
REMARK H PARENT
REMARK Flexibility Score: inf
ROOT
ATOM      1  C   UNL     1     173.501 175.764 182.436  1.00  0.00     0.000 C 
ENDROOT
BRANCH   1   2
ATOM      2  C   UNL     1     174.816 175.156 182.950  1.00  0.00     0.000 C 
BRANCH   2   3
ATOM      3  C   UNL     1     175.839 176.237 183.359  1.00  0.00     0.000 C 
BRANCH   3   4
ATOM      4  C   UNL     1     177.041 176.350 182.406  1.00  0.00     0.000 C 
BRANCH   4   5
ATOM      5  C   UNL     1     177.224 177.769 181.843  1.00  0.00     0.000 C 
BRANCH   5   6
ATOM      6  C   UNL     1     177.133 177.811 180.308  1.00  0.00     0.000 C 
BRANCH   6   7
ATOM      7  C   UNL     1     175.795 177.262 179.783  1.00  0.00     0.000 C 
BRANCH   7   8
ATOM      8  C   UNL     1     175.981 176.123 178.768  1.00  0.00     0.000 C 
BRANCH   8   9
ATOM      9  C   UNL     1     174.728 175.237 178.635  1.00  0.00     0.000 C 
BRANCH   9  10
ATOM     10  C   UNL     1     174.856 173.916 179.410  1.00  0.00     0.006 C 
BRANCH  10  11
ATOM     11  C   UNL     1     176.280 173.673 179.927  1.00  0.00     0.053 C 
BRANCH  11  12
ATOM     12  C   UNL     1     176.319 172.450 180.789  1.00  0.00     0.041 C 
ATOM     13  O   UNL     1     175.290 172.081 181.414  1.00  0.00    -0.550 OA
ATOM     14  O   UNL     1     177.477 171.687 180.861  1.00  0.00    -0.550 OA
ENDBRANCH  11  12
ENDBRANCH  10  11
ENDBRANCH   9  10
ENDBRANCH   8   9
ENDBRANCH   7   8
ENDBRANCH   6   7
ENDBRANCH   5   6
ENDBRANCH   4   5
ENDBRANCH   3   4
ENDBRANCH   2   3
ENDBRANCH   1   2
BRANCH   1  15
ATOM     15  C   UNL     1     173.466 177.281 182.670  1.00  0.00     0.000 C 
BRANCH  15  16
ATOM     16  C   UNL     1     172.148 177.928 182.208  1.00  0.00     0.000 C 
BRANCH  16  17
ATOM     17  C   UNL     1     171.560 177.352 180.905  1.00  0.00     0.000 C 
BRANCH  17  18
ATOM     18  C   UNL     1     170.029 177.181 180.899  1.00  0.00    -0.000 C 
BRANCH  18  19
ATOM     19  C   UNL     1     169.397 176.975 182.287  1.00  0.00    -0.000 C 
BRANCH  19  20
ATOM     20  C   UNL     1     169.385 175.499 182.721  1.00  0.00    -0.000 C 
BRANCH  20  21
ATOM     21  C   UNL     1     170.221 175.244 183.985  1.00  0.00    -0.000 C 
BRANCH  21  22
ATOM     22  C   UNL     1     170.724 173.792 184.079  1.00  0.00    -0.000 C 
BRANCH  22  23
ATOM     23  C   UNL     1     170.523 173.016 182.769  1.00  0.00    -0.000 C 
BRANCH  23  24
ATOM     24  C   UNL     1     171.843 172.497 182.176  1.00  0.00    -0.000 C 
BRANCH  24  25
ATOM     25  C   UNL     1     171.825 172.458 180.639  1.00  0.00    -0.003 C 
ATOM     26  C   UNL     1     171.199 173.710 180.025  1.00  0.00     0.004 C 
ENDBRANCH  24  25
ENDBRANCH  23  24
ENDBRANCH  22  23
ENDBRANCH  21  22
ENDBRANCH  20  21
ENDBRANCH  19  20
ENDBRANCH  18  19
ENDBRANCH  17  18
ENDBRANCH  16  17
ENDBRANCH  15  16
ENDBRANCH   1  15
TORSDOF 22
ENDMDL
MODEL 2
REMARK VINA RESULT:    -3.737      2.614      4.435
REMARK INTER + INTRA:         -13.264
REMARK INTER:                  -8.694
REMARK INTRA:                  -4.570
REMARK UNBOUND:                -4.721
REMARK SMILES CCCCCCCCCCCCCCCCCCCCCCCC(=O)[O-]
REMARK SMILES IDX 13 1 14 2 15 3 16 4 17 5 18 6 19 7 20 8 21 9 22 10 23 11
REMARK SMILES IDX 24 12 25 13 26 14 12 15 11 16 10 17 9 18 8 19 7 20 6 21 5 22
REMARK SMILES IDX 4 23 3 24 2 25 1 26
REMARK H PARENT
REMARK Flexibility Score: inf
ROOT
ATOM      1  C   UNL     1     175.799 171.899 181.303  1.00  0.00     0.000 C 
ENDROOT
BRANCH   1   2
ATOM      2  C   UNL     1     177.180 172.568 181.205  1.00  0.00     0.000 C 
BRANCH   2   3
ATOM      3  C   UNL     1     177.288 173.821 182.099  1.00  0.00     0.000 C 
BRANCH   3   4
ATOM      4  C   UNL     1     177.159 175.147 181.330  1.00  0.00     0.000 C 
BRANCH   4   5
ATOM      5  C   UNL     1     177.036 176.366 182.260  1.00  0.00     0.000 C 
BRANCH   5   6
ATOM      6  C   UNL     1     177.065 177.699 181.493  1.00  0.00     0.000 C 
BRANCH   6   7
ATOM      7  C   UNL     1     176.947 177.505 179.971  1.00  0.00     0.000 C 
BRANCH   7   8
ATOM      8  C   UNL     1     175.517 177.737 179.456  1.00  0.00     0.000 C 
BRANCH   8   9
ATOM      9  C   UNL     1     175.000 176.568 178.598  1.00  0.00     0.000 C 
BRANCH   9  10
ATOM     10  C   UNL     1     173.706 176.916 177.844  1.00  0.00     0.006 C 
BRANCH  10  11
ATOM     11  C   UNL     1     172.457 176.342 178.525  1.00  0.00     0.053 C 
BRANCH  11  12
ATOM     12  C   UNL     1     171.270 176.466 177.622  1.00  0.00     0.041 C 
ATOM     13  O   UNL     1     171.414 176.409 176.373  1.00  0.00    -0.550 OA
ATOM     14  O   UNL     1     169.996 176.592 178.162  1.00  0.00    -0.550 OA
ENDBRANCH  11  12
ENDBRANCH  10  11
ENDBRANCH   9  10
ENDBRANCH   8   9
ENDBRANCH   7   8
ENDBRANCH   6   7
ENDBRANCH   5   6
ENDBRANCH   4   5
ENDBRANCH   3   4
ENDBRANCH   2   3
ENDBRANCH   1   2
BRANCH   1  15
ATOM     15  C   UNL     1     174.860 172.409 180.200  1.00  0.00     0.000 C 
BRANCH  15  16
ATOM     16  C   UNL     1     173.605 173.104 180.757  1.00  0.00     0.000 C 
BRANCH  16  17
ATOM     17  C   UNL     1     173.527 173.176 182.294  1.00  0.00     0.000 C 
BRANCH  17  18
ATOM     18  C   UNL     1     173.741 174.579 182.895  1.00  0.00    -0.000 C 
BRANCH  18  19
ATOM     19  C   UNL     1     173.514 175.741 181.913  1.00  0.00    -0.000 C 
BRANCH  19  20
ATOM     20  C   UNL     1     173.410 177.104 182.620  1.00  0.00    -0.000 C 
BRANCH  20  21
ATOM     21  C   UNL     1     172.149 177.888 182.220  1.00  0.00    -0.000 C 
BRANCH  21  22
ATOM     22  C   UNL     1     171.031 177.787 183.272  1.00  0.00    -0.000 C 
BRANCH  22  23
ATOM     23  C   UNL     1     169.931 176.793 182.867  1.00  0.00    -0.000 C 
BRANCH  23  24
ATOM     24  C   UNL     1     170.054 175.441 183.590  1.00  0.00    -0.000 C 
BRANCH  24  25
ATOM     25  C   UNL     1     170.010 174.248 182.622  1.00  0.00    -0.003 C 
ATOM     26  C   UNL     1     169.976 174.679 181.156  1.00  0.00     0.004 C 
ENDBRANCH  24  25
ENDBRANCH  23  24
ENDBRANCH  22  23
ENDBRANCH  21  22
ENDBRANCH  20  21
ENDBRANCH  19  20
ENDBRANCH  18  19
ENDBRANCH  17  18
ENDBRANCH  16  17
ENDBRANCH  15  16
ENDBRANCH   1  15
TORSDOF 22
ENDMDL
MODEL 3
REMARK VINA RESULT:    -3.732      2.776      6.085
REMARK INTER + INTRA:         -13.252
REMARK INTER:                  -9.039
REMARK INTRA:                  -4.213
REMARK UNBOUND:                -4.721
REMARK SMILES CCCCCCCCCCCCCCCCCCCCCCCC(=O)[O-]
REMARK SMILES IDX 13 1 14 2 15 3 16 4 17 5 18 6 19 7 20 8 21 9 22 10 23 11
REMARK SMILES IDX 24 12 25 13 26 14 12 15 11 16 10 17 9 18 8 19 7 20 6 21 5 22
REMARK SMILES IDX 4 23 3 24 2 25 1 26
REMARK H PARENT
REMARK Flexibility Score: inf
ROOT
ATOM      1  C   UNL     1     174.727 175.992 179.296  1.00  0.00     0.000 C 
ENDROOT
BRANCH   1   2
ATOM      2  C   UNL     1     173.731 175.761 180.444  1.00  0.00     0.000 C 
BRANCH   2   3
ATOM      3  C   UNL     1     173.356 177.071 181.166  1.00  0.00     0.000 C 
BRANCH   3   4
ATOM      4  C   UNL     1     172.663 176.858 182.523  1.00  0.00     0.000 C 
BRANCH   4   5
ATOM      5  C   UNL     1     171.976 175.487 182.634  1.00  0.00     0.000 C 
BRANCH   5   6
ATOM      6  C   UNL     1     170.483 175.600 182.982  1.00  0.00     0.000 C 
BRANCH   6   7
ATOM      7  C   UNL     1     169.948 177.034 182.820  1.00  0.00     0.000 C 
BRANCH   7   8
ATOM      8  C   UNL     1     168.573 177.078 182.132  1.00  0.00     0.000 C 
BRANCH   8   9
ATOM      9  C   UNL     1     168.674 176.957 180.600  1.00  0.00     0.000 C 
BRANCH   9  10
ATOM     10  C   UNL     1     169.966 177.577 180.043  1.00  0.00     0.006 C 
BRANCH  10  11
ATOM     11  C   UNL     1     170.694 176.642 179.070  1.00  0.00     0.053 C 
BRANCH  11  12
ATOM     12  C   UNL     1     171.156 177.401 177.866  1.00  0.00     0.041 C 
ATOM     13  O   UNL     1     170.438 177.449 176.833  1.00  0.00    -0.550 OA
ATOM     14  O   UNL     1     172.355 178.101 177.903  1.00  0.00    -0.550 OA
ENDBRANCH  11  12
ENDBRANCH  10  11
ENDBRANCH   9  10
ENDBRANCH   8   9
ENDBRANCH   7   8
ENDBRANCH   6   7
ENDBRANCH   5   6
ENDBRANCH   4   5
ENDBRANCH   3   4
ENDBRANCH   2   3
ENDBRANCH   1   2
BRANCH   1  15
ATOM     15  C   UNL     1     175.426 177.352 179.439  1.00  0.00     0.000 C 
BRANCH  15  16
ATOM     16  C   UNL     1     176.867 177.231 179.968  1.00  0.00     0.000 C 
BRANCH  16  17
ATOM     17  C   UNL     1     177.158 178.031 181.253  1.00  0.00     0.000 C 
BRANCH  17  18
ATOM     18  C   UNL     1     177.422 177.177 182.508  1.00  0.00    -0.000 C 
BRANCH  18  19
ATOM     19  C   UNL     1     176.156 176.731 183.261  1.00  0.00    -0.000 C 
BRANCH  19  20
ATOM     20  C   UNL     1     175.980 175.202 183.273  1.00  0.00    -0.000 C 
BRANCH  20  21
ATOM     21  C   UNL     1     177.100 174.468 182.518  1.00  0.00    -0.000 C 
BRANCH  21  22
ATOM     22  C   UNL     1     176.570 173.628 181.343  1.00  0.00    -0.000 C 
BRANCH  22  23
ATOM     23  C   UNL     1     175.376 172.747 181.744  1.00  0.00    -0.000 C 
BRANCH  23  24
ATOM     24  C   UNL     1     175.108 171.615 180.738  1.00  0.00    -0.000 C 
BRANCH  24  25
ATOM     25  C   UNL     1     175.464 172.010 179.296  1.00  0.00    -0.003 C 
ATOM     26  C   UNL     1     174.229 172.243 178.427  1.00  0.00     0.004 C 
ENDBRANCH  24  25
ENDBRANCH  23  24
ENDBRANCH  22  23
ENDBRANCH  21  22
ENDBRANCH  20  21
ENDBRANCH  19  20
ENDBRANCH  18  19
ENDBRANCH  17  18
ENDBRANCH  16  17
ENDBRANCH  15  16
ENDBRANCH   1  15
TORSDOF 22
ENDMDL
MODEL 4
REMARK VINA RESULT:    -3.727      1.234      3.200
REMARK INTER + INTRA:         -13.241
REMARK INTER:                  -8.951
REMARK INTRA:                  -4.291
REMARK UNBOUND:                -4.721
REMARK SMILES CCCCCCCCCCCCCCCCCCCCCCCC(=O)[O-]
REMARK SMILES IDX 13 1 14 2 15 3 16 4 17 5 18 6 19 7 20 8 21 9 22 10 23 11
REMARK SMILES IDX 24 12 25 13 26 14 12 15 11 16 10 17 9 18 8 19 7 20 6 21 5 22
REMARK SMILES IDX 4 23 3 24 2 25 1 26
REMARK H PARENT
REMARK Flexibility Score: inf
ROOT
ATOM      1  C   UNL     1     175.535 175.946 178.788  1.00  0.00     0.000 C 
ENDROOT
BRANCH   1   2
ATOM      2  C   UNL     1     176.777 176.112 179.679  1.00  0.00     0.000 C 
BRANCH   2   3
ATOM      3  C   UNL     1     177.040 177.587 180.047  1.00  0.00     0.000 C 
BRANCH   3   4
ATOM      4  C   UNL     1     177.172 177.837 181.559  1.00  0.00     0.000 C 
BRANCH   4   5
ATOM      5  C   UNL     1     177.035 176.551 182.392  1.00  0.00     0.000 C 
BRANCH   5   6
ATOM      6  C   UNL     1     175.832 176.593 183.349  1.00  0.00     0.000 C 
BRANCH   6   7
ATOM      7  C   UNL     1     174.509 176.883 182.620  1.00  0.00     0.000 C 
BRANCH   7   8
ATOM      8  C   UNL     1     173.834 175.608 182.089  1.00  0.00     0.000 C 
BRANCH   8   9
ATOM      9  C   UNL     1     174.301 174.340 182.829  1.00  0.00     0.000 C 
BRANCH   9  10
ATOM     10  C   UNL     1     174.705 173.211 181.867  1.00  0.00     0.006 C 
BRANCH  10  11
ATOM     11  C   UNL     1     176.220 172.973 181.843  1.00  0.00     0.053 C 
BRANCH  11  12
ATOM     12  C   UNL     1     176.592 172.111 180.677  1.00  0.00     0.041 C 
ATOM     13  O   UNL     1     176.155 172.377 179.527  1.00  0.00    -0.550 OA
ATOM     14  O   UNL     1     177.466 171.045 180.853  1.00  0.00    -0.550 OA
ENDBRANCH  11  12
ENDBRANCH  10  11
ENDBRANCH   9  10
ENDBRANCH   8   9
ENDBRANCH   7   8
ENDBRANCH   6   7
ENDBRANCH   5   6
ENDBRANCH   4   5
ENDBRANCH   3   4
ENDBRANCH   2   3
ENDBRANCH   1   2
BRANCH   1  15
ATOM     15  C   UNL     1     174.621 177.176 178.883  1.00  0.00     0.000 C 
BRANCH  15  16
ATOM     16  C   UNL     1     173.276 176.980 178.160  1.00  0.00     0.000 C 
BRANCH  16  17
ATOM     17  C   UNL     1     172.599 175.617 178.403  1.00  0.00     0.000 C 
BRANCH  17  18
ATOM     18  C   UNL     1     171.200 175.688 179.046  1.00  0.00    -0.000 C 
BRANCH  18  19
ATOM     19  C   UNL     1     170.448 177.010 178.811  1.00  0.00    -0.000 C 
BRANCH  19  20
ATOM     20  C   UNL     1     170.473 177.934 180.041  1.00  0.00    -0.000 C 
BRANCH  20  21
ATOM     21  C   UNL     1     170.911 177.207 181.323  1.00  0.00    -0.000 C 
BRANCH  21  22
ATOM     22  C   UNL     1     169.766 177.058 182.340  1.00  0.00    -0.000 C 
BRANCH  22  23
ATOM     23  C   UNL     1     169.443 175.588 182.650  1.00  0.00    -0.000 C 
BRANCH  23  24
ATOM     24  C   UNL     1     170.211 175.055 183.871  1.00  0.00    -0.000 C 
BRANCH  24  25
ATOM     25  C   UNL     1     170.730 173.623 183.662  1.00  0.00    -0.003 C 
ATOM     26  C   UNL     1     170.800 173.231 182.186  1.00  0.00     0.004 C 
ENDBRANCH  24  25
ENDBRANCH  23  24
ENDBRANCH  22  23
ENDBRANCH  21  22
ENDBRANCH  20  21
ENDBRANCH  19  20
ENDBRANCH  18  19
ENDBRANCH  17  18
ENDBRANCH  16  17
ENDBRANCH  15  16
ENDBRANCH   1  15
TORSDOF 22
ENDMDL
MODEL 5
REMARK VINA RESULT:    -3.687      1.687      2.999
REMARK INTER + INTRA:         -13.150
REMARK INTER:                  -9.056
REMARK INTRA:                  -4.094
REMARK UNBOUND:                -4.721
REMARK SMILES CCCCCCCCCCCCCCCCCCCCCCCC(=O)[O-]
REMARK SMILES IDX 13 1 14 2 15 3 16 4 17 5 18 6 19 7 20 8 21 9 22 10 23 11
REMARK SMILES IDX 24 12 25 13 26 14 12 15 11 16 10 17 9 18 8 19 7 20 6 21 5 22
REMARK SMILES IDX 4 23 3 24 2 25 1 26
REMARK H PARENT
REMARK Flexibility Score: inf
ROOT
ATOM      1  C   UNL     1     176.110 175.569 182.841  1.00  0.00     0.000 C 
ENDROOT
BRANCH   1   2
ATOM      2  C   UNL     1     176.594 177.001 183.121  1.00  0.00     0.000 C 
BRANCH   2   3
ATOM      3  C   UNL     1     177.261 177.645 181.888  1.00  0.00     0.000 C 
BRANCH   3   4
ATOM      4  C   UNL     1     177.015 176.881 180.576  1.00  0.00     0.000 C 
BRANCH   4   5
ATOM      5  C   UNL     1     175.993 177.577 179.662  1.00  0.00     0.000 C 
BRANCH   5   6
ATOM      6  C   UNL     1     175.125 176.578 178.879  1.00  0.00     0.000 C 
BRANCH   6   7
ATOM      7  C   UNL     1     175.672 175.142 178.948  1.00  0.00     0.000 C 
BRANCH   7   8
ATOM      8  C   UNL     1     174.557 174.087 179.024  1.00  0.00     0.000 C 
BRANCH   8   9
ATOM      9  C   UNL     1     174.823 173.021 180.103  1.00  0.00     0.000 C 
BRANCH   9  10
ATOM     10  C   UNL     1     176.323 172.737 180.294  1.00  0.00     0.006 C 
BRANCH  10  11
ATOM     11  C   UNL     1     176.633 172.104 181.656  1.00  0.00     0.053 C 
BRANCH  11  12
ATOM     12  C   UNL     1     176.701 170.614 181.533  1.00  0.00     0.041 C 
ATOM     13  O   UNL     1     175.901 169.887 182.179  1.00  0.00    -0.550 OA
ATOM     14  O   UNL     1     177.613 170.029 180.664  1.00  0.00    -0.550 OA
ENDBRANCH  11  12
ENDBRANCH  10  11
ENDBRANCH   9  10
ENDBRANCH   8   9
ENDBRANCH   7   8
ENDBRANCH   6   7
ENDBRANCH   5   6
ENDBRANCH   4   5
ENDBRANCH   3   4
ENDBRANCH   2   3
ENDBRANCH   1   2
BRANCH   1  15
ATOM     15  C   UNL     1     174.594 175.538 182.595  1.00  0.00     0.000 C 
BRANCH  15  16
ATOM     16  C   UNL     1     173.920 176.899 182.846  1.00  0.00     0.000 C 
BRANCH  16  17
ATOM     17  C   UNL     1     172.943 177.355 181.744  1.00  0.00     0.000 C 
BRANCH  17  18
ATOM     18  C   UNL     1     171.643 178.010 182.252  1.00  0.00    -0.000 C 
BRANCH  18  19
ATOM     19  C   UNL     1     170.780 177.112 183.156  1.00  0.00    -0.000 C 
BRANCH  19  20
ATOM     20  C   UNL     1     169.837 176.196 182.356  1.00  0.00    -0.000 C 
BRANCH  20  21
ATOM     21  C   UNL     1     168.943 176.973 181.376  1.00  0.00    -0.000 C 
BRANCH  21  22
ATOM     22  C   UNL     1     169.182 176.569 179.910  1.00  0.00    -0.000 C 
BRANCH  22  23
ATOM     23  C   UNL     1     170.320 175.548 179.761  1.00  0.00    -0.000 C 
BRANCH  23  24
ATOM     24  C   UNL     1     171.357 175.963 178.703  1.00  0.00    -0.000 C 
BRANCH  24  25
ATOM     25  C   UNL     1     171.406 177.484 178.490  1.00  0.00    -0.003 C 
ATOM     26  C   UNL     1     171.552 177.869 177.017  1.00  0.00     0.004 C 
ENDBRANCH  24  25
ENDBRANCH  23  24
ENDBRANCH  22  23
ENDBRANCH  21  22
ENDBRANCH  20  21
ENDBRANCH  19  20
ENDBRANCH  18  19
ENDBRANCH  17  18
ENDBRANCH  16  17
ENDBRANCH  15  16
ENDBRANCH   1  15
TORSDOF 22
ENDMDL
MODEL 6
REMARK VINA RESULT:    -3.649      1.227      2.614
REMARK INTER + INTRA:         -13.063
REMARK INTER:                  -8.542
REMARK INTRA:                  -4.521
REMARK UNBOUND:                -4.721
REMARK SMILES CCCCCCCCCCCCCCCCCCCCCCCC(=O)[O-]
REMARK SMILES IDX 13 1 14 2 15 3 16 4 17 5 18 6 19 7 20 8 21 9 22 10 23 11
REMARK SMILES IDX 24 12 25 13 26 14 12 15 11 16 10 17 9 18 8 19 7 20 6 21 5 22
REMARK SMILES IDX 4 23 3 24 2 25 1 26
REMARK H PARENT
REMARK Flexibility Score: inf
ROOT
ATOM      1  C   UNL     1     173.059 173.873 182.477  1.00  0.00     0.000 C 
ENDROOT
BRANCH   1   2
ATOM      2  C   UNL     1     173.912 175.118 182.770  1.00  0.00     0.000 C 
BRANCH   2   3
ATOM      3  C   UNL     1     175.302 174.756 183.335  1.00  0.00     0.000 C 
BRANCH   3   4
ATOM      4  C   UNL     1     176.294 175.930 183.348  1.00  0.00     0.000 C 
BRANCH   4   5
ATOM      5  C   UNL     1     175.900 177.057 182.379  1.00  0.00     0.000 C 
BRANCH   5   6
ATOM      6  C   UNL     1     177.103 177.618 181.604  1.00  0.00     0.000 C 
BRANCH   6   7
ATOM      7  C   UNL     1     177.043 177.287 180.102  1.00  0.00     0.000 C 
BRANCH   7   8
ATOM      8  C   UNL     1     175.659 176.782 179.664  1.00  0.00     0.000 C 
BRANCH   8   9
ATOM      9  C   UNL     1     175.697 175.337 179.133  1.00  0.00     0.000 C 
BRANCH   9  10
ATOM     10  C   UNL     1     176.734 174.468 179.863  1.00  0.00     0.006 C 
BRANCH  10  11
ATOM     11  C   UNL     1     176.200 173.069 180.197  1.00  0.00     0.053 C 
BRANCH  11  12
ATOM     12  C   UNL     1     177.009 172.451 181.294  1.00  0.00     0.041 C 
ATOM     13  O   UNL     1     176.711 171.311 181.736  1.00  0.00    -0.550 OA
ATOM     14  O   UNL     1     178.124 173.113 181.792  1.00  0.00    -0.550 OA
ENDBRANCH  11  12
ENDBRANCH  10  11
ENDBRANCH   9  10
ENDBRANCH   8   9
ENDBRANCH   7   8
ENDBRANCH   6   7
ENDBRANCH   5   6
ENDBRANCH   4   5
ENDBRANCH   3   4
ENDBRANCH   2   3
ENDBRANCH   1   2
BRANCH   1  15
ATOM     15  C   UNL     1     171.932 173.724 183.509  1.00  0.00     0.000 C 
BRANCH  15  16
ATOM     16  C   UNL     1     170.582 174.266 183.004  1.00  0.00     0.000 C 
BRANCH  16  17
ATOM     17  C   UNL     1     170.037 175.482 183.779  1.00  0.00     0.000 C 
BRANCH  17  18
ATOM     18  C   UNL     1     170.227 176.842 183.079  1.00  0.00    -0.000 C 
BRANCH  18  19
ATOM     19  C   UNL     1     169.301 177.081 181.873  1.00  0.00    -0.000 C 
BRANCH  19  20
ATOM     20  C   UNL     1     170.077 177.404 180.584  1.00  0.00    -0.000 C 
BRANCH  20  21
ATOM     21  C   UNL     1     171.578 177.090 180.698  1.00  0.00    -0.000 C 
BRANCH  21  22
ATOM     22  C   UNL     1     172.097 176.245 179.522  1.00  0.00    -0.000 C 
BRANCH  22  23
ATOM     23  C   UNL     1     171.011 175.331 178.932  1.00  0.00    -0.000 C 
BRANCH  23  24
ATOM     24  C   UNL     1     171.208 173.853 179.310  1.00  0.00    -0.000 C 
BRANCH  24  25
ATOM     25  C   UNL     1     172.620 173.343 178.979  1.00  0.00    -0.003 C 
ATOM     26  C   UNL     1     172.893 173.296 177.476  1.00  0.00     0.004 C 
ENDBRANCH  24  25
ENDBRANCH  23  24
ENDBRANCH  22  23
ENDBRANCH  21  22
ENDBRANCH  20  21
ENDBRANCH  19  20
ENDBRANCH  18  19
ENDBRANCH  17  18
ENDBRANCH  16  17
ENDBRANCH  15  16
ENDBRANCH   1  15
TORSDOF 22
ENDMDL
MODEL 7
REMARK VINA RESULT:    -3.645      2.670      3.500
REMARK INTER + INTRA:         -13.055
REMARK INTER:                  -8.373
REMARK INTRA:                  -4.682
REMARK UNBOUND:                -4.721
REMARK SMILES CCCCCCCCCCCCCCCCCCCCCCCC(=O)[O-]
REMARK SMILES IDX 13 1 14 2 15 3 16 4 17 5 18 6 19 7 20 8 21 9 22 10 23 11
REMARK SMILES IDX 24 12 25 13 26 14 12 15 11 16 10 17 9 18 8 19 7 20 6 21 5 22
REMARK SMILES IDX 4 23 3 24 2 25 1 26
REMARK H PARENT
REMARK Flexibility Score: inf
ROOT
ATOM      1  C   UNL     1     173.753 176.367 182.582  1.00  0.00     0.000 C 
ENDROOT
BRANCH   1   2
ATOM      2  C   UNL     1     175.236 176.643 182.876  1.00  0.00     0.000 C 
BRANCH   2   3
ATOM      3  C   UNL     1     176.121 175.401 182.642  1.00  0.00     0.000 C 
BRANCH   3   4
ATOM      4  C   UNL     1     177.028 175.507 181.405  1.00  0.00     0.000 C 
BRANCH   4   5
ATOM      5  C   UNL     1     177.042 176.918 180.793  1.00  0.00     0.000 C 
BRANCH   5   6
ATOM      6  C   UNL     1     176.530 176.938 179.343  1.00  0.00     0.000 C 
BRANCH   6   7
ATOM      7  C   UNL     1     175.978 175.573 178.895  1.00  0.00     0.000 C 
BRANCH   7   8
ATOM      8  C   UNL     1     174.870 175.703 177.837  1.00  0.00     0.000 C 
BRANCH   8   9
ATOM      9  C   UNL     1     174.124 177.047 177.923  1.00  0.00     0.000 C 
BRANCH   9  10
ATOM     10  C   UNL     1     172.754 177.007 177.226  1.00  0.00     0.006 C 
BRANCH  10  11
ATOM     11  C   UNL     1     171.599 177.344 178.179  1.00  0.00     0.053 C 
BRANCH  11  12
ATOM     12  C   UNL     1     170.380 176.555 177.818  1.00  0.00     0.041 C 
ATOM     13  O   UNL     1     170.163 176.235 176.620  1.00  0.00    -0.550 OA
ATOM     14  O   UNL     1     169.510 176.128 178.813  1.00  0.00    -0.550 OA
ENDBRANCH  11  12
ENDBRANCH  10  11
ENDBRANCH   9  10
ENDBRANCH   8   9
ENDBRANCH   7   8
ENDBRANCH   6   7
ENDBRANCH   5   6
ENDBRANCH   4   5
ENDBRANCH   3   4
ENDBRANCH   2   3
ENDBRANCH   1   2
BRANCH   1  15
ATOM     15  C   UNL     1     173.224 177.308 181.490  1.00  0.00     0.000 C 
BRANCH  15  16
ATOM     16  C   UNL     1     171.756 177.716 181.711  1.00  0.00     0.000 C 
BRANCH  16  17
ATOM     17  C   UNL     1     171.340 177.882 183.186  1.00  0.00     0.000 C 
BRANCH  17  18
ATOM     18  C   UNL     1     170.033 177.169 183.581  1.00  0.00    -0.000 C 
BRANCH  18  19
ATOM     19  C   UNL     1     169.417 176.292 182.476  1.00  0.00    -0.000 C 
BRANCH  19  20
ATOM     20  C   UNL     1     169.787 174.806 182.622  1.00  0.00    -0.000 C 
BRANCH  20  21
ATOM     21  C   UNL     1     170.378 174.472 184.002  1.00  0.00    -0.000 C 
BRANCH  21  22
ATOM     22  C   UNL     1     171.687 173.670 183.907  1.00  0.00    -0.000 C 
BRANCH  22  23
ATOM     23  C   UNL     1     171.866 172.998 182.536  1.00  0.00    -0.000 C 
BRANCH  23  24
ATOM     24  C   UNL     1     173.339 172.915 182.102  1.00  0.00    -0.000 C 
BRANCH  24  25
ATOM     25  C   UNL     1     173.533 173.241 180.613  1.00  0.00    -0.003 C 
ATOM     26  C   UNL     1     172.350 174.003 180.016  1.00  0.00     0.004 C 
ENDBRANCH  24  25
ENDBRANCH  23  24
ENDBRANCH  22  23
ENDBRANCH  21  22
ENDBRANCH  20  21
ENDBRANCH  19  20
ENDBRANCH  18  19
ENDBRANCH  17  18
ENDBRANCH  16  17
ENDBRANCH  15  16
ENDBRANCH   1  15
TORSDOF 22
ENDMDL
MODEL 8
REMARK VINA RESULT:    -3.619      2.884      6.166
REMARK INTER + INTRA:         -12.996
REMARK INTER:                  -8.466
REMARK INTRA:                  -4.530
REMARK UNBOUND:                -4.721
REMARK SMILES CCCCCCCCCCCCCCCCCCCCCCCC(=O)[O-]
REMARK SMILES IDX 13 1 14 2 15 3 16 4 17 5 18 6 19 7 20 8 21 9 22 10 23 11
REMARK SMILES IDX 24 12 25 13 26 14 12 15 11 16 10 17 9 18 8 19 7 20 6 21 5 22
REMARK SMILES IDX 4 23 3 24 2 25 1 26
REMARK H PARENT
REMARK Flexibility Score: inf
ROOT
ATOM      1  C   UNL     1     173.097 176.877 181.019  1.00  0.00     0.000 C 
ENDROOT
BRANCH   1   2
ATOM      2  C   UNL     1     172.718 176.761 182.505  1.00  0.00     0.000 C 
BRANCH   2   3
ATOM      3  C   UNL     1     172.177 175.361 182.864  1.00  0.00     0.000 C 
BRANCH   3   4
ATOM      4  C   UNL     1     170.686 175.348 183.243  1.00  0.00     0.000 C 
BRANCH   4   5
ATOM      5  C   UNL     1     170.080 176.758 183.332  1.00  0.00     0.000 C 
BRANCH   5   6
ATOM      6  C   UNL     1     168.988 176.999 182.277  1.00  0.00     0.000 C 
BRANCH   6   7
ATOM      7  C   UNL     1     169.320 176.343 180.925  1.00  0.00     0.000 C 
BRANCH   7   8
ATOM      8  C   UNL     1     169.597 177.375 179.819  1.00  0.00     0.000 C 
BRANCH   8   9
ATOM      9  C   UNL     1     170.242 176.745 178.571  1.00  0.00     0.000 C 
BRANCH   9  10
ATOM     10  C   UNL     1     171.247 177.687 177.888  1.00  0.00     0.006 C 
BRANCH  10  11
ATOM     11  C   UNL     1     171.087 177.713 176.363  1.00  0.00     0.053 C 
BRANCH  11  12
ATOM     12  C   UNL     1     172.252 177.042 175.706  1.00  0.00     0.041 C 
ATOM     13  O   UNL     1     172.374 175.790 175.755  1.00  0.00    -0.550 OA
ATOM     14  O   UNL     1     173.176 177.796 174.993  1.00  0.00    -0.550 OA
ENDBRANCH  11  12
ENDBRANCH  10  11
ENDBRANCH   9  10
ENDBRANCH   8   9
ENDBRANCH   7   8
ENDBRANCH   6   7
ENDBRANCH   5   6
ENDBRANCH   4   5
ENDBRANCH   3   4
ENDBRANCH   2   3
ENDBRANCH   1   2
BRANCH   1  15
ATOM     15  C   UNL     1     173.107 175.497 180.345  1.00  0.00     0.000 C 
BRANCH  15  16
ATOM     16  C   UNL     1     173.959 175.464 179.063  1.00  0.00     0.000 C 
BRANCH  16  17
ATOM     17  C   UNL     1     175.478 175.595 179.286  1.00  0.00     0.000 C 
BRANCH  17  18
ATOM     18  C   UNL     1     176.100 176.917 178.796  1.00  0.00    -0.000 C 
BRANCH  18  19
ATOM     19  C   UNL     1     176.579 177.858 179.915  1.00  0.00    -0.000 C 
BRANCH  19  20
ATOM     20  C   UNL     1     177.276 177.108 181.064  1.00  0.00    -0.000 C 
BRANCH  20  21
ATOM     21  C   UNL     1     176.826 177.595 182.451  1.00  0.00    -0.000 C 
BRANCH  21  22
ATOM     22  C   UNL     1     176.216 176.470 183.304  1.00  0.00    -0.000 C 
BRANCH  22  23
ATOM     23  C   UNL     1     176.605 175.072 182.797  1.00  0.00    -0.000 C 
BRANCH  23  24
ATOM     24  C   UNL     1     175.421 174.090 182.792  1.00  0.00    -0.000 C 
BRANCH  24  25
ATOM     25  C   UNL     1     175.611 172.942 181.788  1.00  0.00    -0.003 C 
ATOM     26  C   UNL     1     174.321 172.163 181.532  1.00  0.00     0.004 C 
ENDBRANCH  24  25
ENDBRANCH  23  24
ENDBRANCH  22  23
ENDBRANCH  21  22
ENDBRANCH  20  21
ENDBRANCH  19  20
ENDBRANCH  18  19
ENDBRANCH  17  18
ENDBRANCH  16  17
ENDBRANCH  15  16
ENDBRANCH   1  15
TORSDOF 22
ENDMDL
MODEL 9
REMARK VINA RESULT:    -3.593      2.858      4.093
REMARK INTER + INTRA:         -12.935
REMARK INTER:                  -8.178
REMARK INTRA:                  -4.757
REMARK UNBOUND:                -4.721
REMARK SMILES CCCCCCCCCCCCCCCCCCCCCCCC(=O)[O-]
REMARK SMILES IDX 13 1 14 2 15 3 16 4 17 5 18 6 19 7 20 8 21 9 22 10 23 11
REMARK SMILES IDX 24 12 25 13 26 14 12 15 11 16 10 17 9 18 8 19 7 20 6 21 5 22
REMARK SMILES IDX 4 23 3 24 2 25 1 26
REMARK H PARENT
REMARK Flexibility Score: inf
ROOT
ATOM      1  C   UNL     1     173.354 175.795 182.518  1.00  0.00     0.000 C 
ENDROOT
BRANCH   1   2
ATOM      2  C   UNL     1     174.757 175.258 182.846  1.00  0.00     0.000 C 
BRANCH   2   3
ATOM      3  C   UNL     1     175.727 176.378 183.276  1.00  0.00     0.000 C 
BRANCH   3   4
ATOM      4  C   UNL     1     177.021 176.434 182.447  1.00  0.00     0.000 C 
BRANCH   4   5
ATOM      5  C   UNL     1     177.248 177.803 181.784  1.00  0.00     0.000 C 
BRANCH   5   6
ATOM      6  C   UNL     1     177.129 177.745 180.253  1.00  0.00     0.000 C 
BRANCH   6   7
ATOM      7  C   UNL     1     176.837 176.324 179.738  1.00  0.00     0.000 C 
BRANCH   7   8
ATOM      8  C   UNL     1     175.541 176.248 178.915  1.00  0.00     0.000 C 
BRANCH   8   9
ATOM      9  C   UNL     1     174.552 177.377 179.262  1.00  0.00     0.000 C 
BRANCH   9  10
ATOM     10  C   UNL     1     173.534 177.634 178.139  1.00  0.00     0.006 C 
BRANCH  10  11
ATOM     11  C   UNL     1     173.793 176.768 176.900  1.00  0.00     0.053 C 
BRANCH  11  12
ATOM     12  C   UNL     1     172.829 177.118 175.810  1.00  0.00     0.041 C 
ATOM     13  O   UNL     1     173.129 177.993 174.955  1.00  0.00    -0.550 OA
ATOM     14  O   UNL     1     171.621 176.441 175.707  1.00  0.00    -0.550 OA
ENDBRANCH  11  12
ENDBRANCH  10  11
ENDBRANCH   9  10
ENDBRANCH   8   9
ENDBRANCH   7   8
ENDBRANCH   6   7
ENDBRANCH   5   6
ENDBRANCH   4   5
ENDBRANCH   3   4
ENDBRANCH   2   3
ENDBRANCH   1   2
BRANCH   1  15
ATOM     15  C   UNL     1     173.327 177.329 182.567  1.00  0.00     0.000 C 
BRANCH  15  16
ATOM     16  C   UNL     1     171.906 177.907 182.436  1.00  0.00     0.000 C 
BRANCH  16  17
ATOM     17  C   UNL     1     171.168 177.533 181.135  1.00  0.00     0.000 C 
BRANCH  17  18
ATOM     18  C   UNL     1     169.973 176.575 181.314  1.00  0.00    -0.000 C 
BRANCH  18  19
ATOM     19  C   UNL     1     170.031 175.304 180.450  1.00  0.00    -0.000 C 
BRANCH  19  20
ATOM     20  C   UNL     1     170.721 175.539 179.094  1.00  0.00    -0.000 C 
BRANCH  20  21
ATOM     21  C   UNL     1     171.627 174.368 178.678  1.00  0.00    -0.000 C 
BRANCH  21  22
ATOM     22  C   UNL     1     172.758 174.107 179.689  1.00  0.00    -0.000 C 
BRANCH  22  23
ATOM     23  C   UNL     1     173.606 172.881 179.315  1.00  0.00    -0.000 C 
BRANCH  23  24
ATOM     24  C   UNL     1     174.579 172.469 180.433  1.00  0.00    -0.000 C 
BRANCH  24  25
ATOM     25  C   UNL     1     176.050 172.692 180.046  1.00  0.00    -0.003 C 
ATOM     26  C   UNL     1     176.966 172.825 181.263  1.00  0.00     0.004 C 
ENDBRANCH  24  25
ENDBRANCH  23  24
ENDBRANCH  22  23
ENDBRANCH  21  22
ENDBRANCH  20  21
ENDBRANCH  19  20
ENDBRANCH  18  19
ENDBRANCH  17  18
ENDBRANCH  16  17
ENDBRANCH  15  16
ENDBRANCH   1  15
TORSDOF 22
ENDMDL
