MODEL 1
REMARK VINA RESULT:    -6.621      0.000      0.000
REMARK INTER + INTRA:          -7.461
REMARK INTER:                  -7.202
REMARK INTRA:                  -0.260
REMARK UNBOUND:                -0.260
REMARK SMILES C=C1C[C@@]2(O)O[C@@]3(C[C@@H]2C(C)C)[C@@H](C)CC[C@@H]13
REMARK SMILES IDX 14 1 13 2 15 3 16 4 17 5 7 6 8 7 9 8 4 9 6 10 3 11 2 12 1 13
REMARK SMILES IDX 10 14 11 15 12 16 5 17
REMARK H PARENT 5 18
REMARK Flexibility Score: inf
ROOT
ATOM      1  C   UNL     1     252.720 -25.634  48.517  1.00  0.00     0.011 C 
ATOM      2  C   UNL     1     253.447 -24.288  48.646  1.00  0.00     0.019 C 
ATOM      3  C   UNL     1     252.865 -23.217  47.713  1.00  0.00     0.007 C 
ATOM      4  C   UNL     1     252.859 -21.899  48.493  1.00  0.00     0.011 C 
ATOM      5  C   UNL     1     253.586 -22.173  49.808  1.00  0.00     0.047 C 
ATOM      6  C   UNL     1     253.384 -23.677  50.054  1.00  0.00     0.081 C 
ATOM      7  C   UNL     1     254.418 -24.240  51.037  1.00  0.00     0.046 C 
ATOM      8  C   UNL     1     253.698 -24.149  52.382  1.00  0.00     0.054 C 
ATOM      9  C   UNL     1     252.317 -23.542  51.996  1.00  0.00     0.173 C 
ATOM     10  O   UNL     1     252.116 -23.875  50.645  1.00  0.00    -0.342 OA
ATOM     11  C   UNL     1     252.304 -21.990  52.105  1.00  0.00     0.096 C 
ATOM     12  C   UNL     1     253.058 -21.335  50.963  1.00  0.00    -0.066 C 
ATOM     13  C   UNL     1     253.251 -20.009  50.972  1.00  0.00     0.008 C 
ENDROOT
BRANCH   8  14
ATOM     14  C   UNL     1     253.638 -25.508  53.156  1.00  0.00    -0.009 C 
ATOM     15  C   UNL     1     254.442 -26.652  52.505  1.00  0.00     0.008 C 
ATOM     16  C   UNL     1     254.065 -25.331  54.621  1.00  0.00     0.008 C 
ENDBRANCH   8  14
BRANCH   9  17
ATOM     17  O   UNL     1     251.263 -24.075  52.762  1.00  0.00    -0.365 OA
ATOM     18  H   UNL     1     251.658 -24.735  53.391  1.00  0.00     0.214 HD
ENDBRANCH   9  17
TORSDOF 2
ENDMDL
MODEL 2
REMARK VINA RESULT:    -6.405      2.112      3.498
REMARK INTER + INTRA:          -7.226
REMARK INTER:                  -6.920
REMARK INTRA:                  -0.306
REMARK UNBOUND:                -0.260
REMARK SMILES C=C1C[C@@]2(O)O[C@@]3(C[C@@H]2C(C)C)[C@@H](C)CC[C@@H]13
REMARK SMILES IDX 14 1 13 2 15 3 16 4 17 5 7 6 8 7 9 8 4 9 6 10 3 11 2 12 1 13
REMARK SMILES IDX 10 14 11 15 12 16 5 17
REMARK H PARENT 5 18
REMARK Flexibility Score: inf
ROOT
ATOM      1  C   UNL     1     250.376 -23.072  50.879  1.00  0.00     0.011 C 
ATOM      2  C   UNL     1     250.590 -23.922  49.619  1.00  0.00     0.019 C 
ATOM      3  C   UNL     1     250.213 -23.170  48.335  1.00  0.00     0.007 C 
ATOM      4  C   UNL     1     251.257 -23.540  47.277  1.00  0.00     0.011 C 
ATOM      5  C   UNL     1     252.132 -24.628  47.896  1.00  0.00     0.047 C 
ATOM      6  C   UNL     1     252.042 -24.379  49.411  1.00  0.00     0.081 C 
ATOM      7  C   UNL     1     252.439 -25.620  50.220  1.00  0.00     0.046 C 
ATOM      8  C   UNL     1     253.925 -25.389  50.495  1.00  0.00     0.054 C 
ATOM      9  C   UNL     1     254.197 -24.020  49.806  1.00  0.00     0.173 C 
ATOM     10  O   UNL     1     252.956 -23.360  49.761  1.00  0.00    -0.342 OA
ATOM     11  C   UNL     1     254.694 -24.186  48.340  1.00  0.00     0.096 C 
ATOM     12  C   UNL     1     253.570 -24.585  47.402  1.00  0.00    -0.066 C 
ATOM     13  C   UNL     1     253.850 -24.892  46.128  1.00  0.00     0.008 C 
ENDROOT
BRANCH   8  14
ATOM     14  C   UNL     1     254.301 -25.459  52.013  1.00  0.00    -0.009 C 
ATOM     15  C   UNL     1     253.242 -24.862  52.963  1.00  0.00     0.008 C 
ATOM     16  C   UNL     1     254.637 -26.897  52.434  1.00  0.00     0.008 C 
ENDBRANCH   8  14
BRANCH   9  17
ATOM     17  O   UNL     1     255.112 -23.229  50.524  1.00  0.00    -0.365 OA
ATOM     18  H   UNL     1     254.613 -22.803  51.271  1.00  0.00     0.214 HD
ENDBRANCH   9  17
TORSDOF 2
ENDMDL
MODEL 3
REMARK VINA RESULT:    -6.219     10.468     12.481
REMARK INTER + INTRA:          -7.024
REMARK INTER:                  -6.710
REMARK INTRA:                  -0.314
REMARK UNBOUND:                -0.260
REMARK SMILES C=C1C[C@@]2(O)O[C@@]3(C[C@@H]2C(C)C)[C@@H](C)CC[C@@H]13
REMARK SMILES IDX 14 1 13 2 15 3 16 4 17 5 7 6 8 7 9 8 4 9 6 10 3 11 2 12 1 13
REMARK SMILES IDX 10 14 11 15 12 16 5 17
REMARK H PARENT 5 18
REMARK Flexibility Score: inf
ROOT
ATOM      1  C   UNL     1     264.111 -27.151  60.586  1.00  0.00     0.011 C 
ATOM      2  C   UNL     1     263.683 -26.149  59.505  1.00  0.00     0.019 C 
ATOM      3  C   UNL     1     264.821 -25.824  58.526  1.00  0.00     0.007 C 
ATOM      4  C   UNL     1     264.197 -25.728  57.130  1.00  0.00     0.011 C 
ATOM      5  C   UNL     1     262.685 -25.833  57.325  1.00  0.00     0.047 C 
ATOM      6  C   UNL     1     262.519 -26.634  58.628  1.00  0.00     0.081 C 
ATOM      7  C   UNL     1     261.131 -26.435  59.249  1.00  0.00     0.046 C 
ATOM      8  C   UNL     1     260.332 -27.611  58.684  1.00  0.00     0.054 C 
ATOM      9  C   UNL     1     261.380 -28.351  57.803  1.00  0.00     0.173 C 
ATOM     10  O   UNL     1     262.636 -28.011  58.333  1.00  0.00    -0.342 OA
ATOM     11  C   UNL     1     261.349 -27.873  56.323  1.00  0.00     0.096 C 
ATOM     12  C   UNL     1     261.982 -26.504  56.156  1.00  0.00    -0.066 C 
ATOM     13  C   UNL     1     261.924 -25.890  54.966  1.00  0.00     0.008 C 
ENDROOT
BRANCH   8  14
ATOM     14  C   UNL     1     259.644 -28.487  59.784  1.00  0.00    -0.009 C 
ATOM     15  C   UNL     1     260.194 -28.276  61.209  1.00  0.00     0.008 C 
ATOM     16  C   UNL     1     258.120 -28.294  59.772  1.00  0.00     0.008 C 
ENDBRANCH   8  14
BRANCH   9  17
ATOM     17  O   UNL     1     261.226 -29.749  57.847  1.00  0.00    -0.365 OA
ATOM     18  H   UNL     1     261.914 -30.142  57.247  1.00  0.00     0.214 HD
ENDBRANCH   9  17
TORSDOF 2
ENDMDL
MODEL 4
REMARK VINA RESULT:    -6.164      9.682     12.193
REMARK INTER + INTRA:          -6.964
REMARK INTER:                  -6.666
REMARK INTRA:                  -0.298
REMARK UNBOUND:                -0.260
REMARK SMILES C=C1C[C@@]2(O)O[C@@]3(C[C@@H]2C(C)C)[C@@H](C)CC[C@@H]13
REMARK SMILES IDX 14 1 13 2 15 3 16 4 17 5 7 6 8 7 9 8 4 9 6 10 3 11 2 12 1 13
REMARK SMILES IDX 10 14 11 15 12 16 5 17
REMARK H PARENT 5 18
REMARK Flexibility Score: inf
ROOT
ATOM      1  C   UNL     1     261.467 -26.966  60.462  1.00  0.00     0.011 C 
ATOM      2  C   UNL     1     260.778 -28.063  59.638  1.00  0.00     0.019 C 
ATOM      3  C   UNL     1     259.249 -27.922  59.637  1.00  0.00     0.007 C 
ATOM      4  C   UNL     1     258.768 -28.264  58.224  1.00  0.00     0.011 C 
ATOM      5  C   UNL     1     259.994 -28.760  57.460  1.00  0.00     0.047 C 
ATOM      6  C   UNL     1     261.185 -28.080  58.156  1.00  0.00     0.081 C 
ATOM      7  C   UNL     1     262.506 -28.803  57.868  1.00  0.00     0.046 C 
ATOM      8  C   UNL     1     263.059 -28.040  56.665  1.00  0.00     0.054 C 
ATOM      9  C   UNL     1     261.974 -26.953  56.414  1.00  0.00     0.173 C 
ATOM     10  O   UNL     1     261.322 -26.769  57.646  1.00  0.00    -0.342 OA
ATOM     11  C   UNL     1     260.904 -27.415  55.382  1.00  0.00     0.096 C 
ATOM     12  C   UNL     1     259.942 -28.427  55.976  1.00  0.00    -0.066 C 
ATOM     13  C   UNL     1     259.038 -29.022  55.187  1.00  0.00     0.008 C 
ENDROOT
BRANCH   8  14
ATOM     14  C   UNL     1     264.512 -27.497  56.880  1.00  0.00    -0.009 C 
ATOM     15  C   UNL     1     265.051 -27.660  58.316  1.00  0.00     0.008 C 
ATOM     16  C   UNL     1     265.491 -28.121  55.875  1.00  0.00     0.008 C 
ENDBRANCH   8  14
BRANCH   9  17
ATOM     17  O   UNL     1     262.526 -25.727  55.999  1.00  0.00    -0.365 OA
ATOM     18  H   UNL     1     262.057 -25.007  56.497  1.00  0.00     0.214 HD
ENDBRANCH   9  17
TORSDOF 2
ENDMDL
MODEL 5
REMARK VINA RESULT:    -6.116     10.115     12.267
REMARK INTER + INTRA:          -6.911
REMARK INTER:                  -6.587
REMARK INTRA:                  -0.325
REMARK UNBOUND:                -0.260
REMARK SMILES C=C1C[C@@]2(O)O[C@@]3(C[C@@H]2C(C)C)[C@@H](C)CC[C@@H]13
REMARK SMILES IDX 14 1 13 2 15 3 16 4 17 5 7 6 8 7 9 8 4 9 6 10 3 11 2 12 1 13
REMARK SMILES IDX 10 14 11 15 12 16 5 17
REMARK H PARENT 5 18
REMARK Flexibility Score: inf
ROOT
ATOM      1  C   UNL     1     264.805 -26.372  54.360  1.00  0.00     0.011 C 
ATOM      2  C   UNL     1     263.330 -26.119  54.701  1.00  0.00     0.019 C 
ATOM      3  C   UNL     1     262.386 -26.540  53.565  1.00  0.00     0.007 C 
ATOM      4  C   UNL     1     261.159 -27.183  54.217  1.00  0.00     0.011 C 
ATOM      5  C   UNL     1     261.317 -26.984  55.723  1.00  0.00     0.047 C 
ATOM      6  C   UNL     1     262.836 -26.879  55.941  1.00  0.00     0.081 C 
ATOM      7  C   UNL     1     263.177 -26.205  57.276  1.00  0.00     0.046 C 
ATOM      8  C   UNL     1     263.347 -27.392  58.225  1.00  0.00     0.054 C 
ATOM      9  C   UNL     1     263.084 -28.616  57.300  1.00  0.00     0.173 C 
ATOM     10  O   UNL     1     263.378 -28.182  55.996  1.00  0.00    -0.342 OA
ATOM     11  C   UNL     1     261.593 -29.062  57.322  1.00  0.00     0.096 C 
ATOM     12  C   UNL     1     260.706 -28.113  56.538  1.00  0.00    -0.066 C 
ATOM     13  C   UNL     1     259.377 -28.281  56.560  1.00  0.00     0.008 C 
ENDROOT
BRANCH   8  14
ATOM     14  C   UNL     1     264.720 -27.404  58.976  1.00  0.00    -0.009 C 
ATOM     15  C   UNL     1     265.883 -26.758  58.195  1.00  0.00     0.008 C 
ATOM     16  C   UNL     1     264.597 -26.761  60.365  1.00  0.00     0.008 C 
ENDBRANCH   8  14
BRANCH   9  17
ATOM     17  O   UNL     1     263.906 -29.714  57.616  1.00  0.00    -0.365 OA
ATOM     18  H   UNL     1     263.464 -30.528  57.258  1.00  0.00     0.214 HD
ENDBRANCH   9  17
TORSDOF 2
ENDMDL
MODEL 6
REMARK VINA RESULT:    -6.005     10.066     12.230
REMARK INTER + INTRA:          -6.791
REMARK INTER:                  -6.499
REMARK INTRA:                  -0.292
REMARK UNBOUND:                -0.260
REMARK SMILES C=C1C[C@@]2(O)O[C@@]3(C[C@@H]2C(C)C)[C@@H](C)CC[C@@H]13
REMARK SMILES IDX 14 1 13 2 15 3 16 4 17 5 7 6 8 7 9 8 4 9 6 10 3 11 2 12 1 13
REMARK SMILES IDX 10 14 11 15 12 16 5 17
REMARK H PARENT 5 18
REMARK Flexibility Score: inf
ROOT
ATOM      1  C   UNL     1     259.208 -28.674  56.105  1.00  0.00     0.011 C 
ATOM      2  C   UNL     1     259.571 -27.703  57.238  1.00  0.00     0.019 C 
ATOM      3  C   UNL     1     259.125 -28.217  58.614  1.00  0.00     0.007 C 
ATOM      4  C   UNL     1     260.237 -27.864  59.606  1.00  0.00     0.011 C 
ATOM      5  C   UNL     1     261.242 -27.006  58.840  1.00  0.00     0.047 C 
ATOM      6  C   UNL     1     261.078 -27.437  57.373  1.00  0.00     0.081 C 
ATOM      7  C   UNL     1     261.626 -26.384  56.402  1.00  0.00     0.046 C 
ATOM      8  C   UNL     1     263.057 -26.861  56.151  1.00  0.00     0.054 C 
ATOM      9  C   UNL     1     263.150 -28.151  57.017  1.00  0.00     0.173 C 
ATOM     10  O   UNL     1     261.830 -28.614  57.158  1.00  0.00    -0.342 OA
ATOM     11  C   UNL     1     263.703 -27.866  58.443  1.00  0.00     0.096 C 
ATOM     12  C   UNL     1     262.671 -27.189  59.327  1.00  0.00    -0.066 C 
ATOM     13  C   UNL     1     263.024 -26.760  60.546  1.00  0.00     0.008 C 
ENDROOT
BRANCH   8  14
ATOM     14  C   UNL     1     263.400 -27.047  54.635  1.00  0.00    -0.009 C 
ATOM     15  C   UNL     1     262.210 -26.832  53.678  1.00  0.00     0.008 C 
ATOM     16  C   UNL     1     264.578 -26.153  54.221  1.00  0.00     0.008 C 
ENDBRANCH   8  14
BRANCH   9  17
ATOM     17  O   UNL     1     263.925 -29.154  56.405  1.00  0.00    -0.365 OA
ATOM     18  H   UNL     1     264.424 -28.728  55.659  1.00  0.00     0.214 HD
ENDBRANCH   9  17
TORSDOF 2
ENDMDL
MODEL 7
REMARK VINA RESULT:    -5.935      1.458      4.400
REMARK INTER + INTRA:          -6.715
REMARK INTER:                  -6.510
REMARK INTRA:                  -0.205
REMARK UNBOUND:                -0.260
REMARK SMILES C=C1C[C@@]2(O)O[C@@]3(C[C@@H]2C(C)C)[C@@H](C)CC[C@@H]13
REMARK SMILES IDX 14 1 13 2 15 3 16 4 17 5 7 6 8 7 9 8 4 9 6 10 3 11 2 12 1 13
REMARK SMILES IDX 10 14 11 15 12 16 5 17
REMARK H PARENT 5 18
REMARK Flexibility Score: inf
ROOT
ATOM      1  C   UNL     1     254.944 -26.643  51.975  1.00  0.00     0.011 C 
ATOM      2  C   UNL     1     253.598 -26.271  52.612  1.00  0.00     0.019 C 
ATOM      3  C   UNL     1     253.713 -26.028  54.124  1.00  0.00     0.007 C 
ATOM      4  C   UNL     1     252.809 -24.837  54.456  1.00  0.00     0.011 C 
ATOM      5  C   UNL     1     252.050 -24.501  53.174  1.00  0.00     0.047 C 
ATOM      6  C   UNL     1     252.969 -24.991  52.042  1.00  0.00     0.081 C 
ATOM      7  C   UNL     1     252.202 -25.192  50.728  1.00  0.00     0.046 C 
ATOM      8  C   UNL     1     252.399 -23.857  50.010  1.00  0.00     0.054 C 
ATOM      9  C   UNL     1     253.273 -23.048  51.013  1.00  0.00     0.173 C 
ATOM     10  O   UNL     1     253.948 -24.004  51.791  1.00  0.00    -0.342 OA
ATOM     11  C   UNL     1     252.414 -22.180  51.977  1.00  0.00     0.096 C 
ATOM     12  C   UNL     1     251.734 -23.019  53.042  1.00  0.00    -0.066 C 
ATOM     13  C   UNL     1     250.856 -22.445  53.876  1.00  0.00     0.008 C 
ENDROOT
BRANCH   8  14
ATOM     14  C   UNL     1     252.995 -24.001  48.569  1.00  0.00    -0.009 C 
ATOM     15  C   UNL     1     252.923 -25.427  47.987  1.00  0.00     0.008 C 
ATOM     16  C   UNL     1     252.347 -23.002  47.600  1.00  0.00     0.008 C 
ENDBRANCH   8  14
BRANCH   9  17
ATOM     17  O   UNL     1     254.219 -22.232  50.364  1.00  0.00    -0.365 OA
ATOM     18  H   UNL     1     253.729 -21.686  49.694  1.00  0.00     0.214 HD
ENDBRANCH   9  17
TORSDOF 2
ENDMDL
MODEL 8
REMARK VINA RESULT:    -5.885     11.937     13.075
REMARK INTER + INTRA:          -6.661
REMARK INTER:                  -6.344
REMARK INTRA:                  -0.317
REMARK UNBOUND:                -0.260
REMARK SMILES C=C1C[C@@]2(O)O[C@@]3(C[C@@H]2C(C)C)[C@@H](C)CC[C@@H]13
REMARK SMILES IDX 14 1 13 2 15 3 16 4 17 5 7 6 8 7 9 8 4 9 6 10 3 11 2 12 1 13
REMARK SMILES IDX 10 14 11 15 12 16 5 17
REMARK H PARENT 5 18
REMARK Flexibility Score: inf
ROOT
ATOM      1  C   UNL     1     262.802 -28.911  57.310  1.00  0.00     0.011 C 
ATOM      2  C   UNL     1     261.391 -28.400  57.634  1.00  0.00     0.019 C 
ATOM      3  C   UNL     1     260.408 -29.542  57.928  1.00  0.00     0.007 C 
ATOM      4  C   UNL     1     259.515 -29.079  59.083  1.00  0.00     0.011 C 
ATOM      5  C   UNL     1     259.870 -27.616  59.342  1.00  0.00     0.047 C 
ATOM      6  C   UNL     1     261.326 -27.482  58.864  1.00  0.00     0.081 C 
ATOM      7  C   UNL     1     261.705 -26.021  58.587  1.00  0.00     0.046 C 
ATOM      8  C   UNL     1     262.331 -25.574  59.908  1.00  0.00     0.054 C 
ATOM      9  C   UNL     1     262.238 -26.854  60.788  1.00  0.00     0.173 C 
ATOM     10  O   UNL     1     262.186 -27.934  59.890  1.00  0.00    -0.342 OA
ATOM     11  C   UNL     1     260.937 -26.890  61.642  1.00  0.00     0.096 C 
ATOM     12  C   UNL     1     259.717 -27.219  60.802  1.00  0.00    -0.066 C 
ATOM     13  C   UNL     1     258.499 -27.165  61.358  1.00  0.00     0.008 C 
ENDROOT
BRANCH   8  14
ATOM     14  C   UNL     1     263.769 -24.974  59.749  1.00  0.00    -0.009 C 
ATOM     15  C   UNL     1     264.618 -25.631  58.642  1.00  0.00     0.008 C 
ATOM     16  C   UNL     1     263.714 -23.454  59.541  1.00  0.00     0.008 C 
ENDBRANCH   8  14
BRANCH   9  17
ATOM     17  O   UNL     1     263.355 -27.010  61.629  1.00  0.00    -0.365 OA
ATOM     18  H   UNL     1     263.428 -27.976  61.848  1.00  0.00     0.214 HD
ENDBRANCH   9  17
TORSDOF 2
ENDMDL
MODEL 9
REMARK VINA RESULT:    -5.773     17.338     19.280
REMARK INTER + INTRA:          -6.539
REMARK INTER:                  -6.222
REMARK INTRA:                  -0.317
REMARK UNBOUND:                -0.260
REMARK SMILES C=C1C[C@@]2(O)O[C@@]3(C[C@@H]2C(C)C)[C@@H](C)CC[C@@H]13
REMARK SMILES IDX 14 1 13 2 15 3 16 4 17 5 7 6 8 7 9 8 4 9 6 10 3 11 2 12 1 13
REMARK SMILES IDX 10 14 11 15 12 16 5 17
REMARK H PARENT 5 18
REMARK Flexibility Score: inf
ROOT
ATOM      1  C   UNL     1     265.103 -36.026  41.882  1.00  0.00     0.011 C 
ATOM      2  C   UNL     1     265.177 -36.292  43.392  1.00  0.00     0.019 C 
ATOM      3  C   UNL     1     265.656 -37.715  43.712  1.00  0.00     0.007 C 
ATOM      4  C   UNL     1     266.588 -37.613  44.923  1.00  0.00     0.011 C 
ATOM      5  C   UNL     1     266.515 -36.164  45.401  1.00  0.00     0.047 C 
ATOM      6  C   UNL     1     266.139 -35.361  44.145  1.00  0.00     0.081 C 
ATOM      7  C   UNL     1     265.551 -33.989  44.496  1.00  0.00     0.046 C 
ATOM      8  C   UNL     1     266.771 -33.070  44.448  1.00  0.00     0.054 C 
ATOM      9  C   UNL     1     267.924 -34.043  44.063  1.00  0.00     0.173 C 
ATOM     10  O   UNL     1     267.311 -35.117  43.394  1.00  0.00    -0.342 OA
ATOM     11  C   UNL     1     268.651 -34.620  45.312  1.00  0.00     0.096 C 
ATOM     12  C   UNL     1     267.818 -35.676  46.015  1.00  0.00    -0.066 C 
ATOM     13  C   UNL     1     268.242 -36.184  47.180  1.00  0.00     0.008 C 
ENDROOT
BRANCH   8  14
ATOM     14  C   UNL     1     266.592 -31.837  43.500  1.00  0.00    -0.009 C 
ATOM     15  C   UNL     1     265.451 -31.980  42.472  1.00  0.00     0.008 C 
ATOM     16  C   UNL     1     266.418 -30.541  44.305  1.00  0.00     0.008 C 
ENDBRANCH   8  14
BRANCH   9  17
ATOM     17  O   UNL     1     268.867 -33.446  43.206  1.00  0.00    -0.365 OA
ATOM     18  H   UNL     1     268.438 -32.643  42.807  1.00  0.00     0.214 HD
ENDBRANCH   9  17
TORSDOF 2
ENDMDL
