MODEL 1
REMARK VINA RESULT:    -5.124      0.000      0.000
REMARK INTER + INTRA:         -13.848
REMARK INTER:                 -11.114
REMARK INTRA:                  -2.734
REMARK UNBOUND:                -2.734
REMARK SMILES CCCCCCCCCCCCCCCCCCCCCC(=O)[O-]
REMARK SMILES IDX 12 1 11 2 10 3 9 4 8 5 7 6 6 7 5 8 4 9 3 10 2 11 1 12 13 13
REMARK SMILES IDX 14 14 15 15 16 16 17 17 18 18 19 19 20 20 21 21 22 22 23 23
REMARK SMILES IDX 24 24
REMARK H PARENT
REMARK Flexibility Score: inf
ROOT
ATOM      1  C   UNL     1      22.328  12.611  10.305  1.00  0.00     0.000 C 
ENDROOT
BRANCH   1   2
ATOM      2  C   UNL     1      22.808  13.716   9.354  1.00  0.00     0.000 C 
BRANCH   2   3
ATOM      3  C   UNL     1      23.654  13.134   8.217  1.00  0.00     0.000 C 
BRANCH   3   4
ATOM      4  C   UNL     1      24.979  13.898   8.072  1.00  0.00    -0.000 C 
BRANCH   4   5
ATOM      5  C   UNL     1      25.863  13.794   9.322  1.00  0.00    -0.000 C 
BRANCH   5   6
ATOM      6  C   UNL     1      27.064  14.757   9.282  1.00  0.00    -0.000 C 
BRANCH   6   7
ATOM      7  C   UNL     1      27.554  15.027   7.846  1.00  0.00    -0.000 C 
BRANCH   7   8
ATOM      8  C   UNL     1      27.681  16.523   7.493  1.00  0.00    -0.000 C 
BRANCH   8   9
ATOM      9  C   UNL     1      27.099  17.476   8.556  1.00  0.00    -0.000 C 
BRANCH   9  10
ATOM     10  C   UNL     1      26.042  18.430   7.972  1.00  0.00    -0.000 C 
BRANCH  10  11
ATOM     11  C   UNL     1      24.857  17.682   7.345  1.00  0.00    -0.003 C 
ATOM     12  C   UNL     1      23.916  18.608   6.574  1.00  0.00     0.004 C 
ENDBRANCH  10  11
ENDBRANCH   9  10
ENDBRANCH   8   9
ENDBRANCH   7   8
ENDBRANCH   6   7
ENDBRANCH   5   6
ENDBRANCH   4   5
ENDBRANCH   3   4
ENDBRANCH   2   3
ENDBRANCH   1   2
BRANCH   1  13
ATOM     13  C   UNL     1      22.218  11.238   9.620  1.00  0.00     0.000 C 
BRANCH  13  14
ATOM     14  C   UNL     1      21.468  10.183  10.460  1.00  0.00     0.000 C 
BRANCH  14  15
ATOM     15  C   UNL     1      20.643  10.821  11.592  1.00  0.00     0.000 C 
BRANCH  15  16
ATOM     16  C   UNL     1      20.371   9.850  12.754  1.00  0.00     0.000 C 
BRANCH  16  17
ATOM     17  C   UNL     1      21.532   8.891  13.092  1.00  0.00     0.000 C 
BRANCH  17  18
ATOM     18  C   UNL     1      22.664   9.505  13.937  1.00  0.00     0.000 C 
BRANCH  18  19
ATOM     19  C   UNL     1      23.956   9.820  13.159  1.00  0.00     0.000 C 
BRANCH  19  20
ATOM     20  C   UNL     1      24.307  11.324  13.115  1.00  0.00     0.006 C 
BRANCH  20  21
ATOM     21  C   UNL     1      25.411  11.680  12.107  1.00  0.00     0.053 C 
BRANCH  21  22
ATOM     22  C   UNL     1      26.678  12.105  12.787  1.00  0.00     0.041 C 
ATOM     23  O   UNL     1      26.707  12.253  14.038  1.00  0.00    -0.550 OA
ATOM     24  O   UNL     1      27.825  12.350  12.039  1.00  0.00    -0.550 OA
ENDBRANCH  21  22
ENDBRANCH  20  21
ENDBRANCH  19  20
ENDBRANCH  18  19
ENDBRANCH  17  18
ENDBRANCH  16  17
ENDBRANCH  15  16
ENDBRANCH  14  15
ENDBRANCH  13  14
ENDBRANCH   1  13
TORSDOF 20
ENDMDL
MODEL 2
REMARK VINA RESULT:    -4.997      3.772     10.235
REMARK INTER + INTRA:         -13.573
REMARK INTER:                 -12.295
REMARK INTRA:                  -1.278
REMARK UNBOUND:                -2.734
REMARK SMILES CCCCCCCCCCCCCCCCCCCCCC(=O)[O-]
REMARK SMILES IDX 12 1 11 2 10 3 9 4 8 5 7 6 6 7 5 8 4 9 3 10 2 11 1 12 13 13
REMARK SMILES IDX 14 14 15 15 16 16 17 17 18 18 19 19 20 20 21 21 22 22 23 23
REMARK SMILES IDX 24 24
REMARK H PARENT
REMARK Flexibility Score: inf
ROOT
ATOM      1  C   UNL     1      25.512  14.984   7.964  1.00  0.00     0.000 C 
ENDROOT
BRANCH   1   2
ATOM      2  C   UNL     1      26.466  14.267   8.930  1.00  0.00     0.000 C 
BRANCH   2   3
ATOM      3  C   UNL     1      25.696  13.333   9.870  1.00  0.00     0.000 C 
BRANCH   3   4
ATOM      4  C   UNL     1      24.237  13.178   9.416  1.00  0.00    -0.000 C 
BRANCH   4   5
ATOM      5  C   UNL     1      23.299  12.774  10.562  1.00  0.00    -0.000 C 
BRANCH   5   6
ATOM      6  C   UNL     1      22.069  11.988  10.074  1.00  0.00    -0.000 C 
BRANCH   6   7
ATOM      7  C   UNL     1      21.535  11.011  11.139  1.00  0.00    -0.000 C 
BRANCH   7   8
ATOM      8  C   UNL     1      22.628  10.398  12.038  1.00  0.00    -0.000 C 
BRANCH   8   9
ATOM      9  C   UNL     1      22.084   9.575  13.224  1.00  0.00    -0.000 C 
BRANCH   9  10
ATOM     10  C   UNL     1      21.161   8.430  12.768  1.00  0.00    -0.000 C 
BRANCH  10  11
ATOM     11  C   UNL     1      19.900   8.311  13.637  1.00  0.00    -0.003 C 
ATOM     12  C   UNL     1      19.124   9.624  13.734  1.00  0.00     0.004 C 
ENDBRANCH  10  11
ENDBRANCH   9  10
ENDBRANCH   8   9
ENDBRANCH   7   8
ENDBRANCH   6   7
ENDBRANCH   5   6
ENDBRANCH   4   5
ENDBRANCH   3   4
ENDBRANCH   2   3
ENDBRANCH   1   2
BRANCH   1  13
ATOM     13  C   UNL     1      25.863  16.469   7.767  1.00  0.00     0.000 C 
BRANCH  13  14
ATOM     14  C   UNL     1      27.353  16.793   8.012  1.00  0.00     0.000 C 
BRANCH  14  15
ATOM     15  C   UNL     1      27.750  18.167   7.446  1.00  0.00     0.000 C 
BRANCH  15  16
ATOM     16  C   UNL     1      26.632  19.217   7.586  1.00  0.00     0.000 C 
BRANCH  16  17
ATOM     17  C   UNL     1      26.968  20.612   7.019  1.00  0.00     0.000 C 
BRANCH  17  18
ATOM     18  C   UNL     1      25.828  21.293   6.238  1.00  0.00     0.000 C 
BRANCH  18  19
ATOM     19  C   UNL     1      25.433  20.590   4.925  1.00  0.00     0.000 C 
BRANCH  19  20
ATOM     20  C   UNL     1      23.935  20.730   4.569  1.00  0.00     0.006 C 
BRANCH  20  21
ATOM     21  C   UNL     1      23.076  21.321   5.699  1.00  0.00     0.053 C 
BRANCH  21  22
ATOM     22  C   UNL     1      21.966  20.397   6.101  1.00  0.00     0.041 C 
ATOM     23  O   UNL     1      21.483  20.455   7.263  1.00  0.00    -0.550 OA
ATOM     24  O   UNL     1      21.473  19.461   5.198  1.00  0.00    -0.550 OA
ENDBRANCH  21  22
ENDBRANCH  20  21
ENDBRANCH  19  20
ENDBRANCH  18  19
ENDBRANCH  17  18
ENDBRANCH  16  17
ENDBRANCH  15  16
ENDBRANCH  14  15
ENDBRANCH  13  14
ENDBRANCH   1  13
TORSDOF 20
ENDMDL
MODEL 3
REMARK VINA RESULT:    -4.976      3.917      9.517
REMARK INTER + INTRA:         -13.528
REMARK INTER:                 -12.087
REMARK INTRA:                  -1.441
REMARK UNBOUND:                -2.734
REMARK SMILES CCCCCCCCCCCCCCCCCCCCCC(=O)[O-]
REMARK SMILES IDX 12 1 11 2 10 3 9 4 8 5 7 6 6 7 5 8 4 9 3 10 2 11 1 12 13 13
REMARK SMILES IDX 14 14 15 15 16 16 17 17 18 18 19 19 20 20 21 21 22 22 23 23
REMARK SMILES IDX 24 24
REMARK H PARENT
REMARK Flexibility Score: inf
ROOT
ATOM      1  C   UNL     1      24.893  13.560   8.052  1.00  0.00     0.000 C 
ENDROOT
BRANCH   1   2
ATOM      2  C   UNL     1      23.626  13.911   8.845  1.00  0.00     0.000 C 
BRANCH   2   3
ATOM      3  C   UNL     1      22.721  12.685   9.008  1.00  0.00     0.000 C 
BRANCH   3   4
ATOM      4  C   UNL     1      22.465  12.386  10.492  1.00  0.00    -0.000 C 
BRANCH   4   5
ATOM      5  C   UNL     1      23.648  12.778  11.389  1.00  0.00    -0.000 C 
BRANCH   5   6
ATOM      6  C   UNL     1      24.406  11.555  11.940  1.00  0.00    -0.000 C 
BRANCH   6   7
ATOM      7  C   UNL     1      23.549  10.723  12.913  1.00  0.00    -0.000 C 
BRANCH   7   8
ATOM      8  C   UNL     1      22.903   9.474  12.277  1.00  0.00    -0.000 C 
BRANCH   8   9
ATOM      9  C   UNL     1      21.368   9.419  12.412  1.00  0.00    -0.000 C 
BRANCH   9  10
ATOM     10  C   UNL     1      20.889   8.155  13.148  1.00  0.00    -0.000 C 
BRANCH  10  11
ATOM     11  C   UNL     1      19.525   8.349  13.824  1.00  0.00    -0.003 C 
ATOM     12  C   UNL     1      19.036   9.796  13.761  1.00  0.00     0.004 C 
ENDBRANCH  10  11
ENDBRANCH   9  10
ENDBRANCH   8   9
ENDBRANCH   7   8
ENDBRANCH   6   7
ENDBRANCH   5   6
ENDBRANCH   4   5
ENDBRANCH   3   4
ENDBRANCH   2   3
ENDBRANCH   1   2
BRANCH   1  13
ATOM     13  C   UNL     1      26.187  13.878   8.820  1.00  0.00     0.000 C 
BRANCH  13  14
ATOM     14  C   UNL     1      27.404  14.137   7.906  1.00  0.00     0.000 C 
BRANCH  14  15
ATOM     15  C   UNL     1      28.039  15.516   8.159  1.00  0.00     0.000 C 
BRANCH  15  16
ATOM     16  C   UNL     1      27.320  16.651   7.409  1.00  0.00     0.000 C 
BRANCH  16  17
ATOM     17  C   UNL     1      26.984  17.892   8.264  1.00  0.00     0.000 C 
BRANCH  17  18
ATOM     18  C   UNL     1      25.858  18.783   7.708  1.00  0.00     0.000 C 
BRANCH  18  19
ATOM     19  C   UNL     1      24.577  18.030   7.299  1.00  0.00     0.000 C 
BRANCH  19  20
ATOM     20  C   UNL     1      23.775  18.727   6.177  1.00  0.00     0.006 C 
BRANCH  20  21
ATOM     21  C   UNL     1      24.514  19.903   5.518  1.00  0.00     0.053 C 
BRANCH  21  22
ATOM     22  C   UNL     1      23.569  20.856   4.849  1.00  0.00     0.041 C 
ATOM     23  O   UNL     1      23.719  22.100   4.988  1.00  0.00    -0.550 OA
ATOM     24  O   UNL     1      22.514  20.372   4.083  1.00  0.00    -0.550 OA
ENDBRANCH  21  22
ENDBRANCH  20  21
ENDBRANCH  19  20
ENDBRANCH  18  19
ENDBRANCH  17  18
ENDBRANCH  16  17
ENDBRANCH  15  16
ENDBRANCH  14  15
ENDBRANCH  13  14
ENDBRANCH   1  13
TORSDOF 20
ENDMDL
MODEL 4
REMARK VINA RESULT:    -4.945      3.673      8.985
REMARK INTER + INTRA:         -13.460
REMARK INTER:                 -11.579
REMARK INTRA:                  -1.881
REMARK UNBOUND:                -2.734
REMARK SMILES CCCCCCCCCCCCCCCCCCCCCC(=O)[O-]
REMARK SMILES IDX 12 1 11 2 10 3 9 4 8 5 7 6 6 7 5 8 4 9 3 10 2 11 1 12 13 13
REMARK SMILES IDX 14 14 15 15 16 16 17 17 18 18 19 19 20 20 21 21 22 22 23 23
REMARK SMILES IDX 24 24
REMARK H PARENT
REMARK Flexibility Score: inf
ROOT
ATOM      1  C   UNL     1      25.728  12.745  10.642  1.00  0.00     0.000 C 
ENDROOT
BRANCH   1   2
ATOM      2  C   UNL     1      26.216  12.350  12.043  1.00  0.00     0.000 C 
BRANCH   2   3
ATOM      3  C   UNL     1      25.038  11.993  12.955  1.00  0.00     0.000 C 
BRANCH   3   4
ATOM      4  C   UNL     1      24.849  10.471  13.036  1.00  0.00    -0.000 C 
BRANCH   4   5
ATOM      5  C   UNL     1      23.450  10.072  13.529  1.00  0.00    -0.000 C 
BRANCH   5   6
ATOM      6  C   UNL     1      22.928   8.788  12.858  1.00  0.00    -0.000 C 
BRANCH   6   7
ATOM      7  C   UNL     1      21.434   8.881  12.493  1.00  0.00    -0.000 C 
BRANCH   7   8
ATOM      8  C   UNL     1      20.979  10.286  12.046  1.00  0.00    -0.000 C 
BRANCH   8   9
ATOM      9  C   UNL     1      21.373  10.647  10.599  1.00  0.00    -0.000 C 
BRANCH   9  10
ATOM     10  C   UNL     1      22.067  12.019  10.506  1.00  0.00    -0.000 C 
BRANCH  10  11
ATOM     11  C   UNL     1      22.535  12.345   9.081  1.00  0.00    -0.003 C 
ATOM     12  C   UNL     1      22.715  13.845   8.848  1.00  0.00     0.004 C 
ENDBRANCH  10  11
ENDBRANCH   9  10
ENDBRANCH   8   9
ENDBRANCH   7   8
ENDBRANCH   6   7
ENDBRANCH   5   6
ENDBRANCH   4   5
ENDBRANCH   3   4
ENDBRANCH   2   3
ENDBRANCH   1   2
BRANCH   1  13
ATOM     13  C   UNL     1      26.678  13.725   9.932  1.00  0.00     0.000 C 
BRANCH  13  14
ATOM     14  C   UNL     1      26.395  13.881   8.423  1.00  0.00     0.000 C 
BRANCH  14  15
ATOM     15  C   UNL     1      26.939  15.207   7.863  1.00  0.00     0.000 C 
BRANCH  15  16
ATOM     16  C   UNL     1      25.872  16.316   7.809  1.00  0.00     0.000 C 
BRANCH  16  17
ATOM     17  C   UNL     1      26.368  17.723   8.204  1.00  0.00     0.000 C 
BRANCH  17  18
ATOM     18  C   UNL     1      26.976  18.548   7.054  1.00  0.00     0.000 C 
BRANCH  18  19
ATOM     19  C   UNL     1      26.173  19.804   6.664  1.00  0.00     0.000 C 
BRANCH  19  20
ATOM     20  C   UNL     1      25.174  19.571   5.508  1.00  0.00     0.006 C 
BRANCH  20  21
ATOM     21  C   UNL     1      23.762  19.179   5.972  1.00  0.00     0.053 C 
BRANCH  21  22
ATOM     22  C   UNL     1      22.700  19.738   5.072  1.00  0.00     0.041 C 
ATOM     23  O   UNL     1      21.512  19.327   5.162  1.00  0.00    -0.550 OA
ATOM     24  O   UNL     1      23.024  20.703   4.125  1.00  0.00    -0.550 OA
ENDBRANCH  21  22
ENDBRANCH  20  21
ENDBRANCH  19  20
ENDBRANCH  18  19
ENDBRANCH  17  18
ENDBRANCH  16  17
ENDBRANCH  15  16
ENDBRANCH  14  15
ENDBRANCH  13  14
ENDBRANCH   1  13
TORSDOF 20
ENDMDL
MODEL 5
REMARK VINA RESULT:    -4.936      4.154      7.993
REMARK INTER + INTRA:         -13.442
REMARK INTER:                 -11.856
REMARK INTRA:                  -1.586
REMARK UNBOUND:                -2.734
REMARK SMILES CCCCCCCCCCCCCCCCCCCCCC(=O)[O-]
REMARK SMILES IDX 12 1 11 2 10 3 9 4 8 5 7 6 6 7 5 8 4 9 3 10 2 11 1 12 13 13
REMARK SMILES IDX 14 14 15 15 16 16 17 17 18 18 19 19 20 20 21 21 22 22 23 23
REMARK SMILES IDX 24 24
REMARK H PARENT
REMARK Flexibility Score: inf
ROOT
ATOM      1  C   UNL     1      23.617  18.343   6.661  1.00  0.00     0.000 C 
ENDROOT
BRANCH   1   2
ATOM      2  C   UNL     1      22.777  19.604   6.419  1.00  0.00     0.000 C 
BRANCH   2   3
ATOM      3  C   UNL     1      22.007  19.509   5.097  1.00  0.00     0.000 C 
BRANCH   3   4
ATOM      4  C   UNL     1      22.382  20.666   4.160  1.00  0.00    -0.000 C 
BRANCH   4   5
ATOM      5  C   UNL     1      23.858  21.073   4.281  1.00  0.00    -0.000 C 
BRANCH   5   6
ATOM      6  C   UNL     1      24.039  22.585   4.511  1.00  0.00    -0.000 C 
BRANCH   6   7
ATOM      7  C   UNL     1      23.814  22.988   5.981  1.00  0.00    -0.000 C 
BRANCH   7   8
ATOM      8  C   UNL     1      25.083  23.492   6.700  1.00  0.00    -0.000 C 
BRANCH   8   9
ATOM      9  C   UNL     1      25.460  24.950   6.369  1.00  0.00    -0.000 C 
BRANCH   9  10
ATOM     10  C   UNL     1      24.243  25.892   6.404  1.00  0.00    -0.000 C 
BRANCH  10  11
ATOM     11  C   UNL     1      24.353  26.955   7.507  1.00  0.00    -0.003 C 
ATOM     12  C   UNL     1      25.424  26.619   8.545  1.00  0.00     0.004 C 
ENDBRANCH  10  11
ENDBRANCH   9  10
ENDBRANCH   8   9
ENDBRANCH   7   8
ENDBRANCH   6   7
ENDBRANCH   5   6
ENDBRANCH   4   5
ENDBRANCH   3   4
ENDBRANCH   2   3
ENDBRANCH   1   2
BRANCH   1  13
ATOM     13  C   UNL     1      25.103  18.652   6.911  1.00  0.00     0.000 C 
BRANCH  13  14
ATOM     14  C   UNL     1      25.821  17.590   7.771  1.00  0.00     0.000 C 
BRANCH  14  15
ATOM     15  C   UNL     1      27.331  17.529   7.478  1.00  0.00     0.000 C 
BRANCH  15  16
ATOM     16  C   UNL     1      27.928  16.130   7.709  1.00  0.00     0.000 C 
BRANCH  16  17
ATOM     17  C   UNL     1      26.916  14.966   7.648  1.00  0.00     0.000 C 
BRANCH  17  18
ATOM     18  C   UNL     1      26.930  14.023   8.866  1.00  0.00     0.000 C 
BRANCH  18  19
ATOM     19  C   UNL     1      25.556  13.439   9.248  1.00  0.00     0.000 C 
BRANCH  19  20
ATOM     20  C   UNL     1      24.388  13.981   8.393  1.00  0.00     0.006 C 
BRANCH  20  21
ATOM     21  C   UNL     1      23.164  13.053   8.347  1.00  0.00     0.053 C 
BRANCH  21  22
ATOM     22  C   UNL     1      22.395  13.073   9.634  1.00  0.00     0.041 C 
ATOM     23  O   UNL     1      22.015  14.167  10.129  1.00  0.00    -0.550 OA
ATOM     24  O   UNL     1      22.109  11.883  10.295  1.00  0.00    -0.550 OA
ENDBRANCH  21  22
ENDBRANCH  20  21
ENDBRANCH  19  20
ENDBRANCH  18  19
ENDBRANCH  17  18
ENDBRANCH  16  17
ENDBRANCH  15  16
ENDBRANCH  14  15
ENDBRANCH  13  14
ENDBRANCH   1  13
TORSDOF 20
ENDMDL
MODEL 6
REMARK VINA RESULT:    -4.923      1.286      2.718
REMARK INTER + INTRA:         -13.413
REMARK INTER:                 -11.849
REMARK INTRA:                  -1.564
REMARK UNBOUND:                -2.734
REMARK SMILES CCCCCCCCCCCCCCCCCCCCCC(=O)[O-]
REMARK SMILES IDX 12 1 11 2 10 3 9 4 8 5 7 6 6 7 5 8 4 9 3 10 2 11 1 12 13 13
REMARK SMILES IDX 14 14 15 15 16 16 17 17 18 18 19 19 20 20 21 21 22 22 23 23
REMARK SMILES IDX 24 24
REMARK H PARENT
REMARK Flexibility Score: inf
ROOT
ATOM      1  C   UNL     1      23.486  13.943   8.484  1.00  0.00     0.000 C 
ENDROOT
BRANCH   1   2
ATOM      2  C   UNL     1      24.959  13.694   8.835  1.00  0.00     0.000 C 
BRANCH   2   3
ATOM      3  C   UNL     1      25.888  14.364   7.817  1.00  0.00     0.000 C 
BRANCH   3   4
ATOM      4  C   UNL     1      27.042  15.092   8.524  1.00  0.00    -0.000 C 
BRANCH   4   5
ATOM      5  C   UNL     1      27.403  16.424   7.851  1.00  0.00    -0.000 C 
BRANCH   5   6
ATOM      6  C   UNL     1      26.685  17.627   8.491  1.00  0.00    -0.000 C 
BRANCH   6   7
ATOM      7  C   UNL     1      25.835  18.413   7.474  1.00  0.00    -0.000 C 
BRANCH   7   8
ATOM      8  C   UNL     1      24.437  17.812   7.221  1.00  0.00    -0.000 C 
BRANCH   8   9
ATOM      9  C   UNL     1      23.452  18.773   6.525  1.00  0.00    -0.000 C 
BRANCH   9  10
ATOM     10  C   UNL     1      24.168  19.794   5.622  1.00  0.00    -0.000 C 
BRANCH  10  11
ATOM     11  C   UNL     1      23.487  21.169   5.633  1.00  0.00    -0.003 C 
ATOM     12  C   UNL     1      23.720  21.954   4.342  1.00  0.00     0.004 C 
ENDBRANCH  10  11
ENDBRANCH   9  10
ENDBRANCH   8   9
ENDBRANCH   7   8
ENDBRANCH   6   7
ENDBRANCH   5   6
ENDBRANCH   4   5
ENDBRANCH   3   4
ENDBRANCH   2   3
ENDBRANCH   1   2
BRANCH   1  13
ATOM     13  C   UNL     1      22.542  13.745   9.683  1.00  0.00     0.000 C 
BRANCH  13  14
ATOM     14  C   UNL     1      22.655  12.352  10.339  1.00  0.00     0.000 C 
BRANCH  14  15
ATOM     15  C   UNL     1      21.293  11.642  10.432  1.00  0.00     0.000 C 
BRANCH  15  16
ATOM     16  C   UNL     1      21.402  10.214  10.995  1.00  0.00     0.000 C 
BRANCH  16  17
ATOM     17  C   UNL     1      20.711   9.991  12.357  1.00  0.00     0.000 C 
BRANCH  17  18
ATOM     18  C   UNL     1      21.583   9.311  13.429  1.00  0.00     0.000 C 
BRANCH  18  19
ATOM     19  C   UNL     1      23.000   8.924  12.962  1.00  0.00     0.000 C 
BRANCH  19  20
ATOM     20  C   UNL     1      24.126   9.716  13.665  1.00  0.00     0.006 C 
BRANCH  20  21
ATOM     21  C   UNL     1      24.371  11.114  13.074  1.00  0.00     0.053 C 
BRANCH  21  22
ATOM     22  C   UNL     1      25.832  11.444  13.000  1.00  0.00     0.041 C 
ATOM     23  O   UNL     1      26.331  11.869  11.924  1.00  0.00    -0.550 OA
ATOM     24  O   UNL     1      26.645  11.271  14.114  1.00  0.00    -0.550 OA
ENDBRANCH  21  22
ENDBRANCH  20  21
ENDBRANCH  19  20
ENDBRANCH  18  19
ENDBRANCH  17  18
ENDBRANCH  16  17
ENDBRANCH  15  16
ENDBRANCH  14  15
ENDBRANCH  13  14
ENDBRANCH   1  13
TORSDOF 20
ENDMDL
MODEL 7
REMARK VINA RESULT:    -4.922      4.029     10.264
REMARK INTER + INTRA:         -13.412
REMARK INTER:                 -12.146
REMARK INTRA:                  -1.266
REMARK UNBOUND:                -2.734
REMARK SMILES CCCCCCCCCCCCCCCCCCCCCC(=O)[O-]
REMARK SMILES IDX 12 1 11 2 10 3 9 4 8 5 7 6 6 7 5 8 4 9 3 10 2 11 1 12 13 13
REMARK SMILES IDX 14 14 15 15 16 16 17 17 18 18 19 19 20 20 21 21 22 22 23 23
REMARK SMILES IDX 24 24
REMARK H PARENT
REMARK Flexibility Score: inf
ROOT
ATOM      1  C   UNL     1      26.495  15.252   8.442  1.00  0.00     0.000 C 
ENDROOT
BRANCH   1   2
ATOM      2  C   UNL     1      25.917  14.026   7.722  1.00  0.00     0.000 C 
BRANCH   2   3
ATOM      3  C   UNL     1      24.728  13.444   8.494  1.00  0.00     0.000 C 
BRANCH   3   4
ATOM      4  C   UNL     1      25.100  13.191   9.963  1.00  0.00    -0.000 C 
BRANCH   4   5
ATOM      5  C   UNL     1      23.919  12.663  10.790  1.00  0.00    -0.000 C 
BRANCH   5   6
ATOM      6  C   UNL     1      22.617  12.566   9.973  1.00  0.00    -0.000 C 
BRANCH   6   7
ATOM      7  C   UNL     1      21.510  11.799  10.722  1.00  0.00    -0.000 C 
BRANCH   7   8
ATOM      8  C   UNL     1      21.637  10.263  10.638  1.00  0.00    -0.000 C 
BRANCH   8   9
ATOM      9  C   UNL     1      22.258   9.611  11.890  1.00  0.00    -0.000 C 
BRANCH   9  10
ATOM     10  C   UNL     1      21.255   8.723  12.647  1.00  0.00    -0.000 C 
BRANCH  10  11
ATOM     11  C   UNL     1      20.041   9.512  13.160  1.00  0.00    -0.003 C 
ATOM     12  C   UNL     1      19.229   8.738  14.198  1.00  0.00     0.004 C 
ENDBRANCH  10  11
ENDBRANCH   9  10
ENDBRANCH   8   9
ENDBRANCH   7   8
ENDBRANCH   6   7
ENDBRANCH   5   6
ENDBRANCH   4   5
ENDBRANCH   3   4
ENDBRANCH   2   3
ENDBRANCH   1   2
BRANCH   1  13
ATOM     13  C   UNL     1      27.610  15.947   7.641  1.00  0.00     0.000 C 
BRANCH  13  14
ATOM     14  C   UNL     1      27.638  17.480   7.818  1.00  0.00     0.000 C 
BRANCH  14  15
ATOM     15  C   UNL     1      26.232  18.067   8.030  1.00  0.00     0.000 C 
BRANCH  15  16
ATOM     16  C   UNL     1      25.983  19.339   7.200  1.00  0.00     0.000 C 
BRANCH  16  17
ATOM     17  C   UNL     1      25.306  19.108   5.832  1.00  0.00     0.000 C 
BRANCH  17  18
ATOM     18  C   UNL     1      23.829  19.535   5.753  1.00  0.00     0.000 C 
BRANCH  18  19
ATOM     19  C   UNL     1      23.528  20.640   4.722  1.00  0.00     0.000 C 
BRANCH  19  20
ATOM     20  C   UNL     1      23.182  22.007   5.355  1.00  0.00     0.006 C 
BRANCH  20  21
ATOM     21  C   UNL     1      24.253  23.088   5.132  1.00  0.00     0.053 C 
BRANCH  21  22
ATOM     22  C   UNL     1      25.253  23.126   6.250  1.00  0.00     0.041 C 
ATOM     23  O   UNL     1      24.942  23.631   7.361  1.00  0.00    -0.550 OA
ATOM     24  O   UNL     1      26.532  22.616   6.059  1.00  0.00    -0.550 OA
ENDBRANCH  21  22
ENDBRANCH  20  21
ENDBRANCH  19  20
ENDBRANCH  18  19
ENDBRANCH  17  18
ENDBRANCH  16  17
ENDBRANCH  15  16
ENDBRANCH  14  15
ENDBRANCH  13  14
ENDBRANCH   1  13
TORSDOF 20
ENDMDL
MODEL 8
REMARK VINA RESULT:    -4.846      3.311      6.988
REMARK INTER + INTRA:         -13.246
REMARK INTER:                 -11.917
REMARK INTRA:                  -1.329
REMARK UNBOUND:                -2.734
REMARK SMILES CCCCCCCCCCCCCCCCCCCCCC(=O)[O-]
REMARK SMILES IDX 12 1 11 2 10 3 9 4 8 5 7 6 6 7 5 8 4 9 3 10 2 11 1 12 13 13
REMARK SMILES IDX 14 14 15 15 16 16 17 17 18 18 19 19 20 20 21 21 22 22 23 23
REMARK SMILES IDX 24 24
REMARK H PARENT
REMARK Flexibility Score: inf
ROOT
ATOM      1  C   UNL     1      26.610  18.539   8.358  1.00  0.00     0.000 C 
ENDROOT
BRANCH   1   2
ATOM      2  C   UNL     1      25.884  18.836   7.039  1.00  0.00     0.000 C 
BRANCH   2   3
ATOM      3  C   UNL     1      24.457  18.279   7.057  1.00  0.00     0.000 C 
BRANCH   3   4
ATOM      4  C   UNL     1      23.619  18.880   5.919  1.00  0.00    -0.000 C 
BRANCH   4   5
ATOM      5  C   UNL     1      22.388  19.643   6.429  1.00  0.00    -0.000 C 
BRANCH   5   6
ATOM      6  C   UNL     1      22.300  21.073   5.864  1.00  0.00    -0.000 C 
BRANCH   6   7
ATOM      7  C   UNL     1      22.954  21.197   4.474  1.00  0.00    -0.000 C 
BRANCH   7   8
ATOM      8  C   UNL     1      23.833  22.453   4.298  1.00  0.00    -0.000 C 
BRANCH   8   9
ATOM      9  C   UNL     1      24.616  22.858   5.564  1.00  0.00    -0.000 C 
BRANCH   9  10
ATOM     10  C   UNL     1      23.974  24.053   6.293  1.00  0.00    -0.000 C 
BRANCH  10  11
ATOM     11  C   UNL     1      24.746  25.361   6.071  1.00  0.00    -0.003 C 
ATOM     12  C   UNL     1      26.187  25.126   5.620  1.00  0.00     0.004 C 
ENDBRANCH  10  11
ENDBRANCH   9  10
ENDBRANCH   8   9
ENDBRANCH   7   8
ENDBRANCH   6   7
ENDBRANCH   5   6
ENDBRANCH   4   5
ENDBRANCH   3   4
ENDBRANCH   2   3
ENDBRANCH   1   2
BRANCH   1  13
ATOM     13  C   UNL     1      26.856  17.036   8.580  1.00  0.00     0.000 C 
BRANCH  13  14
ATOM     14  C   UNL     1      27.590  16.348   7.409  1.00  0.00     0.000 C 
BRANCH  14  15
ATOM     15  C   UNL     1      27.293  14.839   7.344  1.00  0.00     0.000 C 
BRANCH  15  16
ATOM     16  C   UNL     1      26.414  14.352   8.509  1.00  0.00     0.000 C 
BRANCH  16  17
ATOM     17  C   UNL     1      25.193  13.502   8.100  1.00  0.00     0.000 C 
BRANCH  17  18
ATOM     18  C   UNL     1      23.885  13.835   8.842  1.00  0.00     0.000 C 
BRANCH  18  19
ATOM     19  C   UNL     1      22.820  12.722   8.807  1.00  0.00     0.000 C 
BRANCH  19  20
ATOM     20  C   UNL     1      22.205  12.405  10.189  1.00  0.00     0.006 C 
BRANCH  20  21
ATOM     21  C   UNL     1      21.637  10.981  10.310  1.00  0.00     0.053 C 
BRANCH  21  22
ATOM     22  C   UNL     1      21.683  10.476  11.721  1.00  0.00     0.041 C 
ATOM     23  O   UNL     1      20.615  10.315  12.371  1.00  0.00    -0.550 OA
ATOM     24  O   UNL     1      22.904  10.195  12.323  1.00  0.00    -0.550 OA
ENDBRANCH  21  22
ENDBRANCH  20  21
ENDBRANCH  19  20
ENDBRANCH  18  19
ENDBRANCH  17  18
ENDBRANCH  16  17
ENDBRANCH  15  16
ENDBRANCH  14  15
ENDBRANCH  13  14
ENDBRANCH   1  13
TORSDOF 20
ENDMDL
MODEL 9
REMARK VINA RESULT:    -4.807      5.646     11.079
REMARK INTER + INTRA:         -13.162
REMARK INTER:                 -11.274
REMARK INTRA:                  -1.888
REMARK UNBOUND:                -2.734
REMARK SMILES CCCCCCCCCCCCCCCCCCCCCC(=O)[O-]
REMARK SMILES IDX 12 1 11 2 10 3 9 4 8 5 7 6 6 7 5 8 4 9 3 10 2 11 1 12 13 13
REMARK SMILES IDX 14 14 15 15 16 16 17 17 18 18 19 19 20 20 21 21 22 22 23 23
REMARK SMILES IDX 24 24
REMARK H PARENT
REMARK Flexibility Score: inf
ROOT
ATOM      1  C   UNL     1      22.889  19.473   6.613  1.00  0.00     0.000 C 
ENDROOT
BRANCH   1   2
ATOM      2  C   UNL     1      24.037  18.505   6.928  1.00  0.00     0.000 C 
BRANCH   2   3
ATOM      3  C   UNL     1      25.370  19.041   6.394  1.00  0.00     0.000 C 
BRANCH   3   4
ATOM      4  C   UNL     1      26.373  19.254   7.538  1.00  0.00    -0.000 C 
BRANCH   4   5
ATOM      5  C   UNL     1      26.574  17.994   8.392  1.00  0.00    -0.000 C 
BRANCH   5   6
ATOM      6  C   UNL     1      27.695  17.085   7.855  1.00  0.00    -0.000 C 
BRANCH   6   7
ATOM      7  C   UNL     1      27.197  15.661   7.540  1.00  0.00    -0.000 C 
BRANCH   7   8
ATOM      8  C   UNL     1      27.565  14.612   8.609  1.00  0.00    -0.000 C 
BRANCH   8   9
ATOM      9  C   UNL     1      26.354  13.864   9.204  1.00  0.00    -0.000 C 
BRANCH   9  10
ATOM     10  C   UNL     1      25.043  14.191   8.468  1.00  0.00    -0.000 C 
BRANCH  10  11
ATOM     11  C   UNL     1      23.835  13.455   9.063  1.00  0.00    -0.003 C 
ATOM     12  C   UNL     1      22.982  12.764   7.999  1.00  0.00     0.004 C 
ENDBRANCH  10  11
ENDBRANCH   9  10
ENDBRANCH   8   9
ENDBRANCH   7   8
ENDBRANCH   6   7
ENDBRANCH   5   6
ENDBRANCH   4   5
ENDBRANCH   3   4
ENDBRANCH   2   3
ENDBRANCH   1   2
BRANCH   1  13
ATOM     13  C   UNL     1      22.522  19.502   5.119  1.00  0.00     0.000 C 
BRANCH  13  14
ATOM     14  C   UNL     1      22.640  20.901   4.478  1.00  0.00     0.000 C 
BRANCH  14  15
ATOM     15  C   UNL     1      23.286  21.924   5.429  1.00  0.00     0.000 C 
BRANCH  15  16
ATOM     16  C   UNL     1      24.699  22.344   4.985  1.00  0.00     0.000 C 
BRANCH  16  17
ATOM     17  C   UNL     1      25.565  22.996   6.083  1.00  0.00     0.000 C 
BRANCH  17  18
ATOM     18  C   UNL     1      26.486  24.132   5.601  1.00  0.00     0.000 C 
BRANCH  18  19
ATOM     19  C   UNL     1      26.015  25.551   5.973  1.00  0.00     0.000 C 
BRANCH  19  20
ATOM     20  C   UNL     1      24.560  25.609   6.491  1.00  0.00     0.006 C 
BRANCH  20  21
ATOM     21  C   UNL     1      24.306  26.722   7.520  1.00  0.00     0.053 C 
BRANCH  21  22
ATOM     22  C   UNL     1      24.900  26.396   8.858  1.00  0.00     0.041 C 
ATOM     23  O   UNL     1      25.824  27.109   9.332  1.00  0.00    -0.550 OA
ATOM     24  O   UNL     1      24.441  25.297   9.577  1.00  0.00    -0.550 OA
ENDBRANCH  21  22
ENDBRANCH  20  21
ENDBRANCH  19  20
ENDBRANCH  18  19
ENDBRANCH  17  18
ENDBRANCH  16  17
ENDBRANCH  15  16
ENDBRANCH  14  15
ENDBRANCH  13  14
ENDBRANCH   1  13
TORSDOF 20
ENDMDL
