MODEL 1
REMARK VINA RESULT:    32.654      0.000      0.000
REMARK INTER + INTRA:          46.948
REMARK INTER:                  46.017
REMARK INTRA:                   0.931
REMARK UNBOUND:                 0.931
REMARK SMILES C[C@H](CO)CCC(=O)[C@H](C)[C@@H]1C(=O)C[C@@H]2[C@H]3CC=C4C[C@@H](O)CC[C@]4(C)[C@@H]3CC[C@@]21C
REMARK SMILES IDX 6 1 5 2 2 3 1 4 3 5 4 6 7 8 8 9 9 10 10 11 11 12 12 13 30 14
REMARK SMILES IDX 13 15 14 16 15 17 29 18 31 19 16 20 28 21 27 22 17 23 25 24
REMARK SMILES IDX 18 25 19 26 24 27 26 28 20 29 23 30 21 31 22 32
REMARK H PARENT 4 7 22 33
REMARK Flexibility Score: inf
ROOT
ATOM      1  C   UNL     1      -1.052  46.800  49.089  1.00  0.00     0.076 C 
ENDROOT
BRANCH   1   2
ATOM      2  C   UNL     1      -1.030  48.122  48.299  1.00  0.00     0.013 C 
BRANCH   2   3
ATOM      3  C   UNL     1      -0.453  48.032  46.862  1.00  0.00     0.012 C 
ATOM      4  C   UNL     1      -1.125  46.917  46.046  1.00  0.00     0.010 C 
BRANCH   3   5
ATOM      5  C   UNL     1       1.069  47.790  46.914  1.00  0.00     0.159 C 
BRANCH   5   6
ATOM      6  O   UNL     1       1.533  47.784  48.239  1.00  0.00    -0.396 OA
ATOM      7  H   UNL     1       1.645  46.832  48.497  1.00  0.00     0.210 HD
ENDBRANCH   5   6
ENDBRANCH   3   5
ENDBRANCH   2   3
ENDBRANCH   1   2
BRANCH   1   8
ATOM      8  C   UNL     1      -0.510  46.939  50.492  1.00  0.00     0.136 C 
ATOM      9  O   UNL     1      -0.970  47.815  51.210  1.00  0.00    -0.299 OA
BRANCH   8  10
ATOM     10  C   UNL     1       0.571  46.033  51.062  1.00  0.00     0.064 C 
ATOM     11  C   UNL     1       1.917  46.774  51.093  1.00  0.00     0.017 C 
BRANCH  10  12
ATOM     12  C   UNL     1       0.711  44.590  50.455  1.00  0.00     0.072 C 
ATOM     13  C   UNL     1       0.061  43.446  51.162  1.00  0.00     0.137 C 
ATOM     14  C   UNL     1       2.141  44.034  50.122  1.00  0.00    -0.019 C 
ATOM     15  O   UNL     1      -1.051  43.493  51.664  1.00  0.00    -0.299 OA
ATOM     16  C   UNL     1       0.798  42.168  50.972  1.00  0.00     0.080 C 
ATOM     17  C   UNL     1       1.846  42.520  49.898  1.00  0.00     0.007 C 
ATOM     18  C   UNL     1       3.155  44.221  51.308  1.00  0.00     0.008 C 
ATOM     19  C   UNL     1       2.658  44.715  48.828  1.00  0.00     0.012 C 
ATOM     20  C   UNL     1       3.066  41.539  49.903  1.00  0.00     0.001 C 
ATOM     21  C   UNL     1       4.154  43.072  51.566  1.00  0.00     0.005 C 
ATOM     22  C   UNL     1       4.397  42.186  50.336  1.00  0.00     0.003 C 
ATOM     23  C   UNL     1       3.288  40.908  48.521  1.00  0.00     0.031 C 
ATOM     24  C   UNL     1       5.546  41.111  50.505  1.00  0.00    -0.008 C 
ATOM     25  C   UNL     1       4.409  39.911  48.569  1.00  0.00    -0.027 C 
ATOM     26  C   UNL     1       5.438  39.998  49.443  1.00  0.00    -0.065 C 
ATOM     27  C   UNL     1       5.496  40.424  51.907  1.00  0.00     0.014 C 
ATOM     28  C   UNL     1       6.908  41.835  50.326  1.00  0.00     0.016 C 
ATOM     29  C   UNL     1       6.397  38.831  49.550  1.00  0.00     0.063 C 
ATOM     30  C   UNL     1       6.460  39.228  52.049  1.00  0.00     0.033 C 
ATOM     31  C   UNL     1       6.255  38.186  50.934  1.00  0.00     0.118 C 
BRANCH  31  32
ATOM     32  O   UNL     1       7.204  37.160  51.061  1.00  0.00    -0.393 OA
ATOM     33  H   UNL     1       6.748  36.315  50.807  1.00  0.00     0.210 HD
ENDBRANCH  31  32
ENDBRANCH  10  12
ENDBRANCH   8  10
ENDBRANCH   1   8
TORSDOF 8
ENDMDL
MODEL 2
REMARK VINA RESULT:    35.313      1.627      3.129
REMARK INTER + INTRA:          50.695
REMARK INTER:                  47.576
REMARK INTRA:                   3.118
REMARK UNBOUND:                 0.931
REMARK SMILES C[C@H](CO)CCC(=O)[C@H](C)[C@@H]1C(=O)C[C@@H]2[C@H]3CC=C4C[C@@H](O)CC[C@]4(C)[C@@H]3CC[C@@]21C
REMARK SMILES IDX 6 1 5 2 2 3 1 4 3 5 4 6 7 8 8 9 9 10 10 11 11 12 12 13 30 14
REMARK SMILES IDX 13 15 14 16 15 17 29 18 31 19 16 20 28 21 27 22 17 23 25 24
REMARK SMILES IDX 18 25 19 26 24 27 26 28 20 29 23 30 21 31 22 32
REMARK H PARENT 4 7 22 33
REMARK Flexibility Score: inf
ROOT
ATOM      1  C   UNL     1       1.120  46.648  47.438  1.00  0.00     0.076 C 
ENDROOT
BRANCH   1   2
ATOM      2  C   UNL     1       1.619  48.059  47.804  1.00  0.00     0.013 C 
BRANCH   2   3
ATOM      3  C   UNL     1       2.975  48.114  48.555  1.00  0.00     0.012 C 
ATOM      4  C   UNL     1       4.140  47.654  47.665  1.00  0.00     0.010 C 
BRANCH   3   5
ATOM      5  C   UNL     1       2.916  47.238  49.823  1.00  0.00     0.159 C 
BRANCH   5   6
ATOM      6  O   UNL     1       2.066  47.802  50.785  1.00  0.00    -0.396 OA
ATOM      7  H   UNL     1       2.559  47.785  51.647  1.00  0.00     0.210 HD
ENDBRANCH   5   6
ENDBRANCH   3   5
ENDBRANCH   2   3
ENDBRANCH   1   2
BRANCH   1   8
ATOM      8  C   UNL     1      -0.374  46.489  47.593  1.00  0.00     0.136 C 
ATOM      9  O   UNL     1      -1.039  46.243  46.598  1.00  0.00    -0.299 OA
BRANCH   8  10
ATOM     10  C   UNL     1      -1.091  46.607  48.930  1.00  0.00     0.064 C 
ATOM     11  C   UNL     1      -1.066  48.065  49.414  1.00  0.00     0.017 C 
BRANCH  10  12
ATOM     12  C   UNL     1      -0.683  45.604  50.069  1.00  0.00     0.072 C 
ATOM     13  C   UNL     1      -0.008  46.140  51.291  1.00  0.00     0.137 C 
ATOM     14  C   UNL     1       0.184  44.346  49.709  1.00  0.00    -0.019 C 
ATOM     15  O   UNL     1      -0.327  47.175  51.852  1.00  0.00    -0.299 OA
ATOM     16  C   UNL     1       0.926  45.155  51.899  1.00  0.00     0.080 C 
ATOM     17  C   UNL     1       0.634  43.858  51.119  1.00  0.00     0.007 C 
ATOM     18  C   UNL     1       1.436  44.704  48.831  1.00  0.00     0.008 C 
ATOM     19  C   UNL     1      -0.718  43.300  49.002  1.00  0.00     0.012 C 
ATOM     20  C   UNL     1       1.818  42.836  51.185  1.00  0.00     0.001 C 
ATOM     21  C   UNL     1       2.746  43.944  49.133  1.00  0.00     0.005 C 
ATOM     22  C   UNL     1       2.523  42.597  49.835  1.00  0.00     0.003 C 
ATOM     23  C   UNL     1       1.354  41.471  51.712  1.00  0.00     0.031 C 
ATOM     24  C   UNL     1       3.822  41.708  50.000  1.00  0.00    -0.008 C 
ATOM     25  C   UNL     1       2.518  40.532  51.845  1.00  0.00    -0.027 C 
ATOM     26  C   UNL     1       3.626  40.616  51.072  1.00  0.00    -0.065 C 
ATOM     27  C   UNL     1       5.059  42.561  50.425  1.00  0.00     0.014 C 
ATOM     28  C   UNL     1       4.105  41.018  48.639  1.00  0.00     0.016 C 
ATOM     29  C   UNL     1       4.824  39.761  51.429  1.00  0.00     0.063 C 
ATOM     30  C   UNL     1       6.297  41.720  50.799  1.00  0.00     0.033 C 
ATOM     31  C   UNL     1       5.976  40.668  51.876  1.00  0.00     0.118 C 
BRANCH  31  32
ATOM     32  O   UNL     1       7.110  39.879  52.125  1.00  0.00    -0.393 OA
ATOM     33  H   UNL     1       7.187  39.242  51.367  1.00  0.00     0.210 HD
ENDBRANCH  31  32
ENDBRANCH  10  12
ENDBRANCH   8  10
ENDBRANCH   1   8
TORSDOF 8
ENDMDL
