MODEL 1
REMARK VINA RESULT:    -4.323      0.000      0.000
REMARK INTER + INTRA:          -5.210
REMARK INTER:                  -5.081
REMARK INTRA:                  -0.129
REMARK UNBOUND:                -0.129
REMARK SMILES O=C([O-])C=Cc1ccc(O)c(O)c1
REMARK SMILES IDX 6 1 13 2 7 3 11 4 8 5 9 6 5 7 4 8 2 9 1 10 3 11 12 12 10 14
REMARK H PARENT 12 13 10 15
REMARK Flexibility Score: inf
ROOT
ATOM      1  C   UNL     1      19.433  11.212  -8.956  1.00  0.00    -0.022 A 
ATOM      2  C   UNL     1      20.665  10.845  -9.522  1.00  0.00     0.058 A 
ATOM      3  C   UNL     1      19.068  10.664  -7.711  1.00  0.00     0.012 A 
ATOM      4  C   UNL     1      21.508   9.930  -8.879  1.00  0.00     0.157 A 
ATOM      5  C   UNL     1      19.907   9.752  -7.066  1.00  0.00     0.051 A 
ATOM      6  C   UNL     1      21.126   9.378  -7.646  1.00  0.00     0.157 A 
ENDROOT
BRANCH   1   7
ATOM      7  C   UNL     1      18.585  12.194  -9.676  1.00  0.00     0.010 C 
ATOM      8  C   UNL     1      19.009  13.409 -10.054  1.00  0.00     0.025 C 
BRANCH   8   9
ATOM      9  C   UNL     1      18.135  14.362 -10.758  1.00  0.00     0.064 C 
ATOM     10  O   UNL     1      18.526  15.528 -11.031  1.00  0.00    -0.545 OA
ATOM     11  O   UNL     1      16.854  13.969 -11.125  1.00  0.00    -0.545 OA
ENDBRANCH   8   9
ENDBRANCH   1   7
BRANCH   4  12
ATOM     12  O   UNL     1      22.717   9.583  -9.480  1.00  0.00    -0.504 OA
ATOM     13  H   UNL     1      22.768   8.919 -10.242  1.00  0.00     0.293 HD
ENDBRANCH   4  12
BRANCH   6  14
ATOM     14  O   UNL     1      21.959   8.467  -6.999  1.00  0.00    -0.504 OA
ATOM     15  H   UNL     1      21.738   8.106  -6.078  1.00  0.00     0.293 HD
ENDBRANCH   6  14
TORSDOF 4
ENDMDL
MODEL 2
REMARK VINA RESULT:    -3.947      0.759      2.042
REMARK INTER + INTRA:          -4.769
REMARK INTER:                  -4.631
REMARK INTRA:                  -0.137
REMARK UNBOUND:                -0.129
REMARK SMILES O=C([O-])C=Cc1ccc(O)c(O)c1
REMARK SMILES IDX 6 1 13 2 7 3 11 4 8 5 9 6 5 7 4 8 2 9 1 10 3 11 12 12 10 14
REMARK H PARENT 12 13 10 15
REMARK Flexibility Score: inf
ROOT
ATOM      1  C   UNL     1      19.633  11.241  -9.101  1.00  0.00    -0.022 A 
ATOM      2  C   UNL     1      19.302  10.440  -7.995  1.00  0.00     0.058 A 
ATOM      3  C   UNL     1      20.921  11.129  -9.659  1.00  0.00     0.012 A 
ATOM      4  C   UNL     1      20.241   9.564  -7.436  1.00  0.00     0.157 A 
ATOM      5  C   UNL     1      21.859  10.256  -9.104  1.00  0.00     0.051 A 
ATOM      6  C   UNL     1      21.528   9.473  -7.991  1.00  0.00     0.157 A 
ENDROOT
BRANCH   1   7
ATOM      7  C   UNL     1      18.595  12.143  -9.659  1.00  0.00     0.010 C 
ATOM      8  C   UNL     1      18.871  13.276 -10.320  1.00  0.00     0.025 C 
BRANCH   8   9
ATOM      9  C   UNL     1      17.813  14.154 -10.850  1.00  0.00     0.064 C 
ATOM     10  O   UNL     1      16.663  13.708 -11.107  1.00  0.00    -0.545 OA
ATOM     11  O   UNL     1      18.089  15.496 -11.071  1.00  0.00    -0.545 OA
ENDBRANCH   8   9
ENDBRANCH   1   7
BRANCH   4  12
ATOM     12  O   UNL     1      19.877   8.795  -6.331  1.00  0.00    -0.504 OA
ATOM     13  H   UNL     1      18.983   8.324  -6.275  1.00  0.00     0.293 HD
ENDBRANCH   4  12
BRANCH   6  14
ATOM     14  O   UNL     1      22.468   8.604  -7.440  1.00  0.00    -0.504 OA
ATOM     15  H   UNL     1      23.040   8.873  -6.648  1.00  0.00     0.293 HD
ENDBRANCH   6  14
TORSDOF 4
ENDMDL
MODEL 3
REMARK VINA RESULT:    -3.879      0.929      1.876
REMARK INTER + INTRA:          -4.688
REMARK INTER:                  -4.557
REMARK INTRA:                  -0.131
REMARK UNBOUND:                -0.129
REMARK SMILES O=C([O-])C=Cc1ccc(O)c(O)c1
REMARK SMILES IDX 6 1 13 2 7 3 11 4 8 5 9 6 5 7 4 8 2 9 1 10 3 11 12 12 10 14
REMARK H PARENT 12 13 10 15
REMARK Flexibility Score: inf
ROOT
ATOM      1  C   UNL     1      19.627  11.638  -9.441  1.00  0.00    -0.022 A 
ATOM      2  C   UNL     1      19.237  10.823  -8.365  1.00  0.00     0.058 A 
ATOM      3  C   UNL     1      20.929  11.499  -9.961  1.00  0.00     0.012 A 
ATOM      4  C   UNL     1      20.130   9.907  -7.797  1.00  0.00     0.157 A 
ATOM      5  C   UNL     1      21.822  10.585  -9.396  1.00  0.00     0.051 A 
ATOM      6  C   UNL     1      21.430   9.788  -8.313  1.00  0.00     0.157 A 
ENDROOT
BRANCH   1   7
ATOM      7  C   UNL     1      18.636  12.584 -10.011  1.00  0.00     0.010 C 
ATOM      8  C   UNL     1      18.881  13.887 -10.212  1.00  0.00     0.025 C 
BRANCH   8   9
ATOM      9  C   UNL     1      17.867  14.799 -10.769  1.00  0.00     0.064 C 
ATOM     10  O   UNL     1      18.109  16.026 -10.928  1.00  0.00    -0.545 OA
ATOM     11  O   UNL     1      16.622  14.299 -11.125  1.00  0.00    -0.545 OA
ENDBRANCH   8   9
ENDBRANCH   1   7
BRANCH   4  12
ATOM     12  O   UNL     1      19.707   9.125  -6.723  1.00  0.00    -0.504 OA
ATOM     13  H   UNL     1      18.743   8.832  -6.617  1.00  0.00     0.293 HD
ENDBRANCH   4  12
BRANCH   6  14
ATOM     14  O   UNL     1      22.326   8.879  -7.753  1.00  0.00    -0.504 OA
ATOM     15  H   UNL     1      22.916   8.291  -8.329  1.00  0.00     0.293 HD
ENDBRANCH   6  14
TORSDOF 4
ENDMDL
MODEL 4
REMARK VINA RESULT:    -3.439      1.328      2.384
REMARK INTER + INTRA:          -4.171
REMARK INTER:                  -4.041
REMARK INTRA:                  -0.130
REMARK UNBOUND:                -0.129
REMARK SMILES O=C([O-])C=Cc1ccc(O)c(O)c1
REMARK SMILES IDX 6 1 13 2 7 3 11 4 8 5 9 6 5 7 4 8 2 9 1 10 3 11 12 12 10 14
REMARK H PARENT 12 13 10 15
REMARK Flexibility Score: inf
ROOT
ATOM      1  C   UNL     1      20.210  11.017  -9.199  1.00  0.00    -0.022 A 
ATOM      2  C   UNL     1      19.799  10.216  -8.120  1.00  0.00     0.058 A 
ATOM      3  C   UNL     1      21.529  10.888  -9.676  1.00  0.00     0.012 A 
ATOM      4  C   UNL     1      20.688   9.323  -7.509  1.00  0.00     0.157 A 
ATOM      5  C   UNL     1      22.417   9.998  -9.069  1.00  0.00     0.051 A 
ATOM      6  C   UNL     1      22.005   9.215  -7.983  1.00  0.00     0.157 A 
ENDROOT
BRANCH   1   7
ATOM      7  C   UNL     1      19.223  11.937  -9.815  1.00  0.00     0.010 C 
ATOM      8  C   UNL     1      17.973  11.578 -10.143  1.00  0.00     0.025 C 
BRANCH   8   9
ATOM      9  C   UNL     1      17.025  12.517 -10.765  1.00  0.00     0.064 C 
ATOM     10  O   UNL     1      15.876  12.143 -11.125  1.00  0.00    -0.545 OA
ATOM     11  O   UNL     1      17.403  13.839 -10.961  1.00  0.00    -0.545 OA
ENDBRANCH   8   9
ENDBRANCH   1   7
BRANCH   4  12
ATOM     12  O   UNL     1      20.244   8.554  -6.434  1.00  0.00    -0.504 OA
ATOM     13  H   UNL     1      19.284   8.579  -6.115  1.00  0.00     0.293 HD
ENDBRANCH   4  12
BRANCH   6  14
ATOM     14  O   UNL     1      22.896   8.329  -7.380  1.00  0.00    -0.504 OA
ATOM     15  H   UNL     1      23.691   7.952  -7.881  1.00  0.00     0.293 HD
ENDBRANCH   6  14
TORSDOF 4
ENDMDL
MODEL 5
REMARK VINA RESULT:    -2.892      1.248      6.001
REMARK INTER + INTRA:          -3.529
REMARK INTER:                  -3.401
REMARK INTRA:                  -0.128
REMARK UNBOUND:                -0.129
REMARK SMILES O=C([O-])C=Cc1ccc(O)c(O)c1
REMARK SMILES IDX 6 1 13 2 7 3 11 4 8 5 9 6 5 7 4 8 2 9 1 10 3 11 12 12 10 14
REMARK H PARENT 12 13 10 15
REMARK Flexibility Score: inf
ROOT
ATOM      1  C   UNL     1      18.998  12.466  -9.792  1.00  0.00    -0.022 A 
ATOM      2  C   UNL     1      19.398  13.752  -9.390  1.00  0.00     0.058 A 
ATOM      3  C   UNL     1      17.901  12.338 -10.667  1.00  0.00     0.012 A 
ATOM      4  C   UNL     1      18.706  14.888  -9.827  1.00  0.00     0.157 A 
ATOM      5  C   UNL     1      17.210  13.470 -11.104  1.00  0.00     0.051 A 
ATOM      6  C   UNL     1      17.605  14.748 -10.686  1.00  0.00     0.157 A 
ENDROOT
BRANCH   1   7
ATOM      7  C   UNL     1      19.774  11.298  -9.308  1.00  0.00     0.010 C 
ATOM      8  C   UNL     1      19.556  10.695  -8.130  1.00  0.00     0.025 C 
BRANCH   8   9
ATOM      9  C   UNL     1      20.356   9.544  -7.677  1.00  0.00     0.064 C 
ATOM     10  O   UNL     1      20.121   8.979  -6.575  1.00  0.00    -0.545 OA
ATOM     11  O   UNL     1      21.388   9.074  -8.477  1.00  0.00    -0.545 OA
ENDBRANCH   8   9
ENDBRANCH   1   7
BRANCH   4  12
ATOM     12  O   UNL     1      19.128  16.145  -9.395  1.00  0.00    -0.504 OA
ATOM     13  H   UNL     1      18.494  16.932  -9.330  1.00  0.00     0.293 HD
ENDBRANCH   4  12
BRANCH   6  14
ATOM     14  O   UNL     1      16.910  15.874 -11.124  1.00  0.00    -0.504 OA
ATOM     15  H   UNL     1      17.032  16.242 -12.060  1.00  0.00     0.293 HD
ENDBRANCH   6  14
TORSDOF 4
ENDMDL
MODEL 6
REMARK VINA RESULT:    -2.752      1.243      5.947
REMARK INTER + INTRA:          -3.364
REMARK INTER:                  -3.236
REMARK INTRA:                  -0.128
REMARK UNBOUND:                -0.129
REMARK SMILES O=C([O-])C=Cc1ccc(O)c(O)c1
REMARK SMILES IDX 6 1 13 2 7 3 11 4 8 5 9 6 5 7 4 8 2 9 1 10 3 11 12 12 10 14
REMARK H PARENT 12 13 10 15
REMARK Flexibility Score: inf
ROOT
ATOM      1  C   UNL     1      19.186  11.568  -9.637  1.00  0.00    -0.022 A 
ATOM      2  C   UNL     1      17.891  11.161  -9.997  1.00  0.00     0.058 A 
ATOM      3  C   UNL     1      19.529  12.929  -9.760  1.00  0.00     0.012 A 
ATOM      4  C   UNL     1      16.960  12.082 -10.494  1.00  0.00     0.157 A 
ATOM      5  C   UNL     1      18.602  13.850 -10.255  1.00  0.00     0.051 A 
ATOM      6  C   UNL     1      17.318  13.432 -10.627  1.00  0.00     0.157 A 
ENDROOT
BRANCH   1   7
ATOM      7  C   UNL     1      20.128  10.552  -9.105  1.00  0.00     0.010 C 
ATOM      8  C   UNL     1      20.102  10.101  -7.843  1.00  0.00     0.025 C 
BRANCH   8   9
ATOM      9  C   UNL     1      21.061   9.099  -7.347  1.00  0.00     0.064 C 
ATOM     10  O   UNL     1      22.232   9.033  -7.807  1.00  0.00    -0.545 OA
ATOM     11  O   UNL     1      20.667   8.211  -6.355  1.00  0.00    -0.545 OA
ENDBRANCH   8   9
ENDBRANCH   1   7
BRANCH   4  12
ATOM     12  O   UNL     1      15.689  11.634 -10.851  1.00  0.00    -0.504 OA
ATOM     13  H   UNL     1      15.243  11.913 -11.716  1.00  0.00     0.293 HD
ENDBRANCH   4  12
BRANCH   6  14
ATOM     14  O   UNL     1      16.398  14.355 -11.122  1.00  0.00    -0.504 OA
ATOM     15  H   UNL     1      15.520  14.061 -11.533  1.00  0.00     0.293 HD
ENDBRANCH   6  14
TORSDOF 4
ENDMDL
MODEL 7
REMARK VINA RESULT:    -2.577      2.608      6.669
REMARK INTER + INTRA:          -3.158
REMARK INTER:                  -3.023
REMARK INTRA:                  -0.135
REMARK UNBOUND:                -0.129
REMARK SMILES O=C([O-])C=Cc1ccc(O)c(O)c1
REMARK SMILES IDX 6 1 13 2 7 3 11 4 8 5 9 6 5 7 4 8 2 9 1 10 3 11 12 12 10 14
REMARK H PARENT 12 13 10 15
REMARK Flexibility Score: inf
ROOT
ATOM      1  C   UNL     1      20.457   9.051  -6.640  1.00  0.00    -0.022 A 
ATOM      2  C   UNL     1      21.429   8.998  -7.653  1.00  0.00     0.058 A 
ATOM      3  C   UNL     1      19.379   9.947  -6.780  1.00  0.00     0.012 A 
ATOM      4  C   UNL     1      21.348   9.838  -8.771  1.00  0.00     0.157 A 
ATOM      5  C   UNL     1      19.295  10.785  -7.894  1.00  0.00     0.051 A 
ATOM      6  C   UNL     1      20.278  10.738  -8.891  1.00  0.00     0.157 A 
ENDROOT
BRANCH   1   7
ATOM      7  C   UNL     1      20.586   8.130  -5.484  1.00  0.00     0.010 C 
ATOM      8  C   UNL     1      21.498   7.149  -5.411  1.00  0.00     0.025 C 
BRANCH   8   9
ATOM      9  C   UNL     1      21.589   6.247  -4.251  1.00  0.00     0.064 C 
ATOM     10  O   UNL     1      20.930   6.466  -3.199  1.00  0.00    -0.545 OA
ATOM     11  O   UNL     1      22.416   5.133  -4.317  1.00  0.00    -0.545 OA
ENDBRANCH   8   9
ENDBRANCH   1   7
BRANCH   4  12
ATOM     12  O   UNL     1      22.340   9.762  -9.748  1.00  0.00    -0.504 OA
ATOM     13  H   UNL     1      22.619   8.883 -10.164  1.00  0.00     0.293 HD
ENDBRANCH   4  12
BRANCH   6  14
ATOM     14  O   UNL     1      20.190  11.578 -10.000  1.00  0.00    -0.504 OA
ATOM     15  H   UNL     1      19.644  12.430  -9.979  1.00  0.00     0.293 HD
ENDBRANCH   6  14
TORSDOF 4
ENDMDL
MODEL 8
REMARK VINA RESULT:    -2.478      3.041      7.047
REMARK INTER + INTRA:          -3.041
REMARK INTER:                  -2.910
REMARK INTRA:                  -0.131
REMARK UNBOUND:                -0.129
REMARK SMILES O=C([O-])C=Cc1ccc(O)c(O)c1
REMARK SMILES IDX 6 1 13 2 7 3 11 4 8 5 9 6 5 7 4 8 2 9 1 10 3 11 12 12 10 14
REMARK H PARENT 12 13 10 15
REMARK Flexibility Score: inf
ROOT
ATOM      1  C   UNL     1      20.668   9.048  -6.686  1.00  0.00    -0.022 A 
ATOM      2  C   UNL     1      19.910  10.001  -5.985  1.00  0.00     0.058 A 
ATOM      3  C   UNL     1      20.807   9.185  -8.082  1.00  0.00     0.012 A 
ATOM      4  C   UNL     1      19.279  11.054  -6.658  1.00  0.00     0.157 A 
ATOM      5  C   UNL     1      20.179  10.235  -8.755  1.00  0.00     0.051 A 
ATOM      6  C   UNL     1      19.412  11.172  -8.050  1.00  0.00     0.157 A 
ENDROOT
BRANCH   1   7
ATOM      7  C   UNL     1      21.323   7.959  -5.921  1.00  0.00     0.010 C 
ATOM      8  C   UNL     1      20.768   7.357  -4.859  1.00  0.00     0.025 C 
BRANCH   8   9
ATOM      9  C   UNL     1      21.455   6.287  -4.116  1.00  0.00     0.064 C 
ATOM     10  O   UNL     1      22.281   5.523  -4.684  1.00  0.00    -0.545 OA
ATOM     11  O   UNL     1      21.186   6.114  -2.764  1.00  0.00    -0.545 OA
ENDBRANCH   8   9
ENDBRANCH   1   7
BRANCH   4  12
ATOM     12  O   UNL     1      18.527  11.972  -5.926  1.00  0.00    -0.504 OA
ATOM     13  H   UNL     1      17.517  11.932  -5.889  1.00  0.00     0.293 HD
ENDBRANCH   4  12
BRANCH   6  14
ATOM     14  O   UNL     1      18.786  12.217  -8.728  1.00  0.00    -0.504 OA
ATOM     15  H   UNL     1      19.265  12.744  -9.448  1.00  0.00     0.293 HD
ENDBRANCH   6  14
TORSDOF 4
ENDMDL
