MODEL 1
REMARK VINA RESULT:    -3.818      0.000      0.000
REMARK INTER + INTRA:          -6.927
REMARK INTER:                  -5.828
REMARK INTRA:                  -1.100
REMARK UNBOUND:                -1.100
REMARK SMILES O=C([O-])CCCCCCCCC(=O)[O-]
REMARK SMILES IDX 7 1 6 2 5 3 4 4 2 5 1 6 3 7 8 8 9 9 10 10 11 11 12 12 13 13
REMARK SMILES IDX 14 14
REMARK H PARENT
REMARK Flexibility Score: inf
ROOT
ATOM      1  C   UNL     1       7.488  -2.445  -8.320  1.00  0.00     0.000 C 
ENDROOT
BRANCH   1   2
ATOM      2  C   UNL     1       6.150  -2.679  -9.044  1.00  0.00     0.000 C 
BRANCH   2   3
ATOM      3  C   UNL     1       4.950  -2.667  -8.084  1.00  0.00     0.006 C 
BRANCH   3   4
ATOM      4  C   UNL     1       4.075  -3.920  -8.219  1.00  0.00     0.053 C 
BRANCH   4   5
ATOM      5  C   UNL     1       3.498  -4.300  -6.892  1.00  0.00     0.041 C 
ATOM      6  O   UNL     1       2.353  -4.818  -6.824  1.00  0.00    -0.550 OA
ATOM      7  O   UNL     1       4.245  -4.128  -5.734  1.00  0.00    -0.550 OA
ENDBRANCH   4   5
ENDBRANCH   3   4
ENDBRANCH   2   3
ENDBRANCH   1   2
BRANCH   1   8
ATOM      8  C   UNL     1       7.471  -2.959  -6.871  1.00  0.00     0.000 C 
BRANCH   8   9
ATOM      9  C   UNL     1       8.292  -4.248  -6.693  1.00  0.00     0.000 C 
BRANCH   9  10
ATOM     10  C   UNL     1       7.429  -5.442  -6.254  1.00  0.00     0.006 C 
BRANCH  10  11
ATOM     11  C   UNL     1       6.818  -6.196  -7.442  1.00  0.00     0.053 C 
BRANCH  11  12
ATOM     12  C   UNL     1       5.776  -7.159  -6.969  1.00  0.00     0.041 C 
ATOM     13  O   UNL     1       5.067  -7.786  -7.800  1.00  0.00    -0.550 OA
ATOM     14  O   UNL     1       5.553  -7.328  -5.609  1.00  0.00    -0.550 OA
ENDBRANCH  11  12
ENDBRANCH  10  11
ENDBRANCH   9  10
ENDBRANCH   8   9
ENDBRANCH   1   8
TORSDOF 9
ENDMDL
MODEL 2
REMARK VINA RESULT:    -3.759      1.330      3.071
REMARK INTER + INTRA:          -6.837
REMARK INTER:                  -5.755
REMARK INTRA:                  -1.082
REMARK UNBOUND:                -1.100
REMARK SMILES O=C([O-])CCCCCCCCC(=O)[O-]
REMARK SMILES IDX 7 1 6 2 5 3 4 4 2 5 1 6 3 7 8 8 9 9 10 10 11 11 12 12 13 13
REMARK SMILES IDX 14 14
REMARK H PARENT
REMARK Flexibility Score: inf
ROOT
ATOM      1  C   UNL     1       6.177  -2.644  -9.301  1.00  0.00     0.000 C 
ENDROOT
BRANCH   1   2
ATOM      2  C   UNL     1       7.317  -2.841  -8.286  1.00  0.00     0.000 C 
BRANCH   2   3
ATOM      3  C   UNL     1       6.801  -3.083  -6.859  1.00  0.00     0.006 C 
BRANCH   3   4
ATOM      4  C   UNL     1       7.129  -4.490  -6.345  1.00  0.00     0.053 C 
BRANCH   4   5
ATOM      5  C   UNL     1       5.944  -5.082  -5.649  1.00  0.00     0.041 C 
ATOM      6  O   UNL     1       4.879  -4.420  -5.538  1.00  0.00    -0.550 OA
ATOM      7  O   UNL     1       5.998  -6.384  -5.169  1.00  0.00    -0.550 OA
ENDBRANCH   4   5
ENDBRANCH   3   4
ENDBRANCH   2   3
ENDBRANCH   1   2
BRANCH   1   8
ATOM      8  C   UNL     1       4.795  -2.599  -8.633  1.00  0.00     0.000 C 
BRANCH   8   9
ATOM      9  C   UNL     1       3.757  -3.468  -9.365  1.00  0.00     0.000 C 
BRANCH   9  10
ATOM     10  C   UNL     1       3.463  -4.784  -8.628  1.00  0.00     0.006 C 
BRANCH  10  11
ATOM     11  C   UNL     1       4.475  -5.887  -8.966  1.00  0.00     0.053 C 
BRANCH  11  12
ATOM     12  C   UNL     1       4.208  -7.109  -8.146  1.00  0.00     0.041 C 
ATOM     13  O   UNL     1       3.259  -7.122  -7.318  1.00  0.00    -0.550 OA
ATOM     14  O   UNL     1       5.036  -8.217  -8.261  1.00  0.00    -0.550 OA
ENDBRANCH  11  12
ENDBRANCH  10  11
ENDBRANCH   9  10
ENDBRANCH   8   9
ENDBRANCH   1   8
TORSDOF 9
ENDMDL
MODEL 3
REMARK VINA RESULT:    -3.749      0.533      3.673
REMARK INTER + INTRA:          -6.821
REMARK INTER:                  -5.817
REMARK INTRA:                  -1.004
REMARK UNBOUND:                -1.100
REMARK SMILES O=C([O-])CCCCCCCCC(=O)[O-]
REMARK SMILES IDX 7 1 6 2 5 3 4 4 2 5 1 6 3 7 8 8 9 9 10 10 11 11 12 12 13 13
REMARK SMILES IDX 14 14
REMARK H PARENT
REMARK Flexibility Score: inf
ROOT
ATOM      1  C   UNL     1       7.551  -3.766  -6.295  1.00  0.00     0.000 C 
ENDROOT
BRANCH   1   2
ATOM      2  C   UNL     1       8.503  -4.895  -6.730  1.00  0.00     0.000 C 
BRANCH   2   3
ATOM      3  C   UNL     1       7.880  -6.289  -6.562  1.00  0.00     0.006 C 
BRANCH   3   4
ATOM      4  C   UNL     1       6.830  -6.599  -7.637  1.00  0.00     0.053 C 
BRANCH   4   5
ATOM      5  C   UNL     1       5.603  -7.189  -7.014  1.00  0.00     0.041 C 
ATOM      6  O   UNL     1       4.608  -7.479  -7.729  1.00  0.00    -0.550 OA
ATOM      7  O   UNL     1       5.579  -7.466  -5.654  1.00  0.00    -0.550 OA
ENDBRANCH   4   5
ENDBRANCH   3   4
ENDBRANCH   2   3
ENDBRANCH   1   2
BRANCH   1   8
ATOM      8  C   UNL     1       7.467  -2.636  -7.333  1.00  0.00     0.000 C 
BRANCH   8   9
ATOM      9  C   UNL     1       6.453  -2.936  -8.451  1.00  0.00     0.000 C 
BRANCH   9  10
ATOM     10  C   UNL     1       5.001  -2.681  -8.017  1.00  0.00     0.006 C 
BRANCH  10  11
ATOM     11  C   UNL     1       4.130  -3.940  -8.107  1.00  0.00     0.053 C 
BRANCH  11  12
ATOM     12  C   UNL     1       3.512  -4.243  -6.779  1.00  0.00     0.041 C 
ATOM     13  O   UNL     1       4.186  -4.115  -5.722  1.00  0.00    -0.550 OA
ATOM     14  O   UNL     1       2.208  -4.714  -6.710  1.00  0.00    -0.550 OA
ENDBRANCH  11  12
ENDBRANCH  10  11
ENDBRANCH   9  10
ENDBRANCH   8   9
ENDBRANCH   1   8
TORSDOF 9
ENDMDL
MODEL 4
REMARK VINA RESULT:    -3.674      1.354      2.490
REMARK INTER + INTRA:          -6.707
REMARK INTER:                  -5.595
REMARK INTRA:                  -1.112
REMARK UNBOUND:                -1.100
REMARK SMILES O=C([O-])CCCCCCCCC(=O)[O-]
REMARK SMILES IDX 7 1 6 2 5 3 4 4 2 5 1 6 3 7 8 8 9 9 10 10 11 11 12 12 13 13
REMARK SMILES IDX 14 14
REMARK H PARENT
REMARK Flexibility Score: inf
ROOT
ATOM      1  C   UNL     1       5.268  -2.941  -8.413  1.00  0.00     0.000 C 
ENDROOT
BRANCH   1   2
ATOM      2  C   UNL     1       4.556  -3.353  -7.112  1.00  0.00     0.000 C 
BRANCH   2   3
ATOM      3  C   UNL     1       3.605  -4.543  -7.311  1.00  0.00     0.006 C 
BRANCH   3   4
ATOM      4  C   UNL     1       4.106  -5.525  -8.378  1.00  0.00     0.053 C 
BRANCH   4   5
ATOM      5  C   UNL     1       4.066  -6.928  -7.857  1.00  0.00     0.041 C 
ATOM      6  O   UNL     1       3.068  -7.332  -7.204  1.00  0.00    -0.550 OA
ATOM      7  O   UNL     1       5.107  -7.803  -8.136  1.00  0.00    -0.550 OA
ENDBRANCH   4   5
ENDBRANCH   3   4
ENDBRANCH   2   3
ENDBRANCH   1   2
BRANCH   1   8
ATOM      8  C   UNL     1       6.789  -2.810  -8.235  1.00  0.00     0.000 C 
BRANCH   8   9
ATOM      9  C   UNL     1       7.231  -3.004  -6.774  1.00  0.00     0.000 C 
BRANCH   9  10
ATOM     10  C   UNL     1       8.202  -4.183  -6.602  1.00  0.00     0.006 C 
BRANCH  10  11
ATOM     11  C   UNL     1       7.545  -5.536  -6.904  1.00  0.00     0.053 C 
BRANCH  11  12
ATOM     12  C   UNL     1       7.138  -6.214  -5.634  1.00  0.00     0.041 C 
ATOM     13  O   UNL     1       6.041  -5.928  -5.086  1.00  0.00    -0.550 OA
ATOM     14  O   UNL     1       7.993  -7.124  -5.028  1.00  0.00    -0.550 OA
ENDBRANCH  11  12
ENDBRANCH  10  11
ENDBRANCH   9  10
ENDBRANCH   8   9
ENDBRANCH   1   8
TORSDOF 9
ENDMDL
MODEL 5
REMARK VINA RESULT:    -3.613      1.248      3.701
REMARK INTER + INTRA:          -6.614
REMARK INTER:                  -5.786
REMARK INTRA:                  -0.828
REMARK UNBOUND:                -1.100
REMARK SMILES O=C([O-])CCCCCCCCC(=O)[O-]
REMARK SMILES IDX 7 1 6 2 5 3 4 4 2 5 1 6 3 7 8 8 9 9 10 10 11 11 12 12 13 13
REMARK SMILES IDX 14 14
REMARK H PARENT
REMARK Flexibility Score: inf
ROOT
ATOM      1  C   UNL     1       8.794  -3.084  -7.450  1.00  0.00     0.000 C 
ENDROOT
BRANCH   1   2
ATOM      2  C   UNL     1       9.120  -4.415  -6.750  1.00  0.00     0.000 C 
BRANCH   2   3
ATOM      3  C   UNL     1       8.100  -5.518  -7.074  1.00  0.00     0.006 C 
BRANCH   3   4
ATOM      4  C   UNL     1       7.815  -6.429  -5.873  1.00  0.00     0.053 C 
BRANCH   4   5
ATOM      5  C   UNL     1       6.347  -6.471  -5.586  1.00  0.00     0.041 C 
ATOM      6  O   UNL     1       5.794  -5.518  -4.977  1.00  0.00    -0.550 OA
ATOM      7  O   UNL     1       5.581  -7.539  -6.034  1.00  0.00    -0.550 OA
ENDBRANCH   4   5
ENDBRANCH   3   4
ENDBRANCH   2   3
ENDBRANCH   1   2
BRANCH   1   8
ATOM      8  C   UNL     1       7.307  -2.710  -7.341  1.00  0.00     0.000 C 
BRANCH   8   9
ATOM      9  C   UNL     1       6.616  -2.633  -8.713  1.00  0.00     0.000 C 
BRANCH   9  10
ATOM     10  C   UNL     1       5.084  -2.574  -8.601  1.00  0.00     0.006 C 
BRANCH  10  11
ATOM     11  C   UNL     1       4.566  -3.182  -7.291  1.00  0.00     0.053 C 
BRANCH  11  12
ATOM     12  C   UNL     1       3.859  -4.473  -7.558  1.00  0.00     0.041 C 
ATOM     13  O   UNL     1       2.873  -4.814  -6.852  1.00  0.00    -0.550 OA
ATOM     14  O   UNL     1       4.319  -5.323  -8.554  1.00  0.00    -0.550 OA
ENDBRANCH  11  12
ENDBRANCH  10  11
ENDBRANCH   9  10
ENDBRANCH   8   9
ENDBRANCH   1   8
TORSDOF 9
ENDMDL
MODEL 6
REMARK VINA RESULT:    -3.606      2.711      3.948
REMARK INTER + INTRA:          -6.603
REMARK INTER:                  -5.699
REMARK INTRA:                  -0.904
REMARK UNBOUND:                -1.100
REMARK SMILES O=C([O-])CCCCCCCCC(=O)[O-]
REMARK SMILES IDX 7 1 6 2 5 3 4 4 2 5 1 6 3 7 8 8 9 9 10 10 11 11 12 12 13 13
REMARK SMILES IDX 14 14
REMARK H PARENT
REMARK Flexibility Score: inf
ROOT
ATOM      1  C   UNL     1       4.154  -3.791  -8.856  1.00  0.00     0.000 C 
ENDROOT
BRANCH   1   2
ATOM      2  C   UNL     1       5.076  -2.580  -8.624  1.00  0.00     0.000 C 
BRANCH   2   3
ATOM      3  C   UNL     1       6.502  -2.816  -9.144  1.00  0.00     0.006 C 
BRANCH   3   4
ATOM      4  C   UNL     1       7.572  -2.531  -8.082  1.00  0.00     0.053 C 
BRANCH   4   5
ATOM      5  C   UNL     1       8.609  -1.597  -8.622  1.00  0.00     0.041 C 
ATOM      6  O   UNL     1       8.263  -0.573  -9.269  1.00  0.00    -0.550 OA
ATOM      7  O   UNL     1       9.954  -1.830  -8.369  1.00  0.00    -0.550 OA
ENDBRANCH   4   5
ENDBRANCH   3   4
ENDBRANCH   2   3
ENDBRANCH   1   2
BRANCH   1   8
ATOM      8  C   UNL     1       4.097  -4.728  -7.640  1.00  0.00     0.000 C 
BRANCH   8   9
ATOM      9  C   UNL     1       4.541  -4.036  -6.340  1.00  0.00     0.000 C 
BRANCH   9  10
ATOM     10  C   UNL     1       5.682  -4.784  -5.631  1.00  0.00     0.006 C 
BRANCH  10  11
ATOM     11  C   UNL     1       6.481  -5.680  -6.586  1.00  0.00     0.053 C 
BRANCH  11  12
ATOM     12  C   UNL     1       6.560  -7.075  -6.050  1.00  0.00     0.041 C 
ATOM     13  O   UNL     1       7.656  -7.696  -6.056  1.00  0.00    -0.550 OA
ATOM     14  O   UNL     1       5.413  -7.707  -5.588  1.00  0.00    -0.550 OA
ENDBRANCH  11  12
ENDBRANCH  10  11
ENDBRANCH   9  10
ENDBRANCH   8   9
ENDBRANCH   1   8
TORSDOF 9
ENDMDL
MODEL 7
REMARK VINA RESULT:    -3.590      2.742      4.313
REMARK INTER + INTRA:          -6.578
REMARK INTER:                  -5.841
REMARK INTRA:                  -0.738
REMARK UNBOUND:                -1.100
REMARK SMILES O=C([O-])CCCCCCCCC(=O)[O-]
REMARK SMILES IDX 7 1 6 2 5 3 4 4 2 5 1 6 3 7 8 8 9 9 10 10 11 11 12 12 13 13
REMARK SMILES IDX 14 14
REMARK H PARENT
REMARK Flexibility Score: inf
ROOT
ATOM      1  C   UNL     1       5.039  -3.884  -6.310  1.00  0.00     0.000 C 
ENDROOT
BRANCH   1   2
ATOM      2  C   UNL     1       6.457  -4.479  -6.256  1.00  0.00     0.000 C 
BRANCH   2   3
ATOM      3  C   UNL     1       7.550  -3.417  -6.451  1.00  0.00     0.006 C 
BRANCH   3   4
ATOM      4  C   UNL     1       8.345  -3.621  -7.748  1.00  0.00     0.053 C 
BRANCH   4   5
ATOM      5  C   UNL     1       8.762  -2.301  -8.317  1.00  0.00     0.041 C 
ATOM      6  O   UNL     1       7.897  -1.497  -8.753  1.00  0.00    -0.550 OA
ATOM      7  O   UNL     1      10.103  -1.938  -8.320  1.00  0.00    -0.550 OA
ENDBRANCH   4   5
ENDBRANCH   3   4
ENDBRANCH   2   3
ENDBRANCH   1   2
BRANCH   1   8
ATOM      8  C   UNL     1       4.819  -2.994  -7.543  1.00  0.00     0.000 C 
BRANCH   8   9
ATOM      9  C   UNL     1       4.631  -3.811  -8.834  1.00  0.00     0.000 C 
BRANCH   9  10
ATOM     10  C   UNL     1       3.491  -4.836  -8.723  1.00  0.00     0.006 C 
BRANCH  10  11
ATOM     11  C   UNL     1       3.874  -6.206  -9.298  1.00  0.00     0.053 C 
BRANCH  11  12
ATOM     12  C   UNL     1       3.706  -7.272  -8.262  1.00  0.00     0.041 C 
ATOM     13  O   UNL     1       4.283  -7.169  -7.147  1.00  0.00    -0.550 OA
ATOM     14  O   UNL     1       2.953  -8.404  -8.545  1.00  0.00    -0.550 OA
ENDBRANCH  11  12
ENDBRANCH  10  11
ENDBRANCH   9  10
ENDBRANCH   8   9
ENDBRANCH   1   8
TORSDOF 9
ENDMDL
MODEL 8
REMARK VINA RESULT:    -3.443      2.557      4.134
REMARK INTER + INTRA:          -6.354
REMARK INTER:                  -5.577
REMARK INTRA:                  -0.778
REMARK UNBOUND:                -1.100
REMARK SMILES O=C([O-])CCCCCCCCC(=O)[O-]
REMARK SMILES IDX 7 1 6 2 5 3 4 4 2 5 1 6 3 7 8 8 9 9 10 10 11 11 12 12 13 13
REMARK SMILES IDX 14 14
REMARK H PARENT
REMARK Flexibility Score: inf
ROOT
ATOM      1  C   UNL     1       9.568  -4.301  -6.953  1.00  0.00     0.000 C 
ENDROOT
BRANCH   1   2
ATOM      2  C   UNL     1       9.238  -2.948  -7.608  1.00  0.00     0.000 C 
BRANCH   2   3
ATOM      3  C   UNL     1       9.526  -2.937  -9.117  1.00  0.00     0.006 C 
BRANCH   3   4
ATOM      4  C   UNL     1       8.247  -2.985  -9.962  1.00  0.00     0.053 C 
BRANCH   4   5
ATOM      5  C   UNL     1       7.400  -1.779  -9.698  1.00  0.00     0.041 C 
ATOM      6  O   UNL     1       7.872  -0.624  -9.868  1.00  0.00    -0.550 OA
ATOM      7  O   UNL     1       6.075  -1.932  -9.312  1.00  0.00    -0.550 OA
ENDBRANCH   4   5
ENDBRANCH   3   4
ENDBRANCH   2   3
ENDBRANCH   1   2
BRANCH   1   8
ATOM      8  C   UNL     1       8.315  -5.030  -6.444  1.00  0.00     0.000 C 
BRANCH   8   9
ATOM      9  C   UNL     1       7.097  -4.097  -6.326  1.00  0.00     0.000 C 
BRANCH   9  10
ATOM     10  C   UNL     1       5.840  -4.679  -6.992  1.00  0.00     0.006 C 
BRANCH  10  11
ATOM     11  C   UNL     1       4.593  -3.818  -6.749  1.00  0.00     0.053 C 
BRANCH  11  12
ATOM     12  C   UNL     1       3.399  -4.434  -7.406  1.00  0.00     0.041 C 
ATOM     13  O   UNL     1       3.398  -4.651  -8.647  1.00  0.00    -0.550 OA
ATOM     14  O   UNL     1       2.266  -4.723  -6.657  1.00  0.00    -0.550 OA
ENDBRANCH  11  12
ENDBRANCH  10  11
ENDBRANCH   9  10
ENDBRANCH   8   9
ENDBRANCH   1   8
TORSDOF 9
ENDMDL
MODEL 9
REMARK VINA RESULT:    -3.429      2.183      3.775
REMARK INTER + INTRA:          -6.332
REMARK INTER:                  -5.413
REMARK INTRA:                  -0.919
REMARK UNBOUND:                -1.100
REMARK SMILES O=C([O-])CCCCCCCCC(=O)[O-]
REMARK SMILES IDX 7 1 6 2 5 3 4 4 2 5 1 6 3 7 8 8 9 9 10 10 11 11 12 12 13 13
REMARK SMILES IDX 14 14
REMARK H PARENT
REMARK Flexibility Score: inf
ROOT
ATOM      1  C   UNL     1       4.811  -3.226  -7.151  1.00  0.00     0.000 C 
ENDROOT
BRANCH   1   2
ATOM      2  C   UNL     1       5.411  -2.818  -8.509  1.00  0.00     0.000 C 
BRANCH   2   3
ATOM      3  C   UNL     1       6.947  -2.790  -8.490  1.00  0.00     0.006 C 
BRANCH   3   4
ATOM      4  C   UNL     1       7.518  -2.713  -7.068  1.00  0.00     0.053 C 
BRANCH   4   5
ATOM      5  C   UNL     1       8.750  -3.555  -6.954  1.00  0.00     0.041 C 
ATOM      6  O   UNL     1       8.665  -4.757  -6.589  1.00  0.00    -0.550 OA
ATOM      7  O   UNL     1       9.987  -3.026  -7.298  1.00  0.00    -0.550 OA
ENDBRANCH   4   5
ENDBRANCH   3   4
ENDBRANCH   2   3
ENDBRANCH   1   2
BRANCH   1   8
ATOM      8  C   UNL     1       3.703  -4.281  -7.291  1.00  0.00     0.000 C 
BRANCH   8   9
ATOM      9  C   UNL     1       3.961  -5.258  -8.452  1.00  0.00     0.000 C 
BRANCH   9  10
ATOM     10  C   UNL     1       4.390  -6.652  -7.966  1.00  0.00     0.006 C 
BRANCH  10  11
ATOM     11  C   UNL     1       5.877  -6.713  -7.592  1.00  0.00     0.053 C 
BRANCH  11  12
ATOM     12  C   UNL     1       6.037  -7.104  -6.157  1.00  0.00     0.041 C 
ATOM     13  O   UNL     1       5.871  -6.251  -5.245  1.00  0.00    -0.550 OA
ATOM     14  O   UNL     1       6.419  -8.398  -5.828  1.00  0.00    -0.550 OA
ENDBRANCH  11  12
ENDBRANCH  10  11
ENDBRANCH   9  10
ENDBRANCH   8   9
ENDBRANCH   1   8
TORSDOF 9
ENDMDL
