MODEL 1
REMARK VINA RESULT:    -4.082      0.000      0.000
REMARK INTER + INTRA:          -8.599
REMARK INTER:                  -7.183
REMARK INTRA:                  -1.416
REMARK UNBOUND:                -1.416
REMARK SMILES CCCCCCCCCCCCCCC(=O)[O-]
REMARK SMILES IDX 9 1 10 2 11 3 12 4 13 5 14 6 15 7 16 8 17 9 8 10 7 11 6 12
REMARK SMILES IDX 5 13 4 14 3 15 2 16 1 17
REMARK H PARENT
REMARK Flexibility Score: inf
ROOT
ATOM      1  C   UNL     1      29.764  10.942 -16.430  1.00  0.00     0.000 C 
ENDROOT
BRANCH   1   2
ATOM      2  C   UNL     1      30.747  11.130 -17.600  1.00  0.00     0.000 C 
BRANCH   2   3
ATOM      3  C   UNL     1      30.503  12.433 -18.374  1.00  0.00     0.000 C 
BRANCH   3   4
ATOM      4  C   UNL     1      29.172  13.103 -17.999  1.00  0.00     0.000 C 
BRANCH   4   5
ATOM      5  C   UNL     1      29.379  14.582 -17.654  1.00  0.00     0.006 C 
BRANCH   5   6
ATOM      6  C   UNL     1      30.629  14.776 -16.791  1.00  0.00     0.053 C 
BRANCH   6   7
ATOM      7  C   UNL     1      30.631  16.137 -16.171  1.00  0.00     0.041 C 
ATOM      8  O   UNL     1      31.076  16.301 -15.005  1.00  0.00    -0.550 OA
ATOM      9  O   UNL     1      30.097  17.218 -16.862  1.00  0.00    -0.550 OA
ENDBRANCH   6   7
ENDBRANCH   5   6
ENDBRANCH   4   5
ENDBRANCH   3   4
ENDBRANCH   2   3
ENDBRANCH   1   2
BRANCH   1  10
ATOM     10  C   UNL     1      30.406  11.243 -15.067  1.00  0.00     0.000 C 
BRANCH  10  11
ATOM     11  C   UNL     1      29.366  11.615 -13.995  1.00  0.00    -0.000 C 
BRANCH  11  12
ATOM     12  C   UNL     1      28.632  12.926 -14.318  1.00  0.00    -0.000 C 
BRANCH  12  13
ATOM     13  C   UNL     1      28.137  13.651 -13.053  1.00  0.00    -0.000 C 
BRANCH  13  14
ATOM     14  C   UNL     1      28.338  12.817 -11.777  1.00  0.00    -0.000 C 
BRANCH  14  15
ATOM     15  C   UNL     1      27.025  12.587 -11.010  1.00  0.00    -0.000 C 
BRANCH  15  16
ATOM     16  C   UNL     1      25.919  13.569 -11.430  1.00  0.00    -0.003 C 
ATOM     17  C   UNL     1      25.291  14.296 -10.241  1.00  0.00     0.004 C 
ENDBRANCH  15  16
ENDBRANCH  14  15
ENDBRANCH  13  14
ENDBRANCH  12  13
ENDBRANCH  11  12
ENDBRANCH  10  11
ENDBRANCH   1  10
TORSDOF 13
ENDMDL
MODEL 2
REMARK VINA RESULT:    -4.062      2.965      6.449
REMARK INTER + INTRA:          -8.564
REMARK INTER:                  -7.028
REMARK INTRA:                  -1.536
REMARK UNBOUND:                -1.416
REMARK SMILES CCCCCCCCCCCCCCC(=O)[O-]
REMARK SMILES IDX 9 1 10 2 11 3 12 4 13 5 14 6 15 7 16 8 17 9 8 10 7 11 6 12
REMARK SMILES IDX 5 13 4 14 3 15 2 16 1 17
REMARK H PARENT
REMARK Flexibility Score: inf
ROOT
ATOM      1  C   UNL     1      29.462   9.113 -13.682  1.00  0.00     0.000 C 
ENDROOT
BRANCH   1   2
ATOM      2  C   UNL     1      30.814   8.857 -12.992  1.00  0.00     0.000 C 
BRANCH   2   3
ATOM      3  C   UNL     1      30.940   9.587 -11.647  1.00  0.00     0.000 C 
BRANCH   3   4
ATOM      4  C   UNL     1      29.696   9.415 -10.762  1.00  0.00     0.000 C 
BRANCH   4   5
ATOM      5  C   UNL     1      29.301  10.742 -10.104  1.00  0.00     0.006 C 
BRANCH   5   6
ATOM      6  C   UNL     1      29.261  11.876 -11.132  1.00  0.00     0.053 C 
BRANCH   6   7
ATOM      7  C   UNL     1      27.903  12.502 -11.169  1.00  0.00     0.041 C 
ATOM      8  O   UNL     1      27.735  13.617 -11.727  1.00  0.00    -0.550 OA
ATOM      9  O   UNL     1      26.832  11.876 -10.545  1.00  0.00    -0.550 OA
ENDBRANCH   6   7
ENDBRANCH   5   6
ENDBRANCH   4   5
ENDBRANCH   3   4
ENDBRANCH   2   3
ENDBRANCH   1   2
BRANCH   1  10
ATOM     10  C   UNL     1      29.613   9.858 -15.016  1.00  0.00     0.000 C 
BRANCH  10  11
ATOM     11  C   UNL     1      30.059  11.319 -14.829  1.00  0.00    -0.000 C 
BRANCH  11  12
ATOM     12  C   UNL     1      28.875  12.300 -14.830  1.00  0.00    -0.000 C 
BRANCH  12  13
ATOM     13  C   UNL     1      29.099  13.493 -15.775  1.00  0.00    -0.000 C 
BRANCH  13  14
ATOM     14  C   UNL     1      28.536  13.246 -17.185  1.00  0.00    -0.000 C 
BRANCH  14  15
ATOM     15  C   UNL     1      29.597  13.431 -18.283  1.00  0.00    -0.000 C 
BRANCH  15  16
ATOM     16  C   UNL     1      30.841  12.559 -18.053  1.00  0.00    -0.003 C 
ATOM     17  C   UNL     1      30.711  11.166 -18.668  1.00  0.00     0.004 C 
ENDBRANCH  15  16
ENDBRANCH  14  15
ENDBRANCH  13  14
ENDBRANCH  12  13
ENDBRANCH  11  12
ENDBRANCH  10  11
ENDBRANCH   1  10
TORSDOF 13
ENDMDL
MODEL 3
REMARK VINA RESULT:    -4.038      2.617      5.291
REMARK INTER + INTRA:          -8.523
REMARK INTER:                  -6.650
REMARK INTRA:                  -1.872
REMARK UNBOUND:                -1.416
REMARK SMILES CCCCCCCCCCCCCCC(=O)[O-]
REMARK SMILES IDX 9 1 10 2 11 3 12 4 13 5 14 6 15 7 16 8 17 9 8 10 7 11 6 12
REMARK SMILES IDX 5 13 4 14 3 15 2 16 1 17
REMARK H PARENT
REMARK Flexibility Score: inf
ROOT
ATOM      1  C   UNL     1      29.272  14.079 -16.994  1.00  0.00     0.000 C 
ENDROOT
BRANCH   1   2
ATOM      2  C   UNL     1      30.592  14.102 -16.204  1.00  0.00     0.000 C 
BRANCH   2   3
ATOM      3  C   UNL     1      30.377  14.308 -14.697  1.00  0.00     0.000 C 
BRANCH   3   4
ATOM      4  C   UNL     1      29.157  15.190 -14.389  1.00  0.00     0.000 C 
BRANCH   4   5
ATOM      5  C   UNL     1      28.577  14.863 -13.009  1.00  0.00     0.006 C 
BRANCH   5   6
ATOM      6  C   UNL     1      27.712  13.600 -13.061  1.00  0.00     0.053 C 
BRANCH   6   7
ATOM      7  C   UNL     1      26.580  13.700 -12.088  1.00  0.00     0.041 C 
ATOM      8  O   UNL     1      26.616  13.058 -11.007  1.00  0.00    -0.550 OA
ATOM      9  O   UNL     1      25.462  14.465 -12.399  1.00  0.00    -0.550 OA
ENDBRANCH   6   7
ENDBRANCH   5   6
ENDBRANCH   4   5
ENDBRANCH   3   4
ENDBRANCH   2   3
ENDBRANCH   1   2
BRANCH   1  10
ATOM     10  C   UNL     1      29.335  13.159 -18.222  1.00  0.00     0.000 C 
BRANCH  10  11
ATOM     11  C   UNL     1      30.709  12.484 -18.383  1.00  0.00    -0.000 C 
BRANCH  11  12
ATOM     12  C   UNL     1      30.607  10.951 -18.445  1.00  0.00    -0.000 C 
BRANCH  12  13
ATOM     13  C   UNL     1      30.945  10.283 -17.101  1.00  0.00    -0.000 C 
BRANCH  13  14
ATOM     14  C   UNL     1      29.694   9.800 -16.348  1.00  0.00    -0.000 C 
BRANCH  14  15
ATOM     15  C   UNL     1      29.214  10.812 -15.294  1.00  0.00    -0.000 C 
BRANCH  15  16
ATOM     16  C   UNL     1      29.572  10.383 -13.862  1.00  0.00    -0.003 C 
ATOM     17  C   UNL     1      30.991  10.785 -13.460  1.00  0.00     0.004 C 
ENDBRANCH  15  16
ENDBRANCH  14  15
ENDBRANCH  13  14
ENDBRANCH  12  13
ENDBRANCH  11  12
ENDBRANCH  10  11
ENDBRANCH   1  10
TORSDOF 13
ENDMDL
MODEL 4
REMARK VINA RESULT:    -3.990      2.603      5.505
REMARK INTER + INTRA:          -8.438
REMARK INTER:                  -6.586
REMARK INTRA:                  -1.852
REMARK UNBOUND:                -1.416
REMARK SMILES CCCCCCCCCCCCCCC(=O)[O-]
REMARK SMILES IDX 9 1 10 2 11 3 12 4 13 5 14 6 15 7 16 8 17 9 8 10 7 11 6 12
REMARK SMILES IDX 5 13 4 14 3 15 2 16 1 17
REMARK H PARENT
REMARK Flexibility Score: inf
ROOT
ATOM      1  C   UNL     1      29.258  11.048 -14.965  1.00  0.00     0.000 C 
ENDROOT
BRANCH   1   2
ATOM      2  C   UNL     1      30.538  11.711 -14.426  1.00  0.00     0.000 C 
BRANCH   2   3
ATOM      3  C   UNL     1      30.244  12.903 -13.503  1.00  0.00     0.000 C 
BRANCH   3   4
ATOM      4  C   UNL     1      28.820  13.453 -13.684  1.00  0.00     0.000 C 
BRANCH   4   5
ATOM      5  C   UNL     1      28.192  13.806 -12.331  1.00  0.00     0.006 C 
BRANCH   5   6
ATOM      6  C   UNL     1      27.254  15.010 -12.457  1.00  0.00     0.053 C 
BRANCH   6   7
ATOM      7  C   UNL     1      25.906  14.686 -11.897  1.00  0.00     0.041 C 
ATOM      8  O   UNL     1      25.799  13.898 -10.922  1.00  0.00    -0.550 OA
ATOM      9  O   UNL     1      24.763  15.216 -12.483  1.00  0.00    -0.550 OA
ENDBRANCH   6   7
ENDBRANCH   5   6
ENDBRANCH   4   5
ENDBRANCH   3   4
ENDBRANCH   2   3
ENDBRANCH   1   2
BRANCH   1  10
ATOM     10  C   UNL     1      29.148  11.135 -16.494  1.00  0.00     0.000 C 
BRANCH  10  11
ATOM     11  C   UNL     1      30.522  11.235 -17.180  1.00  0.00    -0.000 C 
BRANCH  11  12
ATOM     12  C   UNL     1      30.693  12.545 -17.968  1.00  0.00    -0.000 C 
BRANCH  12  13
ATOM     13  C   UNL     1      29.418  13.406 -17.961  1.00  0.00    -0.000 C 
BRANCH  13  14
ATOM     14  C   UNL     1      29.584  14.704 -17.153  1.00  0.00    -0.000 C 
BRANCH  14  15
ATOM     15  C   UNL     1      31.007  14.870 -16.592  1.00  0.00    -0.000 C 
BRANCH  15  16
ATOM     16  C   UNL     1      31.067  15.871 -15.428  1.00  0.00    -0.003 C 
ATOM     17  C   UNL     1      30.204  17.110 -15.667  1.00  0.00     0.004 C 
ENDBRANCH  15  16
ENDBRANCH  14  15
ENDBRANCH  13  14
ENDBRANCH  12  13
ENDBRANCH  11  12
ENDBRANCH  10  11
ENDBRANCH   1  10
TORSDOF 13
ENDMDL
MODEL 5
REMARK VINA RESULT:    -3.973      3.286      5.178
REMARK INTER + INTRA:          -8.407
REMARK INTER:                  -6.878
REMARK INTRA:                  -1.530
REMARK UNBOUND:                -1.416
REMARK SMILES CCCCCCCCCCCCCCC(=O)[O-]
REMARK SMILES IDX 9 1 10 2 11 3 12 4 13 5 14 6 15 7 16 8 17 9 8 10 7 11 6 12
REMARK SMILES IDX 5 13 4 14 3 15 2 16 1 17
REMARK H PARENT
REMARK Flexibility Score: inf
ROOT
ATOM      1  C   UNL     1      28.503  12.306 -16.085  1.00  0.00     0.000 C 
ENDROOT
BRANCH   1   2
ATOM      2  C   UNL     1      29.239  11.159 -15.370  1.00  0.00     0.000 C 
BRANCH   2   3
ATOM      3  C   UNL     1      30.413  11.653 -14.513  1.00  0.00     0.000 C 
BRANCH   3   4
ATOM      4  C   UNL     1      30.424  11.028 -13.109  1.00  0.00     0.000 C 
BRANCH   4   5
ATOM      5  C   UNL     1      30.375  12.110 -12.025  1.00  0.00     0.006 C 
BRANCH   5   6
ATOM      6  C   UNL     1      30.835  11.557 -10.673  1.00  0.00     0.053 C 
BRANCH   6   7
ATOM      7  C   UNL     1      29.782  10.675 -10.082  1.00  0.00     0.041 C 
ATOM      8  O   UNL     1      30.098   9.576  -9.557  1.00  0.00    -0.550 OA
ATOM      9  O   UNL     1      28.444  11.044 -10.155  1.00  0.00    -0.550 OA
ENDBRANCH   6   7
ENDBRANCH   5   6
ENDBRANCH   4   5
ENDBRANCH   3   4
ENDBRANCH   2   3
ENDBRANCH   1   2
BRANCH   1  10
ATOM     10  C   UNL     1      29.341  12.933 -17.210  1.00  0.00     0.000 C 
BRANCH  10  11
ATOM     11  C   UNL     1      29.427  14.466 -17.096  1.00  0.00    -0.000 C 
BRANCH  11  12
ATOM     12  C   UNL     1      30.335  14.920 -15.941  1.00  0.00    -0.000 C 
BRANCH  12  13
ATOM     13  C   UNL     1      29.603  15.829 -14.939  1.00  0.00    -0.000 C 
BRANCH  13  14
ATOM     14  C   UNL     1      28.906  15.036 -13.821  1.00  0.00    -0.000 C 
BRANCH  14  15
ATOM     15  C   UNL     1      27.986  15.917 -12.959  1.00  0.00    -0.000 C 
BRANCH  15  16
ATOM     16  C   UNL     1      27.138  15.096 -11.974  1.00  0.00    -0.003 C 
ATOM     17  C   UNL     1      27.040  13.621 -12.364  1.00  0.00     0.004 C 
ENDBRANCH  15  16
ENDBRANCH  14  15
ENDBRANCH  13  14
ENDBRANCH  12  13
ENDBRANCH  11  12
ENDBRANCH  10  11
ENDBRANCH   1  10
TORSDOF 13
ENDMDL
MODEL 6
REMARK VINA RESULT:    -3.953      2.193      3.836
REMARK INTER + INTRA:          -8.372
REMARK INTER:                  -6.686
REMARK INTRA:                  -1.686
REMARK UNBOUND:                -1.416
REMARK SMILES CCCCCCCCCCCCCCC(=O)[O-]
REMARK SMILES IDX 9 1 10 2 11 3 12 4 13 5 14 6 15 7 16 8 17 9 8 10 7 11 6 12
REMARK SMILES IDX 5 13 4 14 3 15 2 16 1 17
REMARK H PARENT
REMARK Flexibility Score: inf
ROOT
ATOM      1  C   UNL     1      30.432   9.766 -11.504  1.00  0.00     0.000 C 
ENDROOT
BRANCH   1   2
ATOM      2  C   UNL     1      29.893   8.565 -12.300  1.00  0.00     0.000 C 
BRANCH   2   3
ATOM      3  C   UNL     1      29.218   8.981 -13.615  1.00  0.00     0.000 C 
BRANCH   3   4
ATOM      4  C   UNL     1      30.033  10.026 -14.393  1.00  0.00     0.000 C 
BRANCH   4   5
ATOM      5  C   UNL     1      29.156  10.758 -15.414  1.00  0.00     0.006 C 
BRANCH   5   6
ATOM      6  C   UNL     1      30.010  11.583 -16.381  1.00  0.00     0.053 C 
BRANCH   6   7
ATOM      7  C   UNL     1      29.465  12.970 -16.509  1.00  0.00     0.041 C 
ATOM      8  O   UNL     1      28.420  13.181 -17.178  1.00  0.00    -0.550 OA
ATOM      9  O   UNL     1      30.138  14.038 -15.929  1.00  0.00    -0.550 OA
ENDBRANCH   6   7
ENDBRANCH   5   6
ENDBRANCH   4   5
ENDBRANCH   3   4
ENDBRANCH   2   3
ENDBRANCH   1   2
BRANCH   1  10
ATOM     10  C   UNL     1      29.455  10.241 -10.418  1.00  0.00     0.000 C 
BRANCH  10  11
ATOM     11  C   UNL     1      28.529  11.368 -10.910  1.00  0.00    -0.000 C 
BRANCH  11  12
ATOM     12  C   UNL     1      29.283  12.686 -11.150  1.00  0.00    -0.000 C 
BRANCH  12  13
ATOM     13  C   UNL     1      29.274  13.108 -12.630  1.00  0.00    -0.000 C 
BRANCH  13  14
ATOM     14  C   UNL     1      27.890  13.582 -13.102  1.00  0.00    -0.000 C 
BRANCH  14  15
ATOM     15  C   UNL     1      27.253  14.596 -12.136  1.00  0.00    -0.000 C 
BRANCH  15  16
ATOM     16  C   UNL     1      25.763  14.316 -11.886  1.00  0.00    -0.003 C 
ATOM     17  C   UNL     1      25.420  14.214 -10.399  1.00  0.00     0.004 C 
ENDBRANCH  15  16
ENDBRANCH  14  15
ENDBRANCH  13  14
ENDBRANCH  12  13
ENDBRANCH  11  12
ENDBRANCH  10  11
ENDBRANCH   1  10
TORSDOF 13
ENDMDL
MODEL 7
REMARK VINA RESULT:    -3.935      2.488      4.716
REMARK INTER + INTRA:          -8.341
REMARK INTER:                  -6.440
REMARK INTRA:                  -1.901
REMARK UNBOUND:                -1.416
REMARK SMILES CCCCCCCCCCCCCCC(=O)[O-]
REMARK SMILES IDX 9 1 10 2 11 3 12 4 13 5 14 6 15 7 16 8 17 9 8 10 7 11 6 12
REMARK SMILES IDX 5 13 4 14 3 15 2 16 1 17
REMARK H PARENT
REMARK Flexibility Score: inf
ROOT
ATOM      1  C   UNL     1      29.672  13.153 -18.297  1.00  0.00     0.000 C 
ENDROOT
BRANCH   1   2
ATOM      2  C   UNL     1      28.822  13.505 -17.063  1.00  0.00     0.000 C 
BRANCH   2   3
ATOM      3  C   UNL     1      29.573  14.395 -16.062  1.00  0.00     0.000 C 
BRANCH   3   4
ATOM      4  C   UNL     1      29.709  13.743 -14.678  1.00  0.00     0.000 C 
BRANCH   4   5
ATOM      5  C   UNL     1      28.376  13.144 -14.218  1.00  0.00     0.006 C 
BRANCH   5   6
ATOM      6  C   UNL     1      28.292  13.094 -12.690  1.00  0.00     0.053 C 
BRANCH   6   7
ATOM      7  C   UNL     1      27.215  14.006 -12.194  1.00  0.00     0.041 C 
ATOM      8  O   UNL     1      26.058  13.561 -11.977  1.00  0.00    -0.550 OA
ATOM      9  O   UNL     1      27.476  15.359 -12.018  1.00  0.00    -0.550 OA
ENDBRANCH   6   7
ENDBRANCH   5   6
ENDBRANCH   4   5
ENDBRANCH   3   4
ENDBRANCH   2   3
ENDBRANCH   1   2
BRANCH   1  10
ATOM     10  C   UNL     1      30.911  12.318 -17.940  1.00  0.00     0.000 C 
BRANCH  10  11
ATOM     11  C   UNL     1      30.567  10.847 -17.647  1.00  0.00    -0.000 C 
BRANCH  11  12
ATOM     12  C   UNL     1      30.801  10.470 -16.175  1.00  0.00    -0.000 C 
BRANCH  12  13
ATOM     13  C   UNL     1      29.624   9.681 -15.575  1.00  0.00    -0.000 C 
BRANCH  13  14
ATOM     14  C   UNL     1      29.558   9.790 -14.043  1.00  0.00    -0.000 C 
BRANCH  14  15
ATOM     15  C   UNL     1      30.844  10.379 -13.438  1.00  0.00    -0.000 C 
BRANCH  15  16
ATOM     16  C   UNL     1      30.964  10.106 -11.931  1.00  0.00    -0.003 C 
ATOM     17  C   UNL     1      29.855   9.195 -11.403  1.00  0.00     0.004 C 
ENDBRANCH  15  16
ENDBRANCH  14  15
ENDBRANCH  13  14
ENDBRANCH  12  13
ENDBRANCH  11  12
ENDBRANCH  10  11
ENDBRANCH   1  10
TORSDOF 13
ENDMDL
MODEL 8
REMARK VINA RESULT:    -3.859      2.455      4.325
REMARK INTER + INTRA:          -8.207
REMARK INTER:                  -6.629
REMARK INTRA:                  -1.578
REMARK UNBOUND:                -1.416
REMARK SMILES CCCCCCCCCCCCCCC(=O)[O-]
REMARK SMILES IDX 9 1 10 2 11 3 12 4 13 5 14 6 15 7 16 8 17 9 8 10 7 11 6 12
REMARK SMILES IDX 5 13 4 14 3 15 2 16 1 17
REMARK H PARENT
REMARK Flexibility Score: inf
ROOT
ATOM      1  C   UNL     1      28.764  12.820 -13.097  1.00  0.00     0.000 C 
ENDROOT
BRANCH   1   2
ATOM      2  C   UNL     1      30.088  12.255 -13.642  1.00  0.00     0.000 C 
BRANCH   2   3
ATOM      3  C   UNL     1      30.017  11.921 -15.139  1.00  0.00     0.000 C 
BRANCH   3   4
ATOM      4  C   UNL     1      28.636  12.214 -15.745  1.00  0.00     0.000 C 
BRANCH   4   5
ATOM      5  C   UNL     1      28.745  13.205 -16.909  1.00  0.00     0.006 C 
BRANCH   5   6
ATOM      6  C   UNL     1      30.141  13.832 -16.969  1.00  0.00     0.053 C 
BRANCH   6   7
ATOM      7  C   UNL     1      30.102  15.245 -16.480  1.00  0.00     0.041 C 
ATOM      8  O   UNL     1      29.818  16.181 -17.271  1.00  0.00    -0.550 OA
ATOM      9  O   UNL     1      30.428  15.533 -15.160  1.00  0.00    -0.550 OA
ENDBRANCH   6   7
ENDBRANCH   5   6
ENDBRANCH   4   5
ENDBRANCH   3   4
ENDBRANCH   2   3
ENDBRANCH   1   2
BRANCH   1  10
ATOM     10  C   UNL     1      28.673  12.734 -11.566  1.00  0.00     0.000 C 
BRANCH  10  11
ATOM     11  C   UNL     1      28.492  11.290 -11.066  1.00  0.00    -0.000 C 
BRANCH  11  12
ATOM     12  C   UNL     1      29.492  10.921  -9.958  1.00  0.00    -0.000 C 
BRANCH  12  13
ATOM     13  C   UNL     1      30.025   9.484 -10.101  1.00  0.00    -0.000 C 
BRANCH  13  14
ATOM     14  C   UNL     1      30.728   9.246 -11.448  1.00  0.00    -0.000 C 
BRANCH  14  15
ATOM     15  C   UNL     1      30.750   7.760 -11.846  1.00  0.00    -0.000 C 
BRANCH  15  16
ATOM     16  C   UNL     1      29.645   7.405 -12.854  1.00  0.00    -0.003 C 
ATOM     17  C   UNL     1      29.186   8.608 -13.679  1.00  0.00     0.004 C 
ENDBRANCH  15  16
ENDBRANCH  14  15
ENDBRANCH  13  14
ENDBRANCH  12  13
ENDBRANCH  11  12
ENDBRANCH  10  11
ENDBRANCH   1  10
TORSDOF 13
ENDMDL
MODEL 9
REMARK VINA RESULT:    -3.826      4.050      5.190
REMARK INTER + INTRA:          -8.150
REMARK INTER:                  -6.606
REMARK INTRA:                  -1.544
REMARK UNBOUND:                -1.416
REMARK SMILES CCCCCCCCCCCCCCC(=O)[O-]
REMARK SMILES IDX 9 1 10 2 11 3 12 4 13 5 14 6 15 7 16 8 17 9 8 10 7 11 6 12
REMARK SMILES IDX 5 13 4 14 3 15 2 16 1 17
REMARK H PARENT
REMARK Flexibility Score: inf
ROOT
ATOM      1  C   UNL     1      28.805  12.582 -16.019  1.00  0.00     0.000 C 
ENDROOT
BRANCH   1   2
ATOM      2  C   UNL     1      28.881  13.554 -17.209  1.00  0.00     0.000 C 
BRANCH   2   3
ATOM      3  C   UNL     1      29.656  12.971 -18.401  1.00  0.00     0.000 C 
BRANCH   3   4
ATOM      4  C   UNL     1      30.843  12.099 -17.964  1.00  0.00     0.000 C 
BRANCH   4   5
ATOM      5  C   UNL     1      30.777  10.713 -18.615  1.00  0.00     0.006 C 
BRANCH   5   6
ATOM      6  C   UNL     1      30.405   9.640 -17.588  1.00  0.00     0.053 C 
BRANCH   6   7
ATOM      7  C   UNL     1      30.705   8.276 -18.123  1.00  0.00     0.041 C 
ATOM      8  O   UNL     1      30.843   7.304 -17.336  1.00  0.00    -0.550 OA
ATOM      9  O   UNL     1      30.881   8.088 -19.488  1.00  0.00    -0.550 OA
ENDBRANCH   6   7
ENDBRANCH   5   6
ENDBRANCH   4   5
ENDBRANCH   3   4
ENDBRANCH   2   3
ENDBRANCH   1   2
BRANCH   1  10
ATOM     10  C   UNL     1      28.849  13.305 -14.664  1.00  0.00     0.000 C 
BRANCH  10  11
ATOM     11  C   UNL     1      29.905  12.713 -13.713  1.00  0.00    -0.000 C 
BRANCH  11  12
ATOM     12  C   UNL     1      30.858  11.739 -14.425  1.00  0.00    -0.000 C 
BRANCH  12  13
ATOM     13  C   UNL     1      30.943  10.376 -13.717  1.00  0.00    -0.000 C 
BRANCH  13  14
ATOM     14  C   UNL     1      29.717   9.489 -13.991  1.00  0.00    -0.000 C 
BRANCH  14  15
ATOM     15  C   UNL     1      29.191   8.802 -12.719  1.00  0.00    -0.000 C 
BRANCH  15  16
ATOM     16  C   UNL     1      30.167   8.924 -11.538  1.00  0.00    -0.003 C 
ATOM     17  C   UNL     1      29.657   9.859 -10.441  1.00  0.00     0.004 C 
ENDBRANCH  15  16
ENDBRANCH  14  15
ENDBRANCH  13  14
ENDBRANCH  12  13
ENDBRANCH  11  12
ENDBRANCH  10  11
ENDBRANCH   1  10
TORSDOF 13
ENDMDL
