MODEL 1
REMARK VINA RESULT:    -3.428      0.000      0.000
REMARK INTER + INTRA:          -4.949
REMARK INTER:                  -4.430
REMARK INTRA:                  -0.519
REMARK UNBOUND:                -0.519
REMARK SMILES C=CC(=O)CCCCC
REMARK SMILES IDX 6 1 7 2 8 3 9 4 5 5 3 6 4 7 2 8 1 9
REMARK H PARENT
REMARK Flexibility Score: inf
ROOT
ATOM      1  C   UNL     1      41.970  58.459  28.010  1.00  0.00     0.008 C 
ENDROOT
BRANCH   1   2
ATOM      2  C   UNL     1      41.877  57.105  28.742  1.00  0.00     0.000 C 
BRANCH   2   3
ATOM      3  C   UNL     1      42.777  57.049  29.985  1.00  0.00    -0.003 C 
ATOM      4  C   UNL     1      42.185  57.867  31.129  1.00  0.00     0.004 C 
ENDBRANCH   2   3
ENDBRANCH   1   2
BRANCH   1   5
ATOM      5  C   UNL     1      43.294  58.661  27.257  1.00  0.00     0.080 C 
BRANCH   5   6
ATOM      6  C   UNL     1      44.198  59.642  27.947  1.00  0.00     0.155 C 
ATOM      7  O   UNL     1      45.447  59.504  27.847  1.00  0.00    -0.295 OA
BRANCH   6   8
ATOM      8  C   UNL     1      43.627  60.741  28.753  1.00  0.00     0.039 C 
ATOM      9  C   UNL     1      44.013  60.984  30.003  1.00  0.00     0.012 C 
ENDBRANCH   6   8
ENDBRANCH   5   6
ENDBRANCH   1   5
TORSDOF 5
ENDMDL
MODEL 2
REMARK VINA RESULT:    -3.423      1.909      2.639
REMARK INTER + INTRA:          -4.943
REMARK INTER:                  -4.412
REMARK INTRA:                  -0.531
REMARK UNBOUND:                -0.519
REMARK SMILES C=CC(=O)CCCCC
REMARK SMILES IDX 6 1 7 2 8 3 9 4 5 5 3 6 4 7 2 8 1 9
REMARK H PARENT
REMARK Flexibility Score: inf
ROOT
ATOM      1  C   UNL     1      42.145  57.951  28.218  1.00  0.00     0.008 C 
ENDROOT
BRANCH   1   2
ATOM      2  C   UNL     1      42.891  56.635  28.515  1.00  0.00     0.000 C 
BRANCH   2   3
ATOM      3  C   UNL     1      43.738  56.160  27.324  1.00  0.00    -0.003 C 
ATOM      4  C   UNL     1      44.988  55.425  27.797  1.00  0.00     0.004 C 
ENDBRANCH   2   3
ENDBRANCH   1   2
BRANCH   1   5
ATOM      5  C   UNL     1      42.948  58.930  27.347  1.00  0.00     0.080 C 
BRANCH   5   6
ATOM      6  C   UNL     1      43.906  59.757  28.154  1.00  0.00     0.155 C 
ATOM      7  O   UNL     1      43.477  60.769  28.771  1.00  0.00    -0.295 OA
BRANCH   6   8
ATOM      8  C   UNL     1      45.339  59.401  28.202  1.00  0.00     0.039 C 
ATOM      9  C   UNL     1      46.077  59.259  27.104  1.00  0.00     0.012 C 
ENDBRANCH   6   8
ENDBRANCH   5   6
ENDBRANCH   1   5
TORSDOF 5
ENDMDL
MODEL 3
REMARK VINA RESULT:    -3.391      2.076      3.322
REMARK INTER + INTRA:          -4.902
REMARK INTER:                  -4.385
REMARK INTRA:                  -0.517
REMARK UNBOUND:                -0.519
REMARK SMILES C=CC(=O)CCCCC
REMARK SMILES IDX 6 1 7 2 8 3 9 4 5 5 3 6 4 7 2 8 1 9
REMARK H PARENT
REMARK Flexibility Score: inf
ROOT
ATOM      1  C   UNL     1      43.023  59.305  28.288  1.00  0.00     0.008 C 
ENDROOT
BRANCH   1   2
ATOM      2  C   UNL     1      43.788  60.559  28.759  1.00  0.00     0.000 C 
BRANCH   2   3
ATOM      3  C   UNL     1      44.096  60.526  30.263  1.00  0.00    -0.003 C 
ATOM      4  C   UNL     1      45.475  59.929  30.529  1.00  0.00     0.004 C 
ENDBRANCH   2   3
ENDBRANCH   1   2
BRANCH   1   5
ATOM      5  C   UNL     1      43.609  58.670  27.017  1.00  0.00     0.080 C 
BRANCH   5   6
ATOM      6  C   UNL     1      44.661  57.644  27.325  1.00  0.00     0.155 C 
ATOM      7  O   UNL     1      44.346  56.620  27.989  1.00  0.00    -0.295 OA
BRANCH   6   8
ATOM      8  C   UNL     1      46.053  57.847  26.875  1.00  0.00     0.039 C 
ATOM      9  C   UNL     1      46.639  59.042  26.883  1.00  0.00     0.012 C 
ENDBRANCH   6   8
ENDBRANCH   5   6
ENDBRANCH   1   5
TORSDOF 5
ENDMDL
MODEL 4
REMARK VINA RESULT:    -3.391      1.430      3.481
REMARK INTER + INTRA:          -4.901
REMARK INTER:                  -4.379
REMARK INTRA:                  -0.522
REMARK UNBOUND:                -0.519
REMARK SMILES C=CC(=O)CCCCC
REMARK SMILES IDX 6 1 7 2 8 3 9 4 5 5 3 6 4 7 2 8 1 9
REMARK H PARENT
REMARK Flexibility Score: inf
ROOT
ATOM      1  C   UNL     1      43.335  59.001  27.232  1.00  0.00     0.008 C 
ENDROOT
BRANCH   1   2
ATOM      2  C   UNL     1      44.273  59.730  28.215  1.00  0.00     0.000 C 
BRANCH   2   3
ATOM      3  C   UNL     1      43.566  60.869  28.964  1.00  0.00    -0.003 C 
ATOM      4  C   UNL     1      43.923  60.857  30.447  1.00  0.00     0.004 C 
ENDBRANCH   2   3
ENDBRANCH   1   2
BRANCH   1   5
ATOM      5  C   UNL     1      42.116  58.356  27.912  1.00  0.00     0.080 C 
BRANCH   5   6
ATOM      6  C   UNL     1      42.449  57.040  28.552  1.00  0.00     0.155 C 
ATOM      7  O   UNL     1      43.087  56.177  27.889  1.00  0.00    -0.295 OA
BRANCH   6   8
ATOM      8  C   UNL     1      42.013  56.752  29.933  1.00  0.00     0.039 C 
ATOM      9  C   UNL     1      41.882  57.703  30.854  1.00  0.00     0.012 C 
ENDBRANCH   6   8
ENDBRANCH   5   6
ENDBRANCH   1   5
TORSDOF 5
ENDMDL
MODEL 5
REMARK VINA RESULT:    -3.387     17.891     19.711
REMARK INTER + INTRA:          -4.896
REMARK INTER:                  -4.434
REMARK INTRA:                  -0.463
REMARK UNBOUND:                -0.519
REMARK SMILES C=CC(=O)CCCCC
REMARK SMILES IDX 6 1 7 2 8 3 9 4 5 5 3 6 4 7 2 8 1 9
REMARK H PARENT
REMARK Flexibility Score: inf
ROOT
ATOM      1  C   UNL     1      59.038  67.587  31.503  1.00  0.00     0.008 C 
ENDROOT
BRANCH   1   2
ATOM      2  C   UNL     1      58.396  68.354  30.329  1.00  0.00     0.000 C 
BRANCH   2   3
ATOM      3  C   UNL     1      57.143  69.134  30.753  1.00  0.00    -0.003 C 
ATOM      4  C   UNL     1      57.423  70.632  30.819  1.00  0.00     0.004 C 
ENDBRANCH   2   3
ENDBRANCH   1   2
BRANCH   1   5
ATOM      5  C   UNL     1      60.573  67.553  31.449  1.00  0.00     0.080 C 
BRANCH   5   6
ATOM      6  C   UNL     1      61.189  68.829  31.945  1.00  0.00     0.155 C 
ATOM      7  O   UNL     1      61.187  69.073  33.182  1.00  0.00    -0.295 OA
BRANCH   6   8
ATOM      8  C   UNL     1      61.769  69.796  30.992  1.00  0.00     0.039 C 
ATOM      9  C   UNL     1      61.126  70.898  30.612  1.00  0.00     0.012 C 
ENDBRANCH   6   8
ENDBRANCH   5   6
ENDBRANCH   1   5
TORSDOF 5
ENDMDL
MODEL 6
REMARK VINA RESULT:    -3.383     17.829     19.550
REMARK INTER + INTRA:          -4.891
REMARK INTER:                  -4.333
REMARK INTRA:                  -0.558
REMARK UNBOUND:                -0.519
REMARK SMILES C=CC(=O)CCCCC
REMARK SMILES IDX 6 1 7 2 8 3 9 4 5 5 3 6 4 7 2 8 1 9
REMARK H PARENT
REMARK Flexibility Score: inf
ROOT
ATOM      1  C   UNL     1      60.693  67.861  32.217  1.00  0.00     0.008 C 
ENDROOT
BRANCH   1   2
ATOM      2  C   UNL     1      61.070  69.355  32.272  1.00  0.00     0.000 C 
BRANCH   2   3
ATOM      3  C   UNL     1      61.571  69.882  30.919  1.00  0.00    -0.003 C 
ATOM      4  C   UNL     1      60.847  71.167  30.527  1.00  0.00     0.004 C 
ENDBRANCH   2   3
ENDBRANCH   1   2
BRANCH   1   5
ATOM      5  C   UNL     1      59.764  67.504  31.045  1.00  0.00     0.080 C 
BRANCH   5   6
ATOM      6  C   UNL     1      58.377  68.046  31.232  1.00  0.00     0.155 C 
ATOM      7  O   UNL     1      57.699  67.673  32.227  1.00  0.00    -0.295 OA
BRANCH   6   8
ATOM      8  C   UNL     1      57.806  68.985  30.245  1.00  0.00     0.039 C 
ATOM      9  C   UNL     1      57.115  70.064  30.603  1.00  0.00     0.012 C 
ENDBRANCH   6   8
ENDBRANCH   5   6
ENDBRANCH   1   5
TORSDOF 5
ENDMDL
MODEL 7
REMARK VINA RESULT:    -3.370     17.816     19.839
REMARK INTER + INTRA:          -4.875
REMARK INTER:                  -4.263
REMARK INTRA:                  -0.612
REMARK UNBOUND:                -0.519
REMARK SMILES C=CC(=O)CCCCC
REMARK SMILES IDX 6 1 7 2 8 3 9 4 5 5 3 6 4 7 2 8 1 9
REMARK H PARENT
REMARK Flexibility Score: inf
ROOT
ATOM      1  C   UNL     1      60.297  71.373  31.449  1.00  0.00     0.008 C 
ENDROOT
BRANCH   1   2
ATOM      2  C   UNL     1      60.991  70.237  30.670  1.00  0.00     0.000 C 
BRANCH   2   3
ATOM      3  C   UNL     1      61.553  69.148  31.596  1.00  0.00    -0.003 C 
ATOM      4  C   UNL     1      60.769  67.847  31.455  1.00  0.00     0.004 C 
ENDBRANCH   2   3
ENDBRANCH   1   2
BRANCH   1   5
ATOM      5  C   UNL     1      58.816  71.554  31.082  1.00  0.00     0.080 C 
BRANCH   5   6
ATOM      6  C   UNL     1      57.978  70.378  31.494  1.00  0.00     0.155 C 
ATOM      7  O   UNL     1      58.018  69.983  32.691  1.00  0.00    -0.295 OA
BRANCH   6   8
ATOM      8  C   UNL     1      57.138  69.678  30.501  1.00  0.00     0.039 C 
ATOM      9  C   UNL     1      57.592  68.663  29.771  1.00  0.00     0.012 C 
ENDBRANCH   6   8
ENDBRANCH   5   6
ENDBRANCH   1   5
TORSDOF 5
ENDMDL
MODEL 8
REMARK VINA RESULT:    -3.370      1.515      3.315
REMARK INTER + INTRA:          -4.874
REMARK INTER:                  -4.292
REMARK INTRA:                  -0.582
REMARK UNBOUND:                -0.519
REMARK SMILES C=CC(=O)CCCCC
REMARK SMILES IDX 6 1 7 2 8 3 9 4 5 5 3 6 4 7 2 8 1 9
REMARK H PARENT
REMARK Flexibility Score: inf
ROOT
ATOM      1  C   UNL     1      42.203  58.623  27.978  1.00  0.00     0.008 C 
ENDROOT
BRANCH   1   2
ATOM      2  C   UNL     1      43.547  58.888  27.269  1.00  0.00     0.000 C 
BRANCH   2   3
ATOM      3  C   UNL     1      44.476  59.791  28.094  1.00  0.00    -0.003 C 
ATOM      4  C   UNL     1      43.678  60.810  28.902  1.00  0.00     0.004 C 
ENDBRANCH   2   3
ENDBRANCH   1   2
BRANCH   1   5
ATOM      5  C   UNL     1      42.083  57.205  28.557  1.00  0.00     0.080 C 
BRANCH   5   6
ATOM      6  C   UNL     1      42.773  57.070  29.883  1.00  0.00     0.155 C 
ATOM      7  O   UNL     1      43.719  56.245  30.003  1.00  0.00    -0.295 OA
BRANCH   6   8
ATOM      8  C   UNL     1      42.331  57.877  31.038  1.00  0.00     0.039 C 
ATOM      9  C   UNL     1      43.182  58.560  31.799  1.00  0.00     0.012 C 
ENDBRANCH   6   8
ENDBRANCH   5   6
ENDBRANCH   1   5
TORSDOF 5
ENDMDL
MODEL 9
REMARK VINA RESULT:    -3.364      1.593      2.805
REMARK INTER + INTRA:          -4.866
REMARK INTER:                  -4.302
REMARK INTRA:                  -0.564
REMARK UNBOUND:                -0.519
REMARK SMILES C=CC(=O)CCCCC
REMARK SMILES IDX 6 1 7 2 8 3 9 4 5 5 3 6 4 7 2 8 1 9
REMARK H PARENT
REMARK Flexibility Score: inf
ROOT
ATOM      1  C   UNL     1      44.185  59.351  28.018  1.00  0.00     0.008 C 
ENDROOT
BRANCH   1   2
ATOM      2  C   UNL     1      42.988  58.844  27.188  1.00  0.00     0.000 C 
BRANCH   2   3
ATOM      3  C   UNL     1      41.875  58.253  28.066  1.00  0.00    -0.003 C 
ATOM      4  C   UNL     1      42.222  56.836  28.513  1.00  0.00     0.004 C 
ENDBRANCH   2   3
ENDBRANCH   1   2
BRANCH   1   5
ATOM      5  C   UNL     1      43.899  60.657  28.775  1.00  0.00     0.080 C 
BRANCH   5   6
ATOM      6  C   UNL     1      44.063  60.503  30.259  1.00  0.00     0.155 C 
ATOM      7  O   UNL     1      44.108  61.534  30.984  1.00  0.00    -0.295 OA
BRANCH   6   8
ATOM      8  C   UNL     1      44.195  59.160  30.858  1.00  0.00     0.039 C 
ATOM      9  C   UNL     1      43.278  58.650  31.677  1.00  0.00     0.012 C 
ENDBRANCH   6   8
ENDBRANCH   5   6
ENDBRANCH   1   5
TORSDOF 5
ENDMDL
