MODEL 1
REMARK VINA RESULT:    -4.620      0.000      0.000
REMARK INTER + INTRA:          -7.173
REMARK INTER:                  -6.511
REMARK INTRA:                  -0.662
REMARK UNBOUND:                -0.662
REMARK SMILES CCCCCCCCC(=O)[O-]
REMARK SMILES IDX 6 1 7 2 8 3 9 4 10 5 11 6 5 7 4 8 3 9 2 10 1 11
REMARK H PARENT
REMARK Flexibility Score: inf
ROOT
ATOM      1  C   UNL     1     -10.220 -11.778   7.613  1.00  0.00     0.000 C 
ENDROOT
BRANCH   1   2
ATOM      2  C   UNL     1     -10.227 -13.075   8.440  1.00  0.00     0.006 C 
BRANCH   2   3
ATOM      3  C   UNL     1     -10.930 -12.895   9.793  1.00  0.00     0.053 C 
BRANCH   3   4
ATOM      4  C   UNL     1     -12.421 -12.919   9.651  1.00  0.00     0.041 C 
ATOM      5  O   UNL     1     -13.138 -12.180  10.374  1.00  0.00    -0.550 OA
ATOM      6  O   UNL     1     -13.016 -13.733   8.695  1.00  0.00    -0.550 OA
ENDBRANCH   3   4
ENDBRANCH   2   3
ENDBRANCH   1   2
BRANCH   1   7
ATOM      7  C   UNL     1      -8.811 -11.181   7.457  1.00  0.00     0.000 C 
BRANCH   7   8
ATOM      8  C   UNL     1      -8.728  -9.728   7.957  1.00  0.00    -0.000 C 
BRANCH   8   9
ATOM      9  C   UNL     1      -9.275  -9.563   9.385  1.00  0.00    -0.000 C 
BRANCH   9  10
ATOM     10  C   UNL     1     -10.432  -8.554   9.462  1.00  0.00    -0.003 C 
ATOM     11  C   UNL     1     -11.496  -9.017  10.454  1.00  0.00     0.004 C 
ENDBRANCH   9  10
ENDBRANCH   8   9
ENDBRANCH   7   8
ENDBRANCH   1   7
TORSDOF 7
ENDMDL
MODEL 2
REMARK VINA RESULT:    -4.538      2.260      3.665
REMARK INTER + INTRA:          -7.057
REMARK INTER:                  -6.250
REMARK INTRA:                  -0.808
REMARK UNBOUND:                -0.662
REMARK SMILES CCCCCCCCC(=O)[O-]
REMARK SMILES IDX 6 1 7 2 8 3 9 4 10 5 11 6 5 7 4 8 3 9 2 10 1 11
REMARK H PARENT
REMARK Flexibility Score: inf
ROOT
ATOM      1  C   UNL     1     -12.231 -12.475  10.525  1.00  0.00     0.000 C 
ENDROOT
BRANCH   1   2
ATOM      2  C   UNL     1     -10.793 -12.730  10.041  1.00  0.00     0.006 C 
BRANCH   2   3
ATOM      3  C   UNL     1     -10.065 -11.427   9.681  1.00  0.00     0.053 C 
BRANCH   3   4
ATOM      4  C   UNL     1     -10.069 -11.179   8.204  1.00  0.00     0.041 C 
ATOM      5  O   UNL     1      -9.059 -11.469   7.511  1.00  0.00    -0.550 OA
ATOM      6  O   UNL     1     -11.202 -10.661   7.588  1.00  0.00    -0.550 OA
ENDBRANCH   3   4
ENDBRANCH   2   3
ENDBRANCH   1   2
BRANCH   1   7
ATOM      7  C   UNL     1     -12.382 -11.131  11.256  1.00  0.00     0.000 C 
BRANCH   7   8
ATOM      8  C   UNL     1     -13.524 -10.274  10.684  1.00  0.00    -0.000 C 
BRANCH   8   9
ATOM      9  C   UNL     1     -13.027  -8.941  10.100  1.00  0.00    -0.000 C 
BRANCH   9  10
ATOM     10  C   UNL     1     -11.747  -8.436  10.784  1.00  0.00    -0.003 C 
ATOM     11  C   UNL     1     -10.826  -7.746   9.781  1.00  0.00     0.004 C 
ENDBRANCH   9  10
ENDBRANCH   8   9
ENDBRANCH   7   8
ENDBRANCH   1   7
TORSDOF 7
ENDMDL
MODEL 3
REMARK VINA RESULT:    -4.519      3.047      4.972
REMARK INTER + INTRA:          -7.031
REMARK INTER:                  -6.413
REMARK INTRA:                  -0.617
REMARK UNBOUND:                -0.662
REMARK SMILES CCCCCCCCC(=O)[O-]
REMARK SMILES IDX 6 1 7 2 8 3 9 4 10 5 11 6 5 7 4 8 3 9 2 10 1 11
REMARK H PARENT
REMARK Flexibility Score: inf
ROOT
ATOM      1  C   UNL     1     -10.981  -8.094   9.887  1.00  0.00     0.000 C 
ENDROOT
BRANCH   1   2
ATOM      2  C   UNL     1     -10.495  -9.113   8.840  1.00  0.00     0.006 C 
BRANCH   2   3
ATOM      3  C   UNL     1      -9.017  -9.480   9.033  1.00  0.00     0.053 C 
BRANCH   3   4
ATOM      4  C   UNL     1      -8.278  -9.511   7.731  1.00  0.00     0.041 C 
ATOM      5  O   UNL     1      -8.008  -8.437   7.131  1.00  0.00    -0.550 OA
ATOM      6  O   UNL     1      -7.858 -10.722   7.197  1.00  0.00    -0.550 OA
ENDBRANCH   3   4
ENDBRANCH   2   3
ENDBRANCH   1   2
BRANCH   1   7
ATOM      7  C   UNL     1     -12.134  -8.634  10.748  1.00  0.00     0.000 C 
BRANCH   7   8
ATOM      8  C   UNL     1     -11.744  -9.902  11.528  1.00  0.00    -0.000 C 
BRANCH   8   9
ATOM      9  C   UNL     1     -12.857 -10.964  11.523  1.00  0.00    -0.000 C 
BRANCH   9  10
ATOM     10  C   UNL     1     -12.651 -12.031  10.437  1.00  0.00    -0.003 C 
ATOM     11  C   UNL     1     -11.188 -12.464  10.365  1.00  0.00     0.004 C 
ENDBRANCH   9  10
ENDBRANCH   8   9
ENDBRANCH   7   8
ENDBRANCH   1   7
TORSDOF 7
ENDMDL
MODEL 4
REMARK VINA RESULT:    -4.511      1.929      3.004
REMARK INTER + INTRA:          -7.019
REMARK INTER:                  -6.347
REMARK INTRA:                  -0.672
REMARK UNBOUND:                -0.662
REMARK SMILES CCCCCCCCC(=O)[O-]
REMARK SMILES IDX 6 1 7 2 8 3 9 4 10 5 11 6 5 7 4 8 3 9 2 10 1 11
REMARK H PARENT
REMARK Flexibility Score: inf
ROOT
ATOM      1  C   UNL     1      -9.803 -10.994   9.848  1.00  0.00     0.000 C 
ENDROOT
BRANCH   1   2
ATOM      2  C   UNL     1     -10.373 -12.127   8.976  1.00  0.00     0.006 C 
BRANCH   2   3
ATOM      3  C   UNL     1     -10.822 -13.331   9.815  1.00  0.00     0.053 C 
BRANCH   3   4
ATOM      4  C   UNL     1     -10.854 -14.591   9.005  1.00  0.00     0.041 C 
ATOM      5  O   UNL     1     -11.926 -14.970   8.466  1.00  0.00    -0.550 OA
ATOM      6  O   UNL     1      -9.690 -15.326   8.816  1.00  0.00    -0.550 OA
ENDBRANCH   3   4
ENDBRANCH   2   3
ENDBRANCH   1   2
BRANCH   1   7
ATOM      7  C   UNL     1     -10.382  -9.617   9.483  1.00  0.00     0.000 C 
BRANCH   7   8
ATOM      8  C   UNL     1     -11.375  -9.096  10.537  1.00  0.00    -0.000 C 
BRANCH   8   9
ATOM      9  C   UNL     1     -12.803  -9.623  10.313  1.00  0.00    -0.000 C 
BRANCH   9  10
ATOM     10  C   UNL     1     -13.185 -10.736  11.300  1.00  0.00    -0.003 C 
ATOM     11  C   UNL     1     -12.293 -10.699  12.539  1.00  0.00     0.004 C 
ENDBRANCH   9  10
ENDBRANCH   8   9
ENDBRANCH   7   8
ENDBRANCH   1   7
TORSDOF 7
ENDMDL
MODEL 5
REMARK VINA RESULT:    -4.510      1.230      3.186
REMARK INTER + INTRA:          -7.018
REMARK INTER:                  -6.586
REMARK INTRA:                  -0.432
REMARK UNBOUND:                -0.662
REMARK SMILES CCCCCCCCC(=O)[O-]
REMARK SMILES IDX 6 1 7 2 8 3 9 4 10 5 11 6 5 7 4 8 3 9 2 10 1 11
REMARK H PARENT
REMARK Flexibility Score: inf
ROOT
ATOM      1  C   UNL     1     -11.503  -8.737  10.565  1.00  0.00     0.000 C 
ENDROOT
BRANCH   1   2
ATOM      2  C   UNL     1     -12.627  -9.786  10.495  1.00  0.00     0.006 C 
BRANCH   2   3
ATOM      3  C   UNL     1     -12.328 -11.011  11.370  1.00  0.00     0.053 C 
BRANCH   3   4
ATOM      4  C   UNL     1     -12.098 -12.240  10.545  1.00  0.00     0.041 C 
ATOM      5  O   UNL     1     -13.069 -12.821   9.992  1.00  0.00    -0.550 OA
ATOM      6  O   UNL     1     -10.809 -12.722  10.357  1.00  0.00    -0.550 OA
ENDBRANCH   3   4
ENDBRANCH   2   3
ENDBRANCH   1   2
BRANCH   1   7
ATOM      7  C   UNL     1     -10.704  -8.636   9.255  1.00  0.00     0.000 C 
BRANCH   7   8
ATOM      8  C   UNL     1      -9.406  -9.463   9.292  1.00  0.00    -0.000 C 
BRANCH   8   9
ATOM      9  C   UNL     1      -8.593  -9.342   7.992  1.00  0.00    -0.000 C 
BRANCH   9  10
ATOM     10  C   UNL     1      -8.233 -10.709   7.389  1.00  0.00    -0.003 C 
ATOM     11  C   UNL     1      -9.465 -11.606   7.293  1.00  0.00     0.004 C 
ENDBRANCH   9  10
ENDBRANCH   8   9
ENDBRANCH   7   8
ENDBRANCH   1   7
TORSDOF 7
ENDMDL
MODEL 6
REMARK VINA RESULT:    -4.490      2.091      3.667
REMARK INTER + INTRA:          -6.990
REMARK INTER:                  -6.198
REMARK INTRA:                  -0.792
REMARK UNBOUND:                -0.662
REMARK SMILES CCCCCCCCC(=O)[O-]
REMARK SMILES IDX 6 1 7 2 8 3 9 4 10 5 11 6 5 7 4 8 3 9 2 10 1 11
REMARK H PARENT
REMARK Flexibility Score: inf
ROOT
ATOM      1  C   UNL     1     -10.384  -8.657   8.701  1.00  0.00     0.000 C 
ENDROOT
BRANCH   1   2
ATOM      2  C   UNL     1      -9.268  -9.539   9.289  1.00  0.00     0.006 C 
BRANCH   2   3
ATOM      3  C   UNL     1      -9.701 -11.005   9.424  1.00  0.00     0.053 C 
BRANCH   3   4
ATOM      4  C   UNL     1     -10.045 -11.607   8.097  1.00  0.00     0.041 C 
ATOM      5  O   UNL     1     -11.225 -11.974   7.855  1.00  0.00    -0.550 OA
ATOM      6  O   UNL     1      -9.071 -11.730   7.114  1.00  0.00    -0.550 OA
ENDBRANCH   3   4
ENDBRANCH   2   3
ENDBRANCH   1   2
BRANCH   1   7
ATOM      7  C   UNL     1     -10.996  -7.703   9.740  1.00  0.00     0.000 C 
BRANCH   7   8
ATOM      8  C   UNL     1     -11.898  -8.433  10.751  1.00  0.00    -0.000 C 
BRANCH   8   9
ATOM      9  C   UNL     1     -12.979  -9.288  10.068  1.00  0.00    -0.000 C 
BRANCH   9  10
ATOM     10  C   UNL     1     -13.195 -10.639  10.767  1.00  0.00    -0.003 C 
ATOM     11  C   UNL     1     -12.312 -10.761  12.006  1.00  0.00     0.004 C 
ENDBRANCH   9  10
ENDBRANCH   8   9
ENDBRANCH   7   8
ENDBRANCH   1   7
TORSDOF 7
ENDMDL
MODEL 7
REMARK VINA RESULT:    -4.484      1.329      2.375
REMARK INTER + INTRA:          -6.981
REMARK INTER:                  -6.272
REMARK INTRA:                  -0.709
REMARK UNBOUND:                -0.662
REMARK SMILES CCCCCCCCC(=O)[O-]
REMARK SMILES IDX 6 1 7 2 8 3 9 4 10 5 11 6 5 7 4 8 3 9 2 10 1 11
REMARK H PARENT
REMARK Flexibility Score: inf
ROOT
ATOM      1  C   UNL     1      -9.020 -10.601   8.148  1.00  0.00     0.000 C 
ENDROOT
BRANCH   1   2
ATOM      2  C   UNL     1      -9.661 -11.827   7.473  1.00  0.00     0.006 C 
BRANCH   2   3
ATOM      3  C   UNL     1     -11.156 -11.950   7.798  1.00  0.00     0.053 C 
BRANCH   3   4
ATOM      4  C   UNL     1     -11.490 -13.292   8.373  1.00  0.00     0.041 C 
ATOM      5  O   UNL     1     -12.298 -14.052   7.778  1.00  0.00    -0.550 OA
ATOM      6  O   UNL     1     -10.883 -13.717   9.548  1.00  0.00    -0.550 OA
ENDBRANCH   3   4
ENDBRANCH   2   3
ENDBRANCH   1   2
BRANCH   1   7
ATOM      7  C   UNL     1      -9.603 -10.320   9.542  1.00  0.00     0.000 C 
BRANCH   7   8
ATOM      8  C   UNL     1     -10.248  -8.926   9.641  1.00  0.00    -0.000 C 
BRANCH   8   9
ATOM      9  C   UNL     1     -11.599  -8.952  10.376  1.00  0.00    -0.000 C 
BRANCH   9  10
ATOM     10  C   UNL     1     -11.787 -10.219  11.226  1.00  0.00    -0.003 C 
ATOM     11  C   UNL     1     -13.087 -10.932  10.865  1.00  0.00     0.004 C 
ENDBRANCH   9  10
ENDBRANCH   8   9
ENDBRANCH   7   8
ENDBRANCH   1   7
TORSDOF 7
ENDMDL
MODEL 8
REMARK VINA RESULT:    -4.478      1.688      3.236
REMARK INTER + INTRA:          -6.972
REMARK INTER:                  -6.248
REMARK INTRA:                  -0.724
REMARK UNBOUND:                -0.662
REMARK SMILES CCCCCCCCC(=O)[O-]
REMARK SMILES IDX 6 1 7 2 8 3 9 4 10 5 11 6 5 7 4 8 3 9 2 10 1 11
REMARK H PARENT
REMARK Flexibility Score: inf
ROOT
ATOM      1  C   UNL     1     -13.164 -10.971  10.812  1.00  0.00     0.000 C 
ENDROOT
BRANCH   1   2
ATOM      2  C   UNL     1     -12.714 -12.374  10.367  1.00  0.00     0.006 C 
BRANCH   2   3
ATOM      3  C   UNL     1     -11.187 -12.478  10.242  1.00  0.00     0.053 C 
BRANCH   3   4
ATOM      4  C   UNL     1     -10.777 -13.033   8.912  1.00  0.00     0.041 C 
ATOM      5  O   UNL     1     -10.185 -14.142   8.844  1.00  0.00    -0.550 OA
ATOM      6  O   UNL     1     -11.079 -12.341   7.746  1.00  0.00    -0.550 OA
ENDBRANCH   3   4
ENDBRANCH   2   3
ENDBRANCH   1   2
BRANCH   1   7
ATOM      7  C   UNL     1     -11.986 -10.072  11.221  1.00  0.00     0.000 C 
BRANCH   7   8
ATOM      8  C   UNL     1     -12.147  -8.625  10.722  1.00  0.00    -0.000 C 
BRANCH   8   9
ATOM      9  C   UNL     1     -10.902  -8.115   9.977  1.00  0.00    -0.000 C 
BRANCH   9  10
ATOM     10  C   UNL     1     -10.457  -9.061   8.850  1.00  0.00    -0.003 C 
ATOM     11  C   UNL     1      -9.027  -9.544   9.073  1.00  0.00     0.004 C 
ENDBRANCH   9  10
ENDBRANCH   8   9
ENDBRANCH   7   8
ENDBRANCH   1   7
TORSDOF 7
ENDMDL
MODEL 9
REMARK VINA RESULT:    -4.474      2.285      4.769
REMARK INTER + INTRA:          -6.968
REMARK INTER:                  -6.385
REMARK INTRA:                  -0.583
REMARK UNBOUND:                -0.662
REMARK SMILES CCCCCCCCC(=O)[O-]
REMARK SMILES IDX 6 1 7 2 8 3 9 4 10 5 11 6 5 7 4 8 3 9 2 10 1 11
REMARK H PARENT
REMARK Flexibility Score: inf
ROOT
ATOM      1  C   UNL     1     -12.866 -10.050  10.616  1.00  0.00     0.000 C 
ENDROOT
BRANCH   1   2
ATOM      2  C   UNL     1     -11.761  -8.978  10.630  1.00  0.00     0.006 C 
BRANCH   2   3
ATOM      3  C   UNL     1     -10.734  -9.192   9.510  1.00  0.00     0.053 C 
BRANCH   3   4
ATOM      4  C   UNL     1     -11.393  -9.336   8.173  1.00  0.00     0.041 C 
ATOM      5  O   UNL     1     -12.019  -8.368   7.668  1.00  0.00    -0.550 OA
ATOM      6  O   UNL     1     -11.284 -10.529   7.468  1.00  0.00    -0.550 OA
ENDBRANCH   3   4
ENDBRANCH   2   3
ENDBRANCH   1   2
BRANCH   1   7
ATOM      7  C   UNL     1     -12.427 -11.362  11.289  1.00  0.00     0.000 C 
BRANCH   7   8
ATOM      8  C   UNL     1     -12.296 -12.523  10.287  1.00  0.00    -0.000 C 
BRANCH   8   9
ATOM      9  C   UNL     1     -10.838 -12.972  10.092  1.00  0.00    -0.000 C 
BRANCH   9  10
ATOM     10  C   UNL     1     -10.657 -13.880   8.866  1.00  0.00    -0.003 C 
ATOM     11  C   UNL     1     -10.437 -15.331   9.287  1.00  0.00     0.004 C 
ENDBRANCH   9  10
ENDBRANCH   8   9
ENDBRANCH   7   8
ENDBRANCH   1   7
TORSDOF 7
ENDMDL
