MODEL 1
REMARK VINA RESULT:    -3.614      0.000      0.000
REMARK INTER + INTRA:          -8.096
REMARK INTER:                  -6.572
REMARK INTRA:                  -1.524
REMARK UNBOUND:                -1.524
REMARK SMILES CCCCCCCCCCCCCCCC(=O)[O-]
REMARK SMILES IDX 9 1 10 2 11 3 12 4 13 5 14 6 15 7 16 8 17 9 18 10 8 11 7 12
REMARK SMILES IDX 6 13 5 14 4 15 3 16 2 17 1 18
REMARK H PARENT
REMARK Flexibility Score: inf
ROOT
ATOM      1  C   UNL     1       7.226  35.628   1.183  1.00  0.00     0.000 C 
ENDROOT
BRANCH   1   2
ATOM      2  C   UNL     1       7.435  35.165  -0.263  1.00  0.00     0.000 C 
BRANCH   2   3
ATOM      3  C   UNL     1       7.515  33.633  -0.344  1.00  0.00     0.000 C 
BRANCH   3   4
ATOM      4  C   UNL     1       7.630  32.974   1.040  1.00  0.00     0.000 C 
BRANCH   4   5
ATOM      5  C   UNL     1       9.022  32.370   1.293  1.00  0.00     0.000 C 
BRANCH   5   6
ATOM      6  C   UNL     1       8.951  30.948   1.873  1.00  0.00     0.006 C 
BRANCH   6   7
ATOM      7  C   UNL     1       7.652  30.692   2.648  1.00  0.00     0.053 C 
BRANCH   7   8
ATOM      8  C   UNL     1       6.946  29.491   2.100  1.00  0.00     0.041 C 
ATOM      9  O   UNL     1       7.151  28.353   2.598  1.00  0.00    -0.550 OA
ATOM     10  O   UNL     1       6.024  29.637   1.072  1.00  0.00    -0.550 OA
ENDBRANCH   7   8
ENDBRANCH   6   7
ENDBRANCH   5   6
ENDBRANCH   4   5
ENDBRANCH   3   4
ENDBRANCH   2   3
ENDBRANCH   1   2
BRANCH   1  11
ATOM     11  C   UNL     1       6.357  36.893   1.235  1.00  0.00     0.000 C 
BRANCH  11  12
ATOM     12  C   UNL     1       7.082  38.095   1.870  1.00  0.00    -0.000 C 
BRANCH  12  13
ATOM     13  C   UNL     1       6.671  39.471   1.317  1.00  0.00    -0.000 C 
BRANCH  13  14
ATOM     14  C   UNL     1       7.832  40.219   0.644  1.00  0.00    -0.000 C 
BRANCH  14  15
ATOM     15  C   UNL     1       8.473  39.360  -0.456  1.00  0.00    -0.000 C 
BRANCH  15  16
ATOM     16  C   UNL     1       9.957  39.062  -0.185  1.00  0.00    -0.000 C 
BRANCH  16  17
ATOM     17  C   UNL     1      10.257  37.558  -0.120  1.00  0.00    -0.003 C 
ATOM     18  C   UNL     1      10.645  37.136   1.294  1.00  0.00     0.004 C 
ENDBRANCH  16  17
ENDBRANCH  15  16
ENDBRANCH  14  15
ENDBRANCH  13  14
ENDBRANCH  12  13
ENDBRANCH  11  12
ENDBRANCH   1  11
TORSDOF 14
ENDMDL
MODEL 2
REMARK VINA RESULT:    -3.548     13.716     14.979
REMARK INTER + INTRA:          -7.975
REMARK INTER:                  -6.964
REMARK INTRA:                  -1.011
REMARK UNBOUND:                -1.524
REMARK SMILES CCCCCCCCCCCCCCCC(=O)[O-]
REMARK SMILES IDX 9 1 10 2 11 3 12 4 13 5 14 6 15 7 16 8 17 9 18 10 8 11 7 12
REMARK SMILES IDX 6 13 5 14 4 15 3 16 2 17 1 18
REMARK H PARENT
REMARK Flexibility Score: inf
ROOT
ATOM      1  C   UNL     1       6.406  39.091  16.539  1.00  0.00     0.000 C 
ENDROOT
BRANCH   1   2
ATOM      2  C   UNL     1       5.478  38.962  17.753  1.00  0.00     0.000 C 
BRANCH   2   3
ATOM      3  C   UNL     1       4.026  38.724  17.312  1.00  0.00     0.000 C 
BRANCH   3   4
ATOM      4  C   UNL     1       3.626  39.589  16.106  1.00  0.00     0.000 C 
BRANCH   4   5
ATOM      5  C   UNL     1       2.929  38.777  15.001  1.00  0.00     0.000 C 
BRANCH   5   6
ATOM      6  C   UNL     1       2.954  37.265  15.276  1.00  0.00     0.006 C 
BRANCH   6   7
ATOM      7  C   UNL     1       3.068  36.434  13.992  1.00  0.00     0.053 C 
BRANCH   7   8
ATOM      8  C   UNL     1       1.772  35.744  13.700  1.00  0.00     0.041 C 
ATOM      9  O   UNL     1       1.487  35.405  12.521  1.00  0.00    -0.550 OA
ATOM     10  O   UNL     1       0.903  35.432  14.736  1.00  0.00    -0.550 OA
ENDBRANCH   7   8
ENDBRANCH   6   7
ENDBRANCH   5   6
ENDBRANCH   4   5
ENDBRANCH   3   4
ENDBRANCH   2   3
ENDBRANCH   1   2
BRANCH   1  11
ATOM     11  C   UNL     1       7.214  40.395  16.600  1.00  0.00     0.000 C 
BRANCH  11  12
ATOM     12  C   UNL     1       7.130  41.216  15.300  1.00  0.00    -0.000 C 
BRANCH  12  13
ATOM     13  C   UNL     1       8.438  41.293  14.492  1.00  0.00    -0.000 C 
BRANCH  13  14
ATOM     14  C   UNL     1       9.524  40.341  15.015  1.00  0.00    -0.000 C 
BRANCH  14  15
ATOM     15  C   UNL     1      10.681  40.223  14.012  1.00  0.00    -0.000 C 
BRANCH  15  16
ATOM     16  C   UNL     1      10.339  40.827  12.641  1.00  0.00    -0.000 C 
BRANCH  16  17
ATOM     17  C   UNL     1      11.513  40.756  11.654  1.00  0.00    -0.003 C 
ATOM     18  C   UNL     1      12.253  39.427  11.775  1.00  0.00     0.004 C 
ENDBRANCH  16  17
ENDBRANCH  15  16
ENDBRANCH  14  15
ENDBRANCH  13  14
ENDBRANCH  12  13
ENDBRANCH  11  12
ENDBRANCH   1  11
TORSDOF 14
ENDMDL
MODEL 3
REMARK VINA RESULT:    -3.542      2.105      4.112
REMARK INTER + INTRA:          -7.965
REMARK INTER:                  -6.201
REMARK INTRA:                  -1.764
REMARK UNBOUND:                -1.524
REMARK SMILES CCCCCCCCCCCCCCCC(=O)[O-]
REMARK SMILES IDX 9 1 10 2 11 3 12 4 13 5 14 6 15 7 16 8 17 9 18 10 8 11 7 12
REMARK SMILES IDX 6 13 5 14 4 15 3 16 2 17 1 18
REMARK H PARENT
REMARK Flexibility Score: inf
ROOT
ATOM      1  C   UNL     1       9.044  32.171   1.873  1.00  0.00     0.000 C 
ENDROOT
BRANCH   1   2
ATOM      2  C   UNL     1       7.532  32.085   1.629  1.00  0.00     0.000 C 
BRANCH   2   3
ATOM      3  C   UNL     1       7.232  31.483   0.248  1.00  0.00     0.000 C 
BRANCH   3   4
ATOM      4  C   UNL     1       6.320  30.248   0.327  1.00  0.00     0.000 C 
BRANCH   4   5
ATOM      5  C   UNL     1       7.072  28.987   0.788  1.00  0.00     0.000 C 
BRANCH   5   6
ATOM      6  C   UNL     1       6.870  28.694   2.284  1.00  0.00     0.006 C 
BRANCH   6   7
ATOM      7  C   UNL     1       8.196  28.582   3.047  1.00  0.00     0.053 C 
BRANCH   7   8
ATOM      8  C   UNL     1       8.464  27.158   3.422  1.00  0.00     0.041 C 
ATOM      9  O   UNL     1       7.686  26.552   4.205  1.00  0.00    -0.550 OA
ATOM     10  O   UNL     1       9.545  26.486   2.867  1.00  0.00    -0.550 OA
ENDBRANCH   7   8
ENDBRANCH   6   7
ENDBRANCH   5   6
ENDBRANCH   4   5
ENDBRANCH   3   4
ENDBRANCH   2   3
ENDBRANCH   1   2
BRANCH   1  11
ATOM     11  C   UNL     1       9.797  32.448   0.565  1.00  0.00     0.000 C 
BRANCH  11  12
ATOM     12  C   UNL     1      10.604  33.759   0.601  1.00  0.00    -0.000 C 
BRANCH  12  13
ATOM     13  C   UNL     1       9.762  35.039   0.749  1.00  0.00    -0.000 C 
BRANCH  13  14
ATOM     14  C   UNL     1       9.018  35.420  -0.540  1.00  0.00    -0.000 C 
BRANCH  14  15
ATOM     15  C   UNL     1       7.497  35.365  -0.333  1.00  0.00    -0.000 C 
BRANCH  15  16
ATOM     16  C   UNL     1       7.089  35.615   1.128  1.00  0.00    -0.000 C 
BRANCH  16  17
ATOM     17  C   UNL     1       6.320  36.931   1.311  1.00  0.00    -0.003 C 
ATOM     18  C   UNL     1       7.240  38.039   1.817  1.00  0.00     0.004 C 
ENDBRANCH  16  17
ENDBRANCH  15  16
ENDBRANCH  14  15
ENDBRANCH  13  14
ENDBRANCH  12  13
ENDBRANCH  11  12
ENDBRANCH   1  11
TORSDOF 14
ENDMDL
MODEL 4
REMARK VINA RESULT:    -3.506     13.874     15.913
REMARK INTER + INTRA:          -7.898
REMARK INTER:                  -7.232
REMARK INTRA:                  -0.666
REMARK UNBOUND:                -1.524
REMARK SMILES CCCCCCCCCCCCCCCC(=O)[O-]
REMARK SMILES IDX 9 1 10 2 11 3 12 4 13 5 14 6 15 7 16 8 17 9 18 10 8 11 7 12
REMARK SMILES IDX 6 13 5 14 4 15 3 16 2 17 1 18
REMARK H PARENT
REMARK Flexibility Score: inf
ROOT
ATOM      1  C   UNL     1       6.402  39.220  17.061  1.00  0.00     0.000 C 
ENDROOT
BRANCH   1   2
ATOM      2  C   UNL     1       7.478  40.277  16.782  1.00  0.00     0.000 C 
BRANCH   2   3
ATOM      3  C   UNL     1       7.151  41.069  15.507  1.00  0.00     0.000 C 
BRANCH   3   4
ATOM      4  C   UNL     1       8.356  41.187  14.560  1.00  0.00     0.000 C 
BRANCH   4   5
ATOM      5  C   UNL     1       9.355  40.028  14.727  1.00  0.00     0.000 C 
BRANCH   5   6
ATOM      6  C   UNL     1      10.693  40.297  14.020  1.00  0.00     0.006 C 
BRANCH   6   7
ATOM      7  C   UNL     1      10.510  40.897  12.620  1.00  0.00     0.053 C 
BRANCH   7   8
ATOM      8  C   UNL     1      11.658  40.523  11.737  1.00  0.00     0.041 C 
ATOM      9  O   UNL     1      12.167  39.374  11.812  1.00  0.00    -0.550 OA
ATOM     10  O   UNL     1      12.134  41.426  10.796  1.00  0.00    -0.550 OA
ENDBRANCH   7   8
ENDBRANCH   6   7
ENDBRANCH   5   6
ENDBRANCH   4   5
ENDBRANCH   3   4
ENDBRANCH   2   3
ENDBRANCH   1   2
BRANCH   1  11
ATOM     11  C   UNL     1       5.051  39.640  16.465  1.00  0.00     0.000 C 
BRANCH  11  12
ATOM     12  C   UNL     1       4.023  38.493  16.436  1.00  0.00    -0.000 C 
BRANCH  12  13
ATOM     13  C   UNL     1       3.137  38.443  15.179  1.00  0.00    -0.000 C 
BRANCH  13  14
ATOM     14  C   UNL     1       2.357  37.126  15.047  1.00  0.00    -0.000 C 
BRANCH  14  15
ATOM     15  C   UNL     1       2.917  36.268  13.902  1.00  0.00    -0.000 C 
BRANCH  15  16
ATOM     16  C   UNL     1       1.812  35.646  13.033  1.00  0.00    -0.000 C 
BRANCH  16  17
ATOM     17  C   UNL     1       1.094  34.483  13.733  1.00  0.00    -0.003 C 
ATOM     18  C   UNL     1      -0.336  34.863  14.103  1.00  0.00     0.004 C 
ENDBRANCH  16  17
ENDBRANCH  15  16
ENDBRANCH  14  15
ENDBRANCH  13  14
ENDBRANCH  12  13
ENDBRANCH  11  12
ENDBRANCH   1  11
TORSDOF 14
ENDMDL
MODEL 5
REMARK VINA RESULT:    -3.444      1.955      3.442
REMARK INTER + INTRA:          -7.787
REMARK INTER:                  -6.429
REMARK INTRA:                  -1.358
REMARK UNBOUND:                -1.524
REMARK SMILES CCCCCCCCCCCCCCCC(=O)[O-]
REMARK SMILES IDX 9 1 10 2 11 3 12 4 13 5 14 6 15 7 16 8 17 9 18 10 8 11 7 12
REMARK SMILES IDX 6 13 5 14 4 15 3 16 2 17 1 18
REMARK H PARENT
REMARK Flexibility Score: inf
ROOT
ATOM      1  C   UNL     1       8.846  34.615  -0.051  1.00  0.00     0.000 C 
ENDROOT
BRANCH   1   2
ATOM      2  C   UNL     1       7.599  34.440   0.824  1.00  0.00     0.000 C 
BRANCH   2   3
ATOM      3  C   UNL     1       7.597  33.067   1.511  1.00  0.00     0.000 C 
BRANCH   3   4
ATOM      4  C   UNL     1       7.376  31.912   0.521  1.00  0.00     0.000 C 
BRANCH   4   5
ATOM      5  C   UNL     1       7.684  30.537   1.138  1.00  0.00     0.000 C 
BRANCH   5   6
ATOM      6  C   UNL     1       7.629  30.554   2.675  1.00  0.00     0.006 C 
BRANCH   6   7
ATOM      7  C   UNL     1       8.686  29.645   3.313  1.00  0.00     0.053 C 
BRANCH   7   8
ATOM      8  C   UNL     1       9.849  30.455   3.794  1.00  0.00     0.041 C 
ATOM      9  O   UNL     1      10.728  30.847   2.982  1.00  0.00    -0.550 OA
ATOM     10  O   UNL     1       9.935  30.820   5.131  1.00  0.00    -0.550 OA
ENDBRANCH   7   8
ENDBRANCH   6   7
ENDBRANCH   5   6
ENDBRANCH   4   5
ENDBRANCH   3   4
ENDBRANCH   2   3
ENDBRANCH   1   2
BRANCH   1  11
ATOM     11  C   UNL     1      10.127  34.502   0.788  1.00  0.00     0.000 C 
BRANCH  11  12
ATOM     12  C   UNL     1      10.929  35.815   0.841  1.00  0.00    -0.000 C 
BRANCH  12  13
ATOM     13  C   UNL     1      10.162  37.026   1.405  1.00  0.00    -0.000 C 
BRANCH  13  14
ATOM     14  C   UNL     1       9.929  38.128   0.361  1.00  0.00    -0.000 C 
BRANCH  14  15
ATOM     15  C   UNL     1       8.429  38.314   0.086  1.00  0.00    -0.000 C 
BRANCH  15  16
ATOM     16  C   UNL     1       7.564  38.070   1.333  1.00  0.00    -0.000 C 
BRANCH  16  17
ATOM     17  C   UNL     1       6.817  39.331   1.791  1.00  0.00    -0.003 C 
ATOM     18  C   UNL     1       6.180  40.053   0.607  1.00  0.00     0.004 C 
ENDBRANCH  16  17
ENDBRANCH  15  16
ENDBRANCH  14  15
ENDBRANCH  13  14
ENDBRANCH  12  13
ENDBRANCH  11  12
ENDBRANCH   1  11
TORSDOF 14
ENDMDL
MODEL 6
REMARK VINA RESULT:    -3.416     14.525     16.807
REMARK INTER + INTRA:          -7.735
REMARK INTER:                  -5.976
REMARK INTRA:                  -1.759
REMARK UNBOUND:                -1.524
REMARK SMILES CCCCCCCCCCCCCCCC(=O)[O-]
REMARK SMILES IDX 9 1 10 2 11 3 12 4 13 5 14 6 15 7 16 8 17 9 18 10 8 11 7 12
REMARK SMILES IDX 6 13 5 14 4 15 3 16 2 17 1 18
REMARK H PARENT
REMARK Flexibility Score: inf
ROOT
ATOM      1  C   UNL     1      -3.211  25.094  12.021  1.00  0.00     0.000 C 
ENDROOT
BRANCH   1   2
ATOM      2  C   UNL     1      -2.030  24.128  12.172  1.00  0.00     0.000 C 
BRANCH   2   3
ATOM      3  C   UNL     1      -2.281  22.827  11.394  1.00  0.00     0.000 C 
BRANCH   3   4
ATOM      4  C   UNL     1      -0.983  22.068  11.079  1.00  0.00     0.000 C 
BRANCH   4   5
ATOM      5  C   UNL     1       0.221  22.599  11.875  1.00  0.00     0.000 C 
BRANCH   5   6
ATOM      6  C   UNL     1       1.333  23.149  10.967  1.00  0.00     0.006 C 
BRANCH   6   7
ATOM      7  C   UNL     1       1.682  24.609  11.281  1.00  0.00     0.053 C 
BRANCH   7   8
ATOM      8  C   UNL     1       1.949  24.780  12.743  1.00  0.00     0.041 C 
ATOM      9  O   UNL     1       2.975  24.268  13.263  1.00  0.00    -0.550 OA
ATOM     10  O   UNL     1       1.092  25.547  13.521  1.00  0.00    -0.550 OA
ENDBRANCH   7   8
ENDBRANCH   6   7
ENDBRANCH   5   6
ENDBRANCH   4   5
ENDBRANCH   3   4
ENDBRANCH   2   3
ENDBRANCH   1   2
BRANCH   1  11
ATOM     11  C   UNL     1      -3.788  25.040  10.599  1.00  0.00     0.000 C 
BRANCH  11  12
ATOM     12  C   UNL     1      -4.060  26.435  10.007  1.00  0.00    -0.000 C 
BRANCH  12  13
ATOM     13  C   UNL     1      -3.909  26.536   8.478  1.00  0.00    -0.000 C 
BRANCH  13  14
ATOM     14  C   UNL     1      -3.283  27.863   8.023  1.00  0.00    -0.000 C 
BRANCH  14  15
ATOM     15  C   UNL     1      -1.800  27.934   8.419  1.00  0.00    -0.000 C 
BRANCH  15  16
ATOM     16  C   UNL     1      -1.484  29.143   9.314  1.00  0.00    -0.000 C 
BRANCH  16  17
ATOM     17  C   UNL     1      -1.375  28.766  10.799  1.00  0.00    -0.003 C 
ATOM     18  C   UNL     1      -0.610  27.459  10.979  1.00  0.00     0.004 C 
ENDBRANCH  16  17
ENDBRANCH  15  16
ENDBRANCH  14  15
ENDBRANCH  13  14
ENDBRANCH  12  13
ENDBRANCH  11  12
ENDBRANCH   1  11
TORSDOF 14
ENDMDL
MODEL 7
REMARK VINA RESULT:    -3.395     13.904     15.908
REMARK INTER + INTRA:          -7.698
REMARK INTER:                  -6.732
REMARK INTRA:                  -0.965
REMARK UNBOUND:                -1.524
REMARK SMILES CCCCCCCCCCCCCCCC(=O)[O-]
REMARK SMILES IDX 9 1 10 2 11 3 12 4 13 5 14 6 15 7 16 8 17 9 18 10 8 11 7 12
REMARK SMILES IDX 6 13 5 14 4 15 3 16 2 17 1 18
REMARK H PARENT
REMARK Flexibility Score: inf
ROOT
ATOM      1  C   UNL     1       7.418  41.322  15.073  1.00  0.00     0.000 C 
ENDROOT
BRANCH   1   2
ATOM      2  C   UNL     1       8.727  41.320  14.275  1.00  0.00     0.000 C 
BRANCH   2   3
ATOM      3  C   UNL     1       9.619  40.138  14.684  1.00  0.00     0.000 C 
BRANCH   3   4
ATOM      4  C   UNL     1      10.945  40.590  15.315  1.00  0.00     0.000 C 
BRANCH   4   5
ATOM      5  C   UNL     1      11.637  41.702  14.507  1.00  0.00     0.000 C 
BRANCH   5   6
ATOM      6  C   UNL     1      12.970  41.243  13.895  1.00  0.00     0.006 C 
BRANCH   6   7
ATOM      7  C   UNL     1      12.965  41.297  12.362  1.00  0.00     0.053 C 
BRANCH   7   8
ATOM      8  C   UNL     1      12.017  40.281  11.807  1.00  0.00     0.041 C 
ATOM      9  O   UNL     1      12.326  39.060  11.807  1.00  0.00    -0.550 OA
ATOM     10  O   UNL     1      10.772  40.676  11.336  1.00  0.00    -0.550 OA
ENDBRANCH   7   8
ENDBRANCH   6   7
ENDBRANCH   5   6
ENDBRANCH   4   5
ENDBRANCH   3   4
ENDBRANCH   2   3
ENDBRANCH   1   2
BRANCH   1  11
ATOM     11  C   UNL     1       7.619  40.695  16.460  1.00  0.00     0.000 C 
BRANCH  11  12
ATOM     12  C   UNL     1       6.554  39.637  16.802  1.00  0.00    -0.000 C 
BRANCH  12  13
ATOM     13  C   UNL     1       5.100  40.063  16.528  1.00  0.00    -0.000 C 
BRANCH  13  14
ATOM     14  C   UNL     1       4.184  38.879  16.179  1.00  0.00    -0.000 C 
BRANCH  14  15
ATOM     15  C   UNL     1       3.215  39.250  15.046  1.00  0.00    -0.000 C 
BRANCH  15  16
ATOM     16  C   UNL     1       1.926  38.413  15.071  1.00  0.00    -0.000 C 
BRANCH  16  17
ATOM     17  C   UNL     1       2.201  36.908  15.196  1.00  0.00    -0.003 C 
ATOM     18  C   UNL     1       2.816  36.353  13.914  1.00  0.00     0.004 C 
ENDBRANCH  16  17
ENDBRANCH  15  16
ENDBRANCH  14  15
ENDBRANCH  13  14
ENDBRANCH  12  13
ENDBRANCH  11  12
ENDBRANCH   1  11
TORSDOF 14
ENDMDL
MODEL 8
REMARK VINA RESULT:    -3.393      2.157      4.137
REMARK INTER + INTRA:          -7.694
REMARK INTER:                  -7.078
REMARK INTRA:                  -0.617
REMARK UNBOUND:                -1.524
REMARK SMILES CCCCCCCCCCCCCCCC(=O)[O-]
REMARK SMILES IDX 9 1 10 2 11 3 12 4 13 5 14 6 15 7 16 8 17 9 18 10 8 11 7 12
REMARK SMILES IDX 6 13 5 14 4 15 3 16 2 17 1 18
REMARK H PARENT
REMARK Flexibility Score: inf
ROOT
ATOM      1  C   UNL     1       7.769  32.880   1.483  1.00  0.00     0.000 C 
ENDROOT
BRANCH   1   2
ATOM      2  C   UNL     1       8.880  31.851   1.725  1.00  0.00     0.000 C 
BRANCH   2   3
ATOM      3  C   UNL     1       8.343  30.632   2.488  1.00  0.00     0.000 C 
BRANCH   3   4
ATOM      4  C   UNL     1       6.963  30.181   1.985  1.00  0.00     0.000 C 
BRANCH   4   5
ATOM      5  C   UNL     1       6.738  28.668   2.150  1.00  0.00     0.000 C 
BRANCH   5   6
ATOM      6  C   UNL     1       8.053  27.894   2.339  1.00  0.00     0.006 C 
BRANCH   6   7
ATOM      7  C   UNL     1       8.061  27.052   3.622  1.00  0.00     0.053 C 
BRANCH   7   8
ATOM      8  C   UNL     1       8.663  25.707   3.359  1.00  0.00     0.041 C 
ATOM      9  O   UNL     1       9.069  25.409   2.205  1.00  0.00    -0.550 OA
ATOM     10  O   UNL     1       8.820  24.802   4.400  1.00  0.00    -0.550 OA
ENDBRANCH   7   8
ENDBRANCH   6   7
ENDBRANCH   5   6
ENDBRANCH   4   5
ENDBRANCH   3   4
ENDBRANCH   2   3
ENDBRANCH   1   2
BRANCH   1  11
ATOM     11  C   UNL     1       7.946  33.573   0.125  1.00  0.00     0.000 C 
BRANCH  11  12
ATOM     12  C   UNL     1       8.020  35.107   0.236  1.00  0.00    -0.000 C 
BRANCH  12  13
ATOM     13  C   UNL     1       6.979  35.744   1.174  1.00  0.00    -0.000 C 
BRANCH  13  14
ATOM     14  C   UNL     1       6.612  37.181   0.774  1.00  0.00    -0.000 C 
BRANCH  14  15
ATOM     15  C   UNL     1       6.940  38.166   1.906  1.00  0.00    -0.000 C 
BRANCH  15  16
ATOM     16  C   UNL     1       7.397  39.538   1.384  1.00  0.00    -0.000 C 
BRANCH  16  17
ATOM     17  C   UNL     1       6.221  40.479   1.085  1.00  0.00    -0.003 C 
ATOM     18  C   UNL     1       5.847  41.299   2.315  1.00  0.00     0.004 C 
ENDBRANCH  16  17
ENDBRANCH  15  16
ENDBRANCH  14  15
ENDBRANCH  13  14
ENDBRANCH  12  13
ENDBRANCH  11  12
ENDBRANCH   1  11
TORSDOF 14
ENDMDL
MODEL 9
REMARK VINA RESULT:    -3.357      3.678      7.732
REMARK INTER + INTRA:          -7.629
REMARK INTER:                  -5.525
REMARK INTRA:                  -2.103
REMARK UNBOUND:                -1.524
REMARK SMILES CCCCCCCCCCCCCCCC(=O)[O-]
REMARK SMILES IDX 9 1 10 2 11 3 12 4 13 5 14 6 15 7 16 8 17 9 18 10 8 11 7 12
REMARK SMILES IDX 6 13 5 14 4 15 3 16 2 17 1 18
REMARK H PARENT
REMARK Flexibility Score: inf
ROOT
ATOM      1  C   UNL     1       7.638  30.877   2.694  1.00  0.00     0.000 C 
ENDROOT
BRANCH   1   2
ATOM      2  C   UNL     1       7.680  32.202   1.923  1.00  0.00     0.000 C 
BRANCH   2   3
ATOM      3  C   UNL     1       7.262  31.999   0.459  1.00  0.00     0.000 C 
BRANCH   3   4
ATOM      4  C   UNL     1       7.690  33.167  -0.444  1.00  0.00     0.000 C 
BRANCH   4   5
ATOM      5  C   UNL     1       8.291  34.340   0.351  1.00  0.00     0.000 C 
BRANCH   5   6
ATOM      6  C   UNL     1       7.598  35.677   0.043  1.00  0.00     0.006 C 
BRANCH   6   7
ATOM      7  C   UNL     1       6.796  36.213   1.236  1.00  0.00     0.053 C 
BRANCH   7   8
ATOM      8  C   UNL     1       6.495  37.667   1.051  1.00  0.00     0.041 C 
ATOM      9  O   UNL     1       5.849  38.058   0.044  1.00  0.00    -0.550 OA
ATOM     10  O   UNL     1       6.886  38.586   2.017  1.00  0.00    -0.550 OA
ENDBRANCH   7   8
ENDBRANCH   6   7
ENDBRANCH   5   6
ENDBRANCH   4   5
ENDBRANCH   3   4
ENDBRANCH   2   3
ENDBRANCH   1   2
BRANCH   1  11
ATOM     11  C   UNL     1       6.830  29.820   1.927  1.00  0.00     0.000 C 
BRANCH  11  12
ATOM     12  C   UNL     1       7.359  28.389   2.137  1.00  0.00    -0.000 C 
BRANCH  12  13
ATOM     13  C   UNL     1       8.723  28.295   2.844  1.00  0.00    -0.000 C 
BRANCH  13  14
ATOM     14  C   UNL     1       9.846  27.803   1.917  1.00  0.00    -0.000 C 
BRANCH  14  15
ATOM     15  C   UNL     1      10.760  28.964   1.497  1.00  0.00    -0.000 C 
BRANCH  15  16
ATOM     16  C   UNL     1      10.247  29.699   0.248  1.00  0.00    -0.000 C 
BRANCH  16  17
ATOM     17  C   UNL     1      10.845  31.105   0.102  1.00  0.00    -0.003 C 
ATOM     18  C   UNL     1      11.229  31.683   1.461  1.00  0.00     0.004 C 
ENDBRANCH  16  17
ENDBRANCH  15  16
ENDBRANCH  14  15
ENDBRANCH  13  14
ENDBRANCH  12  13
ENDBRANCH  11  12
ENDBRANCH   1  11
TORSDOF 14
ENDMDL
