MODEL 1
REMARK VINA RESULT:    -3.336      0.000      0.000
REMARK INTER + INTRA:          -6.853
REMARK INTER:                  -5.677
REMARK INTRA:                  -1.177
REMARK UNBOUND:                -1.177
REMARK SMILES CCCCCCCCCCCCCC(=O)[O-]
REMARK SMILES IDX 8 1 9 2 10 3 11 4 12 5 13 6 14 7 15 8 16 9 7 10 6 11 5 12
REMARK SMILES IDX 4 13 3 14 2 15 1 16
REMARK H PARENT
REMARK Flexibility Score: inf
ROOT
ATOM      1  C   UNL     1     -16.400 -13.882  26.615  1.00  0.00     0.000 C 
ENDROOT
BRANCH   1   2
ATOM      2  C   UNL     1     -17.828 -14.399  26.842  1.00  0.00     0.000 C 
BRANCH   2   3
ATOM      3  C   UNL     1     -18.310 -15.330  25.717  1.00  0.00     0.000 C 
BRANCH   3   4
ATOM      4  C   UNL     1     -17.530 -15.126  24.407  1.00  0.00     0.000 C 
BRANCH   4   5
ATOM      5  C   UNL     1     -18.425 -14.629  23.259  1.00  0.00     0.006 C 
BRANCH   5   6
ATOM      6  C   UNL     1     -18.074 -13.206  22.807  1.00  0.00     0.053 C 
BRANCH   6   7
ATOM      7  C   UNL     1     -18.963 -12.210  23.483  1.00  0.00     0.041 C 
ATOM      8  O   UNL     1     -20.072 -11.903  22.973  1.00  0.00    -0.550 OA
ATOM      9  O   UNL     1     -18.589 -11.658  24.702  1.00  0.00    -0.550 OA
ENDBRANCH   6   7
ENDBRANCH   5   6
ENDBRANCH   4   5
ENDBRANCH   3   4
ENDBRANCH   2   3
ENDBRANCH   1   2
BRANCH   1  10
ATOM     10  C   UNL     1     -15.413 -14.559  27.578  1.00  0.00     0.000 C 
BRANCH  10  11
ATOM     11  C   UNL     1     -15.196 -16.047  27.256  1.00  0.00    -0.000 C 
BRANCH  11  12
ATOM     12  C   UNL     1     -15.750 -16.976  28.347  1.00  0.00    -0.000 C 
BRANCH  12  13
ATOM     13  C   UNL     1     -14.611 -17.630  29.141  1.00  0.00    -0.000 C 
BRANCH  13  14
ATOM     14  C   UNL     1     -14.041 -16.660  30.186  1.00  0.00    -0.000 C 
BRANCH  14  15
ATOM     15  C   UNL     1     -12.505 -16.637  30.193  1.00  0.00    -0.003 C 
ATOM     16  C   UNL     1     -11.920 -15.839  29.027  1.00  0.00     0.004 C 
ENDBRANCH  14  15
ENDBRANCH  13  14
ENDBRANCH  12  13
ENDBRANCH  11  12
ENDBRANCH  10  11
ENDBRANCH   1  10
TORSDOF 12
ENDMDL
MODEL 2
REMARK VINA RESULT:    -3.311      3.331      6.472
REMARK INTER + INTRA:          -6.811
REMARK INTER:                  -5.113
REMARK INTRA:                  -1.698
REMARK UNBOUND:                -1.177
REMARK SMILES CCCCCCCCCCCCCC(=O)[O-]
REMARK SMILES IDX 8 1 9 2 10 3 11 4 12 5 13 6 14 7 15 8 16 9 7 10 6 11 5 12
REMARK SMILES IDX 4 13 3 14 2 15 1 16
REMARK H PARENT
REMARK Flexibility Score: inf
ROOT
ATOM      1  C   UNL     1     -17.291 -12.565  25.750  1.00  0.00     0.000 C 
ENDROOT
BRANCH   1   2
ATOM      2  C   UNL     1     -17.662 -13.224  27.087  1.00  0.00     0.000 C 
BRANCH   2   3
ATOM      3  C   UNL     1     -17.192 -14.686  27.180  1.00  0.00     0.000 C 
BRANCH   3   4
ATOM      4  C   UNL     1     -15.973 -14.972  26.286  1.00  0.00     0.000 C 
BRANCH   4   5
ATOM      5  C   UNL     1     -15.283 -16.301  26.638  1.00  0.00     0.006 C 
BRANCH   5   6
ATOM      6  C   UNL     1     -14.569 -16.258  27.995  1.00  0.00     0.053 C 
BRANCH   6   7
ATOM      7  C   UNL     1     -15.076 -17.348  28.886  1.00  0.00     0.041 C 
ATOM      8  O   UNL     1     -14.420 -17.690  29.904  1.00  0.00    -0.550 OA
ATOM      9  O   UNL     1     -16.297 -17.954  28.617  1.00  0.00    -0.550 OA
ENDBRANCH   6   7
ENDBRANCH   5   6
ENDBRANCH   4   5
ENDBRANCH   3   4
ENDBRANCH   2   3
ENDBRANCH   1   2
BRANCH   1  10
ATOM     10  C   UNL     1     -18.435 -12.706  24.734  1.00  0.00     0.000 C 
BRANCH  10  11
ATOM     11  C   UNL     1     -17.929 -12.941  23.301  1.00  0.00    -0.000 C 
BRANCH  11  12
ATOM     12  C   UNL     1     -17.909 -14.429  22.917  1.00  0.00    -0.000 C 
BRANCH  12  13
ATOM     13  C   UNL     1     -18.869 -15.236  23.801  1.00  0.00    -0.000 C 
BRANCH  13  14
ATOM     14  C   UNL     1     -18.844 -16.724  23.423  1.00  0.00    -0.000 C 
BRANCH  14  15
ATOM     15  C   UNL     1     -17.881 -17.539  24.300  1.00  0.00    -0.003 C 
ATOM     16  C   UNL     1     -18.492 -17.929  25.647  1.00  0.00     0.004 C 
ENDBRANCH  14  15
ENDBRANCH  13  14
ENDBRANCH  12  13
ENDBRANCH  11  12
ENDBRANCH  10  11
ENDBRANCH   1  10
TORSDOF 12
ENDMDL
MODEL 3
REMARK VINA RESULT:    -3.282      1.729      2.615
REMARK INTER + INTRA:          -6.761
REMARK INTER:                  -5.404
REMARK INTRA:                  -1.356
REMARK UNBOUND:                -1.177
REMARK SMILES CCCCCCCCCCCCCC(=O)[O-]
REMARK SMILES IDX 8 1 9 2 10 3 11 4 12 5 13 6 14 7 15 8 16 9 7 10 6 11 5 12
REMARK SMILES IDX 4 13 3 14 2 15 1 16
REMARK H PARENT
REMARK Flexibility Score: inf
ROOT
ATOM      1  C   UNL     1     -16.356 -15.430  28.785  1.00  0.00     0.000 C 
ENDROOT
BRANCH   1   2
ATOM      2  C   UNL     1     -15.982 -16.556  27.809  1.00  0.00     0.000 C 
BRANCH   2   3
ATOM      3  C   UNL     1     -15.715 -16.043  26.384  1.00  0.00     0.000 C 
BRANCH   3   4
ATOM      4  C   UNL     1     -16.772 -16.525  25.375  1.00  0.00     0.000 C 
BRANCH   4   5
ATOM      5  C   UNL     1     -17.529 -15.362  24.713  1.00  0.00     0.006 C 
BRANCH   5   6
ATOM      6  C   UNL     1     -17.097 -13.991  25.251  1.00  0.00     0.053 C 
BRANCH   6   7
ATOM      7  C   UNL     1     -18.294 -13.185  25.644  1.00  0.00     0.041 C 
ATOM      8  O   UNL     1     -19.308 -13.752  26.129  1.00  0.00    -0.550 OA
ATOM      9  O   UNL     1     -18.272 -11.801  25.520  1.00  0.00    -0.550 OA
ENDBRANCH   6   7
ENDBRANCH   5   6
ENDBRANCH   4   5
ENDBRANCH   3   4
ENDBRANCH   2   3
ENDBRANCH   1   2
BRANCH   1  10
ATOM     10  C   UNL     1     -15.459 -14.201  28.573  1.00  0.00     0.000 C 
BRANCH  10  11
ATOM     11  C   UNL     1     -14.816 -13.703  29.878  1.00  0.00    -0.000 C 
BRANCH  11  12
ATOM     12  C   UNL     1     -13.629 -14.572  30.322  1.00  0.00    -0.000 C 
BRANCH  12  13
ATOM     13  C   UNL     1     -12.604 -14.720  29.189  1.00  0.00    -0.000 C 
BRANCH  13  14
ATOM     14  C   UNL     1     -12.427 -16.194  28.797  1.00  0.00    -0.000 C 
BRANCH  14  15
ATOM     15  C   UNL     1     -11.960 -17.066  29.973  1.00  0.00    -0.003 C 
ATOM     16  C   UNL     1     -10.483 -16.862  30.311  1.00  0.00     0.004 C 
ENDBRANCH  14  15
ENDBRANCH  13  14
ENDBRANCH  12  13
ENDBRANCH  11  12
ENDBRANCH  10  11
ENDBRANCH   1  10
TORSDOF 12
ENDMDL
MODEL 4
REMARK VINA RESULT:    -3.277      9.420     10.621
REMARK INTER + INTRA:          -6.752
REMARK INTER:                  -4.720
REMARK INTRA:                  -2.032
REMARK UNBOUND:                -1.177
REMARK SMILES CCCCCCCCCCCCCC(=O)[O-]
REMARK SMILES IDX 8 1 9 2 10 3 11 4 12 5 13 6 14 7 15 8 16 9 7 10 6 11 5 12
REMARK SMILES IDX 4 13 3 14 2 15 1 16
REMARK H PARENT
REMARK Flexibility Score: inf
ROOT
ATOM      1  C   UNL     1     -12.450 -24.479  21.238  1.00  0.00     0.000 C 
ENDROOT
BRANCH   1   2
ATOM      2  C   UNL     1     -11.158 -23.741  20.857  1.00  0.00     0.000 C 
BRANCH   2   3
ATOM      3  C   UNL     1     -11.080 -23.414  19.356  1.00  0.00     0.000 C 
BRANCH   3   4
ATOM      4  C   UNL     1     -10.721 -21.942  19.090  1.00  0.00     0.000 C 
BRANCH   4   5
ATOM      5  C   UNL     1     -10.555 -21.132  20.386  1.00  0.00     0.006 C 
BRANCH   5   6
ATOM      6  C   UNL     1     -10.246 -19.652  20.125  1.00  0.00     0.053 C 
BRANCH   6   7
ATOM      7  C   UNL     1     -11.450 -18.957  19.573  1.00  0.00     0.041 C 
ATOM      8  O   UNL     1     -12.386 -18.608  20.338  1.00  0.00    -0.550 OA
ATOM      9  O   UNL     1     -11.517 -18.652  18.219  1.00  0.00    -0.550 OA
ENDBRANCH   6   7
ENDBRANCH   5   6
ENDBRANCH   4   5
ENDBRANCH   3   4
ENDBRANCH   2   3
ENDBRANCH   1   2
BRANCH   1  10
ATOM     10  C   UNL     1     -12.764 -24.298  22.731  1.00  0.00     0.000 C 
BRANCH  10  11
ATOM     11  C   UNL     1     -11.931 -23.181  23.381  1.00  0.00    -0.000 C 
BRANCH  11  12
ATOM     12  C   UNL     1     -12.799 -22.045  23.943  1.00  0.00    -0.000 C 
BRANCH  12  13
ATOM     13  C   UNL     1     -13.157 -21.035  22.845  1.00  0.00    -0.000 C 
BRANCH  13  14
ATOM     14  C   UNL     1     -14.679 -20.939  22.661  1.00  0.00    -0.000 C 
BRANCH  14  15
ATOM     15  C   UNL     1     -15.174 -21.709  21.428  1.00  0.00    -0.003 C 
ATOM     16  C   UNL     1     -14.294 -21.488  20.198  1.00  0.00     0.004 C 
ENDBRANCH  14  15
ENDBRANCH  13  14
ENDBRANCH  12  13
ENDBRANCH  11  12
ENDBRANCH  10  11
ENDBRANCH   1  10
TORSDOF 12
ENDMDL
MODEL 5
REMARK VINA RESULT:    -3.257      1.951      3.901
REMARK INTER + INTRA:          -6.719
REMARK INTER:                  -5.764
REMARK INTRA:                  -0.956
REMARK UNBOUND:                -1.177
REMARK SMILES CCCCCCCCCCCCCC(=O)[O-]
REMARK SMILES IDX 8 1 9 2 10 3 11 4 12 5 13 6 14 7 15 8 16 9 7 10 6 11 5 12
REMARK SMILES IDX 4 13 3 14 2 15 1 16
REMARK H PARENT
REMARK Flexibility Score: inf
ROOT
ATOM      1  C   UNL     1     -13.008 -15.846  28.600  1.00  0.00     0.000 C 
ENDROOT
BRANCH   1   2
ATOM      2  C   UNL     1     -14.443 -15.387  28.301  1.00  0.00     0.000 C 
BRANCH   2   3
ATOM      3  C   UNL     1     -15.213 -16.381  27.415  1.00  0.00     0.000 C 
BRANCH   3   4
ATOM      4  C   UNL     1     -15.908 -15.696  26.225  1.00  0.00     0.000 C 
BRANCH   4   5
ATOM      5  C   UNL     1     -16.329 -14.251  26.540  1.00  0.00     0.006 C 
BRANCH   5   6
ATOM      6  C   UNL     1     -16.844 -13.501  25.305  1.00  0.00     0.053 C 
BRANCH   6   7
ATOM      7  C   UNL     1     -18.171 -12.873  25.593  1.00  0.00     0.041 C 
ATOM      8  O   UNL     1     -19.140 -13.583  25.968  1.00  0.00    -0.550 OA
ATOM      9  O   UNL     1     -18.325 -11.496  25.495  1.00  0.00    -0.550 OA
ENDBRANCH   6   7
ENDBRANCH   5   6
ENDBRANCH   4   5
ENDBRANCH   3   4
ENDBRANCH   2   3
ENDBRANCH   1   2
BRANCH   1  10
ATOM     10  C   UNL     1     -12.980 -16.812  29.795  1.00  0.00     0.000 C 
BRANCH  10  11
ATOM     11  C   UNL     1     -11.621 -17.511  29.960  1.00  0.00    -0.000 C 
BRANCH  11  12
ATOM     12  C   UNL     1     -10.733 -16.839  31.018  1.00  0.00    -0.000 C 
BRANCH  12  13
ATOM     13  C   UNL     1      -9.414 -16.356  30.401  1.00  0.00    -0.000 C 
BRANCH  13  14
ATOM     14  C   UNL     1      -9.193 -14.862  30.676  1.00  0.00    -0.000 C 
BRANCH  14  15
ATOM     15  C   UNL     1     -10.509 -14.103  30.905  1.00  0.00    -0.003 C 
ATOM     16  C   UNL     1     -10.833 -13.124  29.777  1.00  0.00     0.004 C 
ENDBRANCH  14  15
ENDBRANCH  13  14
ENDBRANCH  12  13
ENDBRANCH  11  12
ENDBRANCH  10  11
ENDBRANCH   1  10
TORSDOF 12
ENDMDL
MODEL 6
REMARK VINA RESULT:    -3.244      9.797     10.749
REMARK INTER + INTRA:          -6.697
REMARK INTER:                  -4.597
REMARK INTRA:                  -2.099
REMARK UNBOUND:                -1.177
REMARK SMILES CCCCCCCCCCCCCC(=O)[O-]
REMARK SMILES IDX 8 1 9 2 10 3 11 4 12 5 13 6 14 7 15 8 16 9 7 10 6 11 5 12
REMARK SMILES IDX 4 13 3 14 2 15 1 16
REMARK H PARENT
REMARK Flexibility Score: inf
ROOT
ATOM      1  C   UNL     1     -13.255 -22.407  19.648  1.00  0.00     0.000 C 
ENDROOT
BRANCH   1   2
ATOM      2  C   UNL     1     -13.015 -21.039  18.992  1.00  0.00     0.000 C 
BRANCH   2   3
ATOM      3  C   UNL     1     -13.166 -19.870  19.980  1.00  0.00     0.000 C 
BRANCH   3   4
ATOM      4  C   UNL     1     -11.882 -19.032  20.104  1.00  0.00     0.000 C 
BRANCH   4   5
ATOM      5  C   UNL     1     -10.785 -19.750  20.907  1.00  0.00     0.006 C 
BRANCH   5   6
ATOM      6  C   UNL     1      -9.376 -19.465  20.372  1.00  0.00     0.053 C 
BRANCH   6   7
ATOM      7  C   UNL     1      -9.271 -19.873  18.936  1.00  0.00     0.041 C 
ATOM      8  O   UNL     1      -9.388 -21.083  18.611  1.00  0.00    -0.550 OA
ATOM      9  O   UNL     1      -9.094 -18.910  17.951  1.00  0.00    -0.550 OA
ENDBRANCH   6   7
ENDBRANCH   5   6
ENDBRANCH   4   5
ENDBRANCH   3   4
ENDBRANCH   2   3
ENDBRANCH   1   2
BRANCH   1  10
ATOM     10  C   UNL     1     -11.946 -23.204  19.748  1.00  0.00     0.000 C 
BRANCH  10  11
ATOM     11  C   UNL     1     -11.423 -23.310  21.190  1.00  0.00    -0.000 C 
BRANCH  11  12
ATOM     12  C   UNL     1     -12.266 -24.258  22.057  1.00  0.00    -0.000 C 
BRANCH  12  13
ATOM     13  C   UNL     1     -12.776 -23.543  23.315  1.00  0.00    -0.000 C 
BRANCH  13  14
ATOM     14  C   UNL     1     -12.250 -22.102  23.380  1.00  0.00    -0.000 C 
BRANCH  14  15
ATOM     15  C   UNL     1     -13.380 -21.061  23.373  1.00  0.00    -0.003 C 
ATOM     16  C   UNL     1     -14.736 -21.660  22.999  1.00  0.00     0.004 C 
ENDBRANCH  14  15
ENDBRANCH  13  14
ENDBRANCH  12  13
ENDBRANCH  11  12
ENDBRANCH  10  11
ENDBRANCH   1  10
TORSDOF 12
ENDMDL
MODEL 7
REMARK VINA RESULT:    -3.233      9.219     10.118
REMARK INTER + INTRA:          -6.677
REMARK INTER:                  -4.701
REMARK INTRA:                  -1.976
REMARK UNBOUND:                -1.177
REMARK SMILES CCCCCCCCCCCCCC(=O)[O-]
REMARK SMILES IDX 8 1 9 2 10 3 11 4 12 5 13 6 14 7 15 8 16 9 7 10 6 11 5 12
REMARK SMILES IDX 4 13 3 14 2 15 1 16
REMARK H PARENT
REMARK Flexibility Score: inf
ROOT
ATOM      1  C   UNL     1     -11.722 -24.235  20.556  1.00  0.00     0.000 C 
ENDROOT
BRANCH   1   2
ATOM      2  C   UNL     1     -10.791 -23.014  20.563  1.00  0.00     0.000 C 
BRANCH   2   3
ATOM      3  C   UNL     1     -11.472 -21.743  20.029  1.00  0.00     0.000 C 
BRANCH   3   4
ATOM      4  C   UNL     1     -10.684 -20.464  20.366  1.00  0.00     0.000 C 
BRANCH   4   5
ATOM      5  C   UNL     1     -11.560 -19.202  20.318  1.00  0.00     0.006 C 
BRANCH   5   6
ATOM      6  C   UNL     1     -12.946 -19.465  19.716  1.00  0.00     0.053 C 
BRANCH   6   7
ATOM      7  C   UNL     1     -13.098 -18.734  18.419  1.00  0.00     0.041 C 
ATOM      8  O   UNL     1     -12.814 -19.305  17.333  1.00  0.00    -0.550 OA
ATOM      9  O   UNL     1     -13.599 -17.439  18.405  1.00  0.00    -0.550 OA
ENDBRANCH   6   7
ENDBRANCH   5   6
ENDBRANCH   4   5
ENDBRANCH   3   4
ENDBRANCH   2   3
ENDBRANCH   1   2
BRANCH   1  10
ATOM     10  C   UNL     1     -13.191 -23.804  20.689  1.00  0.00     0.000 C 
BRANCH  10  11
ATOM     11  C   UNL     1     -13.955 -24.619  21.746  1.00  0.00    -0.000 C 
BRANCH  11  12
ATOM     12  C   UNL     1     -13.240 -24.645  23.105  1.00  0.00    -0.000 C 
BRANCH  12  13
ATOM     13  C   UNL     1     -13.656 -23.445  23.967  1.00  0.00    -0.000 C 
BRANCH  13  14
ATOM     14  C   UNL     1     -12.484 -22.472  24.156  1.00  0.00    -0.000 C 
BRANCH  14  15
ATOM     15  C   UNL     1     -12.676 -21.159  23.381  1.00  0.00    -0.003 C 
ATOM     16  C   UNL     1     -14.109 -20.968  22.885  1.00  0.00     0.004 C 
ENDBRANCH  14  15
ENDBRANCH  13  14
ENDBRANCH  12  13
ENDBRANCH  11  12
ENDBRANCH  10  11
ENDBRANCH   1  10
TORSDOF 12
ENDMDL
MODEL 8
REMARK VINA RESULT:    -3.224      8.788      9.700
REMARK INTER + INTRA:          -6.662
REMARK INTER:                  -4.644
REMARK INTRA:                  -2.017
REMARK UNBOUND:                -1.177
REMARK SMILES CCCCCCCCCCCCCC(=O)[O-]
REMARK SMILES IDX 8 1 9 2 10 3 11 4 12 5 13 6 14 7 15 8 16 9 7 10 6 11 5 12
REMARK SMILES IDX 4 13 3 14 2 15 1 16
REMARK H PARENT
REMARK Flexibility Score: inf
ROOT
ATOM      1  C   UNL     1     -13.544 -22.717  19.462  1.00  0.00     0.000 C 
ENDROOT
BRANCH   1   2
ATOM      2  C   UNL     1     -12.086 -22.510  19.898  1.00  0.00     0.000 C 
BRANCH   2   3
ATOM      3  C   UNL     1     -11.489 -21.194  19.372  1.00  0.00     0.000 C 
BRANCH   3   4
ATOM      4  C   UNL     1     -11.226 -20.175  20.494  1.00  0.00     0.000 C 
BRANCH   4   5
ATOM      5  C   UNL     1     -12.102 -18.918  20.366  1.00  0.00     0.006 C 
BRANCH   5   6
ATOM      6  C   UNL     1     -13.124 -19.021  19.226  1.00  0.00     0.053 C 
BRANCH   6   7
ATOM      7  C   UNL     1     -12.921 -17.912  18.242  1.00  0.00     0.041 C 
ATOM      8  O   UNL     1     -11.826 -17.800  17.632  1.00  0.00    -0.550 OA
ATOM      9  O   UNL     1     -13.958 -17.031  17.963  1.00  0.00    -0.550 OA
ENDBRANCH   6   7
ENDBRANCH   5   6
ENDBRANCH   4   5
ENDBRANCH   3   4
ENDBRANCH   2   3
ENDBRANCH   1   2
BRANCH   1  10
ATOM     10  C   UNL     1     -14.472 -22.814  20.682  1.00  0.00     0.000 C 
BRANCH  10  11
ATOM     11  C   UNL     1     -14.734 -21.448  21.338  1.00  0.00    -0.000 C 
BRANCH  11  12
ATOM     12  C   UNL     1     -14.614 -21.494  22.869  1.00  0.00    -0.000 C 
BRANCH  12  13
ATOM     13  C   UNL     1     -13.179 -21.183  23.316  1.00  0.00    -0.000 C 
BRANCH  13  14
ATOM     14  C   UNL     1     -12.607 -22.327  24.165  1.00  0.00    -0.000 C 
BRANCH  14  15
ATOM     15  C   UNL     1     -11.948 -23.422  23.313  1.00  0.00    -0.003 C 
ATOM     16  C   UNL     1     -12.748 -24.724  23.299  1.00  0.00     0.004 C 
ENDBRANCH  14  15
ENDBRANCH  13  14
ENDBRANCH  12  13
ENDBRANCH  11  12
ENDBRANCH  10  11
ENDBRANCH   1  10
TORSDOF 12
ENDMDL
MODEL 9
REMARK VINA RESULT:    -3.170      3.632      6.940
REMARK INTER + INTRA:          -6.570
REMARK INTER:                  -5.129
REMARK INTRA:                  -1.442
REMARK UNBOUND:                -1.177
REMARK SMILES CCCCCCCCCCCCCC(=O)[O-]
REMARK SMILES IDX 8 1 9 2 10 3 11 4 12 5 13 6 14 7 15 8 16 9 7 10 6 11 5 12
REMARK SMILES IDX 4 13 3 14 2 15 1 16
REMARK H PARENT
REMARK Flexibility Score: inf
ROOT
ATOM      1  C   UNL     1     -18.180 -16.353  26.301  1.00  0.00     0.000 C 
ENDROOT
BRANCH   1   2
ATOM      2  C   UNL     1     -16.874 -16.918  26.878  1.00  0.00     0.000 C 
BRANCH   2   3
ATOM      3  C   UNL     1     -15.632 -16.137  26.416  1.00  0.00     0.000 C 
BRANCH   3   4
ATOM      4  C   UNL     1     -15.369 -14.886  27.273  1.00  0.00     0.000 C 
BRANCH   4   5
ATOM      5  C   UNL     1     -14.952 -15.233  28.711  1.00  0.00     0.006 C 
BRANCH   5   6
ATOM      6  C   UNL     1     -13.485 -15.671  28.814  1.00  0.00     0.053 C 
BRANCH   6   7
ATOM      7  C   UNL     1     -13.393 -17.057  29.372  1.00  0.00     0.041 C 
ATOM      8  O   UNL     1     -12.296 -17.490  29.813  1.00  0.00    -0.550 OA
ATOM      9  O   UNL     1     -14.529 -17.852  29.449  1.00  0.00    -0.550 OA
ENDBRANCH   6   7
ENDBRANCH   5   6
ENDBRANCH   4   5
ENDBRANCH   3   4
ENDBRANCH   2   3
ENDBRANCH   1   2
BRANCH   1  10
ATOM     10  C   UNL     1     -18.332 -16.728  24.820  1.00  0.00     0.000 C 
BRANCH  10  11
ATOM     11  C   UNL     1     -19.073 -15.653  24.008  1.00  0.00    -0.000 C 
BRANCH  11  12
ATOM     12  C   UNL     1     -18.175 -14.982  22.957  1.00  0.00    -0.000 C 
BRANCH  12  13
ATOM     13  C   UNL     1     -17.996 -13.489  23.261  1.00  0.00    -0.000 C 
BRANCH  13  14
ATOM     14  C   UNL     1     -17.158 -13.283  24.532  1.00  0.00    -0.000 C 
BRANCH  14  15
ATOM     15  C   UNL     1     -17.961 -12.637  25.671  1.00  0.00    -0.003 C 
ATOM     16  C   UNL     1     -17.218 -11.477  26.335  1.00  0.00     0.004 C 
ENDBRANCH  14  15
ENDBRANCH  13  14
ENDBRANCH  12  13
ENDBRANCH  11  12
ENDBRANCH  10  11
ENDBRANCH   1  10
TORSDOF 12
ENDMDL
