MODEL 1
REMARK VINA RESULT:    -5.724      0.000      0.000
REMARK INTER + INTRA:         -13.186
REMARK INTER:                 -11.078
REMARK INTRA:                  -2.108
REMARK UNBOUND:                -2.108
REMARK SMILES CCCCCCCCCCCCCCCCCC(=O)[O-]
REMARK SMILES IDX 10 1 11 2 12 3 13 4 14 5 15 6 16 7 17 8 18 9 19 10 20 11
REMARK SMILES IDX 9 12 8 13 7 14 6 15 5 16 4 17 3 18 2 19 1 20
REMARK H PARENT
REMARK Flexibility Score: inf
ROOT
ATOM      1  C   UNL     1      -8.411 -13.639  -5.643  1.00  0.00     0.000 C 
ENDROOT
BRANCH   1   2
ATOM      2  C   UNL     1      -6.965 -13.354  -5.202  1.00  0.00     0.000 C 
BRANCH   2   3
ATOM      3  C   UNL     1      -6.867 -12.919  -3.729  1.00  0.00     0.000 C 
BRANCH   3   4
ATOM      4  C   UNL     1      -6.350 -14.004  -2.763  1.00  0.00     0.000 C 
BRANCH   4   5
ATOM      5  C   UNL     1      -6.869 -15.428  -3.037  1.00  0.00     0.000 C 
BRANCH   5   6
ATOM      6  C   UNL     1      -5.918 -16.563  -2.617  1.00  0.00     0.000 C 
BRANCH   6   7
ATOM      7  C   UNL     1      -4.669 -16.083  -1.845  1.00  0.00     0.006 C 
BRANCH   7   8
ATOM      8  C   UNL     1      -4.245 -17.056  -0.737  1.00  0.00     0.053 C 
BRANCH   8   9
ATOM      9  C   UNL     1      -2.753 -17.219  -0.699  1.00  0.00     0.041 C 
ATOM     10  O   UNL     1      -2.107 -17.349  -1.768  1.00  0.00    -0.550 OA
ATOM     11  O   UNL     1      -2.078 -17.261   0.515  1.00  0.00    -0.550 OA
ENDBRANCH   8   9
ENDBRANCH   7   8
ENDBRANCH   6   7
ENDBRANCH   5   6
ENDBRANCH   4   5
ENDBRANCH   3   4
ENDBRANCH   2   3
ENDBRANCH   1   2
BRANCH   1  12
ATOM     12  C   UNL     1      -8.596 -15.072  -6.171  1.00  0.00     0.000 C 
BRANCH  12  13
ATOM     13  C   UNL     1      -7.312 -15.750  -6.691  1.00  0.00    -0.000 C 
BRANCH  13  14
ATOM     14  C   UNL     1      -7.101 -17.204  -6.229  1.00  0.00    -0.000 C 
BRANCH  14  15
ATOM     15  C   UNL     1      -8.364 -17.823  -5.608  1.00  0.00    -0.000 C 
BRANCH  15  16
ATOM     16  C   UNL     1      -9.087 -18.790  -6.563  1.00  0.00    -0.000 C 
BRANCH  16  17
ATOM     17  C   UNL     1     -10.541 -18.410  -6.899  1.00  0.00    -0.000 C 
BRANCH  17  18
ATOM     18  C   UNL     1     -10.723 -17.975  -8.363  1.00  0.00    -0.000 C 
BRANCH  18  19
ATOM     19  C   UNL     1      -9.394 -17.929  -9.130  1.00  0.00    -0.003 C 
ATOM     20  C   UNL     1      -9.106 -16.549  -9.719  1.00  0.00     0.004 C 
ENDBRANCH  18  19
ENDBRANCH  17  18
ENDBRANCH  16  17
ENDBRANCH  15  16
ENDBRANCH  14  15
ENDBRANCH  13  14
ENDBRANCH  12  13
ENDBRANCH   1  12
TORSDOF 16
ENDMDL
MODEL 2
REMARK VINA RESULT:    -5.497      2.777      7.843
REMARK INTER + INTRA:         -12.747
REMARK INTER:                 -11.142
REMARK INTRA:                  -1.605
REMARK UNBOUND:                -2.108
REMARK SMILES CCCCCCCCCCCCCCCCCC(=O)[O-]
REMARK SMILES IDX 10 1 11 2 12 3 13 4 14 5 15 6 16 7 17 8 18 9 19 10 20 11
REMARK SMILES IDX 9 12 8 13 7 14 6 15 5 16 4 17 3 18 2 19 1 20
REMARK H PARENT
REMARK Flexibility Score: inf
ROOT
ATOM      1  C   UNL     1      -5.582 -16.426  -2.957  1.00  0.00     0.000 C 
ENDROOT
BRANCH   1   2
ATOM      2  C   UNL     1      -6.747 -15.457  -2.690  1.00  0.00     0.000 C 
BRANCH   2   3
ATOM      3  C   UNL     1      -6.297 -13.987  -2.624  1.00  0.00     0.000 C 
BRANCH   3   4
ATOM      4  C   UNL     1      -6.888 -13.076  -3.718  1.00  0.00     0.000 C 
BRANCH   4   5
ATOM      5  C   UNL     1      -6.980 -13.707  -5.120  1.00  0.00     0.000 C 
BRANCH   5   6
ATOM      6  C   UNL     1      -8.402 -13.800  -5.703  1.00  0.00     0.000 C 
BRANCH   6   7
ATOM      7  C   UNL     1      -9.077 -15.174  -5.498  1.00  0.00     0.006 C 
BRANCH   7   8
ATOM      8  C   UNL     1      -8.568 -16.239  -6.478  1.00  0.00     0.053 C 
BRANCH   8   9
ATOM      9  C   UNL     1      -7.961 -17.402  -5.749  1.00  0.00     0.041 C 
ATOM     10  O   UNL     1      -8.626 -18.016  -4.878  1.00  0.00    -0.550 OA
ATOM     11  O   UNL     1      -6.651 -17.790  -6.006  1.00  0.00    -0.550 OA
ENDBRANCH   8   9
ENDBRANCH   7   8
ENDBRANCH   6   7
ENDBRANCH   5   6
ENDBRANCH   4   5
ENDBRANCH   3   4
ENDBRANCH   2   3
ENDBRANCH   1   2
BRANCH   1  12
ATOM     12  C   UNL     1      -4.355 -16.131  -2.076  1.00  0.00     0.000 C 
BRANCH  12  13
ATOM     13  C   UNL     1      -4.267 -16.958  -0.777  1.00  0.00    -0.000 C 
BRANCH  13  14
ATOM     14  C   UNL     1      -2.890 -16.957  -0.087  1.00  0.00    -0.000 C 
BRANCH  14  15
ATOM     15  C   UNL     1      -1.998 -18.128  -0.532  1.00  0.00    -0.000 C 
BRANCH  15  16
ATOM     16  C   UNL     1      -0.585 -18.068   0.079  1.00  0.00    -0.000 C 
BRANCH  16  17
ATOM     17  C   UNL     1       0.569 -18.121  -0.938  1.00  0.00    -0.000 C 
BRANCH  17  18
ATOM     18  C   UNL     1       0.111 -17.848  -2.380  1.00  0.00    -0.000 C 
BRANCH  18  19
ATOM     19  C   UNL     1       0.548 -16.464  -2.882  1.00  0.00    -0.003 C 
ATOM     20  C   UNL     1      -0.318 -15.337  -2.323  1.00  0.00     0.004 C 
ENDBRANCH  18  19
ENDBRANCH  17  18
ENDBRANCH  16  17
ENDBRANCH  15  16
ENDBRANCH  14  15
ENDBRANCH  13  14
ENDBRANCH  12  13
ENDBRANCH   1  12
TORSDOF 16
ENDMDL
MODEL 3
REMARK VINA RESULT:    -5.463      5.050      9.144
REMARK INTER + INTRA:         -12.680
REMARK INTER:                 -11.729
REMARK INTRA:                  -0.951
REMARK UNBOUND:                -2.108
REMARK SMILES CCCCCCCCCCCCCCCCCC(=O)[O-]
REMARK SMILES IDX 10 1 11 2 12 3 13 4 14 5 15 6 16 7 17 8 18 9 19 10 20 11
REMARK SMILES IDX 9 12 8 13 7 14 6 15 5 16 4 17 3 18 2 19 1 20
REMARK H PARENT
REMARK Flexibility Score: inf
ROOT
ATOM      1  C   UNL     1      -8.421 -13.665  -5.658  1.00  0.00     0.000 C 
ENDROOT
BRANCH   1   2
ATOM      2  C   UNL     1      -8.718 -15.115  -6.078  1.00  0.00     0.000 C 
BRANCH   2   3
ATOM      3  C   UNL     1      -7.480 -15.839  -6.636  1.00  0.00     0.000 C 
BRANCH   3   4
ATOM      4  C   UNL     1      -7.776 -16.884  -7.731  1.00  0.00     0.000 C 
BRANCH   4   5
ATOM      5  C   UNL     1      -9.087 -16.666  -8.509  1.00  0.00     0.000 C 
BRANCH   5   6
ATOM      6  C   UNL     1      -8.980 -16.849 -10.034  1.00  0.00     0.000 C 
BRANCH   6   7
ATOM      7  C   UNL     1      -9.723 -15.768 -10.850  1.00  0.00     0.006 C 
BRANCH   7   8
ATOM      8  C   UNL     1     -11.163 -16.170 -11.196  1.00  0.00     0.053 C 
BRANCH   8   9
ATOM      9  C   UNL     1     -11.790 -15.186 -12.139  1.00  0.00     0.041 C 
ATOM     10  O   UNL     1     -12.415 -14.192 -11.690  1.00  0.00    -0.550 OA
ATOM     11  O   UNL     1     -11.715 -15.378 -13.514  1.00  0.00    -0.550 OA
ENDBRANCH   8   9
ENDBRANCH   7   8
ENDBRANCH   6   7
ENDBRANCH   5   6
ENDBRANCH   4   5
ENDBRANCH   3   4
ENDBRANCH   2   3
ENDBRANCH   1   2
BRANCH   1  12
ATOM     12  C   UNL     1      -6.976 -13.479  -5.159  1.00  0.00     0.000 C 
BRANCH  12  13
ATOM     13  C   UNL     1      -6.845 -12.973  -3.708  1.00  0.00    -0.000 C 
BRANCH  13  14
ATOM     14  C   UNL     1      -6.464 -14.044  -2.669  1.00  0.00    -0.000 C 
BRANCH  14  15
ATOM     15  C   UNL     1      -6.285 -15.440  -3.288  1.00  0.00    -0.000 C 
BRANCH  15  16
ATOM     16  C   UNL     1      -5.730 -16.471  -2.287  1.00  0.00    -0.000 C 
BRANCH  16  17
ATOM     17  C   UNL     1      -4.317 -16.170  -1.756  1.00  0.00    -0.000 C 
BRANCH  17  18
ATOM     18  C   UNL     1      -3.936 -17.034  -0.542  1.00  0.00    -0.000 C 
BRANCH  18  19
ATOM     19  C   UNL     1      -2.416 -17.149  -0.359  1.00  0.00    -0.003 C 
ATOM     20  C   UNL     1      -1.717 -17.704  -1.599  1.00  0.00     0.004 C 
ENDBRANCH  18  19
ENDBRANCH  17  18
ENDBRANCH  16  17
ENDBRANCH  15  16
ENDBRANCH  14  15
ENDBRANCH  13  14
ENDBRANCH  12  13
ENDBRANCH   1  12
TORSDOF 16
ENDMDL
MODEL 4
REMARK VINA RESULT:    -5.439      2.181      5.169
REMARK INTER + INTRA:         -12.635
REMARK INTER:                 -10.995
REMARK INTRA:                  -1.640
REMARK UNBOUND:                -2.108
REMARK SMILES CCCCCCCCCCCCCCCCCC(=O)[O-]
REMARK SMILES IDX 10 1 11 2 12 3 13 4 14 5 15 6 16 7 17 8 18 9 19 10 20 11
REMARK SMILES IDX 9 12 8 13 7 14 6 15 5 16 4 17 3 18 2 19 1 20
REMARK H PARENT
REMARK Flexibility Score: inf
ROOT
ATOM      1  C   UNL     1      -5.008 -15.808  -1.914  1.00  0.00     0.000 C 
ENDROOT
BRANCH   1   2
ATOM      2  C   UNL     1      -4.076 -16.829  -1.238  1.00  0.00     0.000 C 
BRANCH   2   3
ATOM      3  C   UNL     1      -2.586 -16.507  -1.450  1.00  0.00     0.000 C 
BRANCH   3   4
ATOM      4  C   UNL     1      -1.646 -17.729  -1.424  1.00  0.00     0.000 C 
BRANCH   4   5
ATOM      5  C   UNL     1      -0.155 -17.406  -1.212  1.00  0.00     0.000 C 
BRANCH   5   6
ATOM      6  C   UNL     1       0.526 -18.181  -0.070  1.00  0.00     0.000 C 
BRANCH   6   7
ATOM      7  C   UNL     1      -0.454 -18.724   0.994  1.00  0.00     0.006 C 
BRANCH   7   8
ATOM      8  C   UNL     1      -0.177 -18.166   2.397  1.00  0.00     0.053 C 
BRANCH   8   9
ATOM      9  C   UNL     1      -1.004 -16.943   2.667  1.00  0.00     0.041 C 
ATOM     10  O   UNL     1      -2.057 -16.737   2.013  1.00  0.00    -0.550 OA
ATOM     11  O   UNL     1      -0.599 -16.012   3.617  1.00  0.00    -0.550 OA
ENDBRANCH   8   9
ENDBRANCH   7   8
ENDBRANCH   6   7
ENDBRANCH   5   6
ENDBRANCH   4   5
ENDBRANCH   3   4
ENDBRANCH   2   3
ENDBRANCH   1   2
BRANCH   1  12
ATOM     12  C   UNL     1      -5.666 -16.363  -3.190  1.00  0.00     0.000 C 
BRANCH  12  13
ATOM     13  C   UNL     1      -7.179 -16.641  -3.078  1.00  0.00    -0.000 C 
BRANCH  13  14
ATOM     14  C   UNL     1      -7.849 -17.170  -4.360  1.00  0.00    -0.000 C 
BRANCH  14  15
ATOM     15  C   UNL     1      -6.972 -16.989  -5.610  1.00  0.00    -0.000 C 
BRANCH  15  16
ATOM     16  C   UNL     1      -7.483 -15.873  -6.541  1.00  0.00    -0.000 C 
BRANCH  16  17
ATOM     17  C   UNL     1      -8.735 -15.129  -6.042  1.00  0.00    -0.000 C 
BRANCH  17  18
ATOM     18  C   UNL     1      -8.473 -13.642  -5.751  1.00  0.00    -0.000 C 
BRANCH  18  19
ATOM     19  C   UNL     1      -6.999 -13.360  -5.424  1.00  0.00    -0.003 C 
ATOM     20  C   UNL     1      -6.792 -12.941  -3.970  1.00  0.00     0.004 C 
ENDBRANCH  18  19
ENDBRANCH  17  18
ENDBRANCH  16  17
ENDBRANCH  15  16
ENDBRANCH  14  15
ENDBRANCH  13  14
ENDBRANCH  12  13
ENDBRANCH   1  12
TORSDOF 16
ENDMDL
MODEL 5
REMARK VINA RESULT:    -5.435      3.542      7.680
REMARK INTER + INTRA:         -12.626
REMARK INTER:                 -11.073
REMARK INTRA:                  -1.553
REMARK UNBOUND:                -2.108
REMARK SMILES CCCCCCCCCCCCCCCCCC(=O)[O-]
REMARK SMILES IDX 10 1 11 2 12 3 13 4 14 5 15 6 16 7 17 8 18 9 19 10 20 11
REMARK SMILES IDX 9 12 8 13 7 14 6 15 5 16 4 17 3 18 2 19 1 20
REMARK H PARENT
REMARK Flexibility Score: inf
ROOT
ATOM      1  C   UNL     1      -6.768 -12.973  -3.789  1.00  0.00     0.000 C 
ENDROOT
BRANCH   1   2
ATOM      2  C   UNL     1      -6.908 -13.648  -5.165  1.00  0.00     0.000 C 
BRANCH   2   3
ATOM      3  C   UNL     1      -8.372 -13.770  -5.622  1.00  0.00     0.000 C 
BRANCH   3   4
ATOM      4  C   UNL     1      -8.747 -15.128  -6.250  1.00  0.00     0.000 C 
BRANCH   4   5
ATOM      5  C   UNL     1      -7.566 -15.935  -6.821  1.00  0.00     0.000 C 
BRANCH   5   6
ATOM      6  C   UNL     1      -7.265 -17.258  -6.093  1.00  0.00     0.000 C 
BRANCH   6   7
ATOM      7  C   UNL     1      -8.525 -18.066  -5.710  1.00  0.00     0.006 C 
BRANCH   7   8
ATOM      8  C   UNL     1      -9.113 -18.846  -6.894  1.00  0.00     0.053 C 
BRANCH   8   9
ATOM      9  C   UNL     1     -10.526 -18.424  -7.173  1.00  0.00     0.041 C 
ATOM     10  O   UNL     1     -11.121 -17.651  -6.381  1.00  0.00    -0.550 OA
ATOM     11  O   UNL     1     -11.200 -18.908  -8.288  1.00  0.00    -0.550 OA
ENDBRANCH   8   9
ENDBRANCH   7   8
ENDBRANCH   6   7
ENDBRANCH   5   6
ENDBRANCH   4   5
ENDBRANCH   3   4
ENDBRANCH   2   3
ENDBRANCH   1   2
BRANCH   1  12
ATOM     12  C   UNL     1      -6.452 -13.979  -2.667  1.00  0.00     0.000 C 
BRANCH  12  13
ATOM     13  C   UNL     1      -6.882 -15.433  -2.950  1.00  0.00    -0.000 C 
BRANCH  13  14
ATOM     14  C   UNL     1      -5.783 -16.494  -2.758  1.00  0.00    -0.000 C 
BRANCH  14  15
ATOM     15  C   UNL     1      -4.628 -16.005  -1.869  1.00  0.00    -0.000 C 
BRANCH  15  16
ATOM     16  C   UNL     1      -4.242 -17.020  -0.778  1.00  0.00    -0.000 C 
BRANCH  16  17
ATOM     17  C   UNL     1      -2.733 -17.288  -0.639  1.00  0.00    -0.000 C 
BRANCH  17  18
ATOM     18  C   UNL     1      -1.888 -16.500  -1.654  1.00  0.00    -0.000 C 
BRANCH  18  19
ATOM     19  C   UNL     1      -0.751 -17.341  -2.250  1.00  0.00    -0.003 C 
ATOM     20  C   UNL     1       0.301 -17.725  -1.211  1.00  0.00     0.004 C 
ENDBRANCH  18  19
ENDBRANCH  17  18
ENDBRANCH  16  17
ENDBRANCH  15  16
ENDBRANCH  14  15
ENDBRANCH  13  14
ENDBRANCH  12  13
ENDBRANCH   1  12
TORSDOF 16
ENDMDL
MODEL 6
REMARK VINA RESULT:    -5.428      1.297      2.104
REMARK INTER + INTRA:         -12.613
REMARK INTER:                 -11.367
REMARK INTRA:                  -1.246
REMARK UNBOUND:                -2.108
REMARK SMILES CCCCCCCCCCCCCCCCCC(=O)[O-]
REMARK SMILES IDX 10 1 11 2 12 3 13 4 14 5 15 6 16 7 17 8 18 9 19 10 20 11
REMARK SMILES IDX 9 12 8 13 7 14 6 15 5 16 4 17 3 18 2 19 1 20
REMARK H PARENT
REMARK Flexibility Score: inf
ROOT
ATOM      1  C   UNL     1      -8.310 -13.587  -5.688  1.00  0.00     0.000 C 
ENDROOT
BRANCH   1   2
ATOM      2  C   UNL     1      -6.877 -13.539  -5.132  1.00  0.00     0.000 C 
BRANCH   2   3
ATOM      3  C   UNL     1      -6.803 -12.910  -3.729  1.00  0.00     0.000 C 
BRANCH   3   4
ATOM      4  C   UNL     1      -6.337 -13.864  -2.611  1.00  0.00     0.000 C 
BRANCH   4   5
ATOM      5  C   UNL     1      -6.744 -15.338  -2.794  1.00  0.00     0.000 C 
BRANCH   5   6
ATOM      6  C   UNL     1      -5.574 -16.333  -2.892  1.00  0.00     0.000 C 
BRANCH   6   7
ATOM      7  C   UNL     1      -4.426 -16.055  -1.896  1.00  0.00     0.006 C 
BRANCH   7   8
ATOM      8  C   UNL     1      -4.290 -17.145  -0.825  1.00  0.00     0.053 C 
BRANCH   8   9
ATOM      9  C   UNL     1      -2.883 -17.229  -0.311  1.00  0.00     0.041 C 
ATOM     10  O   UNL     1      -1.965 -17.660  -1.054  1.00  0.00    -0.550 OA
ATOM     11  O   UNL     1      -2.586 -16.862   0.997  1.00  0.00    -0.550 OA
ENDBRANCH   8   9
ENDBRANCH   7   8
ENDBRANCH   6   7
ENDBRANCH   5   6
ENDBRANCH   4   5
ENDBRANCH   3   4
ENDBRANCH   2   3
ENDBRANCH   1   2
BRANCH   1  12
ATOM     12  C   UNL     1      -8.742 -15.010  -6.085  1.00  0.00     0.000 C 
BRANCH  12  13
ATOM     13  C   UNL     1      -7.590 -15.960  -6.475  1.00  0.00    -0.000 C 
BRANCH  13  14
ATOM     14  C   UNL     1      -8.021 -17.296  -7.105  1.00  0.00    -0.000 C 
BRANCH  14  15
ATOM     15  C   UNL     1      -9.155 -17.134  -8.131  1.00  0.00    -0.000 C 
BRANCH  15  16
ATOM     16  C   UNL     1      -8.690 -16.457  -9.434  1.00  0.00    -0.000 C 
BRANCH  16  17
ATOM     17  C   UNL     1      -9.531 -16.792 -10.680  1.00  0.00    -0.000 C 
BRANCH  17  18
ATOM     18  C   UNL     1      -9.833 -15.559 -11.547  1.00  0.00    -0.000 C 
BRANCH  18  19
ATOM     19  C   UNL     1     -11.340 -15.326 -11.730  1.00  0.00    -0.003 C 
ATOM     20  C   UNL     1     -12.184 -16.427 -11.092  1.00  0.00     0.004 C 
ENDBRANCH  18  19
ENDBRANCH  17  18
ENDBRANCH  16  17
ENDBRANCH  15  16
ENDBRANCH  14  15
ENDBRANCH  13  14
ENDBRANCH  12  13
ENDBRANCH   1  12
TORSDOF 16
ENDMDL
MODEL 7
REMARK VINA RESULT:    -5.408      0.953      1.632
REMARK INTER + INTRA:         -12.574
REMARK INTER:                 -11.288
REMARK INTRA:                  -1.287
REMARK UNBOUND:                -2.108
REMARK SMILES CCCCCCCCCCCCCCCCCC(=O)[O-]
REMARK SMILES IDX 10 1 11 2 12 3 13 4 14 5 15 6 16 7 17 8 18 9 19 10 20 11
REMARK SMILES IDX 9 12 8 13 7 14 6 15 5 16 4 17 3 18 2 19 1 20
REMARK H PARENT
REMARK Flexibility Score: inf
ROOT
ATOM      1  C   UNL     1      -6.938 -13.496  -5.214  1.00  0.00     0.000 C 
ENDROOT
BRANCH   1   2
ATOM      2  C   UNL     1      -6.854 -12.892  -3.801  1.00  0.00     0.000 C 
BRANCH   2   3
ATOM      3  C   UNL     1      -6.507 -13.937  -2.726  1.00  0.00     0.000 C 
BRANCH   3   4
ATOM      4  C   UNL     1      -6.870 -15.390  -3.090  1.00  0.00     0.000 C 
BRANCH   4   5
ATOM      5  C   UNL     1      -5.813 -16.445  -2.713  1.00  0.00     0.000 C 
BRANCH   5   6
ATOM      6  C   UNL     1      -4.630 -15.918  -1.881  1.00  0.00     0.000 C 
BRANCH   6   7
ATOM      7  C   UNL     1      -3.982 -16.980  -0.965  1.00  0.00     0.006 C 
BRANCH   7   8
ATOM      8  C   UNL     1      -2.461 -16.818  -0.850  1.00  0.00     0.053 C 
BRANCH   8   9
ATOM      9  C   UNL     1      -1.941 -17.450   0.408  1.00  0.00     0.041 C 
ATOM     10  O   UNL     1      -1.493 -18.624   0.384  1.00  0.00    -0.550 OA
ATOM     11  O   UNL     1      -1.979 -16.758   1.613  1.00  0.00    -0.550 OA
ENDBRANCH   8   9
ENDBRANCH   7   8
ENDBRANCH   6   7
ENDBRANCH   5   6
ENDBRANCH   4   5
ENDBRANCH   3   4
ENDBRANCH   2   3
ENDBRANCH   1   2
BRANCH   1  12
ATOM     12  C   UNL     1      -8.387 -13.763  -5.657  1.00  0.00     0.000 C 
BRANCH  12  13
ATOM     13  C   UNL     1      -8.623 -15.129  -6.334  1.00  0.00    -0.000 C 
BRANCH  13  14
ATOM     14  C   UNL     1      -7.349 -15.909  -6.706  1.00  0.00    -0.000 C 
BRANCH  14  15
ATOM     15  C   UNL     1      -7.537 -17.434  -6.625  1.00  0.00    -0.000 C 
BRANCH  15  16
ATOM     16  C   UNL     1      -8.983 -17.873  -6.919  1.00  0.00    -0.000 C 
BRANCH  16  17
ATOM     17  C   UNL     1      -9.205 -18.503  -8.306  1.00  0.00    -0.000 C 
BRANCH  17  18
ATOM     18  C   UNL     1      -8.600 -17.669  -9.447  1.00  0.00    -0.000 C 
BRANCH  18  19
ATOM     19  C   UNL     1      -9.447 -16.433  -9.783  1.00  0.00    -0.003 C 
ATOM     20  C   UNL     1      -9.485 -16.139 -11.281  1.00  0.00     0.004 C 
ENDBRANCH  18  19
ENDBRANCH  17  18
ENDBRANCH  16  17
ENDBRANCH  15  16
ENDBRANCH  14  15
ENDBRANCH  13  14
ENDBRANCH  12  13
ENDBRANCH   1  12
TORSDOF 16
ENDMDL
MODEL 8
REMARK VINA RESULT:    -5.336      1.937      4.223
REMARK INTER + INTRA:         -12.434
REMARK INTER:                 -10.879
REMARK INTRA:                  -1.556
REMARK UNBOUND:                -2.108
REMARK SMILES CCCCCCCCCCCCCCCCCC(=O)[O-]
REMARK SMILES IDX 10 1 11 2 12 3 13 4 14 5 15 6 16 7 17 8 18 9 19 10 20 11
REMARK SMILES IDX 9 12 8 13 7 14 6 15 5 16 4 17 3 18 2 19 1 20
REMARK H PARENT
REMARK Flexibility Score: inf
ROOT
ATOM      1  C   UNL     1      -6.857 -15.275  -2.672  1.00  0.00     0.000 C 
ENDROOT
BRANCH   1   2
ATOM      2  C   UNL     1      -5.865 -16.451  -2.646  1.00  0.00     0.000 C 
BRANCH   2   3
ATOM      3  C   UNL     1      -4.565 -16.118  -1.893  1.00  0.00     0.000 C 
BRANCH   3   4
ATOM      4  C   UNL     1      -4.164 -17.135  -0.806  1.00  0.00     0.000 C 
BRANCH   4   5
ATOM      5  C   UNL     1      -2.756 -16.940  -0.212  1.00  0.00     0.000 C 
BRANCH   5   6
ATOM      6  C   UNL     1      -1.785 -18.114  -0.433  1.00  0.00     0.000 C 
BRANCH   6   7
ATOM      7  C   UNL     1      -1.234 -18.212  -1.873  1.00  0.00     0.006 C 
BRANCH   7   8
ATOM      8  C   UNL     1       0.198 -17.676  -1.999  1.00  0.00     0.053 C 
BRANCH   8   9
ATOM      9  C   UNL     1       0.235 -16.412  -2.808  1.00  0.00     0.041 C 
ATOM     10  O   UNL     1       0.986 -16.328  -3.812  1.00  0.00    -0.550 OA
ATOM     11  O   UNL     1      -0.534 -15.314  -2.438  1.00  0.00    -0.550 OA
ENDBRANCH   8   9
ENDBRANCH   7   8
ENDBRANCH   6   7
ENDBRANCH   5   6
ENDBRANCH   4   5
ENDBRANCH   3   4
ENDBRANCH   2   3
ENDBRANCH   1   2
BRANCH   1  12
ATOM     12  C   UNL     1      -6.159 -13.919  -2.881  1.00  0.00     0.000 C 
BRANCH  12  13
ATOM     13  C   UNL     1      -6.863 -12.965  -3.868  1.00  0.00    -0.000 C 
BRANCH  13  14
ATOM     14  C   UNL     1      -7.012 -13.497  -5.306  1.00  0.00    -0.000 C 
BRANCH  14  15
ATOM     15  C   UNL     1      -8.437 -13.983  -5.618  1.00  0.00    -0.000 C 
BRANCH  15  16
ATOM     16  C   UNL     1      -8.456 -15.286  -6.440  1.00  0.00    -0.000 C 
BRANCH  16  17
ATOM     17  C   UNL     1      -7.243 -16.210  -6.228  1.00  0.00    -0.000 C 
BRANCH  17  18
ATOM     18  C   UNL     1      -7.485 -17.642  -6.731  1.00  0.00    -0.000 C 
BRANCH  18  19
ATOM     19  C   UNL     1      -7.282 -18.692  -5.629  1.00  0.00    -0.003 C 
ATOM     20  C   UNL     1      -8.261 -18.521  -4.469  1.00  0.00     0.004 C 
ENDBRANCH  18  19
ENDBRANCH  17  18
ENDBRANCH  16  17
ENDBRANCH  15  16
ENDBRANCH  14  15
ENDBRANCH  13  14
ENDBRANCH  12  13
ENDBRANCH   1  12
TORSDOF 16
ENDMDL
MODEL 9
REMARK VINA RESULT:    -5.304      2.083      4.383
REMARK INTER + INTRA:         -12.373
REMARK INTER:                 -11.054
REMARK INTRA:                  -1.319
REMARK UNBOUND:                -2.108
REMARK SMILES CCCCCCCCCCCCCCCCCC(=O)[O-]
REMARK SMILES IDX 10 1 11 2 12 3 13 4 14 5 15 6 16 7 17 8 18 9 19 10 20 11
REMARK SMILES IDX 9 12 8 13 7 14 6 15 5 16 4 17 3 18 2 19 1 20
REMARK H PARENT
REMARK Flexibility Score: inf
ROOT
ATOM      1  C   UNL     1      -6.867 -15.230  -2.730  1.00  0.00     0.000 C 
ENDROOT
BRANCH   1   2
ATOM      2  C   UNL     1      -5.875 -16.403  -2.666  1.00  0.00     0.000 C 
BRANCH   2   3
ATOM      3  C   UNL     1      -4.624 -16.081  -1.829  1.00  0.00     0.000 C 
BRANCH   3   4
ATOM      4  C   UNL     1      -4.187 -17.194  -0.856  1.00  0.00     0.000 C 
BRANCH   4   5
ATOM      5  C   UNL     1      -2.972 -16.854   0.027  1.00  0.00     0.000 C 
BRANCH   5   6
ATOM      6  C   UNL     1      -1.751 -17.773  -0.159  1.00  0.00     0.000 C 
BRANCH   6   7
ATOM      7  C   UNL     1      -0.485 -17.294   0.586  1.00  0.00     0.006 C 
BRANCH   7   8
ATOM      8  C   UNL     1      -0.201 -18.104   1.858  1.00  0.00     0.053 C 
BRANCH   8   9
ATOM      9  C   UNL     1      -0.517 -17.307   3.090  1.00  0.00     0.041 C 
ATOM     10  O   UNL     1      -1.685 -16.886   3.285  1.00  0.00    -0.550 OA
ATOM     11  O   UNL     1       0.480 -17.002   4.009  1.00  0.00    -0.550 OA
ENDBRANCH   8   9
ENDBRANCH   7   8
ENDBRANCH   6   7
ENDBRANCH   5   6
ENDBRANCH   4   5
ENDBRANCH   3   4
ENDBRANCH   2   3
ENDBRANCH   1   2
BRANCH   1  12
ATOM     12  C   UNL     1      -6.170 -13.878  -2.966  1.00  0.00     0.000 C 
BRANCH  12  13
ATOM     13  C   UNL     1      -6.885 -12.936  -3.956  1.00  0.00    -0.000 C 
BRANCH  13  14
ATOM     14  C   UNL     1      -7.074 -13.495  -5.379  1.00  0.00    -0.000 C 
BRANCH  14  15
ATOM     15  C   UNL     1      -8.482 -14.064  -5.616  1.00  0.00    -0.000 C 
BRANCH  15  16
ATOM     16  C   UNL     1      -8.473 -15.345  -6.470  1.00  0.00    -0.000 C 
BRANCH  16  17
ATOM     17  C   UNL     1      -7.251 -16.258  -6.264  1.00  0.00    -0.000 C 
BRANCH  17  18
ATOM     18  C   UNL     1      -7.484 -17.693  -6.764  1.00  0.00    -0.000 C 
BRANCH  18  19
ATOM     19  C   UNL     1      -7.302 -18.738  -5.654  1.00  0.00    -0.003 C 
ATOM     20  C   UNL     1      -8.262 -18.523  -4.485  1.00  0.00     0.004 C 
ENDBRANCH  18  19
ENDBRANCH  17  18
ENDBRANCH  16  17
ENDBRANCH  15  16
ENDBRANCH  14  15
ENDBRANCH  13  14
ENDBRANCH  12  13
ENDBRANCH   1  12
TORSDOF 16
ENDMDL
