MODEL 1
REMARK VINA RESULT:    -6.551      0.000      0.000
REMARK INTER + INTRA:          -8.285
REMARK INTER:                  -7.892
REMARK INTRA:                  -0.393
REMARK UNBOUND:                -0.393
REMARK SMILES O=c1c(O)c(-c2ccc(O)cc2O)oc2cc(O)cc(O)c12
REMARK SMILES IDX 5 1 3 2 2 3 1 4 22 5 20 6 19 7 17 8 16 9 15 10 14 11 6 12
REMARK SMILES IDX 8 13 7 14 9 15 11 16 12 17 10 18 13 20 4 22 21 24 18 26
REMARK H PARENT 10 19 13 21 4 23 21 25 18 27
REMARK Flexibility Score: inf
ROOT
ATOM      1  C   UNL     1      14.308  56.191  32.827  1.00  0.00     0.184 A 
ATOM      2  C   UNL     1      14.017  56.043  31.461  1.00  0.00     0.208 A 
ATOM      3  C   UNL     1      14.488  57.006  30.555  1.00  0.00     0.238 A 
ATOM      4  O   UNL     1      14.177  56.897  29.340  1.00  0.00    -0.285 OA
ATOM      5  C   UNL     1      15.262  58.095  31.024  1.00  0.00     0.111 A 
ATOM      6  C   UNL     1      15.826  59.108  30.191  1.00  0.00     0.134 A 
ATOM      7  C   UNL     1      16.465  60.207  30.777  1.00  0.00     0.093 A 
ATOM      8  C   UNL     1      16.620  60.298  32.159  1.00  0.00     0.123 A 
ATOM      9  C   UNL     1      16.126  59.283  32.981  1.00  0.00     0.094 A 
ATOM     10  C   UNL     1      15.450  58.193  32.428  1.00  0.00     0.146 A 
ATOM     11  O   UNL     1      14.984  57.255  33.245  1.00  0.00    -0.451 OA
ENDROOT
BRANCH   1  12
ATOM     12  C   UNL     1      13.862  55.200  33.833  1.00  0.00     0.063 A 
ATOM     13  C   UNL     1      12.208  54.428  35.443  1.00  0.00     0.047 A 
ATOM     14  C   UNL     1      12.644  55.376  34.513  1.00  0.00     0.020 A 
ATOM     15  C   UNL     1      12.973  53.288  35.698  1.00  0.00     0.119 A 
ATOM     16  C   UNL     1      14.181  53.095  35.015  1.00  0.00     0.093 A 
ATOM     17  C   UNL     1      14.628  54.043  34.083  1.00  0.00     0.130 A 
BRANCH  15  18
ATOM     18  O   UNL     1      12.525  52.351  36.626  1.00  0.00    -0.508 OA
ATOM     19  H   UNL     1      11.731  51.753  36.434  1.00  0.00     0.293 HD
ENDBRANCH  15  18
BRANCH  17  20
ATOM     20  O   UNL     1      15.836  53.843  33.413  1.00  0.00    -0.507 OA
ATOM     21  H   UNL     1      16.585  54.524  33.453  1.00  0.00     0.293 HD
ENDBRANCH  17  20
ENDBRANCH   1  12
BRANCH   2  22
ATOM     22  O   UNL     1      13.240  54.967  31.023  1.00  0.00    -0.502 OA
ATOM     23  H   UNL     1      13.606  54.025  30.955  1.00  0.00     0.293 HD
ENDBRANCH   2  22
BRANCH   6  24
ATOM     24  O   UNL     1      15.808  59.068  28.793  1.00  0.00    -0.507 OA
ATOM     25  H   UNL     1      16.441  59.576  28.195  1.00  0.00     0.293 HD
ENDBRANCH   6  24
BRANCH   8  26
ATOM     26  O   UNL     1      17.276  61.398  32.707  1.00  0.00    -0.508 OA
ATOM     27  H   UNL     1      16.910  62.338  32.610  1.00  0.00     0.293 HD
ENDBRANCH   8  26
TORSDOF 6
ENDMDL
MODEL 2
REMARK VINA RESULT:    -5.930      2.037      6.284
REMARK INTER + INTRA:          -7.537
REMARK INTER:                  -7.205
REMARK INTRA:                  -0.331
REMARK UNBOUND:                -0.393
REMARK SMILES O=c1c(O)c(-c2ccc(O)cc2O)oc2cc(O)cc(O)c12
REMARK SMILES IDX 5 1 3 2 2 3 1 4 22 5 20 6 19 7 17 8 16 9 15 10 14 11 6 12
REMARK SMILES IDX 8 13 7 14 9 15 11 16 12 17 10 18 13 20 4 22 21 24 18 26
REMARK H PARENT 10 19 13 21 4 23 21 25 18 27
REMARK Flexibility Score: inf
ROOT
ATOM      1  C   UNL     1      15.576  56.602  31.760  1.00  0.00     0.184 A 
ATOM      2  C   UNL     1      15.448  56.068  30.467  1.00  0.00     0.208 A 
ATOM      3  C   UNL     1      15.193  54.696  30.318  1.00  0.00     0.238 A 
ATOM      4  O   UNL     1      15.135  54.214  29.157  1.00  0.00    -0.285 OA
ATOM      5  C   UNL     1      15.050  53.878  31.465  1.00  0.00     0.111 A 
ATOM      6  C   UNL     1      14.750  52.482  31.434  1.00  0.00     0.134 A 
ATOM      7  C   UNL     1      14.758  51.748  32.625  1.00  0.00     0.093 A 
ATOM      8  C   UNL     1      14.989  52.367  33.852  1.00  0.00     0.123 A 
ATOM      9  C   UNL     1      15.223  53.742  33.902  1.00  0.00     0.094 A 
ATOM     10  C   UNL     1      15.258  54.496  32.726  1.00  0.00     0.146 A 
ATOM     11  O   UNL     1      15.497  55.799  32.815  1.00  0.00    -0.451 OA
ENDROOT
BRANCH   1  12
ATOM     12  C   UNL     1      15.822  58.044  31.989  1.00  0.00     0.063 A 
ATOM     13  C   UNL     1      15.042  60.223  32.744  1.00  0.00     0.047 A 
ATOM     14  C   UNL     1      14.804  58.868  32.501  1.00  0.00     0.020 A 
ATOM     15  C   UNL     1      16.301  60.773  32.492  1.00  0.00     0.119 A 
ATOM     16  C   UNL     1      17.328  59.959  31.995  1.00  0.00     0.093 A 
ATOM     17  C   UNL     1      17.096  58.598  31.746  1.00  0.00     0.130 A 
BRANCH  15  18
ATOM     18  O   UNL     1      16.524  62.125  32.740  1.00  0.00    -0.508 OA
ATOM     19  H   UNL     1      17.244  62.434  33.382  1.00  0.00     0.293 HD
ENDBRANCH  15  18
BRANCH  17  20
ATOM     20  O   UNL     1      18.125  57.799  31.245  1.00  0.00    -0.507 OA
ATOM     21  H   UNL     1      18.683  57.209  31.852  1.00  0.00     0.293 HD
ENDBRANCH  17  20
ENDBRANCH   1  12
BRANCH   2  22
ATOM     22  O   UNL     1      15.608  56.893  29.350  1.00  0.00    -0.502 OA
ATOM     23  H   UNL     1      15.246  57.839  29.318  1.00  0.00     0.293 HD
ENDBRANCH   2  22
BRANCH   6  24
ATOM     24  O   UNL     1      14.415  51.782  30.271  1.00  0.00    -0.507 OA
ATOM     25  H   UNL     1      14.953  51.025  29.878  1.00  0.00     0.293 HD
ENDBRANCH   6  24
BRANCH   8  26
ATOM     26  O   UNL     1      14.972  51.608  35.020  1.00  0.00    -0.508 OA
ATOM     27  H   UNL     1      15.386  51.948  35.881  1.00  0.00     0.293 HD
ENDBRANCH   8  26
TORSDOF 6
ENDMDL
MODEL 3
REMARK VINA RESULT:    -5.899      2.058      2.329
REMARK INTER + INTRA:          -7.499
REMARK INTER:                  -7.125
REMARK INTRA:                  -0.374
REMARK UNBOUND:                -0.393
REMARK SMILES O=c1c(O)c(-c2ccc(O)cc2O)oc2cc(O)cc(O)c12
REMARK SMILES IDX 5 1 3 2 2 3 1 4 22 5 20 6 19 7 17 8 16 9 15 10 14 11 6 12
REMARK SMILES IDX 8 13 7 14 9 15 11 16 12 17 10 18 13 20 4 22 21 24 18 26
REMARK H PARENT 10 19 13 21 4 23 21 25 18 27
REMARK Flexibility Score: inf
ROOT
ATOM      1  C   UNL     1      14.280  56.500  33.119  1.00  0.00     0.184 A 
ATOM      2  C   UNL     1      12.990  56.929  32.765  1.00  0.00     0.208 A 
ATOM      3  C   UNL     1      12.794  58.268  32.394  1.00  0.00     0.238 A 
ATOM      4  O   UNL     1      11.627  58.659  32.132  1.00  0.00    -0.285 OA
ATOM      5  C   UNL     1      13.896  59.157  32.363  1.00  0.00     0.111 A 
ATOM      6  C   UNL     1      13.821  60.527  31.964  1.00  0.00     0.134 A 
ATOM      7  C   UNL     1      14.949  61.346  32.095  1.00  0.00     0.093 A 
ATOM      8  C   UNL     1      16.164  60.833  32.547  1.00  0.00     0.123 A 
ATOM      9  C   UNL     1      16.264  59.482  32.882  1.00  0.00     0.094 A 
ATOM     10  C   UNL     1      15.147  58.648  32.798  1.00  0.00     0.146 A 
ATOM     11  O   UNL     1      15.282  57.372  33.139  1.00  0.00    -0.451 OA
ENDROOT
BRANCH   1  12
ATOM     12  C   UNL     1      14.561  55.096  33.497  1.00  0.00     0.063 A 
ATOM     13  C   UNL     1      14.224  53.207  34.995  1.00  0.00     0.047 A 
ATOM     14  C   UNL     1      13.982  54.540  34.652  1.00  0.00     0.020 A 
ATOM     15  C   UNL     1      15.034  52.408  34.187  1.00  0.00     0.119 A 
ATOM     16  C   UNL     1      15.605  52.946  33.026  1.00  0.00     0.093 A 
ATOM     17  C   UNL     1      15.370  54.284  32.676  1.00  0.00     0.130 A 
BRANCH  15  18
ATOM     18  O   UNL     1      15.265  51.081  34.542  1.00  0.00    -0.508 OA
ATOM     19  H   UNL     1      15.081  50.320  33.898  1.00  0.00     0.293 HD
ENDBRANCH  15  18
BRANCH  17  20
ATOM     20  O   UNL     1      15.949  54.810  31.520  1.00  0.00    -0.507 OA
ATOM     21  H   UNL     1      15.389  55.247  30.797  1.00  0.00     0.293 HD
ENDBRANCH  17  20
ENDBRANCH   1  12
BRANCH   2  22
ATOM     22  O   UNL     1      11.917  56.035  32.817  1.00  0.00    -0.502 OA
ATOM     23  H   UNL     1      11.425  55.727  31.985  1.00  0.00     0.293 HD
ENDBRANCH   2  22
BRANCH   6  24
ATOM     24  O   UNL     1      12.680  61.118  31.413  1.00  0.00    -0.507 OA
ATOM     25  H   UNL     1      11.765  61.109  31.837  1.00  0.00     0.293 HD
ENDBRANCH   6  24
BRANCH   8  26
ATOM     26  O   UNL     1      17.270  61.674  32.648  1.00  0.00    -0.508 OA
ATOM     27  H   UNL     1      18.183  61.321  32.909  1.00  0.00     0.293 HD
ENDBRANCH   8  26
TORSDOF 6
ENDMDL
MODEL 4
REMARK VINA RESULT:    -5.638      2.969      3.780
REMARK INTER + INTRA:          -7.185
REMARK INTER:                  -6.749
REMARK INTRA:                  -0.436
REMARK UNBOUND:                -0.393
REMARK SMILES O=c1c(O)c(-c2ccc(O)cc2O)oc2cc(O)cc(O)c12
REMARK SMILES IDX 5 1 3 2 2 3 1 4 22 5 20 6 19 7 17 8 16 9 15 10 14 11 6 12
REMARK SMILES IDX 8 13 7 14 9 15 11 16 12 17 10 18 13 20 4 22 21 24 18 26
REMARK H PARENT 10 19 13 21 4 23 21 25 18 27
REMARK Flexibility Score: inf
ROOT
ATOM      1  C   UNL     1      14.276  53.873  32.162  1.00  0.00     0.184 A 
ATOM      2  C   UNL     1      13.233  54.581  32.781  1.00  0.00     0.208 A 
ATOM      3  C   UNL     1      13.352  55.970  32.941  1.00  0.00     0.238 A 
ATOM      4  O   UNL     1      12.440  56.591  33.546  1.00  0.00    -0.285 OA
ATOM      5  C   UNL     1      14.506  56.637  32.461  1.00  0.00     0.111 A 
ATOM      6  C   UNL     1      14.716  58.048  32.533  1.00  0.00     0.134 A 
ATOM      7  C   UNL     1      15.949  58.583  32.143  1.00  0.00     0.093 A 
ATOM      8  C   UNL     1      16.956  57.770  31.623  1.00  0.00     0.123 A 
ATOM      9  C   UNL     1      16.739  56.397  31.492  1.00  0.00     0.094 A 
ATOM     10  C   UNL     1      15.533  55.829  31.907  1.00  0.00     0.146 A 
ATOM     11  O   UNL     1      15.372  54.517  31.778  1.00  0.00    -0.451 OA
ENDROOT
BRANCH   1  12
ATOM     12  C   UNL     1      14.204  52.410  31.941  1.00  0.00     0.063 A 
ATOM     13  C   UNL     1      13.201  50.492  30.829  1.00  0.00     0.047 A 
ATOM     14  C   UNL     1      13.252  51.869  31.060  1.00  0.00     0.020 A 
ATOM     15  C   UNL     1      14.105  49.637  31.463  1.00  0.00     0.119 A 
ATOM     16  C   UNL     1      15.068  50.166  32.333  1.00  0.00     0.093 A 
ATOM     17  C   UNL     1      15.124  51.547  32.572  1.00  0.00     0.130 A 
BRANCH  15  18
ATOM     18  O   UNL     1      14.043  48.267  31.222  1.00  0.00    -0.508 OA
ATOM     19  H   UNL     1      14.203  47.592  31.960  1.00  0.00     0.293 HD
ENDBRANCH  15  18
BRANCH  17  20
ATOM     20  O   UNL     1      16.085  52.062  33.445  1.00  0.00    -0.507 OA
ATOM     21  H   UNL     1      17.016  51.667  33.503  1.00  0.00     0.293 HD
ENDBRANCH  17  20
ENDBRANCH   1  12
BRANCH   2  22
ATOM     22  O   UNL     1      12.110  53.898  33.259  1.00  0.00    -0.502 OA
ATOM     23  H   UNL     1      11.636  53.187  32.716  1.00  0.00     0.293 HD
ENDBRANCH   2  22
BRANCH   6  24
ATOM     24  O   UNL     1      13.743  58.961  32.951  1.00  0.00    -0.507 OA
ATOM     25  H   UNL     1      13.912  59.738  33.571  1.00  0.00     0.293 HD
ENDBRANCH   6  24
BRANCH   8  26
ATOM     26  O   UNL     1      18.165  58.338  31.229  1.00  0.00    -0.508 OA
ATOM     27  H   UNL     1      19.045  58.053  31.642  1.00  0.00     0.293 HD
ENDBRANCH   8  26
TORSDOF 6
ENDMDL
MODEL 5
REMARK VINA RESULT:    -5.259      2.845      6.745
REMARK INTER + INTRA:          -6.728
REMARK INTER:                  -6.335
REMARK INTRA:                  -0.393
REMARK UNBOUND:                -0.393
REMARK SMILES O=c1c(O)c(-c2ccc(O)cc2O)oc2cc(O)cc(O)c12
REMARK SMILES IDX 5 1 3 2 2 3 1 4 22 5 20 6 19 7 17 8 16 9 15 10 14 11 6 12
REMARK SMILES IDX 8 13 7 14 9 15 11 16 12 17 10 18 13 20 4 22 21 24 18 26
REMARK H PARENT 10 19 13 21 4 23 21 25 18 27
REMARK Flexibility Score: inf
ROOT
ATOM      1  C   UNL     1      15.304  55.344  31.942  1.00  0.00     0.184 A 
ATOM      2  C   UNL     1      15.263  54.523  33.081  1.00  0.00     0.208 A 
ATOM      3  C   UNL     1      15.011  53.151  32.924  1.00  0.00     0.238 A 
ATOM      4  O   UNL     1      14.921  52.431  33.953  1.00  0.00    -0.285 OA
ATOM      5  C   UNL     1      14.821  52.614  31.628  1.00  0.00     0.111 A 
ATOM      6  C   UNL     1      14.598  51.232  31.347  1.00  0.00     0.134 A 
ATOM      7  C   UNL     1      14.296  50.832  30.040  1.00  0.00     0.093 A 
ATOM      8  C   UNL     1      14.273  51.752  28.993  1.00  0.00     0.123 A 
ATOM      9  C   UNL     1      14.549  53.097  29.245  1.00  0.00     0.094 A 
ATOM     10  C   UNL     1      14.817  53.532  30.545  1.00  0.00     0.146 A 
ATOM     11  O   UNL     1      15.061  54.822  30.744  1.00  0.00    -0.451 OA
ENDROOT
BRANCH   1  12
ATOM     12  C   UNL     1      15.588  56.794  32.033  1.00  0.00     0.063 A 
ATOM     13  C   UNL     1      14.960  59.024  32.779  1.00  0.00     0.047 A 
ATOM     14  C   UNL     1      14.680  57.660  32.668  1.00  0.00     0.020 A 
ATOM     15  C   UNL     1      16.153  59.542  32.271  1.00  0.00     0.119 A 
ATOM     16  C   UNL     1      17.072  58.687  31.650  1.00  0.00     0.093 A 
ATOM     17  C   UNL     1      16.798  57.317  31.531  1.00  0.00     0.130 A 
BRANCH  15  18
ATOM     18  O   UNL     1      16.418  60.904  32.391  1.00  0.00    -0.508 OA
ATOM     19  H   UNL     1      15.685  61.570  32.604  1.00  0.00     0.293 HD
ENDBRANCH  15  18
BRANCH  17  20
ATOM     20  O   UNL     1      17.719  56.476  30.904  1.00  0.00    -0.507 OA
ATOM     21  H   UNL     1      17.535  56.070  29.995  1.00  0.00     0.293 HD
ENDBRANCH  17  20
ENDBRANCH   1  12
BRANCH   2  22
ATOM     22  O   UNL     1      15.440  55.079  34.351  1.00  0.00    -0.502 OA
ATOM     23  H   UNL     1      15.573  56.073  34.495  1.00  0.00     0.293 HD
ENDBRANCH   2  22
BRANCH   6  24
ATOM     24  O   UNL     1      14.688  50.217  32.305  1.00  0.00    -0.507 OA
ATOM     25  H   UNL     1      14.548  49.236  32.119  1.00  0.00     0.293 HD
ENDBRANCH   6  24
BRANCH   8  26
ATOM     26  O   UNL     1      13.985  51.317  27.701  1.00  0.00    -0.508 OA
ATOM     27  H   UNL     1      14.619  50.713  27.191  1.00  0.00     0.293 HD
ENDBRANCH   8  26
TORSDOF 6
ENDMDL
MODEL 6
REMARK VINA RESULT:    -5.194      2.432      3.506
REMARK INTER + INTRA:          -6.649
REMARK INTER:                  -6.240
REMARK INTRA:                  -0.409
REMARK UNBOUND:                -0.393
REMARK SMILES O=c1c(O)c(-c2ccc(O)cc2O)oc2cc(O)cc(O)c12
REMARK SMILES IDX 5 1 3 2 2 3 1 4 22 5 20 6 19 7 17 8 16 9 15 10 14 11 6 12
REMARK SMILES IDX 8 13 7 14 9 15 11 16 12 17 10 18 13 20 4 22 21 24 18 26
REMARK H PARENT 10 19 13 21 4 23 21 25 18 27
REMARK Flexibility Score: inf
ROOT
ATOM      1  C   UNL     1      15.118  56.378  32.252  1.00  0.00     0.184 A 
ATOM      2  C   UNL     1      16.205  57.111  31.748  1.00  0.00     0.208 A 
ATOM      3  C   UNL     1      16.138  58.513  31.742  1.00  0.00     0.238 A 
ATOM      4  O   UNL     1      17.092  59.162  31.238  1.00  0.00    -0.285 OA
ATOM      5  C   UNL     1      14.993  59.165  32.260  1.00  0.00     0.111 A 
ATOM      6  C   UNL     1      14.834  60.582  32.342  1.00  0.00     0.134 A 
ATOM      7  C   UNL     1      13.608  61.116  32.754  1.00  0.00     0.093 A 
ATOM      8  C   UNL     1      12.557  60.289  33.149  1.00  0.00     0.123 A 
ATOM      9  C   UNL     1      12.722  58.903  33.130  1.00  0.00     0.094 A 
ATOM     10  C   UNL     1      13.921  58.339  32.689  1.00  0.00     0.146 A 
ATOM     11  O   UNL     1      14.032  57.016  32.674  1.00  0.00    -0.451 OA
ENDROOT
BRANCH   1  12
ATOM     12  C   UNL     1      15.132  54.898  32.309  1.00  0.00     0.063 A 
ATOM     13  C   UNL     1      15.534  52.838  33.541  1.00  0.00     0.047 A 
ATOM     14  C   UNL     1      15.547  54.234  33.476  1.00  0.00     0.020 A 
ATOM     15  C   UNL     1      15.097  52.086  32.449  1.00  0.00     0.119 A 
ATOM     16  C   UNL     1      14.668  52.737  31.285  1.00  0.00     0.093 A 
ATOM     17  C   UNL     1      14.680  54.138  31.210  1.00  0.00     0.130 A 
BRANCH  15  18
ATOM     18  O   UNL     1      15.090  50.696  32.529  1.00  0.00    -0.508 OA
ATOM     19  H   UNL     1      14.493  50.206  33.185  1.00  0.00     0.293 HD
ENDBRANCH  15  18
BRANCH  17  20
ATOM     20  O   UNL     1      14.255  54.774  30.043  1.00  0.00    -0.507 OA
ATOM     21  H   UNL     1      14.115  54.263  29.179  1.00  0.00     0.293 HD
ENDBRANCH  17  20
ENDBRANCH   1  12
BRANCH   2  22
ATOM     22  O   UNL     1      17.319  56.444  31.229  1.00  0.00    -0.502 OA
ATOM     23  H   UNL     1      18.259  56.618  31.562  1.00  0.00     0.293 HD
ENDBRANCH   2  22
BRANCH   6  24
ATOM     24  O   UNL     1      15.851  61.498  32.058  1.00  0.00    -0.507 OA
ATOM     25  H   UNL     1      15.770  62.266  31.409  1.00  0.00     0.293 HD
ENDBRANCH   6  24
BRANCH   8  26
ATOM     26  O   UNL     1      11.356  60.855  33.569  1.00  0.00    -0.508 OA
ATOM     27  H   UNL     1      10.848  60.491  34.367  1.00  0.00     0.293 HD
ENDBRANCH   8  26
TORSDOF 6
ENDMDL
MODEL 7
REMARK VINA RESULT:    -5.192      5.385      7.388
REMARK INTER + INTRA:          -6.647
REMARK INTER:                  -6.252
REMARK INTRA:                  -0.395
REMARK UNBOUND:                -0.393
REMARK SMILES O=c1c(O)c(-c2ccc(O)cc2O)oc2cc(O)cc(O)c12
REMARK SMILES IDX 5 1 3 2 2 3 1 4 22 5 20 6 19 7 17 8 16 9 15 10 14 11 6 12
REMARK SMILES IDX 8 13 7 14 9 15 11 16 12 17 10 18 13 20 4 22 21 24 18 26
REMARK H PARENT 10 19 13 21 4 23 21 25 18 27
REMARK Flexibility Score: inf
ROOT
ATOM      1  C   UNL     1      14.915  50.070  31.013  1.00  0.00     0.184 A 
ATOM      2  C   UNL     1      13.660  50.396  30.475  1.00  0.00     0.208 A 
ATOM      3  C   UNL     1      13.002  51.550  30.927  1.00  0.00     0.238 A 
ATOM      4  O   UNL     1      11.853  51.806  30.481  1.00  0.00    -0.285 OA
ATOM      5  C   UNL     1      13.619  52.376  31.898  1.00  0.00     0.111 A 
ATOM      6  C   UNL     1      13.063  53.591  32.400  1.00  0.00     0.134 A 
ATOM      7  C   UNL     1      13.700  54.260  33.452  1.00  0.00     0.093 A 
ATOM      8  C   UNL     1      14.905  53.794  33.976  1.00  0.00     0.123 A 
ATOM      9  C   UNL     1      15.490  52.640  33.453  1.00  0.00     0.094 A 
ATOM     10  C   UNL     1      14.859  51.931  32.428  1.00  0.00     0.146 A 
ATOM     11  O   UNL     1      15.441  50.830  31.967  1.00  0.00    -0.451 OA
ENDROOT
BRANCH   1  12
ATOM     12  C   UNL     1      15.673  48.879  30.563  1.00  0.00     0.063 A 
ATOM     13  C   UNL     1      16.232  46.522  30.799  1.00  0.00     0.047 A 
ATOM     14  C   UNL     1      15.539  47.653  31.238  1.00  0.00     0.020 A 
ATOM     15  C   UNL     1      17.058  46.595  29.676  1.00  0.00     0.119 A 
ATOM     16  C   UNL     1      17.189  47.807  28.987  1.00  0.00     0.093 A 
ATOM     17  C   UNL     1      16.499  48.948  29.422  1.00  0.00     0.130 A 
BRANCH  15  18
ATOM     18  O   UNL     1      17.742  45.458  29.249  1.00  0.00    -0.508 OA
ATOM     19  H   UNL     1      18.002  45.330  28.279  1.00  0.00     0.293 HD
ENDBRANCH  15  18
BRANCH  17  20
ATOM     20  O   UNL     1      16.642  50.152  28.731  1.00  0.00    -0.507 OA
ATOM     21  H   UNL     1      17.080  50.961  29.157  1.00  0.00     0.293 HD
ENDBRANCH  17  20
ENDBRANCH   1  12
BRANCH   2  22
ATOM     22  O   UNL     1      13.065  49.557  29.527  1.00  0.00    -0.502 OA
ATOM     23  H   UNL     1      12.362  48.871  29.774  1.00  0.00     0.293 HD
ENDBRANCH   2  22
BRANCH   6  24
ATOM     24  O   UNL     1      11.910  54.193  31.886  1.00  0.00    -0.507 OA
ATOM     25  H   UNL     1      11.594  54.109  30.932  1.00  0.00     0.293 HD
ENDBRANCH   6  24
BRANCH   8  26
ATOM     26  O   UNL     1      15.521  54.494  35.012  1.00  0.00    -0.508 OA
ATOM     27  H   UNL     1      16.378  54.163  35.440  1.00  0.00     0.293 HD
ENDBRANCH   8  26
TORSDOF 6
ENDMDL
MODEL 8
REMARK VINA RESULT:    -5.157      5.406      7.717
REMARK INTER + INTRA:          -6.606
REMARK INTER:                  -6.361
REMARK INTRA:                  -0.244
REMARK UNBOUND:                -0.393
REMARK SMILES O=c1c(O)c(-c2ccc(O)cc2O)oc2cc(O)cc(O)c12
REMARK SMILES IDX 5 1 3 2 2 3 1 4 22 5 20 6 19 7 17 8 16 9 15 10 14 11 6 12
REMARK SMILES IDX 8 13 7 14 9 15 11 16 12 17 10 18 13 20 4 22 21 24 18 26
REMARK H PARENT 10 19 13 21 4 23 21 25 18 27
REMARK Flexibility Score: inf
ROOT
ATOM      1  C   UNL     1      15.059  51.375  31.122  1.00  0.00     0.184 A 
ATOM      2  C   UNL     1      15.023  51.885  29.814  1.00  0.00     0.208 A 
ATOM      3  C   UNL     1      15.487  51.086  28.757  1.00  0.00     0.238 A 
ATOM      4  O   UNL     1      15.503  51.569  27.595  1.00  0.00    -0.285 OA
ATOM      5  C   UNL     1      15.963  49.779  29.021  1.00  0.00     0.111 A 
ATOM      6  C   UNL     1      16.421  48.866  28.022  1.00  0.00     0.134 A 
ATOM      7  C   UNL     1      16.989  47.647  28.410  1.00  0.00     0.093 A 
ATOM      8  C   UNL     1      17.058  47.278  29.752  1.00  0.00     0.123 A 
ATOM      9  C   UNL     1      16.559  48.137  30.734  1.00  0.00     0.094 A 
ATOM     10  C   UNL     1      16.020  49.376  30.381  1.00  0.00     0.146 A 
ATOM     11  O   UNL     1      15.568  50.169  31.345  1.00  0.00    -0.451 OA
ENDROOT
BRANCH   1  12
ATOM     12  C   UNL     1      14.563  52.156  32.279  1.00  0.00     0.063 A 
ATOM     13  C   UNL     1      12.809  53.463  33.345  1.00  0.00     0.047 A 
ATOM     14  C   UNL     1      13.289  52.750  32.244  1.00  0.00     0.020 A 
ATOM     15  C   UNL     1      13.586  53.584  34.500  1.00  0.00     0.119 A 
ATOM     16  C   UNL     1      14.850  52.984  34.552  1.00  0.00     0.093 A 
ATOM     17  C   UNL     1      15.342  52.268  33.450  1.00  0.00     0.130 A 
BRANCH  15  18
ATOM     18  O   UNL     1      13.093  54.297  35.590  1.00  0.00    -0.508 OA
ATOM     19  H   UNL     1      13.487  54.187  36.517  1.00  0.00     0.293 HD
ENDBRANCH  15  18
BRANCH  17  20
ATOM     20  O   UNL     1      16.606  51.679  33.512  1.00  0.00    -0.507 OA
ATOM     21  H   UNL     1      16.737  50.686  33.359  1.00  0.00     0.293 HD
ENDBRANCH  17  20
ENDBRANCH   1  12
BRANCH   2  22
ATOM     22  O   UNL     1      14.560  53.184  29.581  1.00  0.00    -0.502 OA
ATOM     23  H   UNL     1      15.115  53.878  29.095  1.00  0.00     0.293 HD
ENDBRANCH   2  22
BRANCH   6  24
ATOM     24  O   UNL     1      16.314  49.096  26.647  1.00  0.00    -0.507 OA
ATOM     25  H   UNL     1      15.475  49.397  26.177  1.00  0.00     0.293 HD
ENDBRANCH   6  24
BRANCH   8  26
ATOM     26  O   UNL     1      17.616  46.050  30.101  1.00  0.00    -0.508 OA
ATOM     27  H   UNL     1      17.042  45.280  30.426  1.00  0.00     0.293 HD
ENDBRANCH   8  26
TORSDOF 6
ENDMDL
MODEL 9
REMARK VINA RESULT:    -5.108      6.299     10.069
REMARK INTER + INTRA:          -6.546
REMARK INTER:                  -6.160
REMARK INTRA:                  -0.386
REMARK UNBOUND:                -0.393
REMARK SMILES O=c1c(O)c(-c2ccc(O)cc2O)oc2cc(O)cc(O)c12
REMARK SMILES IDX 5 1 3 2 2 3 1 4 22 5 20 6 19 7 17 8 16 9 15 10 14 11 6 12
REMARK SMILES IDX 8 13 7 14 9 15 11 16 12 17 10 18 13 20 4 22 21 24 18 26
REMARK H PARENT 10 19 13 21 4 23 21 25 18 27
REMARK Flexibility Score: inf
ROOT
ATOM      1  C   UNL     1      15.014  49.337  31.713  1.00  0.00     0.184 A 
ATOM      2  C   UNL     1      15.808  48.835  30.669  1.00  0.00     0.208 A 
ATOM      3  C   UNL     1      15.758  47.465  30.371  1.00  0.00     0.238 A 
ATOM      4  O   UNL     1      16.514  47.012  29.472  1.00  0.00    -0.285 OA
ATOM      5  C   UNL     1      14.897  46.616  31.109  1.00  0.00     0.111 A 
ATOM      6  C   UNL     1      14.735  45.217  30.867  1.00  0.00     0.134 A 
ATOM      7  C   UNL     1      13.953  44.452  31.740  1.00  0.00     0.093 A 
ATOM      8  C   UNL     1      13.276  45.042  32.807  1.00  0.00     0.123 A 
ATOM      9  C   UNL     1      13.379  46.418  33.017  1.00  0.00     0.094 A 
ATOM     10  C   UNL     1      14.181  47.202  32.185  1.00  0.00     0.146 A 
ATOM     11  O   UNL     1      14.262  48.505  32.427  1.00  0.00    -0.451 OA
ENDROOT
BRANCH   1  12
ATOM     12  C   UNL     1      15.001  50.775  32.065  1.00  0.00     0.063 A 
ATOM     13  C   UNL     1      15.854  52.630  33.390  1.00  0.00     0.047 A 
ATOM     14  C   UNL     1      15.844  51.269  33.076  1.00  0.00     0.020 A 
ATOM     15  C   UNL     1      15.034  53.519  32.693  1.00  0.00     0.119 A 
ATOM     16  C   UNL     1      14.200  53.042  31.673  1.00  0.00     0.093 A 
ATOM     17  C   UNL     1      14.182  51.676  31.353  1.00  0.00     0.130 A 
BRANCH  15  18
ATOM     18  O   UNL     1      15.055  54.874  33.017  1.00  0.00    -0.508 OA
ATOM     19  H   UNL     1      15.380  55.198  33.920  1.00  0.00     0.293 HD
ENDBRANCH  15  18
BRANCH  17  20
ATOM     20  O   UNL     1      13.343  51.212  30.339  1.00  0.00    -0.507 OA
ATOM     21  H   UNL     1      12.844  50.334  30.422  1.00  0.00     0.293 HD
ENDBRANCH  17  20
ENDBRANCH   1  12
BRANCH   2  22
ATOM     22  O   UNL     1      16.660  49.691  29.965  1.00  0.00    -0.502 OA
ATOM     23  H   UNL     1      16.818  50.652  30.246  1.00  0.00     0.293 HD
ENDBRANCH   2  22
BRANCH   6  24
ATOM     24  O   UNL     1      15.294  44.544  29.777  1.00  0.00    -0.507 OA
ATOM     25  H   UNL     1      15.123  43.577  29.548  1.00  0.00     0.293 HD
ENDBRANCH   6  24
BRANCH   8  26
ATOM     26  O   UNL     1      12.494  44.252  33.646  1.00  0.00    -0.508 OA
ATOM     27  H   UNL     1      12.891  43.485  34.176  1.00  0.00     0.293 HD
ENDBRANCH   8  26
TORSDOF 6
ENDMDL
