MODEL 1
REMARK VINA RESULT:    -4.160      0.000      0.000
REMARK INTER + INTRA:          -5.614
REMARK INTER:                  -5.376
REMARK INTRA:                  -0.239
REMARK UNBOUND:                -0.239
REMARK SMILES CCCCCCC(=O)[O-]
REMARK SMILES IDX 5 1 6 2 7 3 8 4 9 5 4 6 3 7 2 8 1 9
REMARK H PARENT
REMARK Flexibility Score: inf
ROOT
ATOM      1  C   UNL     1      12.727  12.756 162.433  1.00  0.00     0.006 C 
ENDROOT
BRANCH   1   2
ATOM      2  C   UNL     1      13.893  13.587 162.977  1.00  0.00     0.053 C 
BRANCH   2   3
ATOM      3  C   UNL     1      13.944  14.922 162.304  1.00  0.00     0.041 C 
ATOM      4  O   UNL     1      14.341  15.936 162.937  1.00  0.00    -0.550 OA
ATOM      5  O   UNL     1      13.601  15.038 160.963  1.00  0.00    -0.550 OA
ENDBRANCH   2   3
ENDBRANCH   1   2
BRANCH   1   6
ATOM      6  C   UNL     1      11.411  13.138 163.121  1.00  0.00     0.000 C 
BRANCH   6   7
ATOM      7  C   UNL     1      10.230  13.042 162.143  1.00  0.00    -0.000 C 
BRANCH   7   8
ATOM      8  C   UNL     1      10.386  11.888 161.140  1.00  0.00    -0.003 C 
ATOM      9  C   UNL     1       9.687  10.608 161.599  1.00  0.00     0.004 C 
ENDBRANCH   7   8
ENDBRANCH   6   7
ENDBRANCH   1   6
TORSDOF 5
ENDMDL
MODEL 2
REMARK VINA RESULT:    -4.118      2.470      4.708
REMARK INTER + INTRA:          -5.561
REMARK INTER:                  -5.283
REMARK INTRA:                  -0.278
REMARK UNBOUND:                -0.239
REMARK SMILES CCCCCCC(=O)[O-]
REMARK SMILES IDX 5 1 6 2 7 3 8 4 9 5 4 6 3 7 2 8 1 9
REMARK H PARENT
REMARK Flexibility Score: inf
ROOT
ATOM      1  C   UNL     1      13.137  13.126 162.370  1.00  0.00     0.006 C 
ENDROOT
BRANCH   1   2
ATOM      2  C   UNL     1      11.675  13.209 162.818  1.00  0.00     0.053 C 
BRANCH   2   3
ATOM      3  C   UNL     1      11.591  13.372 164.303  1.00  0.00     0.041 C 
ATOM      4  O   UNL     1      11.302  12.388 165.033  1.00  0.00    -0.550 OA
ATOM      5  O   UNL     1      11.882  14.600 164.885  1.00  0.00    -0.550 OA
ENDBRANCH   2   3
ENDBRANCH   1   2
BRANCH   1   6
ATOM      6  C   UNL     1      13.615  14.468 161.802  1.00  0.00     0.000 C 
BRANCH   6   7
ATOM      7  C   UNL     1      14.687  15.097 162.706  1.00  0.00    -0.000 C 
BRANCH   7   8
ATOM      8  C   UNL     1      15.683  14.061 163.250  1.00  0.00    -0.003 C 
ATOM      9  C   UNL     1      17.044  14.126 162.557  1.00  0.00     0.004 C 
ENDBRANCH   7   8
ENDBRANCH   6   7
ENDBRANCH   1   6
TORSDOF 5
ENDMDL
MODEL 3
REMARK VINA RESULT:    -4.026      1.232      2.339
REMARK INTER + INTRA:          -5.441
REMARK INTER:                  -5.054
REMARK INTRA:                  -0.387
REMARK UNBOUND:                -0.239
REMARK SMILES CCCCCCC(=O)[O-]
REMARK SMILES IDX 5 1 6 2 7 3 8 4 9 5 4 6 3 7 2 8 1 9
REMARK H PARENT
REMARK Flexibility Score: inf
ROOT
ATOM      1  C   UNL     1      12.521  12.746 162.078  1.00  0.00     0.006 C 
ENDROOT
BRANCH   1   2
ATOM      2  C   UNL     1      13.663  13.486 162.781  1.00  0.00     0.053 C 
BRANCH   2   3
ATOM      3  C   UNL     1      13.898  14.817 162.139  1.00  0.00     0.041 C 
ATOM      4  O   UNL     1      13.735  14.960 160.899  1.00  0.00    -0.550 OA
ATOM      5  O   UNL     1      14.249  15.912 162.919  1.00  0.00    -0.550 OA
ENDBRANCH   2   3
ENDBRANCH   1   2
BRANCH   1   6
ATOM      6  C   UNL     1      11.217  12.859 162.878  1.00  0.00     0.000 C 
BRANCH   6   7
ATOM      7  C   UNL     1      10.104  13.490 162.029  1.00  0.00    -0.000 C 
BRANCH   7   8
ATOM      8  C   UNL     1      10.077  15.023 162.134  1.00  0.00    -0.003 C 
ATOM      9  C   UNL     1      10.343  15.713 160.796  1.00  0.00     0.004 C 
ENDBRANCH   7   8
ENDBRANCH   6   7
ENDBRANCH   1   6
TORSDOF 5
ENDMDL
MODEL 4
REMARK VINA RESULT:    -3.990      2.547      4.607
REMARK INTER + INTRA:          -5.395
REMARK INTER:                  -5.133
REMARK INTRA:                  -0.262
REMARK UNBOUND:                -0.239
REMARK SMILES CCCCCCC(=O)[O-]
REMARK SMILES IDX 5 1 6 2 7 3 8 4 9 5 4 6 3 7 2 8 1 9
REMARK H PARENT
REMARK Flexibility Score: inf
ROOT
ATOM      1  C   UNL     1      12.703  12.946 162.337  1.00  0.00     0.006 C 
ENDROOT
BRANCH   1   2
ATOM      2  C   UNL     1      11.304  12.998 162.957  1.00  0.00     0.053 C 
BRANCH   2   3
ATOM      3  C   UNL     1      10.257  12.998 161.889  1.00  0.00     0.041 C 
ATOM      4  O   UNL     1      10.122  11.999 161.134  1.00  0.00    -0.550 OA
ATOM      5  O   UNL     1       9.396  14.081 161.760  1.00  0.00    -0.550 OA
ENDBRANCH   2   3
ENDBRANCH   1   2
BRANCH   1   6
ATOM      6  C   UNL     1      12.950  14.161 161.435  1.00  0.00     0.000 C 
BRANCH   6   7
ATOM      7  C   UNL     1      13.873  15.178 162.123  1.00  0.00    -0.000 C 
BRANCH   7   8
ATOM      8  C   UNL     1      14.685  14.558 163.271  1.00  0.00    -0.003 C 
ATOM      9  C   UNL     1      16.129  14.250 162.876  1.00  0.00     0.004 C 
ENDBRANCH   7   8
ENDBRANCH   6   7
ENDBRANCH   1   6
TORSDOF 5
ENDMDL
MODEL 5
REMARK VINA RESULT:    -3.984      2.375      3.882
REMARK INTER + INTRA:          -5.387
REMARK INTER:                  -4.984
REMARK INTRA:                  -0.403
REMARK UNBOUND:                -0.239
REMARK SMILES CCCCCCC(=O)[O-]
REMARK SMILES IDX 5 1 6 2 7 3 8 4 9 5 4 6 3 7 2 8 1 9
REMARK H PARENT
REMARK Flexibility Score: inf
ROOT
ATOM      1  C   UNL     1      11.429  13.077 162.940  1.00  0.00     0.006 C 
ENDROOT
BRANCH   1   2
ATOM      2  C   UNL     1      11.571  13.419 164.426  1.00  0.00     0.053 C 
BRANCH   2   3
ATOM      3  C   UNL     1      11.397  14.889 164.644  1.00  0.00     0.041 C 
ATOM      4  O   UNL     1      11.972  15.459 165.609  1.00  0.00    -0.550 OA
ATOM      5  O   UNL     1      10.640  15.639 163.752  1.00  0.00    -0.550 OA
ENDBRANCH   2   3
ENDBRANCH   1   2
BRANCH   1   6
ATOM      6  C   UNL     1      12.803  12.893 162.284  1.00  0.00     0.000 C 
BRANCH   6   7
ATOM      7  C   UNL     1      13.263  14.189 161.598  1.00  0.00    -0.000 C 
BRANCH   7   8
ATOM      8  C   UNL     1      14.363  14.916 162.386  1.00  0.00    -0.003 C 
ATOM      9  C   UNL     1      15.162  13.978 163.290  1.00  0.00     0.004 C 
ENDBRANCH   7   8
ENDBRANCH   6   7
ENDBRANCH   1   6
TORSDOF 5
ENDMDL
MODEL 6
REMARK VINA RESULT:    -3.961      2.504      4.087
REMARK INTER + INTRA:          -5.358
REMARK INTER:                  -5.053
REMARK INTRA:                  -0.305
REMARK UNBOUND:                -0.239
REMARK SMILES CCCCCCC(=O)[O-]
REMARK SMILES IDX 5 1 6 2 7 3 8 4 9 5 4 6 3 7 2 8 1 9
REMARK H PARENT
REMARK Flexibility Score: inf
ROOT
ATOM      1  C   UNL     1      12.730  12.789 162.221  1.00  0.00     0.006 C 
ENDROOT
BRANCH   1   2
ATOM      2  C   UNL     1      11.374  12.847 162.931  1.00  0.00     0.053 C 
BRANCH   2   3
ATOM      3  C   UNL     1      10.260  12.871 161.933  1.00  0.00     0.041 C 
ATOM      4  O   UNL     1       9.460  13.843 161.899  1.00  0.00    -0.550 OA
ATOM      5  O   UNL     1      10.135  11.842 161.007  1.00  0.00    -0.550 OA
ENDBRANCH   2   3
ENDBRANCH   1   2
BRANCH   1   6
ATOM      6  C   UNL     1      13.711  13.800 162.825  1.00  0.00     0.000 C 
BRANCH   6   7
ATOM      7  C   UNL     1      13.869  15.026 161.913  1.00  0.00    -0.000 C 
BRANCH   7   8
ATOM      8  C   UNL     1      13.190  14.837 160.547  1.00  0.00    -0.003 C 
ATOM      9  C   UNL     1      12.021  15.798 160.329  1.00  0.00     0.004 C 
ENDBRANCH   7   8
ENDBRANCH   6   7
ENDBRANCH   1   6
TORSDOF 5
ENDMDL
MODEL 7
REMARK VINA RESULT:    -3.937      1.870      2.430
REMARK INTER + INTRA:          -5.327
REMARK INTER:                  -4.924
REMARK INTRA:                  -0.403
REMARK UNBOUND:                -0.239
REMARK SMILES CCCCCCC(=O)[O-]
REMARK SMILES IDX 5 1 6 2 7 3 8 4 9 5 4 6 3 7 2 8 1 9
REMARK H PARENT
REMARK Flexibility Score: inf
ROOT
ATOM      1  C   UNL     1      13.510  14.504 161.867  1.00  0.00     0.006 C 
ENDROOT
BRANCH   1   2
ATOM      2  C   UNL     1      12.847  15.082 160.613  1.00  0.00     0.053 C 
BRANCH   2   3
ATOM      3  C   UNL     1      11.687  15.950 160.986  1.00  0.00     0.041 C 
ATOM      4  O   UNL     1      11.766  16.720 161.979  1.00  0.00    -0.550 OA
ATOM      5  O   UNL     1      10.537  15.945 160.207  1.00  0.00    -0.550 OA
ENDBRANCH   2   3
ENDBRANCH   1   2
BRANCH   1   6
ATOM      6  C   UNL     1      13.043  13.066 162.123  1.00  0.00     0.000 C 
BRANCH   6   7
ATOM      7  C   UNL     1      11.913  13.031 163.163  1.00  0.00    -0.000 C 
BRANCH   7   8
ATOM      8  C   UNL     1      10.533  12.800 162.529  1.00  0.00    -0.003 C 
ATOM      9  C   UNL     1      10.610  12.043 161.203  1.00  0.00     0.004 C 
ENDBRANCH   7   8
ENDBRANCH   6   7
ENDBRANCH   1   6
TORSDOF 5
ENDMDL
MODEL 8
REMARK VINA RESULT:    -3.916      2.643      4.280
REMARK INTER + INTRA:          -5.300
REMARK INTER:                  -4.868
REMARK INTRA:                  -0.432
REMARK UNBOUND:                -0.239
REMARK SMILES CCCCCCC(=O)[O-]
REMARK SMILES IDX 5 1 6 2 7 3 8 4 9 5 4 6 3 7 2 8 1 9
REMARK H PARENT
REMARK Flexibility Score: inf
ROOT
ATOM      1  C   UNL     1      14.010  14.020 163.552  1.00  0.00     0.006 C 
ENDROOT
BRANCH   1   2
ATOM      2  C   UNL     1      12.999  13.158 162.791  1.00  0.00     0.053 C 
BRANCH   2   3
ATOM      3  C   UNL     1      11.678  13.156 163.492  1.00  0.00     0.041 C 
ATOM      4  O   UNL     1      11.625  13.274 164.745  1.00  0.00    -0.550 OA
ATOM      5  O   UNL     1      10.501  13.076 162.758  1.00  0.00    -0.550 OA
ENDBRANCH   2   3
ENDBRANCH   1   2
BRANCH   1   6
ATOM      6  C   UNL     1      14.217  15.370 162.855  1.00  0.00     0.000 C 
BRANCH   6   7
ATOM      7  C   UNL     1      13.515  16.500 163.624  1.00  0.00    -0.000 C 
BRANCH   7   8
ATOM      8  C   UNL     1      12.159  16.878 163.010  1.00  0.00    -0.003 C 
ATOM      9  C   UNL     1      11.010  16.798 164.016  1.00  0.00     0.004 C 
ENDBRANCH   7   8
ENDBRANCH   6   7
ENDBRANCH   1   6
TORSDOF 5
ENDMDL
MODEL 9
REMARK VINA RESULT:    -3.892      2.453      4.467
REMARK INTER + INTRA:          -5.269
REMARK INTER:                  -5.005
REMARK INTRA:                  -0.264
REMARK UNBOUND:                -0.239
REMARK SMILES CCCCCCC(=O)[O-]
REMARK SMILES IDX 5 1 6 2 7 3 8 4 9 5 4 6 3 7 2 8 1 9
REMARK H PARENT
REMARK Flexibility Score: inf
ROOT
ATOM      1  C   UNL     1      12.767  12.797 162.246  1.00  0.00     0.006 C 
ENDROOT
BRANCH   1   2
ATOM      2  C   UNL     1      11.419  13.026 162.937  1.00  0.00     0.053 C 
BRANCH   2   3
ATOM      3  C   UNL     1      10.311  13.039 161.932  1.00  0.00     0.041 C 
ATOM      4  O   UNL     1       9.566  14.048 161.823  1.00  0.00    -0.550 OA
ATOM      5  O   UNL     1      10.133  11.956 161.080  1.00  0.00    -0.550 OA
ENDBRANCH   2   3
ENDBRANCH   1   2
BRANCH   1   6
ATOM      6  C   UNL     1      13.876  13.615 162.918  1.00  0.00     0.000 C 
BRANCH   6   7
ATOM      7  C   UNL     1      14.028  14.990 162.250  1.00  0.00    -0.000 C 
BRANCH   7   8
ATOM      8  C   UNL     1      13.908  16.149 163.251  1.00  0.00    -0.003 C 
ATOM      9  C   UNL     1      12.472  16.647 163.411  1.00  0.00     0.004 C 
ENDBRANCH   7   8
ENDBRANCH   6   7
ENDBRANCH   1   6
TORSDOF 5
ENDMDL
