MODEL 1
REMARK VINA RESULT:    -2.690      0.000      0.000
REMARK INTER + INTRA:          -3.204
REMARK INTER:                  -3.161
REMARK INTRA:                  -0.043
REMARK UNBOUND:                -0.043
REMARK SMILES CCCCC(=O)[O-]
REMARK SMILES IDX 4 1 5 2 6 3 7 4 3 5 2 6 1 7
REMARK H PARENT
REMARK Flexibility Score: inf
ROOT
ATOM      1  C   UNL     1      54.139  17.924  86.079  1.00  0.00     0.053 C 
ENDROOT
BRANCH   1   2
ATOM      2  C   UNL     1      52.865  18.677  85.858  1.00  0.00     0.041 C 
ATOM      3  O   UNL     1      52.232  18.548  84.778  1.00  0.00    -0.550 OA
ATOM      4  O   UNL     1      52.349  19.482  86.866  1.00  0.00    -0.550 OA
ENDBRANCH   1   2
BRANCH   1   5
ATOM      5  C   UNL     1      55.055  18.049  84.858  1.00  0.00     0.006 C 
BRANCH   5   6
ATOM      6  C   UNL     1      56.116  16.943  84.853  1.00  0.00    -0.003 C 
ATOM      7  C   UNL     1      56.080  16.139  86.149  1.00  0.00     0.004 C 
ENDBRANCH   5   6
ENDBRANCH   1   5
TORSDOF 3
ENDMDL
MODEL 2
REMARK VINA RESULT:    -2.680     14.887     16.159
REMARK INTER + INTRA:          -3.193
REMARK INTER:                  -3.164
REMARK INTRA:                  -0.029
REMARK UNBOUND:                -0.043
REMARK SMILES CCCCC(=O)[O-]
REMARK SMILES IDX 4 1 5 2 6 3 7 4 3 5 2 6 1 7
REMARK H PARENT
REMARK Flexibility Score: inf
ROOT
ATOM      1  C   UNL     1      38.533  20.300  80.116  1.00  0.00     0.053 C 
ENDROOT
BRANCH   1   2
ATOM      2  C   UNL     1      37.620  19.289  80.737  1.00  0.00     0.041 C 
ATOM      3  O   UNL     1      37.326  18.234  80.117  1.00  0.00    -0.550 OA
ATOM      4  O   UNL     1      37.134  19.489  82.023  1.00  0.00    -0.550 OA
ENDBRANCH   1   2
BRANCH   1   5
ATOM      5  C   UNL     1      39.719  19.607  79.440  1.00  0.00     0.006 C 
BRANCH   5   6
ATOM      6  C   UNL     1      41.036  19.976  80.132  1.00  0.00    -0.003 C 
ATOM      7  C   UNL     1      42.161  20.152  79.116  1.00  0.00     0.004 C 
ENDBRANCH   5   6
ENDBRANCH   1   5
TORSDOF 3
ENDMDL
MODEL 3
REMARK VINA RESULT:    -2.672      1.131      1.177
REMARK INTER + INTRA:          -3.183
REMARK INTER:                  -3.148
REMARK INTRA:                  -0.036
REMARK UNBOUND:                -0.043
REMARK SMILES CCCCC(=O)[O-]
REMARK SMILES IDX 4 1 5 2 6 3 7 4 3 5 2 6 1 7
REMARK H PARENT
REMARK Flexibility Score: inf
ROOT
ATOM      1  C   UNL     1      53.721  18.215  85.633  1.00  0.00     0.053 C 
ENDROOT
BRANCH   1   2
ATOM      2  C   UNL     1      52.482  18.818  85.048  1.00  0.00     0.041 C 
ATOM      3  O   UNL     1      52.554  19.863  84.350  1.00  0.00    -0.550 OA
ATOM      4  O   UNL     1      51.253  18.196  85.232  1.00  0.00    -0.550 OA
ENDBRANCH   1   2
BRANCH   1   5
ATOM      5  C   UNL     1      54.937  18.534  84.758  1.00  0.00     0.006 C 
BRANCH   5   6
ATOM      6  C   UNL     1      55.775  17.276  84.505  1.00  0.00    -0.003 C 
ATOM      7  C   UNL     1      56.001  16.495  85.796  1.00  0.00     0.004 C 
ENDBRANCH   5   6
ENDBRANCH   1   5
TORSDOF 3
ENDMDL
MODEL 4
REMARK VINA RESULT:    -2.616     16.486     17.187
REMARK INTER + INTRA:          -3.118
REMARK INTER:                  -3.099
REMARK INTRA:                  -0.019
REMARK UNBOUND:                -0.043
REMARK SMILES CCCCC(=O)[O-]
REMARK SMILES IDX 4 1 5 2 6 3 7 4 3 5 2 6 1 7
REMARK H PARENT
REMARK Flexibility Score: inf
ROOT
ATOM      1  C   UNL     1      44.860  30.403  91.499  1.00  0.00     0.053 C 
ENDROOT
BRANCH   1   2
ATOM      2  C   UNL     1      43.659  30.797  92.301  1.00  0.00     0.041 C 
ATOM      3  O   UNL     1      42.616  30.094  92.267  1.00  0.00    -0.550 OA
ATOM      4  O   UNL     1      43.709  31.914  93.125  1.00  0.00    -0.550 OA
ENDBRANCH   1   2
BRANCH   1   5
ATOM      5  C   UNL     1      45.506  31.635  90.860  1.00  0.00     0.006 C 
BRANCH   5   6
ATOM      6  C   UNL     1      46.843  31.275  90.202  1.00  0.00    -0.003 C 
ATOM      7  C   UNL     1      47.020  32.009  88.876  1.00  0.00     0.004 C 
ENDBRANCH   5   6
ENDBRANCH   1   5
TORSDOF 3
ENDMDL
MODEL 5
REMARK VINA RESULT:    -2.538     11.911     12.578
REMARK INTER + INTRA:          -3.026
REMARK INTER:                  -2.951
REMARK INTRA:                  -0.075
REMARK UNBOUND:                -0.043
REMARK SMILES CCCCC(=O)[O-]
REMARK SMILES IDX 4 1 5 2 6 3 7 4 3 5 2 6 1 7
REMARK H PARENT
REMARK Flexibility Score: inf
ROOT
ATOM      1  C   UNL     1      45.687  18.203  77.728  1.00  0.00     0.053 C 
ENDROOT
BRANCH   1   2
ATOM      2  C   UNL     1      45.741  17.764  76.299  1.00  0.00     0.041 C 
ATOM      3  O   UNL     1      45.811  18.616  75.376  1.00  0.00    -0.550 OA
ATOM      4  O   UNL     1      45.766  16.410  75.988  1.00  0.00    -0.550 OA
ENDBRANCH   1   2
BRANCH   1   5
ATOM      5  C   UNL     1      46.264  19.614  77.879  1.00  0.00     0.006 C 
BRANCH   5   6
ATOM      6  C   UNL     1      45.261  20.546  78.567  1.00  0.00    -0.003 C 
ATOM      7  C   UNL     1      43.841  19.997  78.469  1.00  0.00     0.004 C 
ENDBRANCH   5   6
ENDBRANCH   1   5
TORSDOF 3
ENDMDL
MODEL 6
REMARK VINA RESULT:    -2.516      2.239      3.429
REMARK INTER + INTRA:          -3.000
REMARK INTER:                  -2.886
REMARK INTRA:                  -0.114
REMARK UNBOUND:                -0.043
REMARK SMILES CCCCC(=O)[O-]
REMARK SMILES IDX 4 1 5 2 6 3 7 4 3 5 2 6 1 7
REMARK H PARENT
REMARK Flexibility Score: inf
ROOT
ATOM      1  C   UNL     1      55.137  17.729  84.951  1.00  0.00     0.053 C 
ENDROOT
BRANCH   1   2
ATOM      2  C   UNL     1      55.145  17.116  86.317  1.00  0.00     0.041 C 
ATOM      3  O   UNL     1      55.338  15.880  86.455  1.00  0.00    -0.550 OA
ATOM      4  O   UNL     1      54.991  17.917  87.440  1.00  0.00    -0.550 OA
ENDBRANCH   1   2
BRANCH   1   5
ATOM      5  C   UNL     1      54.229  18.962  84.924  1.00  0.00     0.006 C 
BRANCH   5   6
ATOM      6  C   UNL     1      52.755  18.556  84.823  1.00  0.00    -0.003 C 
ATOM      7  C   UNL     1      51.910  19.288  85.862  1.00  0.00     0.004 C 
ENDBRANCH   5   6
ENDBRANCH   1   5
TORSDOF 3
ENDMDL
MODEL 7
REMARK VINA RESULT:    -2.492      1.324      1.910
REMARK INTER + INTRA:          -2.971
REMARK INTER:                  -2.952
REMARK INTRA:                  -0.019
REMARK UNBOUND:                -0.043
REMARK SMILES CCCCC(=O)[O-]
REMARK SMILES IDX 4 1 5 2 6 3 7 4 3 5 2 6 1 7
REMARK H PARENT
REMARK Flexibility Score: inf
ROOT
ATOM      1  C   UNL     1      52.370  18.709  84.717  1.00  0.00     0.053 C 
ENDROOT
BRANCH   1   2
ATOM      2  C   UNL     1      51.180  18.920  85.599  1.00  0.00     0.041 C 
ATOM      3  O   UNL     1      50.108  18.300  85.376  1.00  0.00    -0.550 OA
ATOM      4  O   UNL     1      51.270  19.765  86.698  1.00  0.00    -0.550 OA
ENDBRANCH   1   2
BRANCH   1   5
ATOM      5  C   UNL     1      53.618  18.426  85.559  1.00  0.00     0.006 C 
BRANCH   5   6
ATOM      6  C   UNL     1      54.893  18.593  84.724  1.00  0.00    -0.003 C 
ATOM      7  C   UNL     1      55.657  17.278  84.616  1.00  0.00     0.004 C 
ENDBRANCH   5   6
ENDBRANCH   1   5
TORSDOF 3
ENDMDL
MODEL 8
REMARK VINA RESULT:    -2.489     11.053     12.094
REMARK INTER + INTRA:          -2.968
REMARK INTER:                  -2.856
REMARK INTRA:                  -0.112
REMARK UNBOUND:                -0.043
REMARK SMILES CCCCC(=O)[O-]
REMARK SMILES IDX 4 1 5 2 6 3 7 4 3 5 2 6 1 7
REMARK H PARENT
REMARK Flexibility Score: inf
ROOT
ATOM      1  C   UNL     1      53.239  19.985  73.298  1.00  0.00     0.053 C 
ENDROOT
BRANCH   1   2
ATOM      2  C   UNL     1      54.264  19.174  74.029  1.00  0.00     0.041 C 
ATOM      3  O   UNL     1      54.988  19.712  74.907  1.00  0.00    -0.550 OA
ATOM      4  O   UNL     1      54.383  17.814  73.777  1.00  0.00    -0.550 OA
ENDBRANCH   1   2
BRANCH   1   5
ATOM      5  C   UNL     1      53.258  21.437  73.782  1.00  0.00     0.006 C 
BRANCH   5   6
ATOM      6  C   UNL     1      52.032  21.742  74.650  1.00  0.00    -0.003 C 
ATOM      7  C   UNL     1      52.424  21.924  76.113  1.00  0.00     0.004 C 
ENDBRANCH   5   6
ENDBRANCH   1   5
TORSDOF 3
ENDMDL
MODEL 9
REMARK VINA RESULT:    -2.488     10.545     11.703
REMARK INTER + INTRA:          -2.967
REMARK INTER:                  -2.908
REMARK INTRA:                  -0.059
REMARK UNBOUND:                -0.043
REMARK SMILES CCCCC(=O)[O-]
REMARK SMILES IDX 4 1 5 2 6 3 7 4 3 5 2 6 1 7
REMARK H PARENT
REMARK Flexibility Score: inf
ROOT
ATOM      1  C   UNL     1      45.438  19.290  77.354  1.00  0.00     0.053 C 
ENDROOT
BRANCH   1   2
ATOM      2  C   UNL     1      45.642  18.188  76.362  1.00  0.00     0.041 C 
ATOM      3  O   UNL     1      45.869  18.457  75.153  1.00  0.00    -0.550 OA
ATOM      4  O   UNL     1      45.633  16.864  76.782  1.00  0.00    -0.550 OA
ENDBRANCH   1   2
BRANCH   1   5
ATOM      5  C   UNL     1      46.652  19.410  78.280  1.00  0.00     0.006 C 
BRANCH   5   6
ATOM      6  C   UNL     1      47.712  20.338  77.676  1.00  0.00    -0.003 C 
ATOM      7  C   UNL     1      48.984  20.343  78.519  1.00  0.00     0.004 C 
ENDBRANCH   5   6
ENDBRANCH   1   5
TORSDOF 3
ENDMDL
