MODEL 1
REMARK VINA RESULT:    -3.636      0.000      0.000
REMARK INTER + INTRA:          -4.777
REMARK INTER:                  -4.380
REMARK INTRA:                  -0.397
REMARK UNBOUND:                -0.397
REMARK SMILES O=c1c(O)c(-c2ccc(O)cc2O)oc2cc(O)cc(O)c12
REMARK SMILES IDX 5 1 3 2 2 3 1 4 22 5 20 6 19 7 17 8 16 9 15 10 14 11 6 12
REMARK SMILES IDX 8 13 7 14 9 15 11 16 12 17 10 18 13 20 4 22 21 24 18 26
REMARK H PARENT 10 19 13 21 4 23 21 25 18 27
REMARK Flexibility Score: inf
ROOT
ATOM      1  C   UNL     1       8.652   2.429   5.206  1.00  0.00     0.184 A 
ATOM      2  C   UNL     1       8.824   3.433   6.172  1.00  0.00     0.208 A 
ATOM      3  C   UNL     1       9.264   3.073   7.455  1.00  0.00     0.238 A 
ATOM      4  O   UNL     1       9.468   3.983   8.301  1.00  0.00    -0.285 OA
ATOM      5  C   UNL     1       9.511   1.712   7.759  1.00  0.00     0.111 A 
ATOM      6  C   UNL     1       9.922   1.229   9.038  1.00  0.00     0.134 A 
ATOM      7  C   UNL     1      10.263  -0.121   9.189  1.00  0.00     0.093 A 
ATOM      8  C   UNL     1      10.145  -1.017   8.123  1.00  0.00     0.123 A 
ATOM      9  C   UNL     1       9.689  -0.567   6.887  1.00  0.00     0.094 A 
ATOM     10  C   UNL     1       9.376   0.781   6.696  1.00  0.00     0.146 A 
ATOM     11  O   UNL     1       8.954   1.170   5.498  1.00  0.00    -0.451 OA
ENDROOT
BRANCH   1  12
ATOM     12  C   UNL     1       8.174   2.738   3.841  1.00  0.00     0.063 A 
ATOM     13  C   UNL     1       8.693   3.130   1.499  1.00  0.00     0.047 A 
ATOM     14  C   UNL     1       9.111   2.844   2.801  1.00  0.00     0.020 A 
ATOM     15  C   UNL     1       7.336   3.299   1.217  1.00  0.00     0.119 A 
ATOM     16  C   UNL     1       6.391   3.173   2.243  1.00  0.00     0.093 A 
ATOM     17  C   UNL     1       6.801   2.880   3.553  1.00  0.00     0.130 A 
BRANCH  15  18
ATOM     18  O   UNL     1       6.934   3.588  -0.086  1.00  0.00    -0.508 OA
ATOM     19  H   UNL     1       7.606   3.711  -0.833  1.00  0.00     0.293 HD
ENDBRANCH  15  18
BRANCH  17  20
ATOM     20  O   UNL     1       5.848   2.708   4.557  1.00  0.00    -0.507 OA
ATOM     21  H   UNL     1       5.542   1.786   4.846  1.00  0.00     0.293 HD
ENDBRANCH  17  20
ENDBRANCH   1  12
BRANCH   2  22
ATOM     22  O   UNL     1       8.590   4.770   5.840  1.00  0.00    -0.502 OA
ATOM     23  H   UNL     1       7.983   5.367   6.389  1.00  0.00     0.293 HD
ENDBRANCH   2  22
BRANCH   6  24
ATOM     24  O   UNL     1       9.986   2.021  10.187  1.00  0.00    -0.507 OA
ATOM     25  H   UNL     1       9.184   2.363  10.695  1.00  0.00     0.293 HD
ENDBRANCH   6  24
BRANCH   8  26
ATOM     26  O   UNL     1      10.472  -2.362   8.288  1.00  0.00    -0.508 OA
ATOM     27  H   UNL     1      11.361  -2.734   7.977  1.00  0.00     0.293 HD
ENDBRANCH   8  26
TORSDOF 6
ENDMDL
MODEL 2
REMARK VINA RESULT:    -3.561      1.620      6.654
REMARK INTER + INTRA:          -4.687
REMARK INTER:                  -4.260
REMARK INTRA:                  -0.427
REMARK UNBOUND:                -0.397
REMARK SMILES O=c1c(O)c(-c2ccc(O)cc2O)oc2cc(O)cc(O)c12
REMARK SMILES IDX 5 1 3 2 2 3 1 4 22 5 20 6 19 7 17 8 16 9 15 10 14 11 6 12
REMARK SMILES IDX 8 13 7 14 9 15 11 16 12 17 10 18 13 20 4 22 21 24 18 26
REMARK H PARENT 10 19 13 21 4 23 21 25 18 27
REMARK Flexibility Score: inf
ROOT
ATOM      1  C   UNL     1       8.472   2.984   5.729  1.00  0.00     0.184 A 
ATOM      2  C   UNL     1       7.107   3.272   5.569  1.00  0.00     0.208 A 
ATOM      3  C   UNL     1       6.596   3.445   4.273  1.00  0.00     0.238 A 
ATOM      4  O   UNL     1       5.362   3.650   4.132  1.00  0.00    -0.285 OA
ATOM      5  C   UNL     1       7.461   3.344   3.156  1.00  0.00     0.111 A 
ATOM      6  C   UNL     1       7.060   3.540   1.800  1.00  0.00     0.134 A 
ATOM      7  C   UNL     1       7.971   3.287   0.767  1.00  0.00     0.093 A 
ATOM      8  C   UNL     1       9.287   2.907   1.044  1.00  0.00     0.123 A 
ATOM      9  C   UNL     1       9.704   2.770   2.366  1.00  0.00     0.094 A 
ATOM     10  C   UNL     1       8.808   2.981   3.417  1.00  0.00     0.146 A 
ATOM     11  O   UNL     1       9.245   2.829   4.662  1.00  0.00    -0.451 OA
ENDROOT
BRANCH   1  12
ATOM     12  C   UNL     1       9.076   2.807   7.067  1.00  0.00     0.063 A 
ATOM     13  C   UNL     1       9.915   3.813   9.114  1.00  0.00     0.047 A 
ATOM     14  C   UNL     1       9.349   3.944   7.844  1.00  0.00     0.020 A 
ATOM     15  C   UNL     1      10.201   2.547   9.630  1.00  0.00     0.119 A 
ATOM     16  C   UNL     1       9.911   1.405   8.872  1.00  0.00     0.093 A 
ATOM     17  C   UNL     1       9.337   1.528   7.598  1.00  0.00     0.130 A 
BRANCH  15  18
ATOM     18  O   UNL     1      10.769   2.432  10.897  1.00  0.00    -0.508 OA
ATOM     19  H   UNL     1      10.814   1.542  11.379  1.00  0.00     0.293 HD
ENDBRANCH  15  18
BRANCH  17  20
ATOM     20  O   UNL     1       9.006   0.383   6.873  1.00  0.00    -0.507 OA
ATOM     21  H   UNL     1       9.165  -0.547   7.245  1.00  0.00     0.293 HD
ENDBRANCH  17  20
ENDBRANCH   1  12
BRANCH   2  22
ATOM     22  O   UNL     1       6.273   3.349   6.687  1.00  0.00    -0.502 OA
ATOM     23  H   UNL     1       5.511   2.700   6.842  1.00  0.00     0.293 HD
ENDBRANCH   2  22
BRANCH   6  24
ATOM     24  O   UNL     1       5.799   4.005   1.419  1.00  0.00    -0.507 OA
ATOM     25  H   UNL     1       5.594   4.465   0.545  1.00  0.00     0.293 HD
ENDBRANCH   6  24
BRANCH   8  26
ATOM     26  O   UNL     1      10.190   2.673   0.010  1.00  0.00    -0.508 OA
ATOM     27  H   UNL     1      10.363   3.363  -0.710  1.00  0.00     0.293 HD
ENDBRANCH   8  26
TORSDOF 6
ENDMDL
MODEL 3
REMARK VINA RESULT:    -3.488      1.210      2.858
REMARK INTER + INTRA:          -4.599
REMARK INTER:                  -4.184
REMARK INTRA:                  -0.415
REMARK UNBOUND:                -0.397
REMARK SMILES O=c1c(O)c(-c2ccc(O)cc2O)oc2cc(O)cc(O)c12
REMARK SMILES IDX 5 1 3 2 2 3 1 4 22 5 20 6 19 7 17 8 16 9 15 10 14 11 6 12
REMARK SMILES IDX 8 13 7 14 9 15 11 16 12 17 10 18 13 20 4 22 21 24 18 26
REMARK H PARENT 10 19 13 21 4 23 21 25 18 27
REMARK Flexibility Score: inf
ROOT
ATOM      1  C   UNL     1       8.876   1.904   4.993  1.00  0.00     0.184 A 
ATOM      2  C   UNL     1       9.242   0.561   5.171  1.00  0.00     0.208 A 
ATOM      3  C   UNL     1       9.749   0.154   6.415  1.00  0.00     0.238 A 
ATOM      4  O   UNL     1      10.025  -1.062   6.586  1.00  0.00    -0.285 OA
ATOM      5  C   UNL     1       9.898   1.100   7.458  1.00  0.00     0.111 A 
ATOM      6  C   UNL     1      10.439   0.807   8.747  1.00  0.00     0.134 A 
ATOM      7  C   UNL     1      10.419   1.790   9.744  1.00  0.00     0.093 A 
ATOM      8  C   UNL     1       9.936   3.075   9.479  1.00  0.00     0.123 A 
ATOM      9  C   UNL     1       9.461   3.387   8.207  1.00  0.00     0.094 A 
ATOM     10  C   UNL     1       9.435   2.417   7.203  1.00  0.00     0.146 A 
ATOM     11  O   UNL     1       8.964   2.755   6.008  1.00  0.00    -0.451 OA
ENDROOT
BRANCH   1  12
ATOM     12  C   UNL     1       8.352   2.401   3.703  1.00  0.00     0.063 A 
ATOM     13  C   UNL     1       8.765   2.972   1.376  1.00  0.00     0.047 A 
ATOM     14  C   UNL     1       9.228   2.511   2.611  1.00  0.00     0.020 A 
ATOM     15  C   UNL     1       7.421   3.315   1.212  1.00  0.00     0.119 A 
ATOM     16  C   UNL     1       6.534   3.187   2.289  1.00  0.00     0.093 A 
ATOM     17  C   UNL     1       6.989   2.719   3.531  1.00  0.00     0.130 A 
BRANCH  15  18
ATOM     18  O   UNL     1       6.974   3.777  -0.024  1.00  0.00    -0.508 OA
ATOM     19  H   UNL     1       6.483   3.171  -0.671  1.00  0.00     0.293 HD
ENDBRANCH  15  18
BRANCH  17  20
ATOM     20  O   UNL     1       6.088   2.549   4.582  1.00  0.00    -0.507 OA
ATOM     21  H   UNL     1       6.035   1.681   5.102  1.00  0.00     0.293 HD
ENDBRANCH  17  20
ENDBRANCH   1  12
BRANCH   2  22
ATOM     22  O   UNL     1       9.068  -0.356   4.131  1.00  0.00    -0.502 OA
ATOM     23  H   UNL     1       8.806  -0.070   3.195  1.00  0.00     0.293 HD
ENDBRANCH   2  22
BRANCH   6  24
ATOM     24  O   UNL     1      11.027  -0.414   9.087  1.00  0.00    -0.507 OA
ATOM     25  H   UNL     1      12.005  -0.542   9.299  1.00  0.00     0.293 HD
ENDBRANCH   6  24
BRANCH   8  26
ATOM     26  O   UNL     1       9.935   4.051  10.473  1.00  0.00    -0.508 OA
ATOM     27  H   UNL     1       9.437   3.919  11.345  1.00  0.00     0.293 HD
ENDBRANCH   8  26
TORSDOF 6
ENDMDL
MODEL 4
REMARK VINA RESULT:    -3.477      8.263      9.543
REMARK INTER + INTRA:          -4.586
REMARK INTER:                  -4.300
REMARK INTRA:                  -0.286
REMARK UNBOUND:                -0.397
REMARK SMILES O=c1c(O)c(-c2ccc(O)cc2O)oc2cc(O)cc(O)c12
REMARK SMILES IDX 5 1 3 2 2 3 1 4 22 5 20 6 19 7 17 8 16 9 15 10 14 11 6 12
REMARK SMILES IDX 8 13 7 14 9 15 11 16 12 17 10 18 13 20 4 22 21 24 18 26
REMARK H PARENT 10 19 13 21 4 23 21 25 18 27
REMARK Flexibility Score: inf
ROOT
ATOM      1  C   UNL     1       2.357  -4.623   4.352  1.00  0.00     0.184 A 
ATOM      2  C   UNL     1       3.432  -5.513   4.200  1.00  0.00     0.208 A 
ATOM      3  C   UNL     1       4.422  -5.559   5.193  1.00  0.00     0.238 A 
ATOM      4  O   UNL     1       5.355  -6.396   5.078  1.00  0.00    -0.285 OA
ATOM      5  C   UNL     1       4.332  -4.702   6.317  1.00  0.00     0.111 A 
ATOM      6  C   UNL     1       5.299  -4.635   7.365  1.00  0.00     0.134 A 
ATOM      7  C   UNL     1       5.042  -3.846   8.493  1.00  0.00     0.093 A 
ATOM      8  C   UNL     1       3.883  -3.070   8.580  1.00  0.00     0.123 A 
ATOM      9  C   UNL     1       2.961  -3.084   7.536  1.00  0.00     0.094 A 
ATOM     10  C   UNL     1       3.173  -3.889   6.415  1.00  0.00     0.146 A 
ATOM     11  O   UNL     1       2.263  -3.880   5.447  1.00  0.00    -0.451 OA
ENDROOT
BRANCH   1  12
ATOM     12  C   UNL     1       1.290  -4.514   3.334  1.00  0.00     0.063 A 
ATOM     13  C   UNL     1      -1.058  -4.753   2.755  1.00  0.00     0.047 A 
ATOM     14  C   UNL     1      -0.025  -4.850   3.690  1.00  0.00     0.020 A 
ATOM     15  C   UNL     1      -0.794  -4.305   1.459  1.00  0.00     0.119 A 
ATOM     16  C   UNL     1       0.512  -3.945   1.100  1.00  0.00     0.093 A 
ATOM     17  C   UNL     1       1.554  -4.034   2.035  1.00  0.00     0.130 A 
BRANCH  15  18
ATOM     18  O   UNL     1      -1.833  -4.217   0.535  1.00  0.00    -0.508 OA
ATOM     19  H   UNL     1      -2.725  -4.668   0.695  1.00  0.00     0.293 HD
ENDBRANCH  15  18
BRANCH  17  20
ATOM     20  O   UNL     1       2.840  -3.626   1.682  1.00  0.00    -0.507 OA
ATOM     21  H   UNL     1       3.028  -3.164   0.799  1.00  0.00     0.293 HD
ENDBRANCH  17  20
ENDBRANCH   1  12
BRANCH   2  22
ATOM     22  O   UNL     1       3.487  -6.360   3.089  1.00  0.00    -0.502 OA
ATOM     23  H   UNL     1       3.383  -6.019   2.141  1.00  0.00     0.293 HD
ENDBRANCH   2  22
BRANCH   6  24
ATOM     24  O   UNL     1       6.529  -5.298   7.335  1.00  0.00    -0.507 OA
ATOM     25  H   UNL     1       6.792  -5.993   6.652  1.00  0.00     0.293 HD
ENDBRANCH   6  24
BRANCH   8  26
ATOM     26  O   UNL     1       3.644  -2.276   9.699  1.00  0.00    -0.508 OA
ATOM     27  H   UNL     1       4.302  -1.567   9.997  1.00  0.00     0.293 HD
ENDBRANCH   8  26
TORSDOF 6
ENDMDL
MODEL 5
REMARK VINA RESULT:    -3.476      2.882      5.269
REMARK INTER + INTRA:          -4.584
REMARK INTER:                  -4.174
REMARK INTRA:                  -0.411
REMARK UNBOUND:                -0.397
REMARK SMILES O=c1c(O)c(-c2ccc(O)cc2O)oc2cc(O)cc(O)c12
REMARK SMILES IDX 5 1 3 2 2 3 1 4 22 5 20 6 19 7 17 8 16 9 15 10 14 11 6 12
REMARK SMILES IDX 8 13 7 14 9 15 11 16 12 17 10 18 13 20 4 22 21 24 18 26
REMARK H PARENT 10 19 13 21 4 23 21 25 18 27
REMARK Flexibility Score: inf
ROOT
ATOM      1  C   UNL     1       6.688   3.766   4.475  1.00  0.00     0.184 A 
ATOM      2  C   UNL     1       7.218   2.986   5.516  1.00  0.00     0.208 A 
ATOM      3  C   UNL     1       8.317   2.155   5.250  1.00  0.00     0.238 A 
ATOM      4  O   UNL     1       8.821   1.499   6.199  1.00  0.00    -0.285 OA
ATOM      5  C   UNL     1       8.862   2.104   3.944  1.00  0.00     0.111 A 
ATOM      6  C   UNL     1       9.951   1.268   3.552  1.00  0.00     0.134 A 
ATOM      7  C   UNL     1      10.491   1.395   2.267  1.00  0.00     0.093 A 
ATOM      8  C   UNL     1       9.940   2.282   1.338  1.00  0.00     0.123 A 
ATOM      9  C   UNL     1       8.840   3.060   1.692  1.00  0.00     0.094 A 
ATOM     10  C   UNL     1       8.302   2.981   2.979  1.00  0.00     0.146 A 
ATOM     11  O   UNL     1       7.260   3.748   3.278  1.00  0.00    -0.451 OA
ENDROOT
BRANCH   1  12
ATOM     12  C   UNL     1       5.520   4.648   4.684  1.00  0.00     0.063 A 
ATOM     13  C   UNL     1       4.638   6.775   5.463  1.00  0.00     0.047 A 
ATOM     14  C   UNL     1       5.719   5.914   5.257  1.00  0.00     0.020 A 
ATOM     15  C   UNL     1       3.350   6.389   5.087  1.00  0.00     0.119 A 
ATOM     16  C   UNL     1       3.144   5.137   4.493  1.00  0.00     0.093 A 
ATOM     17  C   UNL     1       4.224   4.269   4.277  1.00  0.00     0.130 A 
BRANCH  15  18
ATOM     18  O   UNL     1       2.281   7.257   5.303  1.00  0.00    -0.508 OA
ATOM     19  H   UNL     1       1.326   6.921   5.349  1.00  0.00     0.293 HD
ENDBRANCH  15  18
BRANCH  17  20
ATOM     20  O   UNL     1       4.015   3.046   3.640  1.00  0.00    -0.507 OA
ATOM     21  H   UNL     1       4.762   2.369   3.529  1.00  0.00     0.293 HD
ENDBRANCH  17  20
ENDBRANCH   1  12
BRANCH   2  22
ATOM     22  O   UNL     1       6.672   3.069   6.799  1.00  0.00    -0.502 OA
ATOM     23  H   UNL     1       6.152   3.878   7.117  1.00  0.00     0.293 HD
ENDBRANCH   2  22
BRANCH   6  24
ATOM     24  O   UNL     1      10.515   0.287   4.371  1.00  0.00    -0.507 OA
ATOM     25  H   UNL     1      11.265  -0.331   4.098  1.00  0.00     0.293 HD
ENDBRANCH   6  24
BRANCH   8  26
ATOM     26  O   UNL     1      10.474   2.390   0.056  1.00  0.00    -0.508 OA
ATOM     27  H   UNL     1      10.242   1.727  -0.673  1.00  0.00     0.293 HD
ENDBRANCH   8  26
TORSDOF 6
ENDMDL
MODEL 6
REMARK VINA RESULT:    -3.473      6.814      7.750
REMARK INTER + INTRA:          -4.580
REMARK INTER:                  -4.296
REMARK INTRA:                  -0.285
REMARK UNBOUND:                -0.397
REMARK SMILES O=c1c(O)c(-c2ccc(O)cc2O)oc2cc(O)cc(O)c12
REMARK SMILES IDX 5 1 3 2 2 3 1 4 22 5 20 6 19 7 17 8 16 9 15 10 14 11 6 12
REMARK SMILES IDX 8 13 7 14 9 15 11 16 12 17 10 18 13 20 4 22 21 24 18 26
REMARK H PARENT 10 19 13 21 4 23 21 25 18 27
REMARK Flexibility Score: inf
ROOT
ATOM      1  C   UNL     1       6.620  -4.346   2.873  1.00  0.00     0.184 A 
ATOM      2  C   UNL     1       7.519  -3.677   3.719  1.00  0.00     0.208 A 
ATOM      3  C   UNL     1       7.284  -3.683   5.103  1.00  0.00     0.238 A 
ATOM      4  O   UNL     1       8.122  -3.128   5.860  1.00  0.00    -0.285 OA
ATOM      5  C   UNL     1       6.144  -4.345   5.620  1.00  0.00     0.111 A 
ATOM      6  C   UNL     1       5.785  -4.381   7.001  1.00  0.00     0.134 A 
ATOM      7  C   UNL     1       4.708  -5.174   7.414  1.00  0.00     0.093 A 
ATOM      8  C   UNL     1       3.936  -5.880   6.487  1.00  0.00     0.123 A 
ATOM      9  C   UNL     1       4.242  -5.804   5.131  1.00  0.00     0.094 A 
ATOM     10  C   UNL     1       5.333  -5.050   4.693  1.00  0.00     0.146 A 
ATOM     11  O   UNL     1       5.596  -5.013   3.391  1.00  0.00    -0.451 OA
ENDROOT
BRANCH   1  12
ATOM     12  C   UNL     1       6.800  -4.362   1.406  1.00  0.00     0.063 A 
ATOM     13  C   UNL     1       8.190  -4.921  -0.508  1.00  0.00     0.047 A 
ATOM     14  C   UNL     1       7.989  -4.886   0.874  1.00  0.00     0.020 A 
ATOM     15  C   UNL     1       7.202  -4.450  -1.375  1.00  0.00     0.119 A 
ATOM     16  C   UNL     1       6.002  -3.946  -0.855  1.00  0.00     0.093 A 
ATOM     17  C   UNL     1       5.790  -3.912   0.531  1.00  0.00     0.130 A 
BRANCH  15  18
ATOM     18  O   UNL     1       7.418  -4.488  -2.751  1.00  0.00    -0.508 OA
ATOM     19  H   UNL     1       6.775  -4.960  -3.376  1.00  0.00     0.293 HD
ENDBRANCH  15  18
BRANCH  17  20
ATOM     20  O   UNL     1       4.573  -3.456   1.036  1.00  0.00    -0.507 OA
ATOM     21  H   UNL     1       4.306  -3.609   2.002  1.00  0.00     0.293 HD
ENDBRANCH  17  20
ENDBRANCH   1  12
BRANCH   2  22
ATOM     22  O   UNL     1       8.646  -3.048   3.183  1.00  0.00    -0.502 OA
ATOM     23  H   UNL     1       8.725  -2.821   2.199  1.00  0.00     0.293 HD
ENDBRANCH   2  22
BRANCH   6  24
ATOM     24  O   UNL     1       6.432  -3.642   7.995  1.00  0.00    -0.507 OA
ATOM     25  H   UNL     1       6.232  -2.679   8.219  1.00  0.00     0.293 HD
ENDBRANCH   6  24
BRANCH   8  26
ATOM     26  O   UNL     1       2.856  -6.654   6.906  1.00  0.00    -0.508 OA
ATOM     27  H   UNL     1       1.981  -6.664   6.396  1.00  0.00     0.293 HD
ENDBRANCH   8  26
TORSDOF 6
ENDMDL
MODEL 7
REMARK VINA RESULT:    -3.464      3.538      7.206
REMARK INTER + INTRA:          -4.570
REMARK INTER:                  -4.180
REMARK INTRA:                  -0.390
REMARK UNBOUND:                -0.397
REMARK SMILES O=c1c(O)c(-c2ccc(O)cc2O)oc2cc(O)cc(O)c12
REMARK SMILES IDX 5 1 3 2 2 3 1 4 22 5 20 6 19 7 17 8 16 9 15 10 14 11 6 12
REMARK SMILES IDX 8 13 7 14 9 15 11 16 12 17 10 18 13 20 4 22 21 24 18 26
REMARK H PARENT 10 19 13 21 4 23 21 25 18 27
REMARK Flexibility Score: inf
ROOT
ATOM      1  C   UNL     1       6.268   3.761   4.639  1.00  0.00     0.184 A 
ATOM      2  C   UNL     1       5.471   3.263   3.597  1.00  0.00     0.208 A 
ATOM      3  C   UNL     1       4.186   3.796   3.408  1.00  0.00     0.238 A 
ATOM      4  O   UNL     1       3.497   3.383   2.440  1.00  0.00    -0.285 OA
ATOM      5  C   UNL     1       3.711   4.809   4.276  1.00  0.00     0.111 A 
ATOM      6  C   UNL     1       2.410   5.393   4.203  1.00  0.00     0.134 A 
ATOM      7  C   UNL     1       2.093   6.478   5.030  1.00  0.00     0.093 A 
ATOM      8  C   UNL     1       3.008   6.958   5.972  1.00  0.00     0.123 A 
ATOM      9  C   UNL     1       4.258   6.356   6.090  1.00  0.00     0.094 A 
ATOM     10  C   UNL     1       4.616   5.295   5.255  1.00  0.00     0.146 A 
ATOM     11  O   UNL     1       5.822   4.757   5.395  1.00  0.00    -0.451 OA
ENDROOT
BRANCH   1  12
ATOM     12  C   UNL     1       7.623   3.232   4.902  1.00  0.00     0.063 A 
ATOM     13  C   UNL     1       9.938   3.010   4.196  1.00  0.00     0.047 A 
ATOM     14  C   UNL     1       8.645   3.491   3.976  1.00  0.00     0.020 A 
ATOM     15  C   UNL     1      10.230   2.277   5.348  1.00  0.00     0.119 A 
ATOM     16  C   UNL     1       9.222   2.032   6.290  1.00  0.00     0.093 A 
ATOM     17  C   UNL     1       7.922   2.517   6.080  1.00  0.00     0.130 A 
BRANCH  15  18
ATOM     18  O   UNL     1      11.523   1.800   5.553  1.00  0.00    -0.508 OA
ATOM     19  H   UNL     1      12.090   1.458   4.786  1.00  0.00     0.293 HD
ENDBRANCH  15  18
BRANCH  17  20
ATOM     20  O   UNL     1       6.939   2.310   7.048  1.00  0.00    -0.507 OA
ATOM     21  H   UNL     1       5.965   2.186   6.798  1.00  0.00     0.293 HD
ENDBRANCH  17  20
ENDBRANCH   1  12
BRANCH   2  22
ATOM     22  O   UNL     1       5.972   2.275   2.744  1.00  0.00    -0.502 OA
ATOM     23  H   UNL     1       6.951   2.015   2.731  1.00  0.00     0.293 HD
ENDBRANCH   2  22
BRANCH   6  24
ATOM     24  O   UNL     1       1.394   4.932   3.363  1.00  0.00    -0.507 OA
ATOM     25  H   UNL     1       0.411   5.121   3.491  1.00  0.00     0.293 HD
ENDBRANCH   6  24
BRANCH   8  26
ATOM     26  O   UNL     1       2.678   8.028   6.800  1.00  0.00    -0.508 OA
ATOM     27  H   UNL     1       2.985   8.971   6.597  1.00  0.00     0.293 HD
ENDBRANCH   8  26
TORSDOF 6
ENDMDL
MODEL 8
REMARK VINA RESULT:    -3.376      6.126      8.620
REMARK INTER + INTRA:          -4.464
REMARK INTER:                  -4.059
REMARK INTRA:                  -0.405
REMARK UNBOUND:                -0.397
REMARK SMILES O=c1c(O)c(-c2ccc(O)cc2O)oc2cc(O)cc(O)c12
REMARK SMILES IDX 5 1 3 2 2 3 1 4 22 5 20 6 19 7 17 8 16 9 15 10 14 11 6 12
REMARK SMILES IDX 8 13 7 14 9 15 11 16 12 17 10 18 13 20 4 22 21 24 18 26
REMARK H PARENT 10 19 13 21 4 23 21 25 18 27
REMARK Flexibility Score: inf
ROOT
ATOM      1  C   UNL     1       5.593  -4.223   7.214  1.00  0.00     0.184 A 
ATOM      2  C   UNL     1       5.549  -4.165   5.812  1.00  0.00     0.208 A 
ATOM      3  C   UNL     1       6.732  -3.896   5.106  1.00  0.00     0.238 A 
ATOM      4  O   UNL     1       6.698  -3.898   3.848  1.00  0.00    -0.285 OA
ATOM      5  C   UNL     1       7.938  -3.672   5.813  1.00  0.00     0.111 A 
ATOM      6  C   UNL     1       9.188  -3.351   5.201  1.00  0.00     0.134 A 
ATOM      7  C   UNL     1      10.344  -3.279   5.989  1.00  0.00     0.093 A 
ATOM      8  C   UNL     1      10.283  -3.452   7.375  1.00  0.00     0.123 A 
ATOM      9  C   UNL     1       9.058  -3.707   7.987  1.00  0.00     0.094 A 
ATOM     10  C   UNL     1       7.895  -3.820   7.223  1.00  0.00     0.146 A 
ATOM     11  O   UNL     1       6.750  -4.074   7.847  1.00  0.00    -0.451 OA
ENDROOT
BRANCH   1  12
ATOM     12  C   UNL     1       4.380  -4.484   8.018  1.00  0.00     0.063 A 
ATOM     13  C   UNL     1       2.679  -6.056   8.757  1.00  0.00     0.047 A 
ATOM     14  C   UNL     1       3.822  -5.773   8.005  1.00  0.00     0.020 A 
ATOM     15  C   UNL     1       2.089  -5.063   9.542  1.00  0.00     0.119 A 
ATOM     16  C   UNL     1       2.652  -3.780   9.580  1.00  0.00     0.093 A 
ATOM     17  C   UNL     1       3.802  -3.489   8.832  1.00  0.00     0.130 A 
BRANCH  15  18
ATOM     18  O   UNL     1       0.947  -5.358  10.284  1.00  0.00    -0.508 OA
ATOM     19  H   UNL     1       0.199  -5.924   9.903  1.00  0.00     0.293 HD
ENDBRANCH  15  18
BRANCH  17  20
ATOM     20  O   UNL     1       4.383  -2.223   8.916  1.00  0.00    -0.507 OA
ATOM     21  H   UNL     1       5.341  -2.057   8.630  1.00  0.00     0.293 HD
ENDBRANCH  17  20
ENDBRANCH   1  12
BRANCH   2  22
ATOM     22  O   UNL     1       4.349  -4.407   5.139  1.00  0.00    -0.502 OA
ATOM     23  H   UNL     1       4.294  -4.460   4.129  1.00  0.00     0.293 HD
ENDBRANCH   2  22
BRANCH   6  24
ATOM     24  O   UNL     1       9.342  -3.070   3.841  1.00  0.00    -0.507 OA
ATOM     25  H   UNL     1       9.998  -3.532   3.229  1.00  0.00     0.293 HD
ENDBRANCH   6  24
BRANCH   8  26
ATOM     26  O   UNL     1      11.436  -3.363   8.152  1.00  0.00    -0.508 OA
ATOM     27  H   UNL     1      12.269  -3.892   7.927  1.00  0.00     0.293 HD
ENDBRANCH   8  26
TORSDOF 6
ENDMDL
MODEL 9
REMARK VINA RESULT:    -3.353      8.964     10.003
REMARK INTER + INTRA:          -4.436
REMARK INTER:                  -4.026
REMARK INTRA:                  -0.410
REMARK UNBOUND:                -0.397
REMARK SMILES O=c1c(O)c(-c2ccc(O)cc2O)oc2cc(O)cc(O)c12
REMARK SMILES IDX 5 1 3 2 2 3 1 4 22 5 20 6 19 7 17 8 16 9 15 10 14 11 6 12
REMARK SMILES IDX 8 13 7 14 9 15 11 16 12 17 10 18 13 20 4 22 21 24 18 26
REMARK H PARENT 10 19 13 21 4 23 21 25 18 27
REMARK Flexibility Score: inf
ROOT
ATOM      1  C   UNL     1       2.253  -5.048   4.277  1.00  0.00     0.184 A 
ATOM      2  C   UNL     1       1.349  -5.980   4.812  1.00  0.00     0.208 A 
ATOM      3  C   UNL     1       1.166  -6.029   6.203  1.00  0.00     0.238 A 
ATOM      4  O   UNL     1       0.315  -6.829   6.672  1.00  0.00    -0.285 OA
ATOM      5  C   UNL     1       1.901  -5.155   7.040  1.00  0.00     0.111 A 
ATOM      6  C   UNL     1       1.824  -5.144   8.466  1.00  0.00     0.134 A 
ATOM      7  C   UNL     1       2.498  -4.150   9.186  1.00  0.00     0.093 A 
ATOM      8  C   UNL     1       3.298  -3.206   8.535  1.00  0.00     0.123 A 
ATOM      9  C   UNL     1       3.425  -3.245   7.149  1.00  0.00     0.094 A 
ATOM     10  C   UNL     1       2.736  -4.202   6.401  1.00  0.00     0.146 A 
ATOM     11  O   UNL     1       2.878  -4.197   5.080  1.00  0.00    -0.451 OA
ENDROOT
BRANCH   1  12
ATOM     12  C   UNL     1       2.505  -4.958   2.824  1.00  0.00     0.063 A 
ATOM     13  C   UNL     1       3.782  -5.690   0.889  1.00  0.00     0.047 A 
ATOM     14  C   UNL     1       3.520  -5.747   2.260  1.00  0.00     0.020 A 
ATOM     15  C   UNL     1       3.024  -4.857   0.062  1.00  0.00     0.119 A 
ATOM     16  C   UNL     1       1.993  -4.083   0.611  1.00  0.00     0.093 A 
ATOM     17  C   UNL     1       1.720  -4.139   1.986  1.00  0.00     0.130 A 
BRANCH  15  18
ATOM     18  O   UNL     1       3.299  -4.808  -1.303  1.00  0.00    -0.508 OA
ATOM     19  H   UNL     1       4.248  -4.744  -1.652  1.00  0.00     0.293 HD
ENDBRANCH  15  18
BRANCH  17  20
ATOM     20  O   UNL     1       0.660  -3.402   2.513  1.00  0.00    -0.507 OA
ATOM     21  H   UNL     1       0.409  -3.458   3.494  1.00  0.00     0.293 HD
ENDBRANCH  17  20
ENDBRANCH   1  12
BRANCH   2  22
ATOM     22  O   UNL     1       0.623  -6.818   3.961  1.00  0.00    -0.502 OA
ATOM     23  H   UNL     1      -0.088  -6.468   3.332  1.00  0.00     0.293 HD
ENDBRANCH   2  22
BRANCH   6  24
ATOM     24  O   UNL     1       1.129  -6.095   9.217  1.00  0.00    -0.507 OA
ATOM     25  H   UNL     1       0.131  -6.094   9.365  1.00  0.00     0.293 HD
ENDBRANCH   6  24
BRANCH   8  26
ATOM     26  O   UNL     1       3.977  -2.230   9.261  1.00  0.00    -0.508 OA
ATOM     27  H   UNL     1       4.761  -1.725   8.867  1.00  0.00     0.293 HD
ENDBRANCH   8  26
TORSDOF 6
ENDMDL
