MODEL 1
REMARK VINA RESULT:    -4.328      0.000      0.000
REMARK INTER + INTRA:          -7.920
REMARK INTER:                  -6.858
REMARK INTRA:                  -1.062
REMARK UNBOUND:                -1.062
REMARK SMILES CCCCCCCCCCCC(=O)[O-]
REMARK SMILES IDX 7 1 8 2 9 3 10 4 11 5 12 6 13 7 14 8 6 9 5 10 4 11 3 12 2 13
REMARK SMILES IDX 1 14
REMARK H PARENT
REMARK Flexibility Score: inf
ROOT
ATOM      1  C   UNL     1     -12.065  -2.861 -23.864  1.00  0.00     0.000 C 
ENDROOT
BRANCH   1   2
ATOM      2  C   UNL     1     -12.032  -1.815 -22.731  1.00  0.00     0.000 C 
BRANCH   2   3
ATOM      3  C   UNL     1     -10.680  -1.102 -22.535  1.00  0.00     0.000 C 
BRANCH   3   4
ATOM      4  C   UNL     1     -10.487  -0.441 -21.155  1.00  0.00     0.006 C 
BRANCH   4   5
ATOM      5  C   UNL     1     -11.715  -0.524 -20.235  1.00  0.00     0.053 C 
BRANCH   5   6
ATOM      6  C   UNL     1     -11.660   0.487 -19.131  1.00  0.00     0.041 C 
ATOM      7  O   UNL     1     -11.952   1.690 -19.359  1.00  0.00    -0.550 OA
ATOM      8  O   UNL     1     -11.318   0.093 -17.843  1.00  0.00    -0.550 OA
ENDBRANCH   5   6
ENDBRANCH   4   5
ENDBRANCH   3   4
ENDBRANCH   2   3
ENDBRANCH   1   2
BRANCH   1   9
ATOM      9  C   UNL     1     -12.981  -2.512 -25.052  1.00  0.00     0.000 C 
BRANCH   9  10
ATOM     10  C   UNL     1     -12.309  -2.749 -26.414  1.00  0.00    -0.000 C 
BRANCH  10  11
ATOM     11  C   UNL     1     -11.746  -1.459 -27.037  1.00  0.00    -0.000 C 
BRANCH  11  12
ATOM     12  C   UNL     1     -10.378  -1.004 -26.489  1.00  0.00    -0.000 C 
BRANCH  12  13
ATOM     13  C   UNL     1     -10.346   0.426 -25.924  1.00  0.00    -0.003 C 
ATOM     14  C   UNL     1     -11.733   0.956 -25.565  1.00  0.00     0.004 C 
ENDBRANCH  12  13
ENDBRANCH  11  12
ENDBRANCH  10  11
ENDBRANCH   9  10
ENDBRANCH   1   9
TORSDOF 10
ENDMDL
MODEL 2
REMARK VINA RESULT:    -4.309      2.705      5.698
REMARK INTER + INTRA:          -7.889
REMARK INTER:                  -7.043
REMARK INTRA:                  -0.846
REMARK UNBOUND:                -1.062
REMARK SMILES CCCCCCCCCCCC(=O)[O-]
REMARK SMILES IDX 7 1 8 2 9 3 10 4 11 5 12 6 13 7 14 8 6 9 5 10 4 11 3 12 2 13
REMARK SMILES IDX 1 14
REMARK H PARENT
REMARK Flexibility Score: inf
ROOT
ATOM      1  C   UNL     1     -13.055  -2.294 -23.679  1.00  0.00     0.000 C 
ENDROOT
BRANCH   1   2
ATOM      2  C   UNL     1     -12.050  -2.979 -24.628  1.00  0.00     0.000 C 
BRANCH   2   3
ATOM      3  C   UNL     1     -12.450  -2.983 -26.116  1.00  0.00     0.000 C 
BRANCH   3   4
ATOM      4  C   UNL     1     -11.957  -1.766 -26.925  1.00  0.00     0.006 C 
BRANCH   4   5
ATOM      5  C   UNL     1     -10.664  -1.130 -26.390  1.00  0.00     0.053 C 
BRANCH   5   6
ATOM      6  C   UNL     1     -10.883   0.273 -25.913  1.00  0.00     0.041 C 
ATOM      7  O   UNL     1     -12.012   0.626 -25.483  1.00  0.00    -0.550 OA
ATOM      8  O   UNL     1      -9.831   1.180 -25.913  1.00  0.00    -0.550 OA
ENDBRANCH   5   6
ENDBRANCH   4   5
ENDBRANCH   3   4
ENDBRANCH   2   3
ENDBRANCH   1   2
BRANCH   1   9
ATOM      9  C   UNL     1     -12.478  -1.853 -22.321  1.00  0.00     0.000 C 
BRANCH   9  10
ATOM     10  C   UNL     1     -11.071  -1.246 -22.439  1.00  0.00    -0.000 C 
BRANCH  10  11
ATOM     11  C   UNL     1     -10.656  -0.451 -21.188  1.00  0.00    -0.000 C 
BRANCH  11  12
ATOM     12  C   UNL     1     -11.609  -0.575 -19.981  1.00  0.00    -0.000 C 
BRANCH  12  13
ATOM     13  C   UNL     1     -11.466   0.531 -18.922  1.00  0.00    -0.003 C 
ATOM     14  C   UNL     1     -12.163   1.831 -19.322  1.00  0.00     0.004 C 
ENDBRANCH  12  13
ENDBRANCH  11  12
ENDBRANCH  10  11
ENDBRANCH   9  10
ENDBRANCH   1   9
TORSDOF 10
ENDMDL
MODEL 3
REMARK VINA RESULT:    -4.294     17.489     19.447
REMARK INTER + INTRA:          -7.867
REMARK INTER:                  -7.221
REMARK INTRA:                  -0.646
REMARK UNBOUND:                -1.062
REMARK SMILES CCCCCCCCCCCC(=O)[O-]
REMARK SMILES IDX 7 1 8 2 9 3 10 4 11 5 12 6 13 7 14 8 6 9 5 10 4 11 3 12 2 13
REMARK SMILES IDX 1 14
REMARK H PARENT
REMARK Flexibility Score: inf
ROOT
ATOM      1  C   UNL     1       5.411   5.837 -23.405  1.00  0.00     0.000 C 
ENDROOT
BRANCH   1   2
ATOM      2  C   UNL     1       6.821   6.463 -23.426  1.00  0.00     0.000 C 
BRANCH   2   3
ATOM      3  C   UNL     1       6.937   7.792 -24.197  1.00  0.00     0.000 C 
BRANCH   3   4
ATOM      4  C   UNL     1       5.979   7.934 -25.398  1.00  0.00     0.006 C 
BRANCH   4   5
ATOM      5  C   UNL     1       6.527   7.367 -26.717  1.00  0.00     0.053 C 
BRANCH   5   6
ATOM      6  C   UNL     1       5.957   6.018 -27.028  1.00  0.00     0.041 C 
ATOM      7  O   UNL     1       6.694   4.998 -27.005  1.00  0.00    -0.550 OA
ATOM      8  O   UNL     1       4.603   5.883 -27.309  1.00  0.00    -0.550 OA
ENDBRANCH   5   6
ENDBRANCH   4   5
ENDBRANCH   3   4
ENDBRANCH   2   3
ENDBRANCH   1   2
BRANCH   1   9
ATOM      9  C   UNL     1       4.752   5.753 -22.016  1.00  0.00     0.000 C 
BRANCH   9  10
ATOM     10  C   UNL     1       5.776   5.734 -20.869  1.00  0.00    -0.000 C 
BRANCH  10  11
ATOM     11  C   UNL     1       5.135   5.453 -19.499  1.00  0.00    -0.000 C 
BRANCH  11  12
ATOM     12  C   UNL     1       3.593   5.487 -19.472  1.00  0.00    -0.000 C 
BRANCH  12  13
ATOM     13  C   UNL     1       2.965   5.475 -18.068  1.00  0.00    -0.003 C 
ATOM     14  C   UNL     1       4.002   5.330 -16.954  1.00  0.00     0.004 C 
ENDBRANCH  12  13
ENDBRANCH  11  12
ENDBRANCH  10  11
ENDBRANCH   9  10
ENDBRANCH   1   9
TORSDOF 10
ENDMDL
MODEL 4
REMARK VINA RESULT:    -4.251      1.269      2.054
REMARK INTER + INTRA:          -7.799
REMARK INTER:                  -6.584
REMARK INTRA:                  -1.215
REMARK UNBOUND:                -1.062
REMARK SMILES CCCCCCCCCCCC(=O)[O-]
REMARK SMILES IDX 7 1 8 2 9 3 10 4 11 5 12 6 13 7 14 8 6 9 5 10 4 11 3 12 2 13
REMARK SMILES IDX 1 14
REMARK H PARENT
REMARK Flexibility Score: inf
ROOT
ATOM      1  C   UNL     1     -12.330  -3.268 -25.189  1.00  0.00     0.000 C 
ENDROOT
BRANCH   1   2
ATOM      2  C   UNL     1     -13.046  -2.425 -24.114  1.00  0.00     0.000 C 
BRANCH   2   3
ATOM      3  C   UNL     1     -12.291  -2.287 -22.777  1.00  0.00     0.000 C 
BRANCH   3   4
ATOM      4  C   UNL     1     -12.525  -0.957 -22.033  1.00  0.00     0.006 C 
BRANCH   4   5
ATOM      5  C   UNL     1     -11.835  -0.868 -20.662  1.00  0.00     0.053 C 
BRANCH   5   6
ATOM      6  C   UNL     1     -11.835   0.529 -20.123  1.00  0.00     0.041 C 
ATOM      7  O   UNL     1     -10.924   1.335 -20.451  1.00  0.00    -0.550 OA
ATOM      8  O   UNL     1     -12.860   0.952 -19.286  1.00  0.00    -0.550 OA
ENDBRANCH   5   6
ENDBRANCH   4   5
ENDBRANCH   3   4
ENDBRANCH   2   3
ENDBRANCH   1   2
BRANCH   1   9
ATOM      9  C   UNL     1     -12.336  -2.666 -26.606  1.00  0.00     0.000 C 
BRANCH   9  10
ATOM     10  C   UNL     1     -11.924  -1.185 -26.627  1.00  0.00    -0.000 C 
BRANCH  10  11
ATOM     11  C   UNL     1     -10.420  -0.978 -26.374  1.00  0.00    -0.000 C 
BRANCH  11  12
ATOM     12  C   UNL     1     -10.063  -0.297 -25.037  1.00  0.00    -0.000 C 
BRANCH  12  13
ATOM     13  C   UNL     1      -8.830  -0.874 -24.321  1.00  0.00    -0.003 C 
ATOM     14  C   UNL     1      -8.854  -0.638 -22.811  1.00  0.00     0.004 C 
ENDBRANCH  12  13
ENDBRANCH  11  12
ENDBRANCH  10  11
ENDBRANCH   9  10
ENDBRANCH   1   9
TORSDOF 10
ENDMDL
MODEL 5
REMARK VINA RESULT:    -4.218      2.826      5.012
REMARK INTER + INTRA:          -7.745
REMARK INTER:                  -6.481
REMARK INTRA:                  -1.265
REMARK UNBOUND:                -1.062
REMARK SMILES CCCCCCCCCCCC(=O)[O-]
REMARK SMILES IDX 7 1 8 2 9 3 10 4 11 5 12 6 13 7 14 8 6 9 5 10 4 11 3 12 2 13
REMARK SMILES IDX 1 14
REMARK H PARENT
REMARK Flexibility Score: inf
ROOT
ATOM      1  C   UNL     1     -11.961  -2.826 -24.123  1.00  0.00     0.000 C 
ENDROOT
BRANCH   1   2
ATOM      2  C   UNL     1     -12.366  -3.404 -25.495  1.00  0.00     0.000 C 
BRANCH   2   3
ATOM      3  C   UNL     1     -12.405  -2.385 -26.650  1.00  0.00     0.000 C 
BRANCH   3   4
ATOM      4  C   UNL     1     -11.601  -1.092 -26.405  1.00  0.00     0.006 C 
BRANCH   4   5
ATOM      5  C   UNL     1     -12.466   0.161 -26.191  1.00  0.00     0.053 C 
BRANCH   5   6
ATOM      6  C   UNL     1     -11.649   1.339 -25.757  1.00  0.00     0.041 C 
ATOM      7  O   UNL     1     -12.192   2.293 -25.140  1.00  0.00    -0.550 OA
ATOM      8  O   UNL     1     -10.282   1.367 -26.004  1.00  0.00    -0.550 OA
ENDBRANCH   5   6
ENDBRANCH   4   5
ENDBRANCH   3   4
ENDBRANCH   2   3
ENDBRANCH   1   2
BRANCH   1   9
ATOM      9  C   UNL     1     -13.125  -2.289 -23.270  1.00  0.00     0.000 C 
BRANCH   9  10
ATOM     10  C   UNL     1     -12.722  -1.089 -22.397  1.00  0.00    -0.000 C 
BRANCH  10  11
ATOM     11  C   UNL     1     -11.635  -1.440 -21.364  1.00  0.00    -0.000 C 
BRANCH  11  12
ATOM     12  C   UNL     1     -10.404  -0.511 -21.361  1.00  0.00    -0.000 C 
BRANCH  12  13
ATOM     13  C   UNL     1     -10.025   0.072 -22.733  1.00  0.00    -0.003 C 
ATOM     14  C   UNL     1      -8.996  -0.778 -23.477  1.00  0.00     0.004 C 
ENDBRANCH  12  13
ENDBRANCH  11  12
ENDBRANCH  10  11
ENDBRANCH   9  10
ENDBRANCH   1   9
TORSDOF 10
ENDMDL
MODEL 6
REMARK VINA RESULT:    -4.175     17.518     19.425
REMARK INTER + INTRA:          -7.677
REMARK INTER:                  -6.719
REMARK INTRA:                  -0.959
REMARK UNBOUND:                -1.062
REMARK SMILES CCCCCCCCCCCC(=O)[O-]
REMARK SMILES IDX 7 1 8 2 9 3 10 4 11 5 12 6 13 7 14 8 6 9 5 10 4 11 3 12 2 13
REMARK SMILES IDX 1 14
REMARK H PARENT
REMARK Flexibility Score: inf
ROOT
ATOM      1  C   UNL     1       7.072   7.455 -24.072  1.00  0.00     0.000 C 
ENDROOT
BRANCH   1   2
ATOM      2  C   UNL     1       6.017   7.831 -25.132  1.00  0.00     0.000 C 
BRANCH   2   3
ATOM      3  C   UNL     1       6.530   7.870 -26.584  1.00  0.00     0.000 C 
BRANCH   3   4
ATOM      4  C   UNL     1       6.122   6.662 -27.452  1.00  0.00     0.006 C 
BRANCH   4   5
ATOM      5  C   UNL     1       4.993   5.806 -26.856  1.00  0.00     0.053 C 
BRANCH   5   6
ATOM      6  C   UNL     1       5.447   4.412 -26.550  1.00  0.00     0.041 C 
ATOM      7  O   UNL     1       6.625   4.200 -26.159  1.00  0.00    -0.550 OA
ATOM      8  O   UNL     1       4.558   3.350 -26.664  1.00  0.00    -0.550 OA
ENDBRANCH   5   6
ENDBRANCH   4   5
ENDBRANCH   3   4
ENDBRANCH   2   3
ENDBRANCH   1   2
BRANCH   1   9
ATOM      9  C   UNL     1       6.726   6.227 -23.209  1.00  0.00     0.000 C 
BRANCH   9  10
ATOM     10  C   UNL     1       5.218   5.929 -23.172  1.00  0.00    -0.000 C 
BRANCH  10  11
ATOM     11  C   UNL     1       4.716   5.559 -21.765  1.00  0.00    -0.000 C 
BRANCH  11  12
ATOM     12  C   UNL     1       5.661   5.937 -20.607  1.00  0.00    -0.000 C 
BRANCH  12  13
ATOM     13  C   UNL     1       5.226   5.434 -19.220  1.00  0.00    -0.003 C 
ATOM     14  C   UNL     1       3.707   5.378 -19.057  1.00  0.00     0.004 C 
ENDBRANCH  12  13
ENDBRANCH  11  12
ENDBRANCH  10  11
ENDBRANCH   9  10
ENDBRANCH   1   9
TORSDOF 10
ENDMDL
MODEL 7
REMARK VINA RESULT:    -4.149      3.252      6.861
REMARK INTER + INTRA:          -7.637
REMARK INTER:                  -7.150
REMARK INTRA:                  -0.487
REMARK UNBOUND:                -1.062
REMARK SMILES CCCCCCCCCCCC(=O)[O-]
REMARK SMILES IDX 7 1 8 2 9 3 10 4 11 5 12 6 13 7 14 8 6 9 5 10 4 11 3 12 2 13
REMARK SMILES IDX 1 14
REMARK H PARENT
REMARK Flexibility Score: inf
ROOT
ATOM      1  C   UNL     1     -10.762  -1.072 -22.690  1.00  0.00     0.000 C 
ENDROOT
BRANCH   1   2
ATOM      2  C   UNL     1     -12.018  -1.964 -22.771  1.00  0.00     0.000 C 
BRANCH   2   3
ATOM      3  C   UNL     1     -12.040  -2.963 -23.944  1.00  0.00     0.000 C 
BRANCH   3   4
ATOM      4  C   UNL     1     -13.017  -2.607 -25.083  1.00  0.00     0.006 C 
BRANCH   4   5
ATOM      5  C   UNL     1     -12.358  -2.470 -26.465  1.00  0.00     0.053 C 
BRANCH   5   6
ATOM      6  C   UNL     1     -11.641  -1.164 -26.617  1.00  0.00     0.041 C 
ATOM      7  O   UNL     1     -12.291  -0.086 -26.669  1.00  0.00    -0.550 OA
ATOM      8  O   UNL     1     -10.253  -1.134 -26.667  1.00  0.00    -0.550 OA
ENDBRANCH   5   6
ENDBRANCH   4   5
ENDBRANCH   3   4
ENDBRANCH   2   3
ENDBRANCH   1   2
BRANCH   1   9
ATOM      9  C   UNL     1     -10.530  -0.389 -21.330  1.00  0.00     0.000 C 
BRANCH   9  10
ATOM     10  C   UNL     1     -11.674  -0.637 -20.334  1.00  0.00    -0.000 C 
BRANCH  10  11
ATOM     11  C   UNL     1     -11.741   0.427 -19.223  1.00  0.00    -0.000 C 
BRANCH  11  12
ATOM     12  C   UNL     1     -10.501   0.507 -18.310  1.00  0.00    -0.000 C 
BRANCH  12  13
ATOM     13  C   UNL     1     -10.740   0.091 -16.849  1.00  0.00    -0.003 C 
ATOM     14  C   UNL     1      -9.465   0.122 -16.006  1.00  0.00     0.004 C 
ENDBRANCH  12  13
ENDBRANCH  11  12
ENDBRANCH  10  11
ENDBRANCH   9  10
ENDBRANCH   1   9
TORSDOF 10
ENDMDL
MODEL 8
REMARK VINA RESULT:    -4.124      2.981      5.047
REMARK INTER + INTRA:          -7.597
REMARK INTER:                  -6.548
REMARK INTRA:                  -1.049
REMARK UNBOUND:                -1.062
REMARK SMILES CCCCCCCCCCCC(=O)[O-]
REMARK SMILES IDX 7 1 8 2 9 3 10 4 11 5 12 6 13 7 14 8 6 9 5 10 4 11 3 12 2 13
REMARK SMILES IDX 1 14
REMARK H PARENT
REMARK Flexibility Score: inf
ROOT
ATOM      1  C   UNL     1     -11.972  -1.377 -26.888  1.00  0.00     0.000 C 
ENDROOT
BRANCH   1   2
ATOM      2  C   UNL     1     -10.454  -1.103 -26.855  1.00  0.00     0.000 C 
BRANCH   2   3
ATOM      3  C   UNL     1      -9.952  -0.342 -25.612  1.00  0.00     0.000 C 
BRANCH   3   4
ATOM      4  C   UNL     1     -10.966   0.647 -25.001  1.00  0.00     0.006 C 
BRANCH   4   5
ATOM      5  C   UNL     1     -10.970   2.036 -25.657  1.00  0.00     0.053 C 
BRANCH   5   6
ATOM      6  C   UNL     1     -12.360   2.519 -25.941  1.00  0.00     0.041 C 
ATOM      7  O   UNL     1     -13.121   1.851 -26.688  1.00  0.00    -0.550 OA
ATOM      8  O   UNL     1     -12.824   3.688 -25.352  1.00  0.00    -0.550 OA
ENDBRANCH   5   6
ENDBRANCH   4   5
ENDBRANCH   3   4
ENDBRANCH   2   3
ENDBRANCH   1   2
BRANCH   1   9
ATOM      9  C   UNL     1     -12.385  -2.817 -26.531  1.00  0.00     0.000 C 
BRANCH   9  10
ATOM     10  C   UNL     1     -13.122  -2.911 -25.185  1.00  0.00    -0.000 C 
BRANCH  10  11
ATOM     11  C   UNL     1     -12.184  -2.744 -23.976  1.00  0.00    -0.000 C 
BRANCH  11  12
ATOM     12  C   UNL     1     -12.751  -1.908 -22.812  1.00  0.00    -0.000 C 
BRANCH  12  13
ATOM     13  C   UNL     1     -11.719  -1.479 -21.755  1.00  0.00    -0.003 C 
ATOM     14  C   UNL     1     -12.275  -0.459 -20.761  1.00  0.00     0.004 C 
ENDBRANCH  12  13
ENDBRANCH  11  12
ENDBRANCH  10  11
ENDBRANCH   9  10
ENDBRANCH   1   9
TORSDOF 10
ENDMDL
MODEL 9
REMARK VINA RESULT:    -4.116      2.096      4.635
REMARK INTER + INTRA:          -7.584
REMARK INTER:                  -6.480
REMARK INTRA:                  -1.104
REMARK UNBOUND:                -1.062
REMARK SMILES CCCCCCCCCCCC(=O)[O-]
REMARK SMILES IDX 7 1 8 2 9 3 10 4 11 5 12 6 13 7 14 8 6 9 5 10 4 11 3 12 2 13
REMARK SMILES IDX 1 14
REMARK H PARENT
REMARK Flexibility Score: inf
ROOT
ATOM      1  C   UNL     1     -12.317  -2.758 -26.352  1.00  0.00     0.000 C 
ENDROOT
BRANCH   1   2
ATOM      2  C   UNL     1     -11.892  -1.293 -26.579  1.00  0.00     0.000 C 
BRANCH   2   3
ATOM      3  C   UNL     1     -10.439  -1.098 -27.054  1.00  0.00     0.000 C 
BRANCH   3   4
ATOM      4  C   UNL     1      -9.556  -0.250 -26.115  1.00  0.00     0.006 C 
BRANCH   4   5
ATOM      5  C   UNL     1      -9.638  -0.651 -24.634  1.00  0.00     0.053 C 
BRANCH   5   6
ATOM      6  C   UNL     1     -10.151   0.466 -23.778  1.00  0.00     0.041 C 
ATOM      7  O   UNL     1      -9.600   0.723 -22.675  1.00  0.00    -0.550 OA
ATOM      8  O   UNL     1     -11.216   1.244 -24.213  1.00  0.00    -0.550 OA
ENDBRANCH   5   6
ENDBRANCH   4   5
ENDBRANCH   3   4
ENDBRANCH   2   3
ENDBRANCH   1   2
BRANCH   1   9
ATOM      9  C   UNL     1     -12.308  -3.223 -24.883  1.00  0.00     0.000 C 
BRANCH   9  10
ATOM     10  C   UNL     1     -12.951  -2.202 -23.930  1.00  0.00    -0.000 C 
BRANCH  10  11
ATOM     11  C   UNL     1     -12.348  -2.245 -22.514  1.00  0.00    -0.000 C 
BRANCH  11  12
ATOM     12  C   UNL     1     -12.796  -1.108 -21.572  1.00  0.00    -0.000 C 
BRANCH  12  13
ATOM     13  C   UNL     1     -11.808  -0.770 -20.443  1.00  0.00    -0.003 C 
ATOM     14  C   UNL     1     -12.091   0.582 -19.790  1.00  0.00     0.004 C 
ENDBRANCH  12  13
ENDBRANCH  11  12
ENDBRANCH  10  11
ENDBRANCH   9  10
ENDBRANCH   1   9
TORSDOF 10
ENDMDL
