MODEL 1
REMARK VINA RESULT:    -8.024      0.000      0.000
REMARK INTER + INTRA:          -8.925
REMARK INTER:                  -8.727
REMARK INTRA:                  -0.198
REMARK UNBOUND:                -0.198
REMARK SMILES CC1(C)CC[C@]2(C(=O)[O-])CC[C@]3(C)C(=CC[C@@H]4[C@]5(C)CC[C@@H](O)C(C)(C)[C@@H]5CC[C@]43C)[C@@H]2C1
REMARK SMILES IDX 6 1 5 2 10 3 32 4 4 5 11 6 14 7 33 8 2 9 12 10 15 11 1 12
REMARK SMILES IDX 3 13 13 14 30 15 16 16 17 17 29 18 31 19 18 20 28 21 27 22
REMARK SMILES IDX 20 23 19 24 24 25 21 26 22 27 25 28 26 29 7 30 8 31 9 32
REMARK SMILES IDX 23 33
REMARK H PARENT 23 34
REMARK Flexibility Score: inf
ROOT
ATOM      1  C   UNL     1     -28.430  30.381 -19.453  1.00  0.00     0.017 C 
ATOM      2  C   UNL     1     -28.829  29.864 -20.878  1.00  0.00     0.014 C 
ATOM      3  C   UNL     1     -27.666  31.718 -19.646  1.00  0.00     0.014 C 
ATOM      4  C   UNL     1     -27.574  29.281 -18.699  1.00  0.00     0.028 C 
ATOM      5  C   UNL     1     -29.213  28.377 -20.859  1.00  0.00     0.007 C 
ATOM      6  C   UNL     1     -26.955  32.191 -18.374  1.00  0.00     0.013 C 
ATOM      7  C   UNL     1     -26.547  29.814 -17.688  1.00  0.00    -0.064 C 
ATOM      8  C   UNL     1     -26.934  28.245 -19.659  1.00  0.00     0.015 C 
ATOM      9  C   UNL     1     -28.004  27.460 -20.483  1.00  0.00    -0.035 C 
ATOM     10  C   UNL     1     -25.869  31.191 -17.855  1.00  0.00    -0.006 C 
ATOM     11  C   UNL     1     -26.206  28.974 -16.679  1.00  0.00    -0.027 C 
ATOM     12  C   UNL     1     -28.516  26.251 -19.667  1.00  0.00     0.011 C 
ATOM     13  C   UNL     1     -27.334  26.915 -21.768  1.00  0.00     0.011 C 
ATOM     14  C   UNL     1     -24.787  31.065 -18.981  1.00  0.00     0.017 C 
ATOM     15  C   UNL     1     -25.215  31.703 -16.464  1.00  0.00    -0.020 C 
ATOM     16  C   UNL     1     -25.325  29.332 -15.520  1.00  0.00     0.032 C 
ATOM     17  C   UNL     1     -24.381  30.523 -15.824  1.00  0.00     0.006 C 
ATOM     18  C   UNL     1     -24.259  32.898 -16.712  1.00  0.00     0.008 C 
ATOM     19  C   UNL     1     -26.341  32.182 -15.488  1.00  0.00     0.012 C 
ATOM     20  C   UNL     1     -23.332  30.859 -14.655  1.00  0.00    -0.025 C 
ATOM     21  C   UNL     1     -23.493  33.324 -15.465  1.00  0.00     0.005 C 
ATOM     22  C   UNL     1     -22.541  32.210 -14.955  1.00  0.00     0.003 C 
ATOM     23  C   UNL     1     -23.994  30.874 -13.226  1.00  0.00     0.010 C 
ATOM     24  C   UNL     1     -22.284  29.692 -14.666  1.00  0.00     0.012 C 
ATOM     25  C   UNL     1     -21.552  32.696 -13.784  1.00  0.00    -0.006 C 
ATOM     26  C   UNL     1     -23.541  32.014 -12.305  1.00  0.00     0.033 C 
ATOM     27  C   UNL     1     -22.032  32.246 -12.351  1.00  0.00     0.120 C 
ATOM     28  C   UNL     1     -20.111  32.182 -14.069  1.00  0.00     0.014 C 
ATOM     29  C   UNL     1     -21.400  34.244 -13.742  1.00  0.00     0.014 C 
ENDROOT
BRANCH   1  30
ATOM     30  C   UNL     1     -29.696  30.672 -18.646  1.00  0.00     0.048 C 
ATOM     31  O   UNL     1     -30.721  31.150 -19.206  1.00  0.00    -0.550 OA
ATOM     32  O   UNL     1     -29.758  30.378 -17.290  1.00  0.00    -0.550 OA
ENDBRANCH   1  30
BRANCH  27  33
ATOM     33  O   UNL     1     -21.383  31.091 -11.881  1.00  0.00    -0.393 OA
ATOM     34  H   UNL     1     -20.435  31.327 -11.712  1.00  0.00     0.210 HD
ENDBRANCH  27  33
TORSDOF 2
ENDMDL
MODEL 2
REMARK VINA RESULT:    -7.814      1.500      8.390
REMARK INTER + INTRA:          -8.697
REMARK INTER:                  -8.414
REMARK INTRA:                  -0.283
REMARK UNBOUND:                -0.198
REMARK SMILES CC1(C)CC[C@]2(C(=O)[O-])CC[C@]3(C)C(=CC[C@@H]4[C@]5(C)CC[C@@H](O)C(C)(C)[C@@H]5CC[C@]43C)[C@@H]2C1
REMARK SMILES IDX 6 1 5 2 10 3 32 4 4 5 11 6 14 7 33 8 2 9 12 10 15 11 1 12
REMARK SMILES IDX 3 13 13 14 30 15 16 16 17 17 29 18 31 19 18 20 28 21 27 22
REMARK SMILES IDX 20 23 19 24 24 25 21 26 22 27 25 28 26 29 7 30 8 31 9 32
REMARK SMILES IDX 23 33
REMARK H PARENT 23 34
REMARK Flexibility Score: inf
ROOT
ATOM      1  C   UNL     1     -21.268  32.254 -14.295  1.00  0.00     0.017 C 
ATOM      2  C   UNL     1     -19.870  32.954 -14.392  1.00  0.00     0.014 C 
ATOM      3  C   UNL     1     -21.145  30.878 -15.002  1.00  0.00     0.014 C 
ATOM      4  C   UNL     1     -22.383  33.181 -14.933  1.00  0.00     0.028 C 
ATOM      5  C   UNL     1     -19.965  34.461 -14.107  1.00  0.00     0.007 C 
ATOM      6  C   UNL     1     -22.500  30.208 -15.251  1.00  0.00     0.013 C 
ATOM      7  C   UNL     1     -23.580  32.449 -15.560  1.00  0.00    -0.064 C 
ATOM      8  C   UNL     1     -21.806  34.247 -15.900  1.00  0.00     0.015 C 
ATOM      9  C   UNL     1     -20.806  35.213 -15.189  1.00  0.00    -0.035 C 
ATOM     10  C   UNL     1     -23.449  31.039 -16.176  1.00  0.00    -0.006 C 
ATOM     11  C   UNL     1     -24.745  33.142 -15.615  1.00  0.00    -0.027 C 
ATOM     12  C   UNL     1     -21.577  36.372 -14.517  1.00  0.00     0.011 C 
ATOM     13  C   UNL     1     -19.867  35.826 -16.257  1.00  0.00     0.011 C 
ATOM     14  C   UNL     1     -22.732  31.181 -17.561  1.00  0.00     0.017 C 
ATOM     15  C   UNL     1     -24.894  30.324 -16.330  1.00  0.00    -0.020 C 
ATOM     16  C   UNL     1     -26.060  32.580 -16.068  1.00  0.00     0.032 C 
ATOM     17  C   UNL     1     -25.905  31.344 -16.989  1.00  0.00     0.006 C 
ATOM     18  C   UNL     1     -24.795  29.076 -17.246  1.00  0.00     0.008 C 
ATOM     19  C   UNL     1     -25.411  29.853 -14.931  1.00  0.00     0.012 C 
ATOM     20  C   UNL     1     -27.283  30.788 -17.598  1.00  0.00    -0.025 C 
ATOM     21  C   UNL     1     -26.149  28.450 -17.557  1.00  0.00     0.005 C 
ATOM     22  C   UNL     1     -27.064  29.408 -18.364  1.00  0.00     0.003 C 
ATOM     23  C   UNL     1     -28.429  30.686 -16.523  1.00  0.00     0.010 C 
ATOM     24  C   UNL     1     -27.742  31.845 -18.662  1.00  0.00     0.012 C 
ATOM     25  C   UNL     1     -28.407  28.709 -18.907  1.00  0.00    -0.006 C 
ATOM     26  C   UNL     1     -29.287  29.416 -16.598  1.00  0.00     0.033 C 
ATOM     27  C   UNL     1     -29.672  29.048 -18.029  1.00  0.00     0.120 C 
ATOM     28  C   UNL     1     -28.642  29.111 -20.392  1.00  0.00     0.014 C 
ATOM     29  C   UNL     1     -28.292  27.158 -18.949  1.00  0.00     0.014 C 
ENDROOT
BRANCH   1  30
ATOM     30  C   UNL     1     -21.608  32.001 -12.825  1.00  0.00     0.048 C 
ATOM     31  O   UNL     1     -20.965  31.147 -12.154  1.00  0.00    -0.550 OA
ATOM     32  O   UNL     1     -22.602  32.732 -12.189  1.00  0.00    -0.550 OA
ENDBRANCH   1  30
BRANCH  27  33
ATOM     33  O   UNL     1     -30.463  30.079 -18.565  1.00  0.00    -0.393 OA
ATOM     34  H   UNL     1     -31.025  29.688 -19.282  1.00  0.00     0.210 HD
ENDBRANCH  27  33
TORSDOF 2
ENDMDL
MODEL 3
REMARK VINA RESULT:    -7.633      3.999      8.400
REMARK INTER + INTRA:          -8.500
REMARK INTER:                  -8.234
REMARK INTRA:                  -0.266
REMARK UNBOUND:                -0.198
REMARK SMILES CC1(C)CC[C@]2(C(=O)[O-])CC[C@]3(C)C(=CC[C@@H]4[C@]5(C)CC[C@@H](O)C(C)(C)[C@@H]5CC[C@]43C)[C@@H]2C1
REMARK SMILES IDX 6 1 5 2 10 3 32 4 4 5 11 6 14 7 33 8 2 9 12 10 15 11 1 12
REMARK SMILES IDX 3 13 13 14 30 15 16 16 17 17 29 18 31 19 18 20 28 21 27 22
REMARK SMILES IDX 20 23 19 24 24 25 21 26 22 27 25 28 26 29 7 30 8 31 9 32
REMARK SMILES IDX 23 33
REMARK H PARENT 23 34
REMARK Flexibility Score: inf
ROOT
ATOM      1  C   UNL     1     -20.176  31.991 -20.679  1.00  0.00     0.017 C 
ATOM      2  C   UNL     1     -19.158  32.589 -21.710  1.00  0.00     0.014 C 
ATOM      3  C   UNL     1     -20.482  30.536 -21.124  1.00  0.00     0.014 C 
ATOM      4  C   UNL     1     -21.471  32.902 -20.608  1.00  0.00     0.028 C 
ATOM      5  C   UNL     1     -19.096  34.121 -21.628  1.00  0.00     0.007 C 
ATOM      6  C   UNL     1     -21.681  29.925 -20.392  1.00  0.00     0.013 C 
ATOM      7  C   UNL     1     -22.779  32.175 -20.259  1.00  0.00    -0.064 C 
ATOM      8  C   UNL     1     -21.646  33.809 -21.853  1.00  0.00     0.015 C 
ATOM      9  C   UNL     1     -20.445  34.790 -22.046  1.00  0.00    -0.035 C 
ATOM     10  C   UNL     1     -23.021  30.697 -20.633  1.00  0.00    -0.006 C 
ATOM     11  C   UNL     1     -23.745  32.926 -19.673  1.00  0.00    -0.027 C 
ATOM     12  C   UNL     1     -20.664  36.065 -21.200  1.00  0.00     0.011 C 
ATOM     13  C   UNL     1     -20.388  35.212 -23.534  1.00  0.00     0.011 C 
ATOM     14  C   UNL     1     -23.321  30.629 -22.168  1.00  0.00     0.017 C 
ATOM     15  C   UNL     1     -24.231  30.057 -19.767  1.00  0.00    -0.020 C 
ATOM     16  C   UNL     1     -25.042  32.396 -19.138  1.00  0.00     0.032 C 
ATOM     17  C   UNL     1     -25.459  31.052 -19.787  1.00  0.00     0.006 C 
ATOM     18  C   UNL     1     -24.688  28.706 -20.374  1.00  0.00     0.008 C 
ATOM     19  C   UNL     1     -23.756  29.789 -18.300  1.00  0.00     0.012 C 
ATOM     20  C   UNL     1     -26.903  30.512 -19.335  1.00  0.00    -0.025 C 
ATOM     21  C   UNL     1     -25.927  28.131 -19.698  1.00  0.00     0.005 C 
ATOM     22  C   UNL     1     -27.170  29.040 -19.884  1.00  0.00     0.003 C 
ATOM     23  C   UNL     1     -27.132  30.609 -17.780  1.00  0.00     0.010 C 
ATOM     24  C   UNL     1     -27.950  31.462 -20.015  1.00  0.00     0.012 C 
ATOM     25  C   UNL     1     -28.542  28.365 -19.384  1.00  0.00    -0.006 C 
ATOM     26  C   UNL     1     -27.818  29.394 -17.142  1.00  0.00     0.033 C 
ATOM     27  C   UNL     1     -28.998  28.882 -17.967  1.00  0.00     0.120 C 
ATOM     28  C   UNL     1     -29.657  28.601 -20.444  1.00  0.00     0.014 C 
ATOM     29  C   UNL     1     -28.437  26.816 -19.285  1.00  0.00     0.014 C 
ENDROOT
BRANCH   1  30
ATOM     30  C   UNL     1     -19.525  31.936 -19.297  1.00  0.00     0.048 C 
ATOM     31  O   UNL     1     -18.463  31.279 -19.111  1.00  0.00    -0.550 OA
ATOM     32  O   UNL     1     -20.065  32.638 -18.227  1.00  0.00    -0.550 OA
ENDBRANCH   1  30
BRANCH  27  33
ATOM     33  O   UNL     1     -29.977  29.889 -18.028  1.00  0.00    -0.393 OA
ATOM     34  H   UNL     1     -30.015  30.328 -17.140  1.00  0.00     0.210 HD
ENDBRANCH  27  33
TORSDOF 2
ENDMDL
MODEL 4
REMARK VINA RESULT:    -7.141      4.371      6.430
REMARK INTER + INTRA:          -7.966
REMARK INTER:                  -7.710
REMARK INTRA:                  -0.256
REMARK UNBOUND:                -0.198
REMARK SMILES CC1(C)CC[C@]2(C(=O)[O-])CC[C@]3(C)C(=CC[C@@H]4[C@]5(C)CC[C@@H](O)C(C)(C)[C@@H]5CC[C@]43C)[C@@H]2C1
REMARK SMILES IDX 6 1 5 2 10 3 32 4 4 5 11 6 14 7 33 8 2 9 12 10 15 11 1 12
REMARK SMILES IDX 3 13 13 14 30 15 16 16 17 17 29 18 31 19 18 20 28 21 27 22
REMARK SMILES IDX 20 23 19 24 24 25 21 26 22 27 25 28 26 29 7 30 8 31 9 32
REMARK SMILES IDX 23 33
REMARK H PARENT 23 34
REMARK Flexibility Score: inf
ROOT
ATOM      1  C   UNL     1     -22.083  31.666 -21.935  1.00  0.00     0.017 C 
ATOM      2  C   UNL     1     -22.539  32.172 -23.347  1.00  0.00     0.014 C 
ATOM      3  C   UNL     1     -23.362  31.255 -21.158  1.00  0.00     0.014 C 
ATOM      4  C   UNL     1     -21.248  32.795 -21.201  1.00  0.00     0.028 C 
ATOM      5  C   UNL     1     -21.437  32.982 -24.046  1.00  0.00     0.007 C 
ATOM      6  C   UNL     1     -23.108  31.024 -19.665  1.00  0.00     0.013 C 
ATOM      7  C   UNL     1     -21.334  32.796 -19.666  1.00  0.00    -0.064 C 
ATOM      8  C   UNL     1     -21.499  34.211 -21.780  1.00  0.00     0.015 C 
ATOM      9  C   UNL     1     -21.113  34.311 -23.290  1.00  0.00    -0.035 C 
ATOM     10  C   UNL     1     -22.587  32.293 -18.915  1.00  0.00    -0.006 C 
ATOM     11  C   UNL     1     -20.280  33.337 -19.006  1.00  0.00    -0.027 C 
ATOM     12  C   UNL     1     -19.605  34.620 -23.430  1.00  0.00     0.011 C 
ATOM     13  C   UNL     1     -21.899  35.485 -23.923  1.00  0.00     0.011 C 
ATOM     14  C   UNL     1     -23.698  33.390 -19.039  1.00  0.00     0.017 C 
ATOM     15  C   UNL     1     -22.254  31.965 -17.364  1.00  0.00    -0.020 C 
ATOM     16  C   UNL     1     -20.100  33.328 -17.518  1.00  0.00     0.032 C 
ATOM     17  C   UNL     1     -21.435  33.168 -16.747  1.00  0.00     0.006 C 
ATOM     18  C   UNL     1     -23.560  31.794 -16.546  1.00  0.00     0.008 C 
ATOM     19  C   UNL     1     -21.444  30.630 -17.261  1.00  0.00     0.012 C 
ATOM     20  C   UNL     1     -21.303  33.281 -15.151  1.00  0.00    -0.025 C 
ATOM     21  C   UNL     1     -23.316  31.639 -15.049  1.00  0.00     0.005 C 
ATOM     22  C   UNL     1     -22.673  32.907 -14.427  1.00  0.00     0.003 C 
ATOM     23  C   UNL     1     -20.093  32.451 -14.578  1.00  0.00     0.010 C 
ATOM     24  C   UNL     1     -21.012  34.792 -14.847  1.00  0.00     0.012 C 
ATOM     25  C   UNL     1     -22.609  32.873 -12.820  1.00  0.00    -0.006 C 
ATOM     26  C   UNL     1     -20.383  31.673 -13.288  1.00  0.00     0.033 C 
ATOM     27  C   UNL     1     -21.180  32.490 -12.273  1.00  0.00     0.120 C 
ATOM     28  C   UNL     1     -23.069  34.245 -12.250  1.00  0.00     0.014 C 
ATOM     29  C   UNL     1     -23.612  31.852 -12.209  1.00  0.00     0.014 C 
ENDROOT
BRANCH   1  30
ATOM     30  C   UNL     1     -21.210  30.422 -22.099  1.00  0.00     0.048 C 
ATOM     31  O   UNL     1     -21.632  29.418 -22.736  1.00  0.00    -0.550 OA
ATOM     32  O   UNL     1     -19.920  30.386 -21.586  1.00  0.00    -0.550 OA
ENDBRANCH   1  30
BRANCH  27  33
ATOM     33  O   UNL     1     -20.414  33.604 -11.887  1.00  0.00    -0.393 OA
ATOM     34  H   UNL     1     -20.582  33.766 -10.924  1.00  0.00     0.210 HD
ENDBRANCH  27  33
TORSDOF 2
ENDMDL
MODEL 5
REMARK VINA RESULT:    -7.051      2.519      8.245
REMARK INTER + INTRA:          -7.867
REMARK INTER:                  -7.614
REMARK INTRA:                  -0.253
REMARK UNBOUND:                -0.198
REMARK SMILES CC1(C)CC[C@]2(C(=O)[O-])CC[C@]3(C)C(=CC[C@@H]4[C@]5(C)CC[C@@H](O)C(C)(C)[C@@H]5CC[C@]43C)[C@@H]2C1
REMARK SMILES IDX 6 1 5 2 10 3 32 4 4 5 11 6 14 7 33 8 2 9 12 10 15 11 1 12
REMARK SMILES IDX 3 13 13 14 30 15 16 16 17 17 29 18 31 19 18 20 28 21 27 22
REMARK SMILES IDX 20 23 19 24 24 25 21 26 22 27 25 28 26 29 7 30 8 31 9 32
REMARK SMILES IDX 23 33
REMARK H PARENT 23 34
REMARK Flexibility Score: inf
ROOT
ATOM      1  C   UNL     1     -21.208  33.340 -17.579  1.00  0.00     0.017 C 
ATOM      2  C   UNL     1     -20.408  34.408 -16.757  1.00  0.00     0.014 C 
ATOM      3  C   UNL     1     -22.222  34.108 -18.469  1.00  0.00     0.014 C 
ATOM      4  C   UNL     1     -21.904  32.311 -16.595  1.00  0.00     0.028 C 
ATOM      5  C   UNL     1     -19.681  33.779 -15.559  1.00  0.00     0.007 C 
ATOM      6  C   UNL     1     -23.275  33.194 -19.104  1.00  0.00     0.013 C 
ATOM      7  C   UNL     1     -23.217  31.691 -17.098  1.00  0.00    -0.064 C 
ATOM      8  C   UNL     1     -22.055  32.856 -15.152  1.00  0.00     0.015 C 
ATOM      9  C   UNL     1     -20.678  33.203 -14.501  1.00  0.00    -0.035 C 
ATOM     10  C   UNL     1     -24.164  32.444 -18.058  1.00  0.00    -0.006 C 
ATOM     11  C   UNL     1     -23.541  30.476 -16.589  1.00  0.00    -0.027 C 
ATOM     12  C   UNL     1     -20.063  31.937 -13.861  1.00  0.00     0.011 C 
ATOM     13  C   UNL     1     -20.911  34.239 -13.375  1.00  0.00     0.011 C 
ATOM     14  C   UNL     1     -24.924  33.536 -17.232  1.00  0.00     0.017 C 
ATOM     15  C   UNL     1     -25.197  31.430 -18.785  1.00  0.00    -0.020 C 
ATOM     16  C   UNL     1     -24.705  29.640 -17.032  1.00  0.00     0.032 C 
ATOM     17  C   UNL     1     -25.829  30.472 -17.698  1.00  0.00     0.006 C 
ATOM     18  C   UNL     1     -26.346  32.214 -19.472  1.00  0.00     0.008 C 
ATOM     19  C   UNL     1     -24.453  30.606 -19.888  1.00  0.00     0.012 C 
ATOM     20  C   UNL     1     -27.147  29.635 -18.073  1.00  0.00    -0.025 C 
ATOM     21  C   UNL     1     -27.435  31.311 -20.039  1.00  0.00     0.005 C 
ATOM     22  C   UNL     1     -28.167  30.509 -18.930  1.00  0.00     0.003 C 
ATOM     23  C   UNL     1     -26.821  28.262 -18.774  1.00  0.00     0.010 C 
ATOM     24  C   UNL     1     -27.849  29.301 -16.710  1.00  0.00     0.012 C 
ATOM     25  C   UNL     1     -29.466  29.721 -19.457  1.00  0.00    -0.006 C 
ATOM     26  C   UNL     1     -27.721  27.903 -19.963  1.00  0.00     0.033 C 
ATOM     27  C   UNL     1     -29.198  28.186 -19.691  1.00  0.00     0.120 C 
ATOM     28  C   UNL     1     -30.644  29.931 -18.462  1.00  0.00     0.014 C 
ATOM     29  C   UNL     1     -30.001  30.294 -20.802  1.00  0.00     0.014 C 
ENDROOT
BRANCH   1  30
ATOM     30  C   UNL     1     -20.249  32.584 -18.499  1.00  0.00     0.048 C 
ATOM     31  O   UNL     1     -19.809  31.446 -18.175  1.00  0.00    -0.550 OA
ATOM     32  O   UNL     1     -19.875  33.114 -19.727  1.00  0.00    -0.550 OA
ENDBRANCH   1  30
BRANCH  27  33
ATOM     33  O   UNL     1     -29.625  27.375 -18.625  1.00  0.00    -0.393 OA
ATOM     34  H   UNL     1     -30.557  27.632 -18.406  1.00  0.00     0.210 HD
ENDBRANCH  27  33
TORSDOF 2
ENDMDL
MODEL 6
REMARK VINA RESULT:    -7.012      2.094      3.711
REMARK INTER + INTRA:          -7.825
REMARK INTER:                  -7.553
REMARK INTRA:                  -0.272
REMARK UNBOUND:                -0.198
REMARK SMILES CC1(C)CC[C@]2(C(=O)[O-])CC[C@]3(C)C(=CC[C@@H]4[C@]5(C)CC[C@@H](O)C(C)(C)[C@@H]5CC[C@]43C)[C@@H]2C1
REMARK SMILES IDX 6 1 5 2 10 3 32 4 4 5 11 6 14 7 33 8 2 9 12 10 15 11 1 12
REMARK SMILES IDX 3 13 13 14 30 15 16 16 17 17 29 18 31 19 18 20 28 21 27 22
REMARK SMILES IDX 20 23 19 24 24 25 21 26 22 27 25 28 26 29 7 30 8 31 9 32
REMARK SMILES IDX 23 33
REMARK H PARENT 23 34
REMARK Flexibility Score: inf
ROOT
ATOM      1  C   UNL     1     -28.617  29.394 -18.791  1.00  0.00     0.017 C 
ATOM      2  C   UNL     1     -30.163  29.544 -19.000  1.00  0.00     0.014 C 
ATOM      3  C   UNL     1     -28.373  29.214 -17.269  1.00  0.00     0.014 C 
ATOM      4  C   UNL     1     -27.866  30.652 -19.394  1.00  0.00     0.028 C 
ATOM      5  C   UNL     1     -30.498  30.133 -20.378  1.00  0.00     0.007 C 
ATOM      6  C   UNL     1     -26.899  29.355 -16.877  1.00  0.00     0.013 C 
ATOM      7  C   UNL     1     -26.547  31.035 -18.704  1.00  0.00    -0.064 C 
ATOM      8  C   UNL     1     -28.789  31.886 -19.568  1.00  0.00     0.015 C 
ATOM      9  C   UNL     1     -29.984  31.601 -20.533  1.00  0.00    -0.035 C 
ATOM     10  C   UNL     1     -26.295  30.760 -17.206  1.00  0.00    -0.006 C 
ATOM     11  C   UNL     1     -25.643  31.702 -19.465  1.00  0.00    -0.027 C 
ATOM     12  C   UNL     1     -29.548  31.836 -21.997  1.00  0.00     0.011 C 
ATOM     13  C   UNL     1     -31.125  32.598 -20.213  1.00  0.00     0.011 C 
ATOM     14  C   UNL     1     -27.105  31.814 -16.377  1.00  0.00     0.017 C 
ATOM     15  C   UNL     1     -24.716  30.819 -16.850  1.00  0.00    -0.020 C 
ATOM     16  C   UNL     1     -24.252  32.058 -19.034  1.00  0.00     0.032 C 
ATOM     17  C   UNL     1     -24.092  32.121 -17.494  1.00  0.00     0.006 C 
ATOM     18  C   UNL     1     -24.499  30.882 -15.316  1.00  0.00     0.008 C 
ATOM     19  C   UNL     1     -23.998  29.535 -17.384  1.00  0.00     0.012 C 
ATOM     20  C   UNL     1     -22.651  32.622 -16.991  1.00  0.00    -0.025 C 
ATOM     21  C   UNL     1     -23.042  31.098 -14.923  1.00  0.00     0.005 C 
ATOM     22  C   UNL     1     -22.501  32.466 -15.413  1.00  0.00     0.003 C 
ATOM     23  C   UNL     1     -21.462  31.936 -17.764  1.00  0.00     0.010 C 
ATOM     24  C   UNL     1     -22.590  34.155 -17.318  1.00  0.00     0.012 C 
ATOM     25  C   UNL     1     -21.048  32.830 -14.827  1.00  0.00    -0.006 C 
ATOM     26  C   UNL     1     -20.275  31.507 -16.891  1.00  0.00     0.033 C 
ATOM     27  C   UNL     1     -19.887  32.566 -15.861  1.00  0.00     0.120 C 
ATOM     28  C   UNL     1     -21.033  34.310 -14.346  1.00  0.00     0.014 C 
ATOM     29  C   UNL     1     -20.704  32.013 -13.548  1.00  0.00     0.014 C 
ENDROOT
BRANCH   1  30
ATOM     30  C   UNL     1     -28.128  28.131 -19.500  1.00  0.00     0.048 C 
ATOM     31  O   UNL     1     -27.359  28.209 -20.498  1.00  0.00    -0.550 OA
ATOM     32  O   UNL     1     -28.488  26.871 -19.039  1.00  0.00    -0.550 OA
ENDBRANCH   1  30
BRANCH  27  33
ATOM     33  O   UNL     1     -19.469  33.725 -16.539  1.00  0.00    -0.393 OA
ATOM     34  H   UNL     1     -19.682  34.504 -15.963  1.00  0.00     0.210 HD
ENDBRANCH  27  33
TORSDOF 2
ENDMDL
MODEL 7
REMARK VINA RESULT:    -6.946      4.421      5.989
REMARK INTER + INTRA:          -7.753
REMARK INTER:                  -7.532
REMARK INTRA:                  -0.222
REMARK UNBOUND:                -0.198
REMARK SMILES CC1(C)CC[C@]2(C(=O)[O-])CC[C@]3(C)C(=CC[C@@H]4[C@]5(C)CC[C@@H](O)C(C)(C)[C@@H]5CC[C@]43C)[C@@H]2C1
REMARK SMILES IDX 6 1 5 2 10 3 32 4 4 5 11 6 14 7 33 8 2 9 12 10 15 11 1 12
REMARK SMILES IDX 3 13 13 14 30 15 16 16 17 17 29 18 31 19 18 20 28 21 27 22
REMARK SMILES IDX 20 23 19 24 24 25 21 26 22 27 25 28 26 29 7 30 8 31 9 32
REMARK SMILES IDX 23 33
REMARK H PARENT 23 34
REMARK Flexibility Score: inf
ROOT
ATOM      1  C   UNL     1     -26.201  29.589 -17.654  1.00  0.00     0.017 C 
ATOM      2  C   UNL     1     -27.717  29.249 -17.449  1.00  0.00     0.014 C 
ATOM      3  C   UNL     1     -25.960  31.000 -17.054  1.00  0.00     0.014 C 
ATOM      4  C   UNL     1     -25.830  29.498 -19.192  1.00  0.00     0.028 C 
ATOM      5  C   UNL     1     -28.168  28.088 -18.347  1.00  0.00     0.007 C 
ATOM      6  C   UNL     1     -24.602  31.593 -17.444  1.00  0.00     0.013 C 
ATOM      7  C   UNL     1     -24.699  30.427 -19.661  1.00  0.00    -0.064 C 
ATOM      8  C   UNL     1     -27.065  29.599 -20.122  1.00  0.00     0.015 C 
ATOM      9  C   UNL     1     -28.098  28.456 -19.865  1.00  0.00    -0.035 C 
ATOM     10  C   UNL     1     -24.423  31.788 -18.985  1.00  0.00    -0.006 C 
ATOM     11  C   UNL     1     -24.006  30.024 -20.755  1.00  0.00    -0.027 C 
ATOM     12  C   UNL     1     -27.705  27.198 -20.675  1.00  0.00     0.011 C 
ATOM     13  C   UNL     1     -29.487  28.924 -20.361  1.00  0.00     0.011 C 
ATOM     14  C   UNL     1     -25.528  32.794 -19.453  1.00  0.00     0.017 C 
ATOM     15  C   UNL     1     -22.940  32.334 -19.341  1.00  0.00    -0.020 C 
ATOM     16  C   UNL     1     -22.791  30.709 -21.305  1.00  0.00     0.032 C 
ATOM     17  C   UNL     1     -22.702  32.202 -20.898  1.00  0.00     0.006 C 
ATOM     18  C   UNL     1     -22.796  33.828 -18.951  1.00  0.00     0.008 C 
ATOM     19  C   UNL     1     -21.865  31.524 -18.542  1.00  0.00     0.012 C 
ATOM     20  C   UNL     1     -21.484  33.006 -21.568  1.00  0.00    -0.025 C 
ATOM     21  C   UNL     1     -21.476  34.443 -19.403  1.00  0.00     0.005 C 
ATOM     22  C   UNL     1     -21.341  34.466 -20.948  1.00  0.00     0.003 C 
ATOM     23  C   UNL     1     -20.125  32.212 -21.515  1.00  0.00     0.010 C 
ATOM     24  C   UNL     1     -21.860  33.175 -23.082  1.00  0.00     0.012 C 
ATOM     25  C   UNL     1     -20.074  35.309 -21.470  1.00  0.00    -0.006 C 
ATOM     26  C   UNL     1     -18.890  33.048 -21.154  1.00  0.00     0.033 C 
ATOM     27  C   UNL     1     -18.857  34.393 -21.878  1.00  0.00     0.120 C 
ATOM     28  C   UNL     1     -20.504  36.218 -22.657  1.00  0.00     0.014 C 
ATOM     29  C   UNL     1     -19.546  36.307 -20.400  1.00  0.00     0.014 C 
ENDROOT
BRANCH   1  30
ATOM     30  C   UNL     1     -25.346  28.591 -16.871  1.00  0.00     0.048 C 
ATOM     31  O   UNL     1     -24.359  28.023 -17.416  1.00  0.00    -0.550 OA
ATOM     32  O   UNL     1     -25.612  28.320 -15.536  1.00  0.00    -0.550 OA
ENDBRANCH   1  30
BRANCH  27  33
ATOM     33  O   UNL     1     -18.773  34.160 -23.262  1.00  0.00    -0.393 OA
ATOM     34  H   UNL     1     -17.845  34.361 -23.546  1.00  0.00     0.210 HD
ENDBRANCH  27  33
TORSDOF 2
ENDMDL
MODEL 8
REMARK VINA RESULT:    -6.878      2.056      3.633
REMARK INTER + INTRA:          -7.679
REMARK INTER:                  -7.513
REMARK INTRA:                  -0.166
REMARK UNBOUND:                -0.198
REMARK SMILES CC1(C)CC[C@]2(C(=O)[O-])CC[C@]3(C)C(=CC[C@@H]4[C@]5(C)CC[C@@H](O)C(C)(C)[C@@H]5CC[C@]43C)[C@@H]2C1
REMARK SMILES IDX 6 1 5 2 10 3 32 4 4 5 11 6 14 7 33 8 2 9 12 10 15 11 1 12
REMARK SMILES IDX 3 13 13 14 30 15 16 16 17 17 29 18 31 19 18 20 28 21 27 22
REMARK SMILES IDX 20 23 19 24 24 25 21 26 22 27 25 28 26 29 7 30 8 31 9 32
REMARK SMILES IDX 23 33
REMARK H PARENT 23 34
REMARK Flexibility Score: inf
ROOT
ATOM      1  C   UNL     1     -27.352  28.823 -19.399  1.00  0.00     0.017 C 
ATOM      2  C   UNL     1     -28.758  28.328 -19.881  1.00  0.00     0.014 C 
ATOM      3  C   UNL     1     -27.064  28.138 -18.036  1.00  0.00     0.014 C 
ATOM      4  C   UNL     1     -27.336  30.406 -19.313  1.00  0.00     0.028 C 
ATOM      5  C   UNL     1     -29.333  29.228 -20.985  1.00  0.00     0.007 C 
ATOM      6  C   UNL     1     -25.869  28.749 -17.299  1.00  0.00     0.013 C 
ATOM      7  C   UNL     1     -26.400  31.006 -18.252  1.00  0.00    -0.064 C 
ATOM      8  C   UNL     1     -28.756  31.023 -19.226  1.00  0.00     0.015 C 
ATOM      9  C   UNL     1     -29.632  30.674 -20.470  1.00  0.00    -0.035 C 
ATOM     10  C   UNL     1     -26.058  30.261 -16.944  1.00  0.00    -0.006 C 
ATOM     11  C   UNL     1     -25.952  32.264 -18.491  1.00  0.00    -0.027 C 
ATOM     12  C   UNL     1     -29.362  31.685 -21.608  1.00  0.00     0.011 C 
ATOM     13  C   UNL     1     -31.124  30.795 -20.073  1.00  0.00     0.011 C 
ATOM     14  C   UNL     1     -27.298  30.359 -15.992  1.00  0.00     0.017 C 
ATOM     15  C   UNL     1     -24.730  30.872 -16.245  1.00  0.00    -0.020 C 
ATOM     16  C   UNL     1     -24.938  32.989 -17.658  1.00  0.00     0.032 C 
ATOM     17  C   UNL     1     -24.846  32.448 -16.209  1.00  0.00     0.006 C 
ATOM     18  C   UNL     1     -24.590  30.359 -14.788  1.00  0.00     0.008 C 
ATOM     19  C   UNL     1     -23.456  30.426 -17.036  1.00  0.00     0.012 C 
ATOM     20  C   UNL     1     -23.864  33.277 -15.246  1.00  0.00    -0.025 C 
ATOM     21  C   UNL     1     -23.447  31.020 -14.026  1.00  0.00     0.005 C 
ATOM     22  C   UNL     1     -23.670  32.545 -13.845  1.00  0.00     0.003 C 
ATOM     23  C   UNL     1     -22.483  33.614 -15.927  1.00  0.00     0.010 C 
ATOM     24  C   UNL     1     -24.585  34.641 -14.965  1.00  0.00     0.012 C 
ATOM     25  C   UNL     1     -22.607  33.236 -12.855  1.00  0.00    -0.006 C 
ATOM     26  C   UNL     1     -21.251  33.444 -15.029  1.00  0.00     0.033 C 
ATOM     27  C   UNL     1     -21.463  34.002 -13.623  1.00  0.00     0.120 C 
ATOM     28  C   UNL     1     -23.350  34.190 -11.875  1.00  0.00     0.014 C 
ATOM     29  C   UNL     1     -21.909  32.205 -11.922  1.00  0.00     0.014 C 
ENDROOT
BRANCH   1  30
ATOM     30  C   UNL     1     -26.283  28.365 -20.392  1.00  0.00     0.048 C 
ATOM     31  O   UNL     1     -26.415  27.281 -21.025  1.00  0.00    -0.550 OA
ATOM     32  O   UNL     1     -25.167  29.150 -20.650  1.00  0.00    -0.550 OA
ENDBRANCH   1  30
BRANCH  27  33
ATOM     33  O   UNL     1     -21.684  35.388 -13.716  1.00  0.00    -0.393 OA
ATOM     34  H   UNL     1     -22.404  35.534 -14.382  1.00  0.00     0.210 HD
ENDBRANCH  27  33
TORSDOF 2
ENDMDL
MODEL 9
REMARK VINA RESULT:    -6.777      2.613      4.278
REMARK INTER + INTRA:          -7.569
REMARK INTER:                  -7.392
REMARK INTRA:                  -0.178
REMARK UNBOUND:                -0.198
REMARK SMILES CC1(C)CC[C@]2(C(=O)[O-])CC[C@]3(C)C(=CC[C@@H]4[C@]5(C)CC[C@@H](O)C(C)(C)[C@@H]5CC[C@]43C)[C@@H]2C1
REMARK SMILES IDX 6 1 5 2 10 3 32 4 4 5 11 6 14 7 33 8 2 9 12 10 15 11 1 12
REMARK SMILES IDX 3 13 13 14 30 15 16 16 17 17 29 18 31 19 18 20 28 21 27 22
REMARK SMILES IDX 20 23 19 24 24 25 21 26 22 27 25 28 26 29 7 30 8 31 9 32
REMARK SMILES IDX 23 33
REMARK H PARENT 23 34
REMARK Flexibility Score: inf
ROOT
ATOM      1  C   UNL     1     -26.325  28.942 -18.945  1.00  0.00     0.017 C 
ATOM      2  C   UNL     1     -27.707  28.203 -18.927  1.00  0.00     0.014 C 
ATOM      3  C   UNL     1     -25.578  28.553 -17.641  1.00  0.00     0.014 C 
ATOM      4  C   UNL     1     -26.549  30.504 -19.088  1.00  0.00     0.028 C 
ATOM      5  C   UNL     1     -28.695  28.815 -19.932  1.00  0.00     0.007 C 
ATOM      6  C   UNL     1     -24.348  29.425 -17.373  1.00  0.00     0.013 C 
ATOM      7  C   UNL     1     -25.478  31.393 -18.438  1.00  0.00    -0.064 C 
ATOM      8  C   UNL     1     -27.976  30.953 -18.683  1.00  0.00     0.015 C 
ATOM      9  C   UNL     1     -29.081  30.283 -19.559  1.00  0.00    -0.035 C 
ATOM     10  C   UNL     1     -24.683  30.942 -17.194  1.00  0.00    -0.006 C 
ATOM     11  C   UNL     1     -25.323  32.632 -18.969  1.00  0.00    -0.027 C 
ATOM     12  C   UNL     1     -29.293  31.097 -20.856  1.00  0.00     0.011 C 
ATOM     13  C   UNL     1     -30.413  30.295 -18.770  1.00  0.00     0.011 C 
ATOM     14  C   UNL     1     -25.625  31.061 -15.948  1.00  0.00     0.017 C 
ATOM     15  C   UNL     1     -23.337  31.823 -17.000  1.00  0.00    -0.020 C 
ATOM     16  C   UNL     1     -24.258  33.611 -18.574  1.00  0.00     0.032 C 
ATOM     17  C   UNL     1     -23.698  33.354 -17.152  1.00  0.00     0.006 C 
ATOM     18  C   UNL     1     -22.733  31.602 -15.589  1.00  0.00     0.008 C 
ATOM     19  C   UNL     1     -22.262  31.397 -18.055  1.00  0.00     0.012 C 
ATOM     20  C   UNL     1     -22.646  34.455 -16.640  1.00  0.00    -0.025 C 
ATOM     21  C   UNL     1     -21.554  32.521 -15.289  1.00  0.00     0.005 C 
ATOM     22  C   UNL     1     -21.969  34.015 -15.266  1.00  0.00     0.003 C 
ATOM     23  C   UNL     1     -21.570  34.826 -17.730  1.00  0.00     0.010 C 
ATOM     24  C   UNL     1     -23.481  35.751 -16.356  1.00  0.00     0.012 C 
ATOM     25  C   UNL     1     -20.811  34.996 -14.731  1.00  0.00    -0.006 C 
ATOM     26  C   UNL     1     -20.134  34.968 -17.211  1.00  0.00     0.033 C 
ATOM     27  C   UNL     1     -20.055  35.742 -15.896  1.00  0.00     0.120 C 
ATOM     28  C   UNL     1     -21.414  36.016 -13.723  1.00  0.00     0.014 C 
ATOM     29  C   UNL     1     -19.730  34.241 -13.906  1.00  0.00     0.014 C 
ENDROOT
BRANCH   1  30
ATOM     30  C   UNL     1     -25.498  28.443 -20.130  1.00  0.00     0.048 C 
ATOM     31  O   UNL     1     -25.594  27.247 -20.524  1.00  0.00    -0.550 OA
ATOM     32  O   UNL     1     -24.656  29.303 -20.823  1.00  0.00    -0.550 OA
ENDBRANCH   1  30
BRANCH  27  33
ATOM     33  O   UNL     1     -20.518  37.052 -16.114  1.00  0.00    -0.393 OA
ATOM     34  H   UNL     1     -21.414  36.989 -16.534  1.00  0.00     0.210 HD
ENDBRANCH  27  33
TORSDOF 2
ENDMDL
