MODEL 1
REMARK VINA RESULT:    -5.431      0.000      0.000
REMARK INTER + INTRA:          -6.419
REMARK INTER:                  -5.907
REMARK INTRA:                  -0.511
REMARK UNBOUND:                -0.511
REMARK SMILES C=C(C)[C@H]1CC[C@@]2(C)CC[C@@]3(C)[C@@H](CC[C@@H]4[C@]5(C)CC[C@@H](O)C(C)(C)[C@@H]5CC[C@@]43C)[C@@H]12
REMARK SMILES IDX 4 1 5 2 6 3 7 4 31 5 13 6 14 7 15 8 16 9 17 10 19 11 20 12
REMARK SMILES IDX 21 13 23 14 26 15 27 16 28 17 29 18 11 19 10 20 9 21 12 22
REMARK SMILES IDX 30 23 24 24 25 25 18 26 8 27 2 28 3 29 1 30 22 31
REMARK H PARENT 22 32
REMARK Flexibility Score: inf
ROOT
ATOM      1  C   UNL     1      20.677  46.249  57.857  1.00  0.00     0.018 C 
ATOM      2  C   UNL     1      20.890  44.859  58.430  1.00  0.00     0.009 C 
ATOM      3  C   UNL     1      20.636  43.935  57.253  1.00  0.00     0.008 C 
ATOM      4  C   UNL     1      19.596  44.644  56.336  1.00  0.00    -0.029 C 
ATOM      5  C   UNL     1      19.501  46.130  56.843  1.00  0.00     0.006 C 
ATOM      6  C   UNL     1      18.015  46.573  57.172  1.00  0.00    -0.000 C 
ATOM      7  C   UNL     1      17.831  48.036  57.615  1.00  0.00     0.005 C 
ATOM      8  C   UNL     1      16.369  48.417  57.932  1.00  0.00     0.005 C 
ATOM      9  C   UNL     1      15.268  47.476  57.346  1.00  0.00     0.002 C 
ATOM     10  C   UNL     1      13.776  48.024  57.658  1.00  0.00    -0.026 C 
ATOM     11  C   UNL     1      13.663  48.685  59.074  1.00  0.00     0.010 C 
ATOM     12  C   UNL     1      12.242  49.119  59.484  1.00  0.00     0.033 C 
ATOM     13  C   UNL     1      11.201  47.990  59.376  1.00  0.00     0.120 C 
ATOM     14  C   UNL     1      11.194  47.315  57.971  1.00  0.00    -0.006 C 
ATOM     15  C   UNL     1      12.677  46.880  57.572  1.00  0.00     0.003 C 
ATOM     16  C   UNL     1      13.098  45.583  58.344  1.00  0.00     0.005 C 
ATOM     17  C   UNL     1      14.581  45.407  58.667  1.00  0.00     0.008 C 
ATOM     18  C   UNL     1      15.545  45.917  57.576  1.00  0.00    -0.024 C 
ATOM     19  C   UNL     1      17.091  45.600  57.988  1.00  0.00    -0.024 C 
ATOM     20  C   UNL     1      17.507  44.105  57.713  1.00  0.00     0.008 C 
ATOM     21  C   UNL     1      18.244  43.887  56.387  1.00  0.00     0.007 C 
ATOM     22  C   UNL     1      17.332  45.804  59.519  1.00  0.00     0.012 C 
ATOM     23  C   UNL     1      15.190  45.172  56.237  1.00  0.00     0.012 C 
ATOM     24  C   UNL     1      10.253  46.070  58.018  1.00  0.00     0.014 C 
ATOM     25  C   UNL     1      10.550  48.258  56.908  1.00  0.00     0.014 C 
ATOM     26  C   UNL     1      13.507  49.125  56.576  1.00  0.00     0.012 C 
ATOM     27  C   UNL     1      20.102  44.615  54.875  1.00  0.00     0.011 C 
ENDROOT
BRANCH   1  28
ATOM     28  C   UNL     1      20.735  47.421  58.830  1.00  0.00    -0.077 C 
ATOM     29  C   UNL     1      20.399  47.283  60.296  1.00  0.00     0.039 C 
ATOM     30  C   UNL     1      21.362  48.544  58.433  1.00  0.00     0.008 C 
ENDBRANCH   1  28
BRANCH  13  31
ATOM     31  O   UNL     1       9.923  48.499  59.671  1.00  0.00    -0.393 OA
ATOM     32  H   UNL     1       9.891  49.428  59.326  1.00  0.00     0.210 HD
ENDBRANCH  13  31
TORSDOF 2
ENDMDL
MODEL 2
REMARK VINA RESULT:    -4.436      1.699      3.869
REMARK INTER + INTRA:          -5.336
REMARK INTER:                  -4.815
REMARK INTRA:                  -0.521
REMARK UNBOUND:                -0.511
REMARK SMILES C=C(C)[C@H]1CC[C@@]2(C)CC[C@@]3(C)[C@@H](CC[C@@H]4[C@]5(C)CC[C@@H](O)C(C)(C)[C@@H]5CC[C@@]43C)[C@@H]12
REMARK SMILES IDX 4 1 5 2 6 3 7 4 31 5 13 6 14 7 15 8 16 9 17 10 19 11 20 12
REMARK SMILES IDX 21 13 23 14 26 15 27 16 28 17 29 18 11 19 10 20 9 21 12 22
REMARK SMILES IDX 30 23 24 24 25 25 18 26 8 27 2 28 3 29 1 30 22 31
REMARK H PARENT 22 32
REMARK Flexibility Score: inf
ROOT
ATOM      1  C   UNL     1      20.272  46.646  59.657  1.00  0.00     0.018 C 
ATOM      2  C   UNL     1      20.741  47.998  60.167  1.00  0.00     0.009 C 
ATOM      3  C   UNL     1      20.339  47.997  61.630  1.00  0.00     0.008 C 
ATOM      4  C   UNL     1      19.063  47.112  61.750  1.00  0.00    -0.029 C 
ATOM      5  C   UNL     1      18.926  46.348  60.382  1.00  0.00     0.006 C 
ATOM      6  C   UNL     1      17.506  46.545  59.706  1.00  0.00    -0.000 C 
ATOM      7  C   UNL     1      17.273  45.776  58.393  1.00  0.00     0.005 C 
ATOM      8  C   UNL     1      15.880  46.007  57.769  1.00  0.00     0.005 C 
ATOM      9  C   UNL     1      14.781  46.574  58.724  1.00  0.00     0.002 C 
ATOM     10  C   UNL     1      13.341  46.684  57.991  1.00  0.00    -0.026 C 
ATOM     11  C   UNL     1      13.464  47.112  56.489  1.00  0.00     0.010 C 
ATOM     12  C   UNL     1      12.124  47.354  55.764  1.00  0.00     0.033 C 
ATOM     13  C   UNL     1      11.204  48.350  56.493  1.00  0.00     0.120 C 
ATOM     14  C   UNL     1      10.969  47.966  57.985  1.00  0.00    -0.006 C 
ATOM     15  C   UNL     1      12.371  47.718  58.708  1.00  0.00     0.003 C 
ATOM     16  C   UNL     1      13.074  49.081  59.028  1.00  0.00     0.005 C 
ATOM     17  C   UNL     1      14.603  49.097  59.042  1.00  0.00     0.008 C 
ATOM     18  C   UNL     1      15.257  47.820  59.608  1.00  0.00    -0.024 C 
ATOM     19  C   UNL     1      16.880  47.984  59.654  1.00  0.00    -0.024 C 
ATOM     20  C   UNL     1      17.377  48.834  60.884  1.00  0.00     0.008 C 
ATOM     21  C   UNL     1      17.836  47.999  62.086  1.00  0.00     0.007 C 
ATOM     22  C   UNL     1      17.416  48.749  58.400  1.00  0.00     0.012 C 
ATOM     23  C   UNL     1      14.704  47.605  61.065  1.00  0.00     0.012 C 
ATOM     24  C   UNL     1      10.191  49.125  58.684  1.00  0.00     0.014 C 
ATOM     25  C   UNL     1      10.023  46.730  58.095  1.00  0.00     0.014 C 
ATOM     26  C   UNL     1      12.739  45.239  58.046  1.00  0.00     0.012 C 
ATOM     27  C   UNL     1      19.249  46.102  62.904  1.00  0.00     0.011 C 
ENDROOT
BRANCH   1  28
ATOM     28  C   UNL     1      20.415  46.377  58.164  1.00  0.00    -0.077 C 
ATOM     29  C   UNL     1      20.522  47.483  57.140  1.00  0.00     0.039 C 
ATOM     30  C   UNL     1      20.728  45.128  57.772  1.00  0.00     0.008 C 
ENDBRANCH   1  28
BRANCH  13  31
ATOM     31  O   UNL     1       9.973  48.433  55.818  1.00  0.00    -0.393 OA
ATOM     32  H   UNL     1       9.502  49.234  56.165  1.00  0.00     0.210 HD
ENDBRANCH  13  31
TORSDOF 2
ENDMDL
MODEL 3
REMARK VINA RESULT:    -4.255      3.060      4.800
REMARK INTER + INTRA:          -5.140
REMARK INTER:                  -4.908
REMARK INTRA:                  -0.231
REMARK UNBOUND:                -0.511
REMARK SMILES C=C(C)[C@H]1CC[C@@]2(C)CC[C@@]3(C)[C@@H](CC[C@@H]4[C@]5(C)CC[C@@H](O)C(C)(C)[C@@H]5CC[C@@]43C)[C@@H]12
REMARK SMILES IDX 4 1 5 2 6 3 7 4 31 5 13 6 14 7 15 8 16 9 17 10 19 11 20 12
REMARK SMILES IDX 21 13 23 14 26 15 27 16 28 17 29 18 11 19 10 20 9 21 12 22
REMARK SMILES IDX 30 23 24 24 25 25 18 26 8 27 2 28 3 29 1 30 22 31
REMARK H PARENT 22 32
REMARK Flexibility Score: inf
ROOT
ATOM      1  C   UNL     1      17.275  47.794  64.085  1.00  0.00     0.018 C 
ATOM      2  C   UNL     1      18.045  46.497  64.264  1.00  0.00     0.009 C 
ATOM      3  C   UNL     1      19.248  46.657  63.353  1.00  0.00     0.008 C 
ATOM      4  C   UNL     1      18.804  47.566  62.170  1.00  0.00    -0.029 C 
ATOM      5  C   UNL     1      17.418  48.185  62.585  1.00  0.00     0.006 C 
ATOM      6  C   UNL     1      16.286  47.936  61.504  1.00  0.00    -0.000 C 
ATOM      7  C   UNL     1      14.915  48.567  61.809  1.00  0.00     0.005 C 
ATOM      8  C   UNL     1      13.843  48.290  60.733  1.00  0.00     0.005 C 
ATOM      9  C   UNL     1      14.371  47.841  59.333  1.00  0.00     0.002 C 
ATOM     10  C   UNL     1      13.169  47.674  58.259  1.00  0.00    -0.026 C 
ATOM     11  C   UNL     1      11.866  47.089  58.903  1.00  0.00     0.010 C 
ATOM     12  C   UNL     1      10.722  46.791  57.913  1.00  0.00     0.033 C 
ATOM     13  C   UNL     1      11.147  45.889  56.740  1.00  0.00     0.120 C 
ATOM     14  C   UNL     1      12.403  46.431  55.993  1.00  0.00    -0.006 C 
ATOM     15  C   UNL     1      13.568  46.734  57.042  1.00  0.00     0.003 C 
ATOM     16  C   UNL     1      14.250  45.403  57.508  1.00  0.00     0.005 C 
ATOM     17  C   UNL     1      14.831  45.368  58.921  1.00  0.00     0.008 C 
ATOM     18  C   UNL     1      15.478  46.689  59.386  1.00  0.00    -0.024 C 
ATOM     19  C   UNL     1      16.138  46.509  60.868  1.00  0.00    -0.024 C 
ATOM     20  C   UNL     1      17.538  45.786  60.834  1.00  0.00     0.008 C 
ATOM     21  C   UNL     1      18.741  46.736  60.861  1.00  0.00     0.007 C 
ATOM     22  C   UNL     1      15.249  45.610  61.788  1.00  0.00     0.012 C 
ATOM     23  C   UNL     1      16.600  47.063  58.349  1.00  0.00     0.012 C 
ATOM     24  C   UNL     1      12.867  45.362  54.954  1.00  0.00     0.014 C 
ATOM     25  C   UNL     1      12.040  47.684  55.137  1.00  0.00     0.014 C 
ATOM     26  C   UNL     1      12.863  49.125  57.754  1.00  0.00     0.012 C 
ATOM     27  C   UNL     1      19.846  48.689  61.970  1.00  0.00     0.011 C 
ENDROOT
BRANCH   1  28
ATOM     28  C   UNL     1      15.923  47.904  64.781  1.00  0.00    -0.077 C 
ATOM     29  C   UNL     1      15.325  46.774  65.585  1.00  0.00     0.039 C 
ATOM     30  C   UNL     1      15.374  49.125  64.910  1.00  0.00     0.008 C 
ENDBRANCH   1  28
BRANCH  13  31
ATOM     31  O   UNL     1      10.074  45.753  55.840  1.00  0.00    -0.393 OA
ATOM     32  H   UNL     1       9.651  46.646  55.750  1.00  0.00     0.210 HD
ENDBRANCH  13  31
TORSDOF 2
ENDMDL
MODEL 4
REMARK VINA RESULT:    -3.843      3.077      5.143
REMARK INTER + INTRA:          -4.692
REMARK INTER:                  -4.574
REMARK INTRA:                  -0.117
REMARK UNBOUND:                -0.511
REMARK SMILES C=C(C)[C@H]1CC[C@@]2(C)CC[C@@]3(C)[C@@H](CC[C@@H]4[C@]5(C)CC[C@@H](O)C(C)(C)[C@@H]5CC[C@@]43C)[C@@H]12
REMARK SMILES IDX 4 1 5 2 6 3 7 4 31 5 13 6 14 7 15 8 16 9 17 10 19 11 20 12
REMARK SMILES IDX 21 13 23 14 26 15 27 16 28 17 29 18 11 19 10 20 9 21 12 22
REMARK SMILES IDX 30 23 24 24 25 25 18 26 8 27 2 28 3 29 1 30 22 31
REMARK H PARENT 22 32
REMARK Flexibility Score: inf
ROOT
ATOM      1  C   UNL     1      19.934  45.665  56.356  1.00  0.00     0.018 C 
ATOM      2  C   UNL     1      20.921  46.805  56.174  1.00  0.00     0.009 C 
ATOM      3  C   UNL     1      22.055  46.462  57.123  1.00  0.00     0.008 C 
ATOM      4  C   UNL     1      21.430  45.674  58.311  1.00  0.00    -0.029 C 
ATOM      5  C   UNL     1      19.969  45.293  57.869  1.00  0.00     0.006 C 
ATOM      6  C   UNL     1      18.870  45.760  58.910  1.00  0.00    -0.000 C 
ATOM      7  C   UNL     1      17.418  45.368  58.578  1.00  0.00     0.005 C 
ATOM      8  C   UNL     1      16.384  45.853  59.617  1.00  0.00     0.005 C 
ATOM      9  C   UNL     1      16.945  46.239  61.022  1.00  0.00     0.002 C 
ATOM     10  C   UNL     1      15.764  46.638  62.057  1.00  0.00    -0.026 C 
ATOM     11  C   UNL     1      14.599  47.422  61.362  1.00  0.00     0.010 C 
ATOM     12  C   UNL     1      13.499  47.938  62.312  1.00  0.00     0.033 C 
ATOM     13  C   UNL     1      14.044  48.783  63.479  1.00  0.00     0.120 C 
ATOM     14  C   UNL     1      15.168  48.052  64.273  1.00  0.00    -0.006 C 
ATOM     15  C   UNL     1      16.289  47.525  63.265  1.00  0.00     0.003 C 
ATOM     16  C   UNL     1      17.203  48.707  62.793  1.00  0.00     0.005 C 
ATOM     17  C   UNL     1      17.816  48.605  61.396  1.00  0.00     0.008 C 
ATOM     18  C   UNL     1      18.237  47.182  60.978  1.00  0.00    -0.024 C 
ATOM     19  C   UNL     1      18.955  47.207  59.512  1.00  0.00    -0.024 C 
ATOM     20  C   UNL     1      20.458  47.679  59.572  1.00  0.00     0.008 C 
ATOM     21  C   UNL     1      21.479  46.535  59.600  1.00  0.00     0.007 C 
ATOM     22  C   UNL     1      18.259  48.223  58.549  1.00  0.00     0.012 C 
ATOM     23  C   UNL     1      19.250  46.646  62.055  1.00  0.00     0.012 C 
ATOM     24  C   UNL     1      15.784  49.050  65.303  1.00  0.00     0.014 C 
ATOM     25  C   UNL     1      14.572  46.902  65.143  1.00  0.00     0.014 C 
ATOM     26  C   UNL     1      15.199  45.275  62.582  1.00  0.00     0.012 C 
ATOM     27  C   UNL     1      22.257  44.393  58.565  1.00  0.00     0.011 C 
ENDROOT
BRANCH   1  28
ATOM     28  C   UNL     1      18.601  45.773  55.624  1.00  0.00    -0.077 C 
ATOM     29  C   UNL     1      17.821  44.563  55.167  1.00  0.00     0.039 C 
ATOM     30  C   UNL     1      17.971  46.962  55.625  1.00  0.00     0.008 C 
ENDBRANCH   1  28
BRANCH  13  31
ATOM     31  O   UNL     1      12.988  49.125  64.344  1.00  0.00    -0.393 OA
ATOM     32  H   UNL     1      12.653  50.014  64.059  1.00  0.00     0.210 HD
ENDBRANCH  13  31
TORSDOF 2
ENDMDL
MODEL 5
REMARK VINA RESULT:    -3.740      1.692      4.278
REMARK INTER + INTRA:          -4.579
REMARK INTER:                  -5.162
REMARK INTRA:                   0.583
REMARK UNBOUND:                -0.511
REMARK SMILES C=C(C)[C@H]1CC[C@@]2(C)CC[C@@]3(C)[C@@H](CC[C@@H]4[C@]5(C)CC[C@@H](O)C(C)(C)[C@@H]5CC[C@@]43C)[C@@H]12
REMARK SMILES IDX 4 1 5 2 6 3 7 4 31 5 13 6 14 7 15 8 16 9 17 10 19 11 20 12
REMARK SMILES IDX 21 13 23 14 26 15 27 16 28 17 29 18 11 19 10 20 9 21 12 22
REMARK SMILES IDX 30 23 24 24 25 25 18 26 8 27 2 28 3 29 1 30 22 31
REMARK H PARENT 22 32
REMARK Flexibility Score: inf
ROOT
ATOM      1  C   UNL     1      22.151  43.811  56.174  1.00  0.00     0.018 C 
ATOM      2  C   UNL     1      22.732  44.884  55.270  1.00  0.00     0.009 C 
ATOM      3  C   UNL     1      23.371  45.867  56.234  1.00  0.00     0.008 C 
ATOM      4  C   UNL     1      22.545  45.811  57.553  1.00  0.00    -0.029 C 
ATOM      5  C   UNL     1      21.617  44.545  57.440  1.00  0.00     0.006 C 
ATOM      6  C   UNL     1      20.087  44.882  57.676  1.00  0.00    -0.000 C 
ATOM      7  C   UNL     1      19.121  43.684  57.644  1.00  0.00     0.005 C 
ATOM      8  C   UNL     1      17.642  44.063  57.870  1.00  0.00     0.005 C 
ATOM      9  C   UNL     1      17.379  45.452  58.534  1.00  0.00     0.002 C 
ATOM     10  C   UNL     1      15.803  45.702  58.811  1.00  0.00    -0.026 C 
ATOM     11  C   UNL     1      14.895  45.117  57.676  1.00  0.00     0.010 C 
ATOM     12  C   UNL     1      13.390  45.425  57.816  1.00  0.00     0.033 C 
ATOM     13  C   UNL     1      13.085  46.926  57.977  1.00  0.00     0.120 C 
ATOM     14  C   UNL     1      13.898  47.582  59.134  1.00  0.00    -0.006 C 
ATOM     15  C   UNL     1      15.449  47.242  58.965  1.00  0.00     0.003 C 
ATOM     16  C   UNL     1      16.086  48.122  57.836  1.00  0.00     0.005 C 
ATOM     17  C   UNL     1      17.255  47.524  57.054  1.00  0.00     0.008 C 
ATOM     18  C   UNL     1      18.216  46.656  57.893  1.00  0.00    -0.024 C 
ATOM     19  C   UNL     1      19.467  46.144  56.979  1.00  0.00    -0.024 C 
ATOM     20  C   UNL     1      20.573  47.248  56.779  1.00  0.00     0.008 C 
ATOM     21  C   UNL     1      21.761  47.136  57.742  1.00  0.00     0.007 C 
ATOM     22  C   UNL     1      19.007  45.776  55.530  1.00  0.00     0.012 C 
ATOM     23  C   UNL     1      18.752  47.542  59.077  1.00  0.00     0.012 C 
ATOM     24  C   UNL     1      13.668  49.125  59.095  1.00  0.00     0.014 C 
ATOM     25  C   UNL     1      13.344  47.133  60.522  1.00  0.00     0.014 C 
ATOM     26  C   UNL     1      15.491  44.932  60.139  1.00  0.00     0.012 C 
ATOM     27  C   UNL     1      23.509  45.655  58.752  1.00  0.00     0.011 C 
ENDROOT
BRANCH   1  28
ATOM     28  C   UNL     1      21.317  42.719  55.513  1.00  0.00    -0.077 C 
ATOM     29  C   UNL     1      21.527  41.249  55.791  1.00  0.00     0.039 C 
ATOM     30  C   UNL     1      20.188  43.081  54.876  1.00  0.00     0.008 C 
ENDBRANCH   1  28
BRANCH  13  31
ATOM     31  O   UNL     1      11.706  47.103  58.197  1.00  0.00    -0.393 OA
ATOM     32  H   UNL     1      11.429  47.905  57.683  1.00  0.00     0.210 HD
ENDBRANCH  13  31
TORSDOF 2
ENDMDL
MODEL 6
REMARK VINA RESULT:    -3.607      3.727      6.046
REMARK INTER + INTRA:          -4.434
REMARK INTER:                  -4.182
REMARK INTRA:                  -0.252
REMARK UNBOUND:                -0.511
REMARK SMILES C=C(C)[C@H]1CC[C@@]2(C)CC[C@@]3(C)[C@@H](CC[C@@H]4[C@]5(C)CC[C@@H](O)C(C)(C)[C@@H]5CC[C@@]43C)[C@@H]12
REMARK SMILES IDX 4 1 5 2 6 3 7 4 31 5 13 6 14 7 15 8 16 9 17 10 19 11 20 12
REMARK SMILES IDX 21 13 23 14 26 15 27 16 28 17 29 18 11 19 10 20 9 21 12 22
REMARK SMILES IDX 30 23 24 24 25 25 18 26 8 27 2 28 3 29 1 30 22 31
REMARK H PARENT 22 32
REMARK Flexibility Score: inf
ROOT
ATOM      1  C   UNL     1      18.115  47.330  64.658  1.00  0.00     0.018 C 
ATOM      2  C   UNL     1      17.996  48.711  65.278  1.00  0.00     0.009 C 
ATOM      3  C   UNL     1      16.751  48.618  66.142  1.00  0.00     0.008 C 
ATOM      4  C   UNL     1      15.803  47.587  65.461  1.00  0.00    -0.029 C 
ATOM      5  C   UNL     1      16.661  46.854  64.366  1.00  0.00     0.006 C 
ATOM      6  C   UNL     1      15.996  46.904  62.929  1.00  0.00    -0.000 C 
ATOM      7  C   UNL     1      16.746  46.153  61.813  1.00  0.00     0.005 C 
ATOM      8  C   UNL     1      16.065  46.238  60.431  1.00  0.00     0.005 C 
ATOM      9  C   UNL     1      14.556  46.643  60.428  1.00  0.00     0.002 C 
ATOM     10  C   UNL     1      13.922  46.606  58.938  1.00  0.00    -0.026 C 
ATOM     11  C   UNL     1      14.934  47.091  57.844  1.00  0.00     0.010 C 
ATOM     12  C   UNL     1      14.357  47.196  56.418  1.00  0.00     0.033 C 
ATOM     13  C   UNL     1      13.082  48.055  56.335  1.00  0.00     0.120 C 
ATOM     14  C   UNL     1      11.987  47.601  57.347  1.00  0.00    -0.006 C 
ATOM     15  C   UNL     1      12.614  47.497  58.812  1.00  0.00     0.003 C 
ATOM     16  C   UNL     1      12.793  48.923  59.436  1.00  0.00     0.005 C 
ATOM     17  C   UNL     1      13.942  49.117  60.425  1.00  0.00     0.008 C 
ATOM     18  C   UNL     1      14.214  47.909  61.345  1.00  0.00    -0.024 C 
ATOM     19  C   UNL     1      15.398  48.260  62.412  1.00  0.00    -0.024 C 
ATOM     20  C   UNL     1      14.892  49.125  63.628  1.00  0.00     0.008 C 
ATOM     21  C   UNL     1      14.559  48.314  64.886  1.00  0.00     0.007 C 
ATOM     22  C   UNL     1      16.527  49.120  61.755  1.00  0.00     0.012 C 
ATOM     23  C   UNL     1      12.883  47.587  62.118  1.00  0.00     0.012 C 
ATOM     24  C   UNL     1      10.822  48.639  57.322  1.00  0.00     0.014 C 
ATOM     25  C   UNL     1      11.333  46.260  56.889  1.00  0.00     0.014 C 
ATOM     26  C   UNL     1      13.588  45.099  58.670  1.00  0.00     0.012 C 
ATOM     27  C   UNL     1      15.312  46.571  66.518  1.00  0.00     0.011 C 
ENDROOT
BRANCH   1  28
ATOM     28  C   UNL     1      19.212  47.124  63.620  1.00  0.00    -0.077 C 
ATOM     29  C   UNL     1      19.652  45.755  63.157  1.00  0.00     0.039 C 
ATOM     30  C   UNL     1      19.611  48.187  62.899  1.00  0.00     0.008 C 
ENDBRANCH   1  28
BRANCH  13  31
ATOM     31  O   UNL     1      12.573  48.013  55.024  1.00  0.00    -0.393 OA
ATOM     32  H   UNL     1      12.861  48.848  54.571  1.00  0.00     0.210 HD
ENDBRANCH  13  31
TORSDOF 2
ENDMDL
MODEL 7
REMARK VINA RESULT:    -3.100     13.783     16.894
REMARK INTER + INTRA:          -3.884
REMARK INTER:                  -3.380
REMARK INTRA:                  -0.504
REMARK UNBOUND:                -0.511
REMARK SMILES C=C(C)[C@H]1CC[C@@]2(C)CC[C@@]3(C)[C@@H](CC[C@@H]4[C@]5(C)CC[C@@H](O)C(C)(C)[C@@H]5CC[C@@]43C)[C@@H]12
REMARK SMILES IDX 4 1 5 2 6 3 7 4 31 5 13 6 14 7 15 8 16 9 17 10 19 11 20 12
REMARK SMILES IDX 21 13 23 14 26 15 27 16 28 17 29 18 11 19 10 20 9 21 12 22
REMARK SMILES IDX 30 23 24 24 25 25 18 26 8 27 2 28 3 29 1 30 22 31
REMARK H PARENT 22 32
REMARK Flexibility Score: inf
ROOT
ATOM      1  C   UNL     1      12.144  44.735  72.232  1.00  0.00     0.018 C 
ATOM      2  C   UNL     1      12.282  43.404  71.513  1.00  0.00     0.009 C 
ATOM      3  C   UNL     1      12.509  42.405  72.633  1.00  0.00     0.008 C 
ATOM      4  C   UNL     1      13.242  43.165  73.777  1.00  0.00    -0.029 C 
ATOM      5  C   UNL     1      13.146  44.695  73.423  1.00  0.00     0.006 C 
ATOM      6  C   UNL     1      14.560  45.411  73.402  1.00  0.00    -0.000 C 
ATOM      7  C   UNL     1      14.544  46.925  73.125  1.00  0.00     0.005 C 
ATOM      8  C   UNL     1      15.943  47.575  73.106  1.00  0.00     0.005 C 
ATOM      9  C   UNL     1      17.090  46.767  73.794  1.00  0.00     0.002 C 
ATOM     10  C   UNL     1      18.488  47.585  73.799  1.00  0.00    -0.026 C 
ATOM     11  C   UNL     1      18.702  48.414  72.486  1.00  0.00     0.010 C 
ATOM     12  C   UNL     1      20.068  49.120  72.373  1.00  0.00     0.033 C 
ATOM     13  C   UNL     1      21.266  48.172  72.567  1.00  0.00     0.120 C 
ATOM     14  C   UNL     1      21.172  47.351  73.888  1.00  0.00    -0.006 C 
ATOM     15  C   UNL     1      19.748  46.635  73.980  1.00  0.00     0.003 C 
ATOM     16  C   UNL     1      19.698  45.384  73.038  1.00  0.00     0.005 C 
ATOM     17  C   UNL     1      18.342  45.005  72.444  1.00  0.00     0.008 C 
ATOM     18  C   UNL     1      17.140  45.221  73.387  1.00  0.00    -0.024 C 
ATOM     19  C   UNL     1      15.763  44.704  72.682  1.00  0.00    -0.024 C 
ATOM     20  C   UNL     1      15.587  43.139  72.750  1.00  0.00     0.008 C 
ATOM     21  C   UNL     1      14.700  42.651  73.902  1.00  0.00     0.007 C 
ATOM     22  C   UNL     1      15.737  45.040  71.155  1.00  0.00     0.012 C 
ATOM     23  C   UNL     1      17.407  44.395  74.699  1.00  0.00     0.012 C 
ATOM     24  C   UNL     1      22.318  46.291  73.901  1.00  0.00     0.014 C 
ATOM     25  C   UNL     1      21.456  48.258  75.125  1.00  0.00     0.014 C 
ATOM     26  C   UNL     1      18.377  48.584  75.001  1.00  0.00     0.012 C 
ATOM     27  C   UNL     1      12.524  42.886  75.117  1.00  0.00     0.011 C 
ENDROOT
BRANCH   1  28
ATOM     28  C   UNL     1      12.030  45.985  71.368  1.00  0.00    -0.077 C 
ATOM     29  C   UNL     1      12.638  46.083  69.988  1.00  0.00     0.039 C 
ATOM     30  C   UNL     1      11.137  46.926  71.728  1.00  0.00     0.008 C 
ENDBRANCH   1  28
BRANCH  13  31
ATOM     31  O   UNL     1      22.461  48.916  72.546  1.00  0.00    -0.393 OA
ATOM     32  H   UNL     1      23.201  48.285  72.744  1.00  0.00     0.210 HD
ENDBRANCH  13  31
TORSDOF 2
ENDMDL
