MODEL 1
REMARK VINA RESULT:    -5.128      0.000      0.000
REMARK INTER + INTRA:         -10.192
REMARK INTER:                  -9.326
REMARK INTRA:                  -0.866
REMARK UNBOUND:                -0.866
REMARK SMILES CCCCCCCCCCCCCCCC(=O)[O-]
REMARK SMILES IDX 9 1 10 2 11 3 12 4 13 5 14 6 15 7 16 8 17 9 18 10 8 11 7 12
REMARK SMILES IDX 6 13 5 14 4 15 3 16 2 17 1 18
REMARK H PARENT
REMARK Flexibility Score: inf
ROOT
ATOM      1  C   UNL     1       8.142   2.209  18.860  1.00  0.00     0.000 C 
ENDROOT
BRANCH   1   2
ATOM      2  C   UNL     1       6.819   1.440  18.769  1.00  0.00     0.000 C 
BRANCH   2   3
ATOM      3  C   UNL     1       7.005   0.106  18.035  1.00  0.00     0.000 C 
BRANCH   3   4
ATOM      4  C   UNL     1       8.439  -0.419  18.203  1.00  0.00     0.000 C 
BRANCH   4   5
ATOM      5  C   UNL     1       8.549  -1.931  17.953  1.00  0.00     0.000 C 
BRANCH   5   6
ATOM      6  C   UNL     1       8.266  -2.311  16.489  1.00  0.00     0.006 C 
BRANCH   6   7
ATOM      7  C   UNL     1       9.554  -2.438  15.665  1.00  0.00     0.053 C 
BRANCH   7   8
ATOM      8  C   UNL     1      10.330  -3.665  16.034  1.00  0.00     0.041 C 
ATOM      9  O   UNL     1       9.734  -4.681  16.477  1.00  0.00    -0.550 OA
ATOM     10  O   UNL     1      11.714  -3.673  15.920  1.00  0.00    -0.550 OA
ENDBRANCH   7   8
ENDBRANCH   6   7
ENDBRANCH   5   6
ENDBRANCH   4   5
ENDBRANCH   3   4
ENDBRANCH   2   3
ENDBRANCH   1   2
BRANCH   1  11
ATOM     11  C   UNL     1       8.036   3.573  18.167  1.00  0.00     0.000 C 
BRANCH  11  12
ATOM     12  C   UNL     1       6.993   4.461  18.859  1.00  0.00    -0.000 C 
BRANCH  12  13
ATOM     13  C   UNL     1       7.607   5.726  19.476  1.00  0.00    -0.000 C 
BRANCH  13  14
ATOM     14  C   UNL     1       7.355   5.831  20.991  1.00  0.00    -0.000 C 
BRANCH  14  15
ATOM     15  C   UNL     1       8.094   4.733  21.783  1.00  0.00    -0.000 C 
BRANCH  15  16
ATOM     16  C   UNL     1       7.597   4.562  23.231  1.00  0.00    -0.000 C 
BRANCH  16  17
ATOM     17  C   UNL     1       6.280   5.301  23.538  1.00  0.00    -0.003 C 
ATOM     18  C   UNL     1       5.561   4.741  24.766  1.00  0.00     0.004 C 
ENDBRANCH  16  17
ENDBRANCH  15  16
ENDBRANCH  14  15
ENDBRANCH  13  14
ENDBRANCH  12  13
ENDBRANCH  11  12
ENDBRANCH   1  11
TORSDOF 14
ENDMDL
MODEL 2
REMARK VINA RESULT:    -5.114      3.600      5.651
REMARK INTER + INTRA:         -10.165
REMARK INTER:                  -7.626
REMARK INTRA:                  -2.539
REMARK UNBOUND:                -0.866
REMARK SMILES CCCCCCCCCCCCCCCC(=O)[O-]
REMARK SMILES IDX 9 1 10 2 11 3 12 4 13 5 14 6 15 7 16 8 17 9 18 10 8 11 7 12
REMARK SMILES IDX 6 13 5 14 4 15 3 16 2 17 1 18
REMARK H PARENT
REMARK Flexibility Score: inf
ROOT
ATOM      1  C   UNL     1       7.060   2.039  17.669  1.00  0.00     0.000 C 
ENDROOT
BRANCH   1   2
ATOM      2  C   UNL     1       6.213   0.786  17.922  1.00  0.00     0.000 C 
BRANCH   2   3
ATOM      3  C   UNL     1       7.081  -0.375  18.422  1.00  0.00     0.000 C 
BRANCH   3   4
ATOM      4  C   UNL     1       8.573  -0.080  18.207  1.00  0.00     0.000 C 
BRANCH   4   5
ATOM      5  C   UNL     1       9.306  -1.226  17.494  1.00  0.00     0.000 C 
BRANCH   5   6
ATOM      6  C   UNL     1       8.352  -2.338  17.024  1.00  0.00     0.006 C 
BRANCH   6   7
ATOM      7  C   UNL     1       9.068  -3.685  16.861  1.00  0.00     0.053 C 
BRANCH   7   8
ATOM      8  C   UNL     1      10.087  -3.642  15.762  1.00  0.00     0.041 C 
ATOM      9  O   UNL     1      11.289  -3.928  16.003  1.00  0.00    -0.550 OA
ATOM     10  O   UNL     1       9.715  -3.253  14.483  1.00  0.00    -0.550 OA
ENDBRANCH   7   8
ENDBRANCH   6   7
ENDBRANCH   5   6
ENDBRANCH   4   5
ENDBRANCH   3   4
ENDBRANCH   2   3
ENDBRANCH   1   2
BRANCH   1  11
ATOM     11  C   UNL     1       6.771   2.629  16.283  1.00  0.00     0.000 C 
BRANCH  11  12
ATOM     12  C   UNL     1       7.578   1.903  15.198  1.00  0.00    -0.000 C 
BRANCH  12  13
ATOM     13  C   UNL     1       6.691   1.099  14.236  1.00  0.00    -0.000 C 
BRANCH  13  14
ATOM     14  C   UNL     1       6.889  -0.421  14.376  1.00  0.00    -0.000 C 
BRANCH  14  15
ATOM     15  C   UNL     1       5.593  -1.143  14.796  1.00  0.00    -0.000 C 
BRANCH  15  16
ATOM     16  C   UNL     1       4.305  -0.370  14.453  1.00  0.00    -0.000 C 
BRANCH  16  17
ATOM     17  C   UNL     1       3.465   0.033  15.682  1.00  0.00    -0.003 C 
ATOM     18  C   UNL     1       3.186   1.536  15.739  1.00  0.00     0.004 C 
ENDBRANCH  16  17
ENDBRANCH  15  16
ENDBRANCH  14  15
ENDBRANCH  13  14
ENDBRANCH  12  13
ENDBRANCH  11  12
ENDBRANCH   1  11
TORSDOF 14
ENDMDL
MODEL 3
REMARK VINA RESULT:    -5.109      4.173      7.644
REMARK INTER + INTRA:         -10.157
REMARK INTER:                  -8.235
REMARK INTRA:                  -1.922
REMARK UNBOUND:                -0.866
REMARK SMILES CCCCCCCCCCCCCCCC(=O)[O-]
REMARK SMILES IDX 9 1 10 2 11 3 12 4 13 5 14 6 15 7 16 8 17 9 18 10 8 11 7 12
REMARK SMILES IDX 6 13 5 14 4 15 3 16 2 17 1 18
REMARK H PARENT
REMARK Flexibility Score: inf
ROOT
ATOM      1  C   UNL     1       8.689  -0.655  18.055  1.00  0.00     0.000 C 
ENDROOT
BRANCH   1   2
ATOM      2  C   UNL     1       7.324  -0.257  18.628  1.00  0.00     0.000 C 
BRANCH   2   3
ATOM      3  C   UNL     1       7.051   1.237  18.417  1.00  0.00     0.000 C 
BRANCH   3   4
ATOM      4  C   UNL     1       8.359   2.009  18.190  1.00  0.00     0.000 C 
BRANCH   4   5
ATOM      5  C   UNL     1       8.683   2.975  19.340  1.00  0.00     0.000 C 
BRANCH   5   6
ATOM      6  C   UNL     1       7.426   3.435  20.100  1.00  0.00     0.006 C 
BRANCH   6   7
ATOM      7  C   UNL     1       7.283   4.963  20.111  1.00  0.00     0.053 C 
BRANCH   7   8
ATOM      8  C   UNL     1       6.904   5.494  18.762  1.00  0.00     0.041 C 
ATOM      9  O   UNL     1       7.385   6.584  18.353  1.00  0.00    -0.550 OA
ATOM     10  O   UNL     1       5.995   4.804  17.972  1.00  0.00    -0.550 OA
ENDBRANCH   7   8
ENDBRANCH   6   7
ENDBRANCH   5   6
ENDBRANCH   4   5
ENDBRANCH   3   4
ENDBRANCH   2   3
ENDBRANCH   1   2
BRANCH   1  11
ATOM     11  C   UNL     1       8.618  -2.016  17.354  1.00  0.00     0.000 C 
BRANCH  11  12
ATOM     12  C   UNL     1       7.668  -1.965  16.150  1.00  0.00    -0.000 C 
BRANCH  12  13
ATOM     13  C   UNL     1       8.046  -0.868  15.142  1.00  0.00    -0.000 C 
BRANCH  13  14
ATOM     14  C   UNL     1       6.871   0.072  14.821  1.00  0.00    -0.000 C 
BRANCH  14  15
ATOM     15  C   UNL     1       5.536  -0.441  15.399  1.00  0.00    -0.000 C 
BRANCH  15  16
ATOM     16  C   UNL     1       4.368   0.553  15.259  1.00  0.00    -0.000 C 
BRANCH  16  17
ATOM     17  C   UNL     1       3.919   1.191  16.589  1.00  0.00    -0.003 C 
ATOM     18  C   UNL     1       2.875   0.351  17.325  1.00  0.00     0.004 C 
ENDBRANCH  16  17
ENDBRANCH  15  16
ENDBRANCH  14  15
ENDBRANCH  13  14
ENDBRANCH  12  13
ENDBRANCH  11  12
ENDBRANCH   1  11
TORSDOF 14
ENDMDL
MODEL 4
REMARK VINA RESULT:    -5.101     11.774     13.844
REMARK INTER + INTRA:         -10.142
REMARK INTER:                  -7.703
REMARK INTRA:                  -2.439
REMARK UNBOUND:                -0.866
REMARK SMILES CCCCCCCCCCCCCCCC(=O)[O-]
REMARK SMILES IDX 9 1 10 2 11 3 12 4 13 5 14 6 15 7 16 8 17 9 18 10 8 11 7 12
REMARK SMILES IDX 6 13 5 14 4 15 3 16 2 17 1 18
REMARK H PARENT
REMARK Flexibility Score: inf
ROOT
ATOM      1  C   UNL     1      19.976  -5.230  23.850  1.00  0.00     0.000 C 
ENDROOT
BRANCH   1   2
ATOM      2  C   UNL     1      21.154  -4.260  24.005  1.00  0.00     0.000 C 
BRANCH   2   3
ATOM      3  C   UNL     1      22.016  -4.232  22.738  1.00  0.00     0.000 C 
BRANCH   3   4
ATOM      4  C   UNL     1      22.185  -2.797  22.218  1.00  0.00     0.000 C 
BRANCH   4   5
ATOM      5  C   UNL     1      22.406  -2.739  20.699  1.00  0.00     0.000 C 
BRANCH   5   6
ATOM      6  C   UNL     1      22.573  -4.134  20.072  1.00  0.00     0.006 C 
BRANCH   6   7
ATOM      7  C   UNL     1      21.594  -4.370  18.915  1.00  0.00     0.053 C 
BRANCH   7   8
ATOM      8  C   UNL     1      21.814  -3.399  17.795  1.00  0.00     0.041 C 
ATOM      9  O   UNL     1      22.910  -3.386  17.175  1.00  0.00    -0.550 OA
ATOM     10  O   UNL     1      20.823  -2.487  17.459  1.00  0.00    -0.550 OA
ENDBRANCH   7   8
ENDBRANCH   6   7
ENDBRANCH   5   6
ENDBRANCH   4   5
ENDBRANCH   3   4
ENDBRANCH   2   3
ENDBRANCH   1   2
BRANCH   1  11
ATOM     11  C   UNL     1      19.504  -5.296  22.393  1.00  0.00     0.000 C 
BRANCH  11  12
ATOM     12  C   UNL     1      18.244  -4.445  22.185  1.00  0.00    -0.000 C 
BRANCH  12  13
ATOM     13  C   UNL     1      18.547  -3.083  21.544  1.00  0.00    -0.000 C 
BRANCH  13  14
ATOM     14  C   UNL     1      17.922  -1.909  22.319  1.00  0.00    -0.000 C 
BRANCH  14  15
ATOM     15  C   UNL     1      18.539  -1.743  23.723  1.00  0.00    -0.000 C 
BRANCH  15  16
ATOM     16  C   UNL     1      17.514  -1.811  24.871  1.00  0.00    -0.000 C 
BRANCH  16  17
ATOM     17  C   UNL     1      17.480  -3.164  25.609  1.00  0.00    -0.003 C 
ATOM     18  C   UNL     1      16.263  -4.011  25.234  1.00  0.00     0.004 C 
ENDBRANCH  16  17
ENDBRANCH  15  16
ENDBRANCH  14  15
ENDBRANCH  13  14
ENDBRANCH  12  13
ENDBRANCH  11  12
ENDBRANCH   1  11
TORSDOF 14
ENDMDL
MODEL 5
REMARK VINA RESULT:    -5.098      4.372      7.932
REMARK INTER + INTRA:         -10.136
REMARK INTER:                  -8.277
REMARK INTRA:                  -1.859
REMARK UNBOUND:                -0.866
REMARK SMILES CCCCCCCCCCCCCCCC(=O)[O-]
REMARK SMILES IDX 9 1 10 2 11 3 12 4 13 5 14 6 15 7 16 8 17 9 18 10 8 11 7 12
REMARK SMILES IDX 6 13 5 14 4 15 3 16 2 17 1 18
REMARK H PARENT
REMARK Flexibility Score: inf
ROOT
ATOM      1  C   UNL     1       4.886   0.941  17.315  1.00  0.00     0.000 C 
ENDROOT
BRANCH   1   2
ATOM      2  C   UNL     1       5.952   1.868  17.910  1.00  0.00     0.000 C 
BRANCH   2   3
ATOM      3  C   UNL     1       6.850   2.453  16.813  1.00  0.00     0.000 C 
BRANCH   3   4
ATOM      4  C   UNL     1       7.825   3.488  17.393  1.00  0.00     0.000 C 
BRANCH   4   5
ATOM      5  C   UNL     1       8.240   3.167  18.836  1.00  0.00     0.000 C 
BRANCH   5   6
ATOM      6  C   UNL     1       8.242   4.411  19.742  1.00  0.00     0.006 C 
BRANCH   6   7
ATOM      7  C   UNL     1       7.456   4.184  21.040  1.00  0.00     0.053 C 
BRANCH   7   8
ATOM      8  C   UNL     1       8.180   4.735  22.231  1.00  0.00     0.041 C 
ATOM      9  O   UNL     1       9.357   5.165  22.113  1.00  0.00    -0.550 OA
ATOM     10  O   UNL     1       7.566   4.741  23.477  1.00  0.00    -0.550 OA
ENDBRANCH   7   8
ENDBRANCH   6   7
ENDBRANCH   5   6
ENDBRANCH   4   5
ENDBRANCH   3   4
ENDBRANCH   2   3
ENDBRANCH   1   2
BRANCH   1  11
ATOM     11  C   UNL     1       4.432   1.436  15.937  1.00  0.00     0.000 C 
BRANCH  11  12
ATOM     12  C   UNL     1       4.109   0.258  15.008  1.00  0.00    -0.000 C 
BRANCH  12  13
ATOM     13  C   UNL     1       5.310  -0.168  14.150  1.00  0.00    -0.000 C 
BRANCH  13  14
ATOM     14  C   UNL     1       6.091  -1.343  14.764  1.00  0.00    -0.000 C 
BRANCH  14  15
ATOM     15  C   UNL     1       7.455  -0.904  15.334  1.00  0.00    -0.000 C 
BRANCH  15  16
ATOM     16  C   UNL     1       8.005  -1.833  16.433  1.00  0.00    -0.000 C 
BRANCH  16  17
ATOM     17  C   UNL     1       8.002  -1.213  17.844  1.00  0.00    -0.003 C 
ATOM     18  C   UNL     1       9.187  -0.276  18.080  1.00  0.00     0.004 C 
ENDBRANCH  16  17
ENDBRANCH  15  16
ENDBRANCH  14  15
ENDBRANCH  13  14
ENDBRANCH  12  13
ENDBRANCH  11  12
ENDBRANCH   1  11
TORSDOF 14
ENDMDL
MODEL 6
REMARK VINA RESULT:    -5.057     11.861     14.089
REMARK INTER + INTRA:         -10.062
REMARK INTER:                  -7.240
REMARK INTRA:                  -2.822
REMARK UNBOUND:                -0.866
REMARK SMILES CCCCCCCCCCCCCCCC(=O)[O-]
REMARK SMILES IDX 9 1 10 2 11 3 12 4 13 5 14 6 15 7 16 8 17 9 18 10 8 11 7 12
REMARK SMILES IDX 6 13 5 14 4 15 3 16 2 17 1 18
REMARK H PARENT
REMARK Flexibility Score: inf
ROOT
ATOM      1  C   UNL     1      22.128  -2.096  21.965  1.00  0.00     0.000 C 
ENDROOT
BRANCH   1   2
ATOM      2  C   UNL     1      22.186  -3.613  22.182  1.00  0.00     0.000 C 
BRANCH   2   3
ATOM      3  C   UNL     1      21.128  -4.332  21.336  1.00  0.00     0.000 C 
BRANCH   3   4
ATOM      4  C   UNL     1      20.008  -4.898  22.221  1.00  0.00     0.000 C 
BRANCH   4   5
ATOM      5  C   UNL     1      20.379  -4.911  23.711  1.00  0.00     0.000 C 
BRANCH   5   6
ATOM      6  C   UNL     1      19.370  -4.138  24.579  1.00  0.00     0.006 C 
BRANCH   6   7
ATOM      7  C   UNL     1      17.981  -4.071  23.930  1.00  0.00     0.053 C 
BRANCH   7   8
ATOM      8  C   UNL     1      17.012  -3.298  24.772  1.00  0.00     0.041 C 
ATOM      9  O   UNL     1      16.073  -3.893  25.363  1.00  0.00    -0.550 OA
ATOM     10  O   UNL     1      17.125  -1.918  24.876  1.00  0.00    -0.550 OA
ENDBRANCH   7   8
ENDBRANCH   6   7
ENDBRANCH   5   6
ENDBRANCH   4   5
ENDBRANCH   3   4
ENDBRANCH   2   3
ENDBRANCH   1   2
BRANCH   1  11
ATOM     11  C   UNL     1      21.687  -1.373  23.243  1.00  0.00     0.000 C 
BRANCH  11  12
ATOM     12  C   UNL     1      20.223  -0.924  23.144  1.00  0.00    -0.000 C 
BRANCH  12  13
ATOM     13  C   UNL     1      19.768  -0.700  21.694  1.00  0.00    -0.000 C 
BRANCH  13  14
ATOM     14  C   UNL     1      18.538  -1.546  21.320  1.00  0.00    -0.000 C 
BRANCH  14  15
ATOM     15  C   UNL     1      18.598  -2.055  19.866  1.00  0.00    -0.000 C 
BRANCH  15  16
ATOM     16  C   UNL     1      19.621  -1.314  18.984  1.00  0.00    -0.000 C 
BRANCH  16  17
ATOM     17  C   UNL     1      20.638  -2.238  18.285  1.00  0.00    -0.003 C 
ATOM     18  C   UNL     1      20.008  -3.539  17.787  1.00  0.00     0.004 C 
ENDBRANCH  16  17
ENDBRANCH  15  16
ENDBRANCH  14  15
ENDBRANCH  13  14
ENDBRANCH  12  13
ENDBRANCH  11  12
ENDBRANCH   1  11
TORSDOF 14
ENDMDL
MODEL 7
REMARK VINA RESULT:    -5.054      9.393     11.864
REMARK INTER + INTRA:         -10.056
REMARK INTER:                  -8.337
REMARK INTRA:                  -1.719
REMARK UNBOUND:                -0.866
REMARK SMILES CCCCCCCCCCCCCCCC(=O)[O-]
REMARK SMILES IDX 9 1 10 2 11 3 12 4 13 5 14 6 15 7 16 8 17 9 18 10 8 11 7 12
REMARK SMILES IDX 6 13 5 14 4 15 3 16 2 17 1 18
REMARK H PARENT
REMARK Flexibility Score: inf
ROOT
ATOM      1  C   UNL     1      14.432   2.602   8.063  1.00  0.00     0.000 C 
ENDROOT
BRANCH   1   2
ATOM      2  C   UNL     1      13.116   3.316   8.391  1.00  0.00     0.000 C 
BRANCH   2   3
ATOM      3  C   UNL     1      13.335   4.823   8.571  1.00  0.00     0.000 C 
BRANCH   3   4
ATOM      4  C   UNL     1      12.986   5.263  10.001  1.00  0.00     0.000 C 
BRANCH   4   5
ATOM      5  C   UNL     1      12.594   4.084  10.905  1.00  0.00     0.000 C 
BRANCH   5   6
ATOM      6  C   UNL     1      11.918   4.539  12.210  1.00  0.00     0.006 C 
BRANCH   6   7
ATOM      7  C   UNL     1      10.658   5.375  11.948  1.00  0.00     0.053 C 
BRANCH   7   8
ATOM      8  C   UNL     1      10.643   6.628  12.770  1.00  0.00     0.041 C 
ATOM      9  O   UNL     1      10.315   6.584  13.985  1.00  0.00    -0.550 OA
ATOM     10  O   UNL     1      10.958   7.847  12.186  1.00  0.00    -0.550 OA
ENDBRANCH   7   8
ENDBRANCH   6   7
ENDBRANCH   5   6
ENDBRANCH   4   5
ENDBRANCH   3   4
ENDBRANCH   2   3
ENDBRANCH   1   2
BRANCH   1  11
ATOM     11  C   UNL     1      14.594   1.329   8.902  1.00  0.00     0.000 C 
BRANCH  11  12
ATOM     12  C   UNL     1      15.918   1.346   9.678  1.00  0.00    -0.000 C 
BRANCH  12  13
ATOM     13  C   UNL     1      15.889   2.301  10.881  1.00  0.00    -0.000 C 
BRANCH  13  14
ATOM     14  C   UNL     1      15.413   1.613  12.173  1.00  0.00    -0.000 C 
BRANCH  14  15
ATOM     15  C   UNL     1      15.132   2.623  13.304  1.00  0.00    -0.000 C 
BRANCH  15  16
ATOM     16  C   UNL     1      15.823   3.987  13.113  1.00  0.00    -0.000 C 
BRANCH  16  17
ATOM     17  C   UNL     1      16.533   4.517  14.374  1.00  0.00    -0.003 C 
ATOM     18  C   UNL     1      15.972   3.917  15.664  1.00  0.00     0.004 C 
ENDBRANCH  16  17
ENDBRANCH  15  16
ENDBRANCH  14  15
ENDBRANCH  13  14
ENDBRANCH  12  13
ENDBRANCH  11  12
ENDBRANCH   1  11
TORSDOF 14
ENDMDL
MODEL 8
REMARK VINA RESULT:    -4.981     10.489     12.940
REMARK INTER + INTRA:          -9.924
REMARK INTER:                  -7.374
REMARK INTRA:                  -2.550
REMARK UNBOUND:                -0.866
REMARK SMILES CCCCCCCCCCCCCCCC(=O)[O-]
REMARK SMILES IDX 9 1 10 2 11 3 12 4 13 5 14 6 15 7 16 8 17 9 18 10 8 11 7 12
REMARK SMILES IDX 6 13 5 14 4 15 3 16 2 17 1 18
REMARK H PARENT
REMARK Flexibility Score: inf
ROOT
ATOM      1  C   UNL     1      18.409  -3.742  25.021  1.00  0.00     0.000 C 
ENDROOT
BRANCH   1   2
ATOM      2  C   UNL     1      17.114  -4.052  24.261  1.00  0.00     0.000 C 
BRANCH   2   3
ATOM      3  C   UNL     1      16.251  -2.793  24.105  1.00  0.00     0.000 C 
BRANCH   3   4
ATOM      4  C   UNL     1      15.762  -2.636  22.658  1.00  0.00     0.000 C 
BRANCH   4   5
ATOM      5  C   UNL     1      16.747  -1.847  21.782  1.00  0.00     0.000 C 
BRANCH   5   6
ATOM      6  C   UNL     1      17.414  -2.723  20.706  1.00  0.00     0.006 C 
BRANCH   6   7
ATOM      7  C   UNL     1      16.670  -4.047  20.494  1.00  0.00     0.053 C 
BRANCH   7   8
ATOM      8  C   UNL     1      16.316  -4.260  19.053  1.00  0.00     0.041 C 
ATOM      9  O   UNL     1      16.288  -3.285  18.258  1.00  0.00    -0.550 OA
ATOM     10  O   UNL     1      15.983  -5.529  18.599  1.00  0.00    -0.550 OA
ENDBRANCH   7   8
ENDBRANCH   6   7
ENDBRANCH   5   6
ENDBRANCH   4   5
ENDBRANCH   3   4
ENDBRANCH   2   3
ENDBRANCH   1   2
BRANCH   1  11
ATOM     11  C   UNL     1      19.632  -4.278  24.267  1.00  0.00     0.000 C 
BRANCH  11  12
ATOM     12  C   UNL     1      19.208  -5.061  23.017  1.00  0.00    -0.000 C 
BRANCH  12  13
ATOM     13  C   UNL     1      20.231  -4.956  21.876  1.00  0.00    -0.000 C 
BRANCH  13  14
ATOM     14  C   UNL     1      21.614  -4.486  22.359  1.00  0.00    -0.000 C 
BRANCH  14  15
ATOM     15  C   UNL     1      22.115  -3.250  21.584  1.00  0.00    -0.000 C 
BRANCH  15  16
ATOM     16  C   UNL     1      21.930  -1.919  22.337  1.00  0.00    -0.000 C 
BRANCH  16  17
ATOM     17  C   UNL     1      20.550  -1.263  22.129  1.00  0.00    -0.003 C 
ATOM     18  C   UNL     1      19.967  -0.691  23.422  1.00  0.00     0.004 C 
ENDBRANCH  16  17
ENDBRANCH  15  16
ENDBRANCH  14  15
ENDBRANCH  13  14
ENDBRANCH  12  13
ENDBRANCH  11  12
ENDBRANCH   1  11
TORSDOF 14
ENDMDL
MODEL 9
REMARK VINA RESULT:    -4.958      4.223      8.543
REMARK INTER + INTRA:          -9.882
REMARK INTER:                  -8.675
REMARK INTRA:                  -1.207
REMARK UNBOUND:                -0.866
REMARK SMILES CCCCCCCCCCCCCCCC(=O)[O-]
REMARK SMILES IDX 9 1 10 2 11 3 12 4 13 5 14 6 15 7 16 8 17 9 18 10 8 11 7 12
REMARK SMILES IDX 6 13 5 14 4 15 3 16 2 17 1 18
REMARK H PARENT
REMARK Flexibility Score: inf
ROOT
ATOM      1  C   UNL     1       6.383   0.334  17.063  1.00  0.00     0.000 C 
ENDROOT
BRANCH   1   2
ATOM      2  C   UNL     1       5.399   1.414  17.530  1.00  0.00     0.000 C 
BRANCH   2   3
ATOM      3  C   UNL     1       5.854   2.807  17.077  1.00  0.00     0.000 C 
BRANCH   3   4
ATOM      4  C   UNL     1       7.370   2.978  17.258  1.00  0.00     0.000 C 
BRANCH   4   5
ATOM      5  C   UNL     1       7.728   4.168  18.161  1.00  0.00     0.000 C 
BRANCH   5   6
ATOM      6  C   UNL     1       7.220   3.990  19.603  1.00  0.00     0.006 C 
BRANCH   6   7
ATOM      7  C   UNL     1       8.242   4.475  20.640  1.00  0.00     0.053 C 
BRANCH   7   8
ATOM      8  C   UNL     1       7.588   5.243  21.748  1.00  0.00     0.041 C 
ATOM      9  O   UNL     1       7.033   6.348  21.510  1.00  0.00    -0.550 OA
ATOM     10  O   UNL     1       7.621   4.755  23.047  1.00  0.00    -0.550 OA
ENDBRANCH   7   8
ENDBRANCH   6   7
ENDBRANCH   5   6
ENDBRANCH   4   5
ENDBRANCH   3   4
ENDBRANCH   2   3
ENDBRANCH   1   2
BRANCH   1  11
ATOM     11  C   UNL     1       7.013  -0.391  18.258  1.00  0.00     0.000 C 
BRANCH  11  12
ATOM     12  C   UNL     1       8.458  -0.805  17.950  1.00  0.00    -0.000 C 
BRANCH  12  13
ATOM     13  C   UNL     1       8.828  -0.614  16.472  1.00  0.00    -0.000 C 
BRANCH  13  14
ATOM     14  C   UNL     1       8.640  -1.897  15.642  1.00  0.00    -0.000 C 
BRANCH  14  15
ATOM     15  C   UNL     1       9.976  -2.614  15.363  1.00  0.00    -0.000 C 
BRANCH  15  16
ATOM     16  C   UNL     1      10.175  -3.909  16.173  1.00  0.00    -0.000 C 
BRANCH  16  17
ATOM     17  C   UNL     1       8.874  -4.490  16.763  1.00  0.00    -0.003 C 
ATOM     18  C   UNL     1       8.878  -4.514  18.291  1.00  0.00     0.004 C 
ENDBRANCH  16  17
ENDBRANCH  15  16
ENDBRANCH  14  15
ENDBRANCH  13  14
ENDBRANCH  12  13
ENDBRANCH  11  12
ENDBRANCH   1  11
TORSDOF 14
ENDMDL
