MODEL 1
REMARK VINA RESULT:    -4.730      0.000      0.000
REMARK INTER + INTRA:         -16.255
REMARK INTER:                 -11.918
REMARK INTRA:                  -4.337
REMARK UNBOUND:                -4.337
REMARK SMILES CCCCCCCCCCCCCCCCCCCCCCCCCCCC(=O)[O-]
REMARK SMILES IDX 15 1 16 2 17 3 18 4 19 5 20 6 21 7 22 8 23 9 24 10 25 11
REMARK SMILES IDX 26 12 27 13 28 14 29 15 30 16 14 17 13 18 12 19 11 20 10 21
REMARK SMILES IDX 9 22 8 23 7 24 6 25 5 26 4 27 3 28 2 29 1 30
REMARK H PARENT
REMARK Flexibility Score: inf
ROOT
ATOM      1  C   UNL     1      16.475   2.636  -0.694  1.00  0.00     0.000 C 
ENDROOT
BRANCH   1   2
ATOM      2  C   UNL     1      15.427   3.765  -0.679  1.00  0.00     0.000 C 
BRANCH   2   3
ATOM      3  C   UNL     1      14.822   4.081   0.701  1.00  0.00     0.000 C 
BRANCH   3   4
ATOM      4  C   UNL     1      15.074   2.982   1.757  1.00  0.00     0.000 C 
BRANCH   4   5
ATOM      5  C   UNL     1      13.803   2.185   2.098  1.00  0.00     0.000 C 
BRANCH   5   6
ATOM      6  C   UNL     1      14.065   0.674   2.247  1.00  0.00     0.000 C 
BRANCH   6   7
ATOM      7  C   UNL     1      12.813  -0.182   2.518  1.00  0.00     0.000 C 
BRANCH   7   8
ATOM      8  C   UNL     1      12.338  -0.103   3.977  1.00  0.00     0.000 C 
BRANCH   8   9
ATOM      9  C   UNL     1      13.490  -0.232   4.989  1.00  0.00     0.000 C 
BRANCH   9  10
ATOM     10  C   UNL     1      13.315   0.651   6.244  1.00  0.00     0.000 C 
BRANCH  10  11
ATOM     11  C   UNL     1      14.260   1.866   6.230  1.00  0.00     0.000 C 
BRANCH  11  12
ATOM     12  C   UNL     1      15.535   1.618   5.408  1.00  0.00     0.006 C 
BRANCH  12  13
ATOM     13  C   UNL     1      16.793   2.172   6.087  1.00  0.00     0.053 C 
BRANCH  13  14
ATOM     14  C   UNL     1      17.592   1.061   6.689  1.00  0.00     0.041 C 
ATOM     15  O   UNL     1      17.010   0.089   7.238  1.00  0.00    -0.550 OA
ATOM     16  O   UNL     1      18.979   1.079   6.610  1.00  0.00    -0.550 OA
ENDBRANCH  13  14
ENDBRANCH  12  13
ENDBRANCH  11  12
ENDBRANCH  10  11
ENDBRANCH   9  10
ENDBRANCH   8   9
ENDBRANCH   7   8
ENDBRANCH   6   7
ENDBRANCH   5   6
ENDBRANCH   4   5
ENDBRANCH   3   4
ENDBRANCH   2   3
ENDBRANCH   1   2
BRANCH   1  17
ATOM     17  C   UNL     1      16.220   1.517  -1.721  1.00  0.00     0.000 C 
BRANCH  17  18
ATOM     18  C   UNL     1      15.018   0.629  -1.355  1.00  0.00     0.000 C 
BRANCH  18  19
ATOM     19  C   UNL     1      13.967   0.565  -2.485  1.00  0.00     0.000 C 
BRANCH  19  20
ATOM     20  C   UNL     1      13.005   1.767  -2.504  1.00  0.00     0.000 C 
BRANCH  20  21
ATOM     21  C   UNL     1      12.185   1.891  -1.211  1.00  0.00     0.000 C 
BRANCH  21  22
ATOM     22  C   UNL     1      11.461   0.588  -0.823  1.00  0.00    -0.000 C 
BRANCH  22  23
ATOM     23  C   UNL     1       9.989   0.746  -0.398  1.00  0.00    -0.000 C 
BRANCH  23  24
ATOM     24  C   UNL     1       9.235   1.810  -1.215  1.00  0.00    -0.000 C 
BRANCH  24  25
ATOM     25  C   UNL     1       7.934   2.271  -0.533  1.00  0.00    -0.000 C 
BRANCH  25  26
ATOM     26  C   UNL     1       7.907   3.751  -0.094  1.00  0.00    -0.000 C 
BRANCH  26  27
ATOM     27  C   UNL     1       8.869   4.679  -0.857  1.00  0.00    -0.000 C 
BRANCH  27  28
ATOM     28  C   UNL     1       9.485   5.765   0.043  1.00  0.00    -0.000 C 
BRANCH  28  29
ATOM     29  C   UNL     1       9.765   5.264   1.469  1.00  0.00    -0.003 C 
ATOM     30  C   UNL     1      11.236   4.917   1.699  1.00  0.00     0.004 C 
ENDBRANCH  28  29
ENDBRANCH  27  28
ENDBRANCH  26  27
ENDBRANCH  25  26
ENDBRANCH  24  25
ENDBRANCH  23  24
ENDBRANCH  22  23
ENDBRANCH  21  22
ENDBRANCH  20  21
ENDBRANCH  19  20
ENDBRANCH  18  19
ENDBRANCH  17  18
ENDBRANCH   1  17
TORSDOF 26
ENDMDL
MODEL 2
REMARK VINA RESULT:    -4.719      2.898      7.278
REMARK INTER + INTRA:         -16.229
REMARK INTER:                 -11.695
REMARK INTRA:                  -4.534
REMARK UNBOUND:                -4.337
REMARK SMILES CCCCCCCCCCCCCCCCCCCCCCCCCCCC(=O)[O-]
REMARK SMILES IDX 15 1 16 2 17 3 18 4 19 5 20 6 21 7 22 8 23 9 24 10 25 11
REMARK SMILES IDX 26 12 27 13 28 14 29 15 30 16 14 17 13 18 12 19 11 20 10 21
REMARK SMILES IDX 9 22 8 23 7 24 6 25 5 26 4 27 3 28 2 29 1 30
REMARK H PARENT
REMARK Flexibility Score: inf
ROOT
ATOM      1  C   UNL     1      13.985   3.521  -0.426  1.00  0.00     0.000 C 
ENDROOT
BRANCH   1   2
ATOM      2  C   UNL     1      15.055   3.236  -1.497  1.00  0.00     0.000 C 
BRANCH   2   3
ATOM      3  C   UNL     1      16.178   2.278  -1.062  1.00  0.00     0.000 C 
BRANCH   3   4
ATOM      4  C   UNL     1      16.411   1.105  -2.040  1.00  0.00     0.000 C 
BRANCH   4   5
ATOM      5  C   UNL     1      15.113   0.355  -2.385  1.00  0.00     0.000 C 
BRANCH   5   6
ATOM      6  C   UNL     1      14.562  -0.465  -1.203  1.00  0.00     0.000 C 
BRANCH   6   7
ATOM      7  C   UNL     1      13.028  -0.446  -1.053  1.00  0.00     0.000 C 
BRANCH   7   8
ATOM      8  C   UNL     1      12.360   0.662  -1.881  1.00  0.00     0.000 C 
BRANCH   8   9
ATOM      9  C   UNL     1      10.825   0.551  -1.901  1.00  0.00     0.000 C 
BRANCH   9  10
ATOM     10  C   UNL     1      10.175   0.685  -0.506  1.00  0.00     0.000 C 
BRANCH  10  11
ATOM     11  C   UNL     1       9.095   1.781  -0.476  1.00  0.00     0.000 C 
BRANCH  11  12
ATOM     12  C   UNL     1       9.686   3.199  -0.483  1.00  0.00     0.006 C 
BRANCH  12  13
ATOM     13  C   UNL     1      10.546   3.487   0.753  1.00  0.00     0.053 C 
BRANCH  13  14
ATOM     14  C   UNL     1      10.343   4.896   1.212  1.00  0.00     0.041 C 
ATOM     15  O   UNL     1       9.879   5.759   0.421  1.00  0.00    -0.550 OA
ATOM     16  O   UNL     1      10.628   5.247   2.526  1.00  0.00    -0.550 OA
ENDBRANCH  13  14
ENDBRANCH  12  13
ENDBRANCH  11  12
ENDBRANCH  10  11
ENDBRANCH   9  10
ENDBRANCH   8   9
ENDBRANCH   7   8
ENDBRANCH   6   7
ENDBRANCH   5   6
ENDBRANCH   4   5
ENDBRANCH   3   4
ENDBRANCH   2   3
ENDBRANCH   1   2
BRANCH   1  17
ATOM     17  C   UNL     1      14.499   4.226   0.844  1.00  0.00     0.000 C 
BRANCH  17  18
ATOM     18  C   UNL     1      14.033   3.541   2.141  1.00  0.00     0.000 C 
BRANCH  18  19
ATOM     19  C   UNL     1      14.995   2.421   2.594  1.00  0.00     0.000 C 
BRANCH  19  20
ATOM     20  C   UNL     1      14.413   1.004   2.440  1.00  0.00     0.000 C 
BRANCH  20  21
ATOM     21  C   UNL     1      12.881   1.003   2.315  1.00  0.00     0.000 C 
BRANCH  21  22
ATOM     22  C   UNL     1      12.197  -0.028   3.231  1.00  0.00    -0.000 C 
BRANCH  22  23
ATOM     23  C   UNL     1      13.015  -0.475   4.458  1.00  0.00    -0.000 C 
BRANCH  23  24
ATOM     24  C   UNL     1      12.335  -0.132   5.794  1.00  0.00    -0.000 C 
BRANCH  24  25
ATOM     25  C   UNL     1      13.210   0.760   6.695  1.00  0.00    -0.000 C 
BRANCH  25  26
ATOM     26  C   UNL     1      14.711   0.793   6.334  1.00  0.00    -0.000 C 
BRANCH  26  27
ATOM     27  C   UNL     1      15.371   2.183   6.396  1.00  0.00    -0.000 C 
BRANCH  27  28
ATOM     28  C   UNL     1      16.854   2.155   5.989  1.00  0.00    -0.000 C 
BRANCH  28  29
ATOM     29  C   UNL     1      17.561   0.858   6.415  1.00  0.00    -0.003 C 
ATOM     30  C   UNL     1      18.482   1.052   7.620  1.00  0.00     0.004 C 
ENDBRANCH  28  29
ENDBRANCH  27  28
ENDBRANCH  26  27
ENDBRANCH  25  26
ENDBRANCH  24  25
ENDBRANCH  23  24
ENDBRANCH  22  23
ENDBRANCH  21  22
ENDBRANCH  20  21
ENDBRANCH  19  20
ENDBRANCH  18  19
ENDBRANCH  17  18
ENDBRANCH   1  17
TORSDOF 26
ENDMDL
MODEL 3
REMARK VINA RESULT:    -4.610      1.514      5.577
REMARK INTER + INTRA:         -15.955
REMARK INTER:                 -11.093
REMARK INTRA:                  -4.862
REMARK UNBOUND:                -4.337
REMARK SMILES CCCCCCCCCCCCCCCCCCCCCCCCCCCC(=O)[O-]
REMARK SMILES IDX 15 1 16 2 17 3 18 4 19 5 20 6 21 7 22 8 23 9 24 10 25 11
REMARK SMILES IDX 26 12 27 13 28 14 29 15 30 16 14 17 13 18 12 19 11 20 10 21
REMARK SMILES IDX 9 22 8 23 7 24 6 25 5 26 4 27 3 28 2 29 1 30
REMARK H PARENT
REMARK Flexibility Score: inf
ROOT
ATOM      1  C   UNL     1       8.550   2.152   0.324  1.00  0.00     0.000 C 
ENDROOT
BRANCH   1   2
ATOM      2  C   UNL     1       8.854   2.911  -0.981  1.00  0.00     0.000 C 
BRANCH   2   3
ATOM      3  C   UNL     1       8.592   4.427  -0.934  1.00  0.00     0.000 C 
BRANCH   3   4
ATOM      4  C   UNL     1       8.113   4.934   0.444  1.00  0.00     0.000 C 
BRANCH   4   5
ATOM      5  C   UNL     1       9.158   5.816   1.148  1.00  0.00     0.000 C 
BRANCH   5   6
ATOM      6  C   UNL     1      10.171   5.002   1.975  1.00  0.00     0.000 C 
BRANCH   6   7
ATOM      7  C   UNL     1      11.455   4.600   1.225  1.00  0.00     0.000 C 
BRANCH   7   8
ATOM      8  C   UNL     1      12.585   4.156   2.166  1.00  0.00     0.000 C 
BRANCH   8   9
ATOM      9  C   UNL     1      13.972   4.209   1.503  1.00  0.00     0.000 C 
BRANCH   9  10
ATOM     10  C   UNL     1      15.018   3.294   2.177  1.00  0.00     0.000 C 
BRANCH  10  11
ATOM     11  C   UNL     1      14.518   1.844   2.305  1.00  0.00     0.000 C 
BRANCH  11  12
ATOM     12  C   UNL     1      14.409   1.379   3.766  1.00  0.00     0.006 C 
BRANCH  12  13
ATOM     13  C   UNL     1      15.672   1.686   4.579  1.00  0.00     0.053 C 
BRANCH  13  14
ATOM     14  C   UNL     1      15.322   1.919   6.014  1.00  0.00     0.041 C 
ATOM     15  O   UNL     1      16.229   2.143   6.858  1.00  0.00    -0.550 OA
ATOM     16  O   UNL     1      13.991   1.929   6.414  1.00  0.00    -0.550 OA
ENDBRANCH  13  14
ENDBRANCH  12  13
ENDBRANCH  11  12
ENDBRANCH  10  11
ENDBRANCH   9  10
ENDBRANCH   8   9
ENDBRANCH   7   8
ENDBRANCH   6   7
ENDBRANCH   5   6
ENDBRANCH   4   5
ENDBRANCH   3   4
ENDBRANCH   2   3
ENDBRANCH   1   2
BRANCH   1  17
ATOM     17  C   UNL     1       8.191   0.664   0.149  1.00  0.00     0.000 C 
BRANCH  17  18
ATOM     18  C   UNL     1       8.905  -0.248   1.162  1.00  0.00     0.000 C 
BRANCH  18  19
ATOM     19  C   UNL     1       9.740   0.550   2.187  1.00  0.00     0.000 C 
BRANCH  19  20
ATOM     20  C   UNL     1      11.228   0.674   1.812  1.00  0.00     0.000 C 
BRANCH  20  21
ATOM     21  C   UNL     1      11.771  -0.585   1.118  1.00  0.00     0.000 C 
BRANCH  21  22
ATOM     22  C   UNL     1      12.461  -0.289  -0.226  1.00  0.00    -0.000 C 
BRANCH  22  23
ATOM     23  C   UNL     1      11.537   0.209  -1.353  1.00  0.00    -0.000 C 
BRANCH  23  24
ATOM     24  C   UNL     1      12.185   1.294  -2.230  1.00  0.00    -0.000 C 
BRANCH  24  25
ATOM     25  C   UNL     1      12.597   2.541  -1.426  1.00  0.00    -0.000 C 
BRANCH  25  26
ATOM     26  C   UNL     1      13.632   3.458  -2.112  1.00  0.00    -0.000 C 
BRANCH  26  27
ATOM     27  C   UNL     1      15.100   3.190  -1.732  1.00  0.00    -0.000 C 
BRANCH  27  28
ATOM     28  C   UNL     1      15.326   1.760  -1.211  1.00  0.00    -0.000 C 
BRANCH  28  29
ATOM     29  C   UNL     1      16.160   0.902  -2.176  1.00  0.00    -0.003 C 
ATOM     30  C   UNL     1      15.337  -0.185  -2.867  1.00  0.00     0.004 C 
ENDBRANCH  28  29
ENDBRANCH  27  28
ENDBRANCH  26  27
ENDBRANCH  25  26
ENDBRANCH  24  25
ENDBRANCH  23  24
ENDBRANCH  22  23
ENDBRANCH  21  22
ENDBRANCH  20  21
ENDBRANCH  19  20
ENDBRANCH  18  19
ENDBRANCH  17  18
ENDBRANCH   1  17
TORSDOF 26
ENDMDL
MODEL 4
REMARK VINA RESULT:    -4.524      2.436      7.243
REMARK INTER + INTRA:         -15.737
REMARK INTER:                 -11.474
REMARK INTRA:                  -4.263
REMARK UNBOUND:                -4.337
REMARK SMILES CCCCCCCCCCCCCCCCCCCCCCCCCCCC(=O)[O-]
REMARK SMILES IDX 15 1 16 2 17 3 18 4 19 5 20 6 21 7 22 8 23 9 24 10 25 11
REMARK SMILES IDX 26 12 27 13 28 14 29 15 30 16 14 17 13 18 12 19 11 20 10 21
REMARK SMILES IDX 9 22 8 23 7 24 6 25 5 26 4 27 3 28 2 29 1 30
REMARK H PARENT
REMARK Flexibility Score: inf
ROOT
ATOM      1  C   UNL     1      13.625   4.526   1.512  1.00  0.00     0.000 C 
ENDROOT
BRANCH   1   2
ATOM      2  C   UNL     1      12.142   4.141   1.355  1.00  0.00     0.000 C 
BRANCH   2   3
ATOM      3  C   UNL     1      11.141   5.108   2.013  1.00  0.00     0.000 C 
BRANCH   3   4
ATOM      4  C   UNL     1       9.671   4.845   1.619  1.00  0.00     0.000 C 
BRANCH   4   5
ATOM      5  C   UNL     1       9.169   5.805   0.527  1.00  0.00     0.000 C 
BRANCH   5   6
ATOM      6  C   UNL     1       8.631   5.071  -0.716  1.00  0.00     0.000 C 
BRANCH   6   7
ATOM      7  C   UNL     1       9.437   3.829  -1.141  1.00  0.00     0.000 C 
BRANCH   7   8
ATOM      8  C   UNL     1       8.649   2.520  -0.976  1.00  0.00     0.000 C 
BRANCH   8   9
ATOM      9  C   UNL     1       9.537   1.269  -1.098  1.00  0.00     0.000 C 
BRANCH   9  10
ATOM     10  C   UNL     1      10.995   1.495  -0.640  1.00  0.00     0.000 C 
BRANCH  10  11
ATOM     11  C   UNL     1      12.009   1.084  -1.722  1.00  0.00     0.000 C 
BRANCH  11  12
ATOM     12  C   UNL     1      13.156   2.096  -1.876  1.00  0.00     0.006 C 
BRANCH  12  13
ATOM     13  C   UNL     1      14.531   1.477  -1.598  1.00  0.00     0.053 C 
BRANCH  13  14
ATOM     14  C   UNL     1      15.556   2.549  -1.412  1.00  0.00     0.041 C 
ATOM     15  O   UNL     1      16.730   2.250  -1.068  1.00  0.00    -0.550 OA
ATOM     16  O   UNL     1      15.227   3.877  -1.658  1.00  0.00    -0.550 OA
ENDBRANCH  13  14
ENDBRANCH  12  13
ENDBRANCH  11  12
ENDBRANCH  10  11
ENDBRANCH   9  10
ENDBRANCH   8   9
ENDBRANCH   7   8
ENDBRANCH   6   7
ENDBRANCH   5   6
ENDBRANCH   4   5
ENDBRANCH   3   4
ENDBRANCH   2   3
ENDBRANCH   1   2
BRANCH   1  17
ATOM     17  C   UNL     1      14.551   3.391   1.991  1.00  0.00     0.000 C 
BRANCH  17  18
ATOM     18  C   UNL     1      13.782   2.212   2.614  1.00  0.00     0.000 C 
BRANCH  18  19
ATOM     19  C   UNL     1      14.278   0.845   2.093  1.00  0.00     0.000 C 
BRANCH  19  20
ATOM     20  C   UNL     1      13.189  -0.243   2.077  1.00  0.00     0.000 C 
BRANCH  20  21
ATOM     21  C   UNL     1      11.878   0.220   2.731  1.00  0.00     0.000 C 
BRANCH  21  22
ATOM     22  C   UNL     1      11.303  -0.801   3.731  1.00  0.00    -0.000 C 
BRANCH  22  23
ATOM     23  C   UNL     1      11.345  -0.378   5.212  1.00  0.00    -0.000 C 
BRANCH  23  24
ATOM     24  C   UNL     1      12.751  -0.477   5.828  1.00  0.00    -0.000 C 
BRANCH  24  25
ATOM     25  C   UNL     1      13.030   0.640   6.851  1.00  0.00    -0.000 C 
BRANCH  25  26
ATOM     26  C   UNL     1      13.866   1.826   6.324  1.00  0.00    -0.000 C 
BRANCH  26  27
ATOM     27  C   UNL     1      15.244   1.453   5.748  1.00  0.00    -0.000 C 
BRANCH  27  28
ATOM     28  C   UNL     1      16.388   2.277   6.365  1.00  0.00    -0.000 C 
BRANCH  28  29
ATOM     29  C   UNL     1      17.689   1.473   6.508  1.00  0.00    -0.003 C 
ATOM     30  C   UNL     1      17.461  -0.038   6.470  1.00  0.00     0.004 C 
ENDBRANCH  28  29
ENDBRANCH  27  28
ENDBRANCH  26  27
ENDBRANCH  25  26
ENDBRANCH  24  25
ENDBRANCH  23  24
ENDBRANCH  22  23
ENDBRANCH  21  22
ENDBRANCH  20  21
ENDBRANCH  19  20
ENDBRANCH  18  19
ENDBRANCH  17  18
ENDBRANCH   1  17
TORSDOF 26
ENDMDL
MODEL 5
REMARK VINA RESULT:    -4.520      1.201      3.180
REMARK INTER + INTRA:         -15.727
REMARK INTER:                 -11.601
REMARK INTRA:                  -4.126
REMARK UNBOUND:                -4.337
REMARK SMILES CCCCCCCCCCCCCCCCCCCCCCCCCCCC(=O)[O-]
REMARK SMILES IDX 15 1 16 2 17 3 18 4 19 5 20 6 21 7 22 8 23 9 24 10 25 11
REMARK SMILES IDX 26 12 27 13 28 14 29 15 30 16 14 17 13 18 12 19 11 20 10 21
REMARK SMILES IDX 9 22 8 23 7 24 6 25 5 26 4 27 3 28 2 29 1 30
REMARK H PARENT
REMARK Flexibility Score: inf
ROOT
ATOM      1  C   UNL     1      15.226   2.544  -1.826  1.00  0.00     0.000 C 
ENDROOT
BRANCH   1   2
ATOM      2  C   UNL     1      15.922   1.172  -1.903  1.00  0.00     0.000 C 
BRANCH   2   3
ATOM      3  C   UNL     1      15.023   0.006  -2.353  1.00  0.00     0.000 C 
BRANCH   3   4
ATOM      4  C   UNL     1      14.604  -0.937  -1.203  1.00  0.00     0.000 C 
BRANCH   4   5
ATOM      5  C   UNL     1      13.296  -0.498  -0.523  1.00  0.00     0.000 C 
BRANCH   5   6
ATOM      6  C   UNL     1      13.505  -0.021   0.927  1.00  0.00     0.000 C 
BRANCH   6   7
ATOM      7  C   UNL     1      12.284   0.665   1.571  1.00  0.00     0.000 C 
BRANCH   7   8
ATOM      8  C   UNL     1      12.089   0.277   3.045  1.00  0.00     0.000 C 
BRANCH   8   9
ATOM      9  C   UNL     1      13.419   0.094   3.796  1.00  0.00     0.000 C 
BRANCH   9  10
ATOM     10  C   UNL     1      13.808   1.305   4.673  1.00  0.00     0.000 C 
BRANCH  10  11
ATOM     11  C   UNL     1      15.334   1.479   4.771  1.00  0.00     0.000 C 
BRANCH  11  12
ATOM     12  C   UNL     1      15.795   1.914   6.171  1.00  0.00     0.006 C 
BRANCH  12  13
ATOM     13  C   UNL     1      17.319   2.038   6.280  1.00  0.00     0.053 C 
BRANCH  13  14
ATOM     14  C   UNL     1      17.872   0.935   7.124  1.00  0.00     0.041 C 
ATOM     15  O   UNL     1      17.453  -0.244   6.979  1.00  0.00    -0.550 OA
ATOM     16  O   UNL     1      18.879   1.200   8.044  1.00  0.00    -0.550 OA
ENDBRANCH  13  14
ENDBRANCH  12  13
ENDBRANCH  11  12
ENDBRANCH  10  11
ENDBRANCH   9  10
ENDBRANCH   8   9
ENDBRANCH   7   8
ENDBRANCH   6   7
ENDBRANCH   5   6
ENDBRANCH   4   5
ENDBRANCH   3   4
ENDBRANCH   2   3
ENDBRANCH   1   2
BRANCH   1  17
ATOM     17  C   UNL     1      15.642   3.424  -0.632  1.00  0.00     0.000 C 
BRANCH  17  18
ATOM     18  C   UNL     1      15.643   2.662   0.704  1.00  0.00     0.000 C 
BRANCH  18  19
ATOM     19  C   UNL     1      14.870   3.412   1.811  1.00  0.00     0.000 C 
BRANCH  19  20
ATOM     20  C   UNL     1      13.917   4.496   1.274  1.00  0.00     0.000 C 
BRANCH  20  21
ATOM     21  C   UNL     1      12.667   4.673   2.151  1.00  0.00     0.000 C 
BRANCH  21  22
ATOM     22  C   UNL     1      11.412   5.060   1.347  1.00  0.00    -0.000 C 
BRANCH  22  23
ATOM     23  C   UNL     1      10.076   4.952   2.107  1.00  0.00    -0.000 C 
BRANCH  23  24
ATOM     24  C   UNL     1       8.963   5.821   1.499  1.00  0.00    -0.000 C 
BRANCH  24  25
ATOM     25  C   UNL     1       7.920   4.995   0.724  1.00  0.00    -0.000 C 
BRANCH  25  26
ATOM     26  C   UNL     1       8.038   5.056  -0.814  1.00  0.00    -0.000 C 
BRANCH  26  27
ATOM     27  C   UNL     1       9.087   4.112  -1.430  1.00  0.00    -0.000 C 
BRANCH  27  28
ATOM     28  C   UNL     1       9.035   2.696  -0.832  1.00  0.00    -0.000 C 
BRANCH  28  29
ATOM     29  C   UNL     1      10.286   1.867  -1.161  1.00  0.00    -0.003 C 
ATOM     30  C   UNL     1      11.555   2.715  -1.251  1.00  0.00     0.004 C 
ENDBRANCH  28  29
ENDBRANCH  27  28
ENDBRANCH  26  27
ENDBRANCH  25  26
ENDBRANCH  24  25
ENDBRANCH  23  24
ENDBRANCH  22  23
ENDBRANCH  21  22
ENDBRANCH  20  21
ENDBRANCH  19  20
ENDBRANCH  18  19
ENDBRANCH  17  18
ENDBRANCH   1  17
TORSDOF 26
ENDMDL
MODEL 6
REMARK VINA RESULT:    -4.509      3.439      6.880
REMARK INTER + INTRA:         -15.699
REMARK INTER:                 -11.140
REMARK INTRA:                  -4.558
REMARK UNBOUND:                -4.337
REMARK SMILES CCCCCCCCCCCCCCCCCCCCCCCCCCCC(=O)[O-]
REMARK SMILES IDX 15 1 16 2 17 3 18 4 19 5 20 6 21 7 22 8 23 9 24 10 25 11
REMARK SMILES IDX 26 12 27 13 28 14 29 15 30 16 14 17 13 18 12 19 11 20 10 21
REMARK SMILES IDX 9 22 8 23 7 24 6 25 5 26 4 27 3 28 2 29 1 30
REMARK H PARENT
REMARK Flexibility Score: inf
ROOT
ATOM      1  C   UNL     1      12.063   1.342  -1.468  1.00  0.00     0.000 C 
ENDROOT
BRANCH   1   2
ATOM      2  C   UNL     1      13.161   1.449  -2.543  1.00  0.00     0.000 C 
BRANCH   2   3
ATOM      3  C   UNL     1      14.175   0.291  -2.563  1.00  0.00     0.000 C 
BRANCH   3   4
ATOM      4  C   UNL     1      15.299   0.430  -1.513  1.00  0.00     0.000 C 
BRANCH   4   5
ATOM      5  C   UNL     1      16.206   1.645  -1.773  1.00  0.00     0.000 C 
BRANCH   5   6
ATOM      6  C   UNL     1      16.266   2.616  -0.579  1.00  0.00     0.000 C 
BRANCH   6   7
ATOM      7  C   UNL     1      15.330   3.835  -0.680  1.00  0.00     0.000 C 
BRANCH   7   8
ATOM      8  C   UNL     1      14.700   4.219   0.668  1.00  0.00     0.000 C 
BRANCH   8   9
ATOM      9  C   UNL     1      13.176   4.006   0.698  1.00  0.00     0.000 C 
BRANCH   9  10
ATOM     10  C   UNL     1      12.534   4.302   2.071  1.00  0.00     0.000 C 
BRANCH  10  11
ATOM     11  C   UNL     1      11.257   5.150   1.940  1.00  0.00     0.000 C 
BRANCH  11  12
ATOM     12  C   UNL     1      10.004   4.301   1.673  1.00  0.00     0.006 C 
BRANCH  12  13
ATOM     13  C   UNL     1       8.896   5.090   0.964  1.00  0.00     0.053 C 
BRANCH  13  14
ATOM     14  C   UNL     1       9.269   5.345  -0.461  1.00  0.00     0.041 C 
ATOM     15  O   UNL     1       9.044   6.468  -0.983  1.00  0.00    -0.550 OA
ATOM     16  O   UNL     1       9.902   4.354  -1.203  1.00  0.00    -0.550 OA
ENDBRANCH  13  14
ENDBRANCH  12  13
ENDBRANCH  11  12
ENDBRANCH  10  11
ENDBRANCH   9  10
ENDBRANCH   8   9
ENDBRANCH   7   8
ENDBRANCH   6   7
ENDBRANCH   5   6
ENDBRANCH   4   5
ENDBRANCH   3   4
ENDBRANCH   2   3
ENDBRANCH   1   2
BRANCH   1  17
ATOM     17  C   UNL     1      10.674   0.926  -1.988  1.00  0.00     0.000 C 
BRANCH  17  18
ATOM     18  C   UNL     1      10.287  -0.507  -1.585  1.00  0.00     0.000 C 
BRANCH  18  19
ATOM     19  C   UNL     1       8.899  -0.575  -0.911  1.00  0.00     0.000 C 
BRANCH  19  20
ATOM     20  C   UNL     1       8.276   0.806  -0.635  1.00  0.00     0.000 C 
BRANCH  20  21
ATOM     21  C   UNL     1       8.224   1.144   0.863  1.00  0.00     0.000 C 
BRANCH  21  22
ATOM     22  C   UNL     1       8.994   0.138   1.740  1.00  0.00    -0.000 C 
BRANCH  22  23
ATOM     23  C   UNL     1      10.212   0.707   2.492  1.00  0.00    -0.000 C 
BRANCH  23  24
ATOM     24  C   UNL     1      11.549   0.391   1.803  1.00  0.00    -0.000 C 
BRANCH  24  25
ATOM     25  C   UNL     1      12.731   0.349   2.789  1.00  0.00    -0.000 C 
BRANCH  25  26
ATOM     26  C   UNL     1      14.079   0.849   2.228  1.00  0.00    -0.000 C 
BRANCH  26  27
ATOM     27  C   UNL     1      14.937   1.666   3.211  1.00  0.00    -0.000 C 
BRANCH  27  28
ATOM     28  C   UNL     1      15.345   0.859   4.455  1.00  0.00    -0.000 C 
BRANCH  28  29
ATOM     29  C   UNL     1      15.466   1.731   5.715  1.00  0.00    -0.003 C 
ATOM     30  C   UNL     1      16.815   2.443   5.818  1.00  0.00     0.004 C 
ENDBRANCH  28  29
ENDBRANCH  27  28
ENDBRANCH  26  27
ENDBRANCH  25  26
ENDBRANCH  24  25
ENDBRANCH  23  24
ENDBRANCH  22  23
ENDBRANCH  21  22
ENDBRANCH  20  21
ENDBRANCH  19  20
ENDBRANCH  18  19
ENDBRANCH  17  18
ENDBRANCH   1  17
TORSDOF 26
ENDMDL
MODEL 7
REMARK VINA RESULT:    -4.422      3.594      7.572
REMARK INTER + INTRA:         -15.479
REMARK INTER:                 -10.669
REMARK INTRA:                  -4.810
REMARK UNBOUND:                -4.337
REMARK SMILES CCCCCCCCCCCCCCCCCCCCCCCCCCCC(=O)[O-]
REMARK SMILES IDX 15 1 16 2 17 3 18 4 19 5 20 6 21 7 22 8 23 9 24 10 25 11
REMARK SMILES IDX 26 12 27 13 28 14 29 15 30 16 14 17 13 18 12 19 11 20 10 21
REMARK SMILES IDX 9 22 8 23 7 24 6 25 5 26 4 27 3 28 2 29 1 30
REMARK H PARENT
REMARK Flexibility Score: inf
ROOT
ATOM      1  C   UNL     1      15.895   2.945  -0.154  1.00  0.00     0.000 C 
ENDROOT
BRANCH   1   2
ATOM      2  C   UNL     1      15.081   4.089  -0.789  1.00  0.00     0.000 C 
BRANCH   2   3
ATOM      3  C   UNL     1      14.403   3.745  -2.128  1.00  0.00     0.000 C 
BRANCH   3   4
ATOM      4  C   UNL     1      13.162   2.836  -1.982  1.00  0.00     0.000 C 
BRANCH   4   5
ATOM      5  C   UNL     1      13.411   1.407  -2.491  1.00  0.00     0.000 C 
BRANCH   5   6
ATOM      6  C   UNL     1      12.542   0.355  -1.776  1.00  0.00     0.000 C 
BRANCH   6   7
ATOM      7  C   UNL     1      11.026   0.631  -1.805  1.00  0.00     0.000 C 
BRANCH   7   8
ATOM      8  C   UNL     1      10.234  -0.277  -0.852  1.00  0.00     0.000 C 
BRANCH   8   9
ATOM      9  C   UNL     1       9.040   0.440  -0.197  1.00  0.00     0.000 C 
BRANCH   9  10
ATOM     10  C   UNL     1       8.919   1.929  -0.589  1.00  0.00     0.000 C 
BRANCH  10  11
ATOM     11  C   UNL     1       8.919   2.850   0.644  1.00  0.00     0.000 C 
BRANCH  11  12
ATOM     12  C   UNL     1       9.893   4.031   0.504  1.00  0.00     0.006 C 
BRANCH  12  13
ATOM     13  C   UNL     1      10.103   4.454  -0.955  1.00  0.00     0.053 C 
BRANCH  13  14
ATOM     14  C   UNL     1       9.291   5.670  -1.267  1.00  0.00     0.041 C 
ATOM     15  O   UNL     1       8.778   5.814  -2.407  1.00  0.00    -0.550 OA
ATOM     16  O   UNL     1       9.067   6.627  -0.285  1.00  0.00    -0.550 OA
ENDBRANCH  13  14
ENDBRANCH  12  13
ENDBRANCH  11  12
ENDBRANCH  10  11
ENDBRANCH   9  10
ENDBRANCH   8   9
ENDBRANCH   7   8
ENDBRANCH   6   7
ENDBRANCH   5   6
ENDBRANCH   4   5
ENDBRANCH   3   4
ENDBRANCH   2   3
ENDBRANCH   1   2
BRANCH   1  17
ATOM     17  C   UNL     1      15.317   2.380   1.158  1.00  0.00     0.000 C 
BRANCH  17  18
ATOM     18  C   UNL     1      14.574   3.438   1.991  1.00  0.00     0.000 C 
BRANCH  18  19
ATOM     19  C   UNL     1      13.084   3.085   2.197  1.00  0.00     0.000 C 
BRANCH  19  20
ATOM     20  C   UNL     1      12.635   1.827   1.433  1.00  0.00     0.000 C 
BRANCH  20  21
ATOM     21  C   UNL     1      12.025   0.760   2.354  1.00  0.00     0.000 C 
BRANCH  21  22
ATOM     22  C   UNL     1      12.910  -0.492   2.504  1.00  0.00    -0.000 C 
BRANCH  22  23
ATOM     23  C   UNL     1      13.296  -0.865   3.948  1.00  0.00    -0.000 C 
BRANCH  23  24
ATOM     24  C   UNL     1      12.485  -0.100   5.007  1.00  0.00    -0.000 C 
BRANCH  24  25
ATOM     25  C   UNL     1      13.379   0.645   6.016  1.00  0.00    -0.000 C 
BRANCH  25  26
ATOM     26  C   UNL     1      14.173   1.838   5.442  1.00  0.00    -0.000 C 
BRANCH  26  27
ATOM     27  C   UNL     1      15.669   1.573   5.194  1.00  0.00    -0.000 C 
BRANCH  27  28
ATOM     28  C   UNL     1      16.537   1.873   6.428  1.00  0.00    -0.000 C 
BRANCH  28  29
ATOM     29  C   UNL     1      17.367   0.661   6.879  1.00  0.00    -0.003 C 
ATOM     30  C   UNL     1      18.866   0.848   6.648  1.00  0.00     0.004 C 
ENDBRANCH  28  29
ENDBRANCH  27  28
ENDBRANCH  26  27
ENDBRANCH  25  26
ENDBRANCH  24  25
ENDBRANCH  23  24
ENDBRANCH  22  23
ENDBRANCH  21  22
ENDBRANCH  20  21
ENDBRANCH  19  20
ENDBRANCH  18  19
ENDBRANCH  17  18
ENDBRANCH   1  17
TORSDOF 26
ENDMDL
MODEL 8
REMARK VINA RESULT:    -4.421      1.297      4.358
REMARK INTER + INTRA:         -15.478
REMARK INTER:                 -11.218
REMARK INTRA:                  -4.259
REMARK UNBOUND:                -4.337
REMARK SMILES CCCCCCCCCCCCCCCCCCCCCCCCCCCC(=O)[O-]
REMARK SMILES IDX 15 1 16 2 17 3 18 4 19 5 20 6 21 7 22 8 23 9 24 10 25 11
REMARK SMILES IDX 26 12 27 13 28 14 29 15 30 16 14 17 13 18 12 19 11 20 10 21
REMARK SMILES IDX 9 22 8 23 7 24 6 25 5 26 4 27 3 28 2 29 1 30
REMARK H PARENT
REMARK Flexibility Score: inf
ROOT
ATOM      1  C   UNL     1      11.664   5.107   2.100  1.00  0.00     0.000 C 
ENDROOT
BRANCH   1   2
ATOM      2  C   UNL     1      12.972   4.506   1.553  1.00  0.00     0.000 C 
BRANCH   2   3
ATOM      3  C   UNL     1      13.003   2.969   1.469  1.00  0.00     0.000 C 
BRANCH   3   4
ATOM      4  C   UNL     1      13.435   2.283   2.784  1.00  0.00     0.000 C 
BRANCH   4   5
ATOM      5  C   UNL     1      14.421   1.126   2.553  1.00  0.00     0.000 C 
BRANCH   5   6
ATOM      6  C   UNL     1      14.109  -0.111   3.416  1.00  0.00     0.000 C 
BRANCH   6   7
ATOM      7  C   UNL     1      12.975   0.077   4.442  1.00  0.00     0.000 C 
BRANCH   7   8
ATOM      8  C   UNL     1      13.230  -0.669   5.761  1.00  0.00     0.000 C 
BRANCH   8   9
ATOM      9  C   UNL     1      14.320  -0.006   6.621  1.00  0.00     0.000 C 
BRANCH   9  10
ATOM     10  C   UNL     1      14.338   1.535   6.522  1.00  0.00     0.000 C 
BRANCH  10  11
ATOM     11  C   UNL     1      15.683   2.063   5.992  1.00  0.00     0.000 C 
BRANCH  11  12
ATOM     12  C   UNL     1      16.819   1.036   6.124  1.00  0.00     0.006 C 
BRANCH  12  13
ATOM     13  C   UNL     1      17.758   1.342   7.296  1.00  0.00     0.053 C 
BRANCH  13  14
ATOM     14  C   UNL     1      19.023   0.555   7.169  1.00  0.00     0.041 C 
ATOM     15  O   UNL     1      19.221  -0.166   6.156  1.00  0.00    -0.550 OA
ATOM     16  O   UNL     1      20.002   0.649   8.151  1.00  0.00    -0.550 OA
ENDBRANCH  13  14
ENDBRANCH  12  13
ENDBRANCH  11  12
ENDBRANCH  10  11
ENDBRANCH   9  10
ENDBRANCH   8   9
ENDBRANCH   7   8
ENDBRANCH   6   7
ENDBRANCH   5   6
ENDBRANCH   4   5
ENDBRANCH   3   4
ENDBRANCH   2   3
ENDBRANCH   1   2
BRANCH   1  17
ATOM     17  C   UNL     1      10.378   4.365   1.687  1.00  0.00     0.000 C 
BRANCH  17  18
ATOM     18  C   UNL     1       9.779   4.890   0.371  1.00  0.00     0.000 C 
BRANCH  18  19
ATOM     19  C   UNL     1      10.222   4.056  -0.851  1.00  0.00     0.000 C 
BRANCH  19  20
ATOM     20  C   UNL     1       9.417   2.757  -1.038  1.00  0.00     0.000 C 
BRANCH  20  21
ATOM     21  C   UNL     1      10.316   1.523  -1.216  1.00  0.00     0.000 C 
BRANCH  21  22
ATOM     22  C   UNL     1      10.645   0.815   0.111  1.00  0.00    -0.000 C 
BRANCH  22  23
ATOM     23  C   UNL     1      11.809  -0.193   0.056  1.00  0.00    -0.000 C 
BRANCH  23  24
ATOM     24  C   UNL     1      12.698  -0.021  -1.187  1.00  0.00    -0.000 C 
BRANCH  24  25
ATOM     25  C   UNL     1      14.186   0.163  -0.833  1.00  0.00    -0.000 C 
BRANCH  25  26
ATOM     26  C   UNL     1      15.144   0.268  -2.039  1.00  0.00    -0.000 C 
BRANCH  26  27
ATOM     27  C   UNL     1      16.146   1.435  -1.981  1.00  0.00    -0.000 C 
BRANCH  27  28
ATOM     28  C   UNL     1      16.116   2.177  -0.634  1.00  0.00    -0.000 C 
BRANCH  28  29
ATOM     29  C   UNL     1      15.704   3.651  -0.778  1.00  0.00    -0.003 C 
ATOM     30  C   UNL     1      14.665   3.874  -1.877  1.00  0.00     0.004 C 
ENDBRANCH  28  29
ENDBRANCH  27  28
ENDBRANCH  26  27
ENDBRANCH  25  26
ENDBRANCH  24  25
ENDBRANCH  23  24
ENDBRANCH  22  23
ENDBRANCH  21  22
ENDBRANCH  20  21
ENDBRANCH  19  20
ENDBRANCH  18  19
ENDBRANCH  17  18
ENDBRANCH   1  17
TORSDOF 26
ENDMDL
MODEL 9
REMARK VINA RESULT:    -4.341      1.248      5.298
REMARK INTER + INTRA:         -15.277
REMARK INTER:                 -11.302
REMARK INTRA:                  -3.975
REMARK UNBOUND:                -4.337
REMARK SMILES CCCCCCCCCCCCCCCCCCCCCCCCCCCC(=O)[O-]
REMARK SMILES IDX 15 1 16 2 17 3 18 4 19 5 20 6 21 7 22 8 23 9 24 10 25 11
REMARK SMILES IDX 26 12 27 13 28 14 29 15 30 16 14 17 13 18 12 19 11 20 10 21
REMARK SMILES IDX 9 22 8 23 7 24 6 25 5 26 4 27 3 28 2 29 1 30
REMARK H PARENT
REMARK Flexibility Score: inf
ROOT
ATOM      1  C   UNL     1       8.877   4.704  -1.254  1.00  0.00     0.000 C 
ENDROOT
BRANCH   1   2
ATOM      2  C   UNL     1       9.345   3.251  -1.046  1.00  0.00     0.000 C 
BRANCH   2   3
ATOM      3  C   UNL     1       8.230   2.246  -0.703  1.00  0.00     0.000 C 
BRANCH   3   4
ATOM      4  C   UNL     1       8.628   1.222   0.382  1.00  0.00     0.000 C 
BRANCH   4   5
ATOM      5  C   UNL     1      10.147   0.990   0.451  1.00  0.00     0.000 C 
BRANCH   5   6
ATOM      6  C   UNL     1      10.670   0.852   1.893  1.00  0.00     0.000 C 
BRANCH   6   7
ATOM      7  C   UNL     1      10.302  -0.467   2.598  1.00  0.00     0.000 C 
BRANCH   7   8
ATOM      8  C   UNL     1      11.138  -0.724   3.862  1.00  0.00     0.000 C 
BRANCH   8   9
ATOM      9  C   UNL     1      12.521  -0.051   3.811  1.00  0.00     0.000 C 
BRANCH   9  10
ATOM     10  C   UNL     1      13.391  -0.325   5.057  1.00  0.00     0.000 C 
BRANCH  10  11
ATOM     11  C   UNL     1      13.140   0.704   6.173  1.00  0.00     0.000 C 
BRANCH  11  12
ATOM     12  C   UNL     1      14.240   1.776   6.252  1.00  0.00     0.006 C 
BRANCH  12  13
ATOM     13  C   UNL     1      15.539   1.341   5.562  1.00  0.00     0.053 C 
BRANCH  13  14
ATOM     14  C   UNL     1      16.707   2.073   6.142  1.00  0.00     0.041 C 
ATOM     15  O   UNL     1      17.374   1.560   7.078  1.00  0.00    -0.550 OA
ATOM     16  O   UNL     1      17.083   3.305   5.621  1.00  0.00    -0.550 OA
ENDBRANCH  13  14
ENDBRANCH  12  13
ENDBRANCH  11  12
ENDBRANCH  10  11
ENDBRANCH   9  10
ENDBRANCH   8   9
ENDBRANCH   7   8
ENDBRANCH   6   7
ENDBRANCH   5   6
ENDBRANCH   4   5
ENDBRANCH   3   4
ENDBRANCH   2   3
ENDBRANCH   1   2
BRANCH   1  17
ATOM     17  C   UNL     1       8.996   5.615  -0.018  1.00  0.00     0.000 C 
BRANCH  17  18
ATOM     18  C   UNL     1       9.329   4.840   1.269  1.00  0.00     0.000 C 
BRANCH  18  19
ATOM     19  C   UNL     1      10.743   5.163   1.800  1.00  0.00     0.000 C 
BRANCH  19  20
ATOM     20  C   UNL     1      11.841   4.243   1.236  1.00  0.00     0.000 C 
BRANCH  20  21
ATOM     21  C   UNL     1      13.173   4.378   1.991  1.00  0.00     0.000 C 
BRANCH  21  22
ATOM     22  C   UNL     1      13.827   3.022   2.316  1.00  0.00    -0.000 C 
BRANCH  22  23
ATOM     23  C   UNL     1      15.059   2.657   1.467  1.00  0.00    -0.000 C 
BRANCH  23  24
ATOM     24  C   UNL     1      15.455   3.760   0.471  1.00  0.00    -0.000 C 
BRANCH  24  25
ATOM     25  C   UNL     1      15.553   3.246  -0.977  1.00  0.00    -0.000 C 
BRANCH  25  26
ATOM     26  C   UNL     1      14.562   3.884  -1.974  1.00  0.00    -0.000 C 
BRANCH  26  27
ATOM     27  C   UNL     1      13.170   3.228  -2.024  1.00  0.00    -0.000 C 
BRANCH  27  28
ATOM     28  C   UNL     1      13.186   1.764  -1.552  1.00  0.00    -0.000 C 
BRANCH  28  29
ATOM     29  C   UNL     1      13.676   0.795  -2.640  1.00  0.00    -0.003 C 
ATOM     30  C   UNL     1      14.653  -0.252  -2.106  1.00  0.00     0.004 C 
ENDBRANCH  28  29
ENDBRANCH  27  28
ENDBRANCH  26  27
ENDBRANCH  25  26
ENDBRANCH  24  25
ENDBRANCH  23  24
ENDBRANCH  22  23
ENDBRANCH  21  22
ENDBRANCH  20  21
ENDBRANCH  19  20
ENDBRANCH  18  19
ENDBRANCH  17  18
ENDBRANCH   1  17
TORSDOF 26
ENDMDL
