MODEL 1
REMARK VINA RESULT:    -4.423      0.000      0.000
REMARK INTER + INTRA:          -4.553
REMARK INTER:                  -4.553
REMARK INTRA:                   0.000
REMARK UNBOUND:                 0.000
REMARK SMILES Oc1ccc2[nH]ccc2c1
REMARK SMILES IDX 3 1 4 2 5 3 9 4 8 5 7 6 6 7 10 8 2 9 1 11
REMARK H PARENT 6 10 1 12
REMARK Flexibility Score: inf
ROOT
ATOM      1  C   UNL     1      13.716 -34.112  53.364  1.00  0.00     0.048 A 
ATOM      2  C   UNL     1      15.114 -34.256  53.386  1.00  0.00     0.030 A 
ATOM      3  C   UNL     1      15.771 -34.052  54.598  1.00  0.00     0.046 A 
ATOM      4  C   UNL     1      15.090 -33.720  55.738  1.00  0.00     0.003 A 
ATOM      5  C   UNL     1      16.017 -33.590  56.749  1.00  0.00     0.028 A 
ATOM      6  C   UNL     1      17.245 -33.856  56.152  1.00  0.00     0.083 A 
ATOM      7  N   UNL     1      17.089 -34.137  54.838  1.00  0.00    -0.361 N 
ATOM      8  C   UNL     1      13.705 -33.570  55.751  1.00  0.00     0.056 A 
ATOM      9  C   UNL     1      13.008 -33.770  54.544  1.00  0.00     0.116 A 
ATOM     10  H   UNL     1      17.843 -34.372  54.154  1.00  0.00     0.166 HD
ENDROOT
BRANCH   9  11
ATOM     11  O   UNL     1      11.623 -33.628  54.521  1.00  0.00    -0.508 OA
ATOM     12  H   UNL     1      11.039 -34.021  55.251  1.00  0.00     0.293 HD
ENDBRANCH   9  11
TORSDOF 1
ENDMDL
MODEL 2
REMARK VINA RESULT:    -4.407      0.898      2.149
REMARK INTER + INTRA:          -4.536
REMARK INTER:                  -4.536
REMARK INTRA:                   0.000
REMARK UNBOUND:                 0.000
REMARK SMILES Oc1ccc2[nH]ccc2c1
REMARK SMILES IDX 3 1 4 2 5 3 9 4 8 5 7 6 6 7 10 8 2 9 1 11
REMARK H PARENT 6 10 1 12
REMARK Flexibility Score: inf
ROOT
ATOM      1  C   UNL     1      13.315 -33.623  55.770  1.00  0.00     0.048 A 
ATOM      2  C   UNL     1      14.670 -33.827  56.088  1.00  0.00     0.030 A 
ATOM      3  C   UNL     1      15.525 -34.232  55.066  1.00  0.00     0.046 A 
ATOM      4  C   UNL     1      15.075 -34.430  53.788  1.00  0.00     0.003 A 
ATOM      5  C   UNL     1      16.155 -34.822  53.027  1.00  0.00     0.028 A 
ATOM      6  C   UNL     1      17.232 -34.842  53.908  1.00  0.00     0.083 A 
ATOM      7  N   UNL     1      16.841 -34.482  55.152  1.00  0.00    -0.361 N 
ATOM      8  C   UNL     1      13.741 -34.236  53.438  1.00  0.00     0.056 A 
ATOM      9  C   UNL     1      12.848 -33.825  54.447  1.00  0.00     0.116 A 
ATOM     10  H   UNL     1      17.444 -34.413  56.002  1.00  0.00     0.166 HD
ENDROOT
BRANCH   9  11
ATOM     11  O   UNL     1      11.507 -33.623  54.132  1.00  0.00    -0.508 OA
ATOM     12  H   UNL     1      11.183 -32.750  53.731  1.00  0.00     0.293 HD
ENDBRANCH   9  11
TORSDOF 1
ENDMDL
MODEL 3
REMARK VINA RESULT:    -4.341      1.640      2.194
REMARK INTER + INTRA:          -4.468
REMARK INTER:                  -4.468
REMARK INTRA:                   0.000
REMARK UNBOUND:                 0.000
REMARK SMILES Oc1ccc2[nH]ccc2c1
REMARK SMILES IDX 3 1 4 2 5 3 9 4 8 5 7 6 6 7 10 8 2 9 1 11
REMARK H PARENT 6 10 1 12
REMARK Flexibility Score: inf
ROOT
ATOM      1  C   UNL     1      13.375 -34.322  55.595  1.00  0.00     0.048 A 
ATOM      2  C   UNL     1      14.683 -34.000  56.000  1.00  0.00     0.030 A 
ATOM      3  C   UNL     1      15.343 -32.981  55.317  1.00  0.00     0.046 A 
ATOM      4  C   UNL     1      14.751 -32.307  54.282  1.00  0.00     0.003 A 
ATOM      5  C   UNL     1      15.657 -31.374  53.826  1.00  0.00     0.028 A 
ATOM      6  C   UNL     1      16.781 -31.536  54.630  1.00  0.00     0.083 A 
ATOM      7  N   UNL     1      16.584 -32.519  55.538  1.00  0.00    -0.361 N 
ATOM      8  C   UNL     1      13.458 -32.601  53.857  1.00  0.00     0.056 A 
ATOM      9  C   UNL     1      12.760 -33.625  54.525  1.00  0.00     0.116 A 
ATOM     10  H   UNL     1      17.262 -32.848  56.262  1.00  0.00     0.166 HD
ENDROOT
BRANCH   9  11
ATOM     11  O   UNL     1      11.465 -33.945  54.125  1.00  0.00    -0.508 OA
ATOM     12  H   UNL     1      10.937 -34.680  54.580  1.00  0.00     0.293 HD
ENDBRANCH   9  11
TORSDOF 1
ENDMDL
MODEL 4
REMARK VINA RESULT:    -4.330      1.559      2.234
REMARK INTER + INTRA:          -4.456
REMARK INTER:                  -4.456
REMARK INTRA:                   0.000
REMARK UNBOUND:                 0.000
REMARK SMILES Oc1ccc2[nH]ccc2c1
REMARK SMILES IDX 3 1 4 2 5 3 9 4 8 5 7 6 6 7 10 8 2 9 1 11
REMARK H PARENT 6 10 1 12
REMARK Flexibility Score: inf
ROOT
ATOM      1  C   UNL     1      13.661 -33.700  54.345  1.00  0.00     0.048 A 
ATOM      2  C   UNL     1      14.183 -33.429  55.622  1.00  0.00     0.030 A 
ATOM      3  C   UNL     1      15.429 -33.964  55.943  1.00  0.00     0.046 A 
ATOM      4  C   UNL     1      16.133 -34.733  55.054  1.00  0.00     0.003 A 
ATOM      5  C   UNL     1      17.308 -35.103  55.670  1.00  0.00     0.028 A 
ATOM      6  C   UNL     1      17.254 -34.523  56.935  1.00  0.00     0.083 A 
ATOM      7  N   UNL     1      16.104 -33.830  57.095  1.00  0.00    -0.361 N 
ATOM      8  C   UNL     1      15.644 -35.020  53.782  1.00  0.00     0.056 A 
ATOM      9  C   UNL     1      14.388 -34.495  53.423  1.00  0.00     0.116 A 
ATOM     10  H   UNL     1      15.807 -33.300  57.945  1.00  0.00     0.166 HD
ENDROOT
BRANCH   9  11
ATOM     11  O   UNL     1      13.870 -34.763  52.159  1.00  0.00    -0.508 OA
ATOM     12  H   UNL     1      12.895 -35.006  52.027  1.00  0.00     0.293 HD
ENDBRANCH   9  11
TORSDOF 1
ENDMDL
MODEL 5
REMARK VINA RESULT:    -4.198      2.793      3.773
REMARK INTER + INTRA:          -4.321
REMARK INTER:                  -4.321
REMARK INTRA:                   0.000
REMARK UNBOUND:                 0.000
REMARK SMILES Oc1ccc2[nH]ccc2c1
REMARK SMILES IDX 3 1 4 2 5 3 9 4 8 5 7 6 6 7 10 8 2 9 1 11
REMARK H PARENT 6 10 1 12
REMARK Flexibility Score: inf
ROOT
ATOM      1  C   UNL     1      16.658 -31.953  54.930  1.00  0.00     0.048 A 
ATOM      2  C   UNL     1      15.503 -31.933  54.128  1.00  0.00     0.030 A 
ATOM      3  C   UNL     1      14.454 -32.780  54.476  1.00  0.00     0.046 A 
ATOM      4  C   UNL     1      14.530 -33.613  55.561  1.00  0.00     0.003 A 
ATOM      5  C   UNL     1      13.344 -34.311  55.630  1.00  0.00     0.028 A 
ATOM      6  C   UNL     1      12.590 -33.851  54.554  1.00  0.00     0.083 A 
ATOM      7  N   UNL     1      13.272 -32.917  53.853  1.00  0.00    -0.361 N 
ATOM      8  C   UNL     1      15.659 -33.658  56.375  1.00  0.00     0.056 A 
ATOM      9  C   UNL     1      16.740 -32.814  56.053  1.00  0.00     0.116 A 
ATOM     10  H   UNL     1      12.943 -32.410  53.001  1.00  0.00     0.166 HD
ENDROOT
BRANCH   9  11
ATOM     11  O   UNL     1      17.884 -32.834  56.847  1.00  0.00    -0.508 OA
ATOM     12  H   UNL     1      17.985 -33.490  57.613  1.00  0.00     0.293 HD
ENDBRANCH   9  11
TORSDOF 1
ENDMDL
MODEL 6
REMARK VINA RESULT:    -4.083      2.707      3.970
REMARK INTER + INTRA:          -4.203
REMARK INTER:                  -4.203
REMARK INTRA:                   0.000
REMARK UNBOUND:                 0.000
REMARK SMILES Oc1ccc2[nH]ccc2c1
REMARK SMILES IDX 3 1 4 2 5 3 9 4 8 5 7 6 6 7 10 8 2 9 1 11
REMARK H PARENT 6 10 1 12
REMARK Flexibility Score: inf
ROOT
ATOM      1  C   UNL     1      16.920 -32.749  56.142  1.00  0.00     0.048 A 
ATOM      2  C   UNL     1      15.847 -33.553  56.565  1.00  0.00     0.030 A 
ATOM      3  C   UNL     1      14.696 -33.569  55.780  1.00  0.00     0.046 A 
ATOM      4  C   UNL     1      14.598 -32.829  54.632  1.00  0.00     0.003 A 
ATOM      5  C   UNL     1      13.350 -33.062  54.097  1.00  0.00     0.028 A 
ATOM      6  C   UNL     1      12.739 -33.955  54.974  1.00  0.00     0.083 A 
ATOM      7  N   UNL     1      13.567 -34.260  56.000  1.00  0.00    -0.361 N 
ATOM      8  C   UNL     1      15.642 -32.023  54.184  1.00  0.00     0.056 A 
ATOM      9  C   UNL     1      16.822 -31.984  54.953  1.00  0.00     0.116 A 
ATOM     10  H   UNL     1      13.363 -34.903  56.797  1.00  0.00     0.166 HD
ENDROOT
BRANCH   9  11
ATOM     11  O   UNL     1      17.884 -31.187  54.534  1.00  0.00    -0.508 OA
ATOM     12  H   UNL     1      17.815 -30.176  54.520  1.00  0.00     0.293 HD
ENDBRANCH   9  11
TORSDOF 1
ENDMDL
MODEL 7
REMARK VINA RESULT:    -4.031     13.182     14.420
REMARK INTER + INTRA:          -4.149
REMARK INTER:                  -4.149
REMARK INTRA:                   0.000
REMARK UNBOUND:                 0.000
REMARK SMILES Oc1ccc2[nH]ccc2c1
REMARK SMILES IDX 3 1 4 2 5 3 9 4 8 5 7 6 6 7 10 8 2 9 1 11
REMARK H PARENT 6 10 1 12
REMARK Flexibility Score: inf
ROOT
ATOM      1  C   UNL     1       8.916 -27.638  41.531  1.00  0.00     0.048 A 
ATOM      2  C   UNL     1       9.231 -28.671  42.431  1.00  0.00     0.030 A 
ATOM      3  C   UNL     1       9.945 -28.339  43.580  1.00  0.00     0.046 A 
ATOM      4  C   UNL     1      10.337 -27.052  43.837  1.00  0.00     0.003 A 
ATOM      5  C   UNL     1      11.016 -27.059  45.035  1.00  0.00     0.028 A 
ATOM      6  C   UNL     1      11.000 -28.387  45.454  1.00  0.00     0.083 A 
ATOM      7  N   UNL     1      10.345 -29.163  44.561  1.00  0.00    -0.361 N 
ATOM      8  C   UNL     1      10.042 -26.005  42.966  1.00  0.00     0.056 A 
ATOM      9  C   UNL     1       9.320 -26.305  41.795  1.00  0.00     0.116 A 
ATOM     10  H   UNL     1      10.186 -30.194  44.626  1.00  0.00     0.166 HD
ENDROOT
BRANCH   9  11
ATOM     11  O   UNL     1       9.008 -25.282  40.903  1.00  0.00    -0.508 OA
ATOM     12  H   UNL     1       8.250 -24.635  41.084  1.00  0.00     0.293 HD
ENDBRANCH   9  11
TORSDOF 1
ENDMDL
MODEL 8
REMARK VINA RESULT:    -3.998     18.551     19.354
REMARK INTER + INTRA:          -4.115
REMARK INTER:                  -4.115
REMARK INTRA:                   0.000
REMARK UNBOUND:                 0.000
REMARK SMILES Oc1ccc2[nH]ccc2c1
REMARK SMILES IDX 3 1 4 2 5 3 9 4 8 5 7 6 6 7 10 8 2 9 1 11
REMARK H PARENT 6 10 1 12
REMARK Flexibility Score: inf
ROOT
ATOM      1  C   UNL     1      10.975 -23.273  37.991  1.00  0.00     0.048 A 
ATOM      2  C   UNL     1      12.059 -22.382  38.069  1.00  0.00     0.030 A 
ATOM      3  C   UNL     1      13.264 -22.865  38.577  1.00  0.00     0.046 A 
ATOM      4  C   UNL     1      13.401 -24.163  38.991  1.00  0.00     0.003 A 
ATOM      5  C   UNL     1      14.697 -24.319  39.434  1.00  0.00     0.028 A 
ATOM      6  C   UNL     1      15.293 -23.073  39.260  1.00  0.00     0.083 A 
ATOM      7  N   UNL     1      14.413 -22.189  38.737  1.00  0.00    -0.361 N 
ATOM      8  C   UNL     1      12.348 -25.071  38.927  1.00  0.00     0.056 A 
ATOM      9  C   UNL     1      11.115 -24.618  38.418  1.00  0.00     0.116 A 
ATOM     10  H   UNL     1      14.595 -21.187  38.507  1.00  0.00     0.166 HD
ENDROOT
BRANCH   9  11
ATOM     11  O   UNL     1      10.041 -25.500  38.340  1.00  0.00    -0.508 OA
ATOM     12  H   UNL     1      10.140 -26.478  38.589  1.00  0.00     0.293 HD
ENDBRANCH   9  11
TORSDOF 1
ENDMDL
MODEL 9
REMARK VINA RESULT:    -3.996      2.457      3.567
REMARK INTER + INTRA:          -4.113
REMARK INTER:                  -4.113
REMARK INTRA:                   0.000
REMARK UNBOUND:                 0.000
REMARK SMILES Oc1ccc2[nH]ccc2c1
REMARK SMILES IDX 3 1 4 2 5 3 9 4 8 5 7 6 6 7 10 8 2 9 1 11
REMARK H PARENT 6 10 1 12
REMARK Flexibility Score: inf
ROOT
ATOM      1  C   UNL     1      17.294 -35.109  54.234  1.00  0.00     0.048 A 
ATOM      2  C   UNL     1      16.789 -34.459  55.374  1.00  0.00     0.030 A 
ATOM      3  C   UNL     1      15.417 -34.221  55.434  1.00  0.00     0.046 A 
ATOM      4  C   UNL     1      14.576 -34.602  54.423  1.00  0.00     0.003 A 
ATOM      5  C   UNL     1      13.300 -34.226  54.785  1.00  0.00     0.028 A 
ATOM      6  C   UNL     1      13.439 -33.621  56.030  1.00  0.00     0.083 A 
ATOM      7  N   UNL     1      14.734 -33.620  56.422  1.00  0.00    -0.361 N 
ATOM      8  C   UNL     1      15.043 -35.247  53.281  1.00  0.00     0.056 A 
ATOM      9  C   UNL     1      16.424 -35.505  53.187  1.00  0.00     0.116 A 
ATOM     10  H   UNL     1      15.119 -33.231  57.311  1.00  0.00     0.166 HD
ENDROOT
BRANCH   9  11
ATOM     11  O   UNL     1      16.925 -36.149  52.058  1.00  0.00    -0.508 OA
ATOM     12  H   UNL     1      17.827 -35.904  51.665  1.00  0.00     0.293 HD
ENDBRANCH   9  11
TORSDOF 1
ENDMDL
