MODEL 1
REMARK VINA RESULT:    -2.873      0.000      0.000
REMARK INTER + INTRA:          -4.472
REMARK INTER:                  -4.048
REMARK INTRA:                  -0.424
REMARK UNBOUND:                -0.424
REMARK SMILES CCCCCCCCC(=O)[O-]
REMARK SMILES IDX 6 1 7 2 8 3 9 4 10 5 11 6 5 7 4 8 3 9 2 10 1 11
REMARK H PARENT
REMARK Flexibility Score: inf
ROOT
ATOM      1  C   UNL     1       2.625   8.957   4.951  1.00  0.00     0.000 C 
ENDROOT
BRANCH   1   2
ATOM      2  C   UNL     1       3.632   8.532   3.870  1.00  0.00     0.006 C 
BRANCH   2   3
ATOM      3  C   UNL     1       4.882   7.874   4.469  1.00  0.00     0.053 C 
BRANCH   3   4
ATOM      4  C   UNL     1       5.187   6.558   3.820  1.00  0.00     0.041 C 
ATOM      5  O   UNL     1       6.355   6.303   3.427  1.00  0.00    -0.550 OA
ATOM      6  O   UNL     1       4.175   5.628   3.623  1.00  0.00    -0.550 OA
ENDBRANCH   3   4
ENDBRANCH   2   3
ENDBRANCH   1   2
BRANCH   1   7
ATOM      7  C   UNL     1       1.286   8.211   4.839  1.00  0.00     0.000 C 
BRANCH   7   8
ATOM      8  C   UNL     1       1.161   7.410   3.534  1.00  0.00    -0.000 C 
BRANCH   8   9
ATOM      9  C   UNL     1       0.031   6.373   3.634  1.00  0.00    -0.000 C 
BRANCH   9  10
ATOM     10  C   UNL     1       0.404   5.176   4.522  1.00  0.00    -0.003 C 
ATOM     11  C   UNL     1      -0.683   4.102   4.553  1.00  0.00     0.004 C 
ENDBRANCH   9  10
ENDBRANCH   8   9
ENDBRANCH   7   8
ENDBRANCH   1   7
TORSDOF 7
ENDMDL
MODEL 2
REMARK VINA RESULT:    -2.803      1.228      1.505
REMARK INTER + INTRA:          -4.373
REMARK INTER:                  -3.793
REMARK INTRA:                  -0.580
REMARK UNBOUND:                -0.424
REMARK SMILES CCCCCCCCC(=O)[O-]
REMARK SMILES IDX 6 1 7 2 8 3 9 4 10 5 11 6 5 7 4 8 3 9 2 10 1 11
REMARK H PARENT
REMARK Flexibility Score: inf
ROOT
ATOM      1  C   UNL     1       2.704   8.085   3.711  1.00  0.00     0.000 C 
ENDROOT
BRANCH   1   2
ATOM      2  C   UNL     1       3.337   7.084   2.730  1.00  0.00     0.006 C 
BRANCH   2   3
ATOM      3  C   UNL     1       3.707   5.760   3.411  1.00  0.00     0.053 C 
BRANCH   3   4
ATOM      4  C   UNL     1       5.182   5.502   3.369  1.00  0.00     0.041 C 
ATOM      5  O   UNL     1       5.629   4.480   2.786  1.00  0.00    -0.550 OA
ATOM      6  O   UNL     1       6.059   6.373   4.001  1.00  0.00    -0.550 OA
ENDBRANCH   3   4
ENDBRANCH   2   3
ENDBRANCH   1   2
BRANCH   1   7
ATOM      7  C   UNL     1       1.348   7.606   4.251  1.00  0.00     0.000 C 
BRANCH   7   8
ATOM      8  C   UNL     1       0.274   7.509   3.157  1.00  0.00    -0.000 C 
BRANCH   8   9
ATOM      9  C   UNL     1      -0.384   6.120   3.158  1.00  0.00    -0.000 C 
BRANCH   9  10
ATOM     10  C   UNL     1       0.106   5.234   4.314  1.00  0.00    -0.003 C 
ATOM     11  C   UNL     1      -0.894   4.140   4.685  1.00  0.00     0.004 C 
ENDBRANCH   9  10
ENDBRANCH   8   9
ENDBRANCH   7   8
ENDBRANCH   1   7
TORSDOF 7
ENDMDL
MODEL 3
REMARK VINA RESULT:    -2.641      2.874      4.807
REMARK INTER + INTRA:          -4.145
REMARK INTER:                  -3.571
REMARK INTRA:                  -0.574
REMARK UNBOUND:                -0.424
REMARK SMILES CCCCCCCCC(=O)[O-]
REMARK SMILES IDX 6 1 7 2 8 3 9 4 10 5 11 6 5 7 4 8 3 9 2 10 1 11
REMARK H PARENT
REMARK Flexibility Score: inf
ROOT
ATOM      1  C   UNL     1       1.640   7.927   4.278  1.00  0.00     0.000 C 
ENDROOT
BRANCH   1   2
ATOM      2  C   UNL     1       1.279   6.721   3.394  1.00  0.00     0.006 C 
BRANCH   2   3
ATOM      3  C   UNL     1       0.998   5.459   4.222  1.00  0.00     0.053 C 
BRANCH   3   4
ATOM      4  C   UNL     1      -0.355   4.887   3.927  1.00  0.00     0.041 C 
ATOM      5  O   UNL     1      -0.913   4.124   4.757  1.00  0.00    -0.550 OA
ATOM      6  O   UNL     1      -0.984   5.173   2.722  1.00  0.00    -0.550 OA
ENDBRANCH   3   4
ENDBRANCH   2   3
ENDBRANCH   1   2
BRANCH   1   7
ATOM      7  C   UNL     1       2.712   8.826   3.643  1.00  0.00     0.000 C 
BRANCH   7   8
ATOM      8  C   UNL     1       3.900   8.028   3.084  1.00  0.00    -0.000 C 
BRANCH   8   9
ATOM      9  C   UNL     1       4.827   7.561   4.216  1.00  0.00    -0.000 C 
BRANCH   9  10
ATOM     10  C   UNL     1       5.728   6.389   3.798  1.00  0.00    -0.003 C 
ATOM     11  C   UNL     1       4.934   5.168   3.335  1.00  0.00     0.004 C 
ENDBRANCH   9  10
ENDBRANCH   8   9
ENDBRANCH   7   8
ENDBRANCH   1   7
TORSDOF 7
ENDMDL
MODEL 4
REMARK VINA RESULT:    -2.478      1.477      2.842
REMARK INTER + INTRA:          -3.915
REMARK INTER:                  -3.109
REMARK INTRA:                  -0.807
REMARK UNBOUND:                -0.424
REMARK SMILES CCCCCCCCC(=O)[O-]
REMARK SMILES IDX 6 1 7 2 8 3 9 4 10 5 11 6 5 7 4 8 3 9 2 10 1 11
REMARK H PARENT
REMARK Flexibility Score: inf
ROOT
ATOM      1  C   UNL     1       2.327   6.992   2.207  1.00  0.00     0.000 C 
ENDROOT
BRANCH   1   2
ATOM      2  C   UNL     1       3.777   7.475   2.381  1.00  0.00     0.006 C 
BRANCH   2   3
ATOM      3  C   UNL     1       4.407   6.961   3.682  1.00  0.00     0.053 C 
BRANCH   3   4
ATOM      4  C   UNL     1       5.515   5.987   3.421  1.00  0.00     0.041 C 
ATOM      5  O   UNL     1       6.683   6.402   3.199  1.00  0.00    -0.550 OA
ATOM      6  O   UNL     1       5.250   4.624   3.390  1.00  0.00    -0.550 OA
ENDBRANCH   3   4
ENDBRANCH   2   3
ENDBRANCH   1   2
BRANCH   1   7
ATOM      7  C   UNL     1       1.759   6.357   3.486  1.00  0.00     0.000 C 
BRANCH   7   8
ATOM      8  C   UNL     1       0.405   6.957   3.896  1.00  0.00    -0.000 C 
BRANCH   8   9
ATOM      9  C   UNL     1       0.526   8.472   4.127  1.00  0.00    -0.000 C 
BRANCH   9  10
ATOM     10  C   UNL     1       1.387   8.817   5.351  1.00  0.00    -0.003 C 
ATOM     11  C   UNL     1       2.476   9.842   5.037  1.00  0.00     0.004 C 
ENDBRANCH   9  10
ENDBRANCH   8   9
ENDBRANCH   7   8
ENDBRANCH   1   7
TORSDOF 7
ENDMDL
MODEL 5
REMARK VINA RESULT:    -2.429     21.620     23.284
REMARK INTER + INTRA:          -3.846
REMARK INTER:                  -3.646
REMARK INTRA:                  -0.200
REMARK UNBOUND:                -0.424
REMARK SMILES CCCCCCCCC(=O)[O-]
REMARK SMILES IDX 6 1 7 2 8 3 9 4 10 5 11 6 5 7 4 8 3 9 2 10 1 11
REMARK H PARENT
REMARK Flexibility Score: inf
ROOT
ATOM      1  C   UNL     1      16.767  -9.021  12.439  1.00  0.00     0.000 C 
ENDROOT
BRANCH   1   2
ATOM      2  C   UNL     1      17.220 -10.108  13.429  1.00  0.00     0.006 C 
BRANCH   2   3
ATOM      3  C   UNL     1      17.779  -9.511  14.728  1.00  0.00     0.053 C 
BRANCH   3   4
ATOM      4  C   UNL     1      16.747  -9.469  15.813  1.00  0.00     0.041 C 
ATOM      5  O   UNL     1      17.059  -9.771  16.995  1.00  0.00    -0.550 OA
ATOM      6  O   UNL     1      15.435  -9.125  15.513  1.00  0.00    -0.550 OA
ENDBRANCH   3   4
ENDBRANCH   2   3
ENDBRANCH   1   2
BRANCH   1   7
ATOM      7  C   UNL     1      17.582  -9.031  11.137  1.00  0.00     0.000 C 
BRANCH   7   8
ATOM      8  C   UNL     1      16.899  -9.829  10.015  1.00  0.00    -0.000 C 
BRANCH   8   9
ATOM      9  C   UNL     1      15.414 -10.059  10.334  1.00  0.00    -0.000 C 
BRANCH   9  10
ATOM     10  C   UNL     1      14.540 -10.125   9.072  1.00  0.00    -0.003 C 
ATOM     11  C   UNL     1      13.045 -10.123   9.386  1.00  0.00     0.004 C 
ENDBRANCH   9  10
ENDBRANCH   8   9
ENDBRANCH   7   8
ENDBRANCH   1   7
TORSDOF 7
ENDMDL
MODEL 6
REMARK VINA RESULT:    -2.330      2.342      3.286
REMARK INTER + INTRA:          -3.707
REMARK INTER:                  -3.110
REMARK INTRA:                  -0.598
REMARK UNBOUND:                -0.424
REMARK SMILES CCCCCCCCC(=O)[O-]
REMARK SMILES IDX 6 1 7 2 8 3 9 4 10 5 11 6 5 7 4 8 3 9 2 10 1 11
REMARK H PARENT
REMARK Flexibility Score: inf
ROOT
ATOM      1  C   UNL     1      -1.125   8.979   4.045  1.00  0.00     0.000 C 
ENDROOT
BRANCH   1   2
ATOM      2  C   UNL     1      -0.009   9.936   4.496  1.00  0.00     0.006 C 
BRANCH   2   3
ATOM      3  C   UNL     1       1.360   9.538   3.929  1.00  0.00     0.053 C 
BRANCH   3   4
ATOM      4  C   UNL     1       2.288   9.049   4.999  1.00  0.00     0.041 C 
ATOM      5  O   UNL     1       3.426   8.606   4.695  1.00  0.00    -0.550 OA
ATOM      6  O   UNL     1       1.883   9.055   6.328  1.00  0.00    -0.550 OA
ENDBRANCH   3   4
ENDBRANCH   2   3
ENDBRANCH   1   2
BRANCH   1   7
ATOM      7  C   UNL     1      -0.853   8.362   2.664  1.00  0.00     0.000 C 
BRANCH   7   8
ATOM      8  C   UNL     1      -1.105   6.847   2.630  1.00  0.00    -0.000 C 
BRANCH   8   9
ATOM      9  C   UNL     1       0.213   6.070   2.770  1.00  0.00    -0.000 C 
BRANCH   9  10
ATOM     10  C   UNL     1       0.484   5.621   4.214  1.00  0.00    -0.003 C 
ATOM     11  C   UNL     1      -0.274   4.349   4.590  1.00  0.00     0.004 C 
ENDBRANCH   9  10
ENDBRANCH   8   9
ENDBRANCH   7   8
ENDBRANCH   1   7
TORSDOF 7
ENDMDL
MODEL 7
REMARK VINA RESULT:    -2.302      2.018      3.316
REMARK INTER + INTRA:          -3.668
REMARK INTER:                  -3.128
REMARK INTRA:                  -0.540
REMARK UNBOUND:                -0.424
REMARK SMILES CCCCCCCCC(=O)[O-]
REMARK SMILES IDX 6 1 7 2 8 3 9 4 10 5 11 6 5 7 4 8 3 9 2 10 1 11
REMARK H PARENT
REMARK Flexibility Score: inf
ROOT
ATOM      1  C   UNL     1       4.250   5.647   3.427  1.00  0.00     0.000 C 
ENDROOT
BRANCH   1   2
ATOM      2  C   UNL     1       5.520   6.388   3.878  1.00  0.00     0.006 C 
BRANCH   2   3
ATOM      3  C   UNL     1       5.608   7.801   3.285  1.00  0.00     0.053 C 
BRANCH   3   4
ATOM      4  C   UNL     1       6.849   7.988   2.467  1.00  0.00     0.041 C 
ATOM      5  O   UNL     1       7.163   9.133   2.047  1.00  0.00    -0.550 OA
ATOM      6  O   UNL     1       7.641   6.894   2.144  1.00  0.00    -0.550 OA
ENDBRANCH   3   4
ENDBRANCH   2   3
ENDBRANCH   1   2
BRANCH   1   7
ATOM      7  C   UNL     1       3.163   6.601   2.906  1.00  0.00     0.000 C 
BRANCH   7   8
ATOM      8  C   UNL     1       1.770   6.276   3.467  1.00  0.00    -0.000 C 
BRANCH   8   9
ATOM      9  C   UNL     1       1.082   7.545   3.993  1.00  0.00    -0.000 C 
BRANCH   9  10
ATOM     10  C   UNL     1       2.085   8.603   4.479  1.00  0.00    -0.003 C 
ATOM     11  C   UNL     1       1.717   9.182   5.845  1.00  0.00     0.004 C 
ENDBRANCH   9  10
ENDBRANCH   8   9
ENDBRANCH   7   8
ENDBRANCH   1   7
TORSDOF 7
ENDMDL
MODEL 8
REMARK VINA RESULT:    -2.236      2.266      4.580
REMARK INTER + INTRA:          -3.574
REMARK INTER:                  -2.936
REMARK INTRA:                  -0.638
REMARK UNBOUND:                -0.424
REMARK SMILES CCCCCCCCC(=O)[O-]
REMARK SMILES IDX 6 1 7 2 8 3 9 4 10 5 11 6 5 7 4 8 3 9 2 10 1 11
REMARK H PARENT
REMARK Flexibility Score: inf
ROOT
ATOM      1  C   UNL     1       1.498   6.126   3.330  1.00  0.00     0.000 C 
ENDROOT
BRANCH   1   2
ATOM      2  C   UNL     1       0.737   7.158   4.180  1.00  0.00     0.006 C 
BRANCH   2   3
ATOM      3  C   UNL     1       1.245   8.587   3.947  1.00  0.00     0.053 C 
BRANCH   3   4
ATOM      4  C   UNL     1       2.207   9.019   5.011  1.00  0.00     0.041 C 
ATOM      5  O   UNL     1       1.780   9.485   6.099  1.00  0.00    -0.550 OA
ATOM      6  O   UNL     1       3.576   8.936   4.786  1.00  0.00    -0.550 OA
ENDBRANCH   3   4
ENDBRANCH   2   3
ENDBRANCH   1   2
BRANCH   1   7
ATOM      7  C   UNL     1       2.249   6.768   2.153  1.00  0.00     0.000 C 
BRANCH   7   8
ATOM      8  C   UNL     1       3.711   6.305   2.058  1.00  0.00    -0.000 C 
BRANCH   8   9
ATOM      9  C   UNL     1       4.197   5.750   3.406  1.00  0.00    -0.000 C 
BRANCH   9  10
ATOM     10  C   UNL     1       5.690   6.020   3.652  1.00  0.00    -0.003 C 
ATOM     11  C   UNL     1       6.187   7.280   2.946  1.00  0.00     0.004 C 
ENDBRANCH   9  10
ENDBRANCH   8   9
ENDBRANCH   7   8
ENDBRANCH   1   7
TORSDOF 7
ENDMDL
