MODEL 1
REMARK VINA RESULT:    -4.386      0.000      0.000
REMARK INTER + INTRA:          -3.799
REMARK INTER:                  -6.181
REMARK INTRA:                   2.383
REMARK UNBOUND:                 2.383
REMARK SMILES CC1=CCC(=C(C)C)C(=O)CC(C)=CCC1
REMARK SMILES IDX 12 1 14 2 13 3 15 4 16 5 2 6 1 7 3 8 11 10 9 11 10 12 5 13
REMARK SMILES IDX 6 14 7 15 8 16 4 17
REMARK H PARENT
REMARK Flexibility Score: 60.00
ROOT
ATOM      1  C   UNL     1       3.110 142.720  -8.422  1.00  0.00    -0.070 C 
ATOM      2  C   UNL     1       4.271 142.618  -9.106  1.00  0.00    -0.027 C 
ATOM      3  C   UNL     1       1.905 141.994  -8.967  1.00  0.00     0.039 C 
ENDROOT
BRANCH   2   4
ATOM      4  C   UNL     1       5.556 143.345  -8.775  1.00  0.00     0.032 C 
BRANCH   4   5
ATOM      5  C   UNL     1       5.467 144.305  -7.570  1.00  0.00     0.034 C 
BRANCH   5   6
ATOM      6  C   UNL     1       5.482 145.769  -7.972  1.00  0.00    -0.077 C 
ATOM      7  C   UNL     1       6.372 146.173  -9.121  1.00  0.00     0.039 C 
ATOM      8  C   UNL     1       4.801 146.746  -7.325  1.00  0.00    -0.023 CG0
ATOM      9  G   UNL     1       3.838 146.577  -6.166  1.00  0.00     0.000 G0
ENDBRANCH   5   6
ENDBRANCH   4   5
ENDBRANCH   2   4
BRANCH   1  10
ATOM     10  C   UNL     1       2.939 143.595  -7.197  1.00  0.00     0.111 C 
BRANCH  10  11
ATOM     11  C   UNL     1       2.405 144.956  -7.557  1.00  0.00     0.163 C 
ATOM     12  O   UNL     1       1.946 145.125  -8.720  1.00  0.00    -0.294 OA
BRANCH  11  13
ATOM     13  C   UNL     1       2.457 146.113  -6.615  1.00  0.00    -0.002 C 
ATOM     14  C   UNL     1       1.316 146.776  -6.257  1.00  0.00    -0.069 C 
ATOM     15  C   UNL     1       1.353 148.045  -5.435  1.00  0.00     0.039 C 
ATOM     16  C   UNL     1      -0.048 146.270  -6.673  1.00  0.00     0.039 C 
BRANCH  13  17
ATOM     17  C   UNL     1       3.831 146.573  -6.155  1.00  0.00     0.066 CG0
ATOM     18  G   UNL     1       4.799 146.742  -7.310  1.00  0.00     0.000 G0
ENDBRANCH  13  17
ENDBRANCH  11  13
ENDBRANCH  10  11
ENDBRANCH   1  10
TORSDOF 0
ENDMDL
MODEL 2
REMARK VINA RESULT:    -3.880      1.640      3.498
REMARK INTER + INTRA:          -3.086
REMARK INTER:                  -4.201
REMARK INTRA:                   1.115
REMARK UNBOUND:                 2.383
REMARK SMILES CC1=CCC(=C(C)C)C(=O)CC(C)=CCC1
REMARK SMILES IDX 12 1 14 2 13 3 15 4 16 5 2 6 1 7 3 8 11 10 9 11 10 12 5 13
REMARK SMILES IDX 6 14 7 15 8 16 4 17
REMARK H PARENT
REMARK Flexibility Score: 60.00
ROOT
ATOM      1  C   UNL     1       6.051 144.551  -6.882  1.00  0.00    -0.070 C 
ATOM      2  C   UNL     1       5.554 143.553  -7.644  1.00  0.00    -0.027 C 
ATOM      3  C   UNL     1       6.535 144.207  -5.495  1.00  0.00     0.039 C 
ENDROOT
BRANCH   2   4
ATOM      4  C   UNL     1       4.935 143.713  -9.015  1.00  0.00     0.032 C 
BRANCH   4   5
ATOM      5  C   UNL     1       3.448 143.311  -9.108  1.00  0.00     0.034 C 
BRANCH   5   6
ATOM      6  C   UNL     1       2.761 143.255  -7.755  1.00  0.00    -0.077 C 
ATOM      7  C   UNL     1       2.598 141.903  -7.106  1.00  0.00     0.039 C 
ATOM      8  C   UNL     1       2.223 144.328  -7.126  1.00  0.00    -0.023 CG0
ATOM      9  G   UNL     1       2.280 145.775  -7.576  1.00  0.00     0.000 G0
ENDBRANCH   5   6
ENDBRANCH   4   5
ENDBRANCH   2   4
BRANCH   1  10
ATOM     10  C   UNL     1       6.061 146.003  -7.315  1.00  0.00     0.111 C 
BRANCH  10  11
ATOM     11  C   UNL     1       4.733 146.421  -7.889  1.00  0.00     0.163 C 
ATOM     12  O   UNL     1       4.692 146.762  -9.103  1.00  0.00    -0.294 OA
BRANCH  11  13
ATOM     13  C   UNL     1       3.492 146.503  -7.063  1.00  0.00    -0.002 C 
ATOM     14  C   UNL     1       3.501 147.128  -5.848  1.00  0.00    -0.069 C 
ATOM     15  C   UNL     1       2.307 147.092  -4.920  1.00  0.00     0.039 C 
ATOM     16  C   UNL     1       4.717 147.891  -5.367  1.00  0.00     0.039 C 
BRANCH  13  17
ATOM     17  C   UNL     1       2.259 145.786  -7.588  1.00  0.00     0.066 CG0
ATOM     18  G   UNL     1       2.202 144.337  -7.143  1.00  0.00     0.000 G0
ENDBRANCH  13  17
ENDBRANCH  11  13
ENDBRANCH  10  11
ENDBRANCH   1  10
TORSDOF 0
ENDMDL
MODEL 3
REMARK VINA RESULT:    -3.822      1.650      3.539
REMARK INTER + INTRA:          -3.004
REMARK INTER:                  -4.696
REMARK INTRA:                   1.692
REMARK UNBOUND:                 2.383
REMARK SMILES CC1=CCC(=C(C)C)C(=O)CC(C)=CCC1
REMARK SMILES IDX 12 1 14 2 13 3 15 4 16 5 2 6 1 7 3 8 11 10 9 11 10 12 5 13
REMARK SMILES IDX 6 14 7 15 8 16 4 17
REMARK H PARENT
REMARK Flexibility Score: 60.00
ROOT
ATOM      1  C   UNL     1       5.697 146.274  -8.331  1.00  0.00    -0.070 C 
ATOM      2  C   UNL     1       5.782 145.125  -9.038  1.00  0.00    -0.027 C 
ATOM      3  C   UNL     1       6.118 147.553  -9.010  1.00  0.00     0.039 C 
ENDROOT
BRANCH   2   4
ATOM      4  C   UNL     1       5.500 143.738  -8.505  1.00  0.00     0.032 C 
BRANCH   4   5
ATOM      5  C   UNL     1       4.209 143.085  -9.044  1.00  0.00     0.034 C 
BRANCH   5   6
ATOM      6  C   UNL     1       3.051 143.159  -8.065  1.00  0.00    -0.077 C 
ATOM      7  C   UNL     1       2.596 141.875  -7.418  1.00  0.00     0.039 C 
ATOM      8  C   UNL     1       2.356 144.289  -7.788  1.00  0.00    -0.023 CG0
ATOM      9  G   UNL     1       2.640 145.687  -8.301  1.00  0.00     0.000 G0
ENDBRANCH   5   6
ENDBRANCH   4   5
ENDBRANCH   2   4
BRANCH   1  10
ATOM     10  C   UNL     1       5.291 146.325  -6.872  1.00  0.00     0.111 C 
BRANCH  10  11
ATOM     11  C   UNL     1       4.042 147.143  -6.672  1.00  0.00     0.163 C 
ATOM     12  O   UNL     1       4.149 148.256  -6.087  1.00  0.00    -0.294 OA
BRANCH  11  13
ATOM     13  C   UNL     1       2.691 146.659  -7.082  1.00  0.00    -0.002 C 
ATOM     14  C   UNL     1       1.577 147.008  -6.370  1.00  0.00    -0.069 C 
ATOM     15  C   UNL     1       0.220 146.408  -6.663  1.00  0.00     0.039 C 
ATOM     16  C   UNL     1       1.651 148.016  -5.244  1.00  0.00     0.039 C 
BRANCH  13  17
ATOM     17  C   UNL     1       2.625 145.694  -8.255  1.00  0.00     0.066 CG0
ATOM     18  G   UNL     1       2.356 144.269  -7.815  1.00  0.00     0.000 G0
ENDBRANCH  13  17
ENDBRANCH  11  13
ENDBRANCH  10  11
ENDBRANCH   1  10
TORSDOF 0
ENDMDL
MODEL 4
REMARK VINA RESULT:    -3.335      1.838      4.795
REMARK INTER + INTRA:          -2.317
REMARK INTER:                  -2.653
REMARK INTRA:                   0.336
REMARK UNBOUND:                 2.383
REMARK SMILES CC1=CCC(=C(C)C)C(=O)CC(C)=CCC1
REMARK SMILES IDX 12 1 14 2 13 3 15 4 16 5 2 6 1 7 3 8 11 10 9 11 10 12 5 13
REMARK SMILES IDX 6 14 7 15 8 16 4 17
REMARK H PARENT
REMARK Flexibility Score: 60.00
ROOT
ATOM      1  C   UNL     1       4.985 145.765  -5.874  1.00  0.00    -0.070 C 
ATOM      2  C   UNL     1       3.963 146.195  -5.102  1.00  0.00    -0.027 C 
ATOM      3  C   UNL     1       5.822 144.619  -5.364  1.00  0.00     0.039 C 
ENDROOT
BRANCH   2   4
ATOM      4  C   UNL     1       3.075 147.385  -5.395  1.00  0.00     0.032 C 
BRANCH   4   5
ATOM      5  C   UNL     1       2.513 147.438  -6.831  1.00  0.00     0.034 C 
BRANCH   5   6
ATOM      6  C   UNL     1       1.559 146.298  -7.140  1.00  0.00    -0.077 C 
ATOM      7  C   UNL     1       0.333 146.154  -6.272  1.00  0.00     0.039 C 
ATOM      8  C   UNL     1       1.770 145.363  -8.098  1.00  0.00    -0.023 CG0
ATOM      9  G   UNL     1       2.912 145.316  -9.094  1.00  0.00     0.000 G0
ENDBRANCH   5   6
ENDBRANCH   4   5
ENDBRANCH   2   4
BRANCH   1  10
ATOM     10  C   UNL     1       5.385 146.434  -7.174  1.00  0.00     0.111 C 
BRANCH  10  11
ATOM     11  C   UNL     1       5.335 145.472  -8.332  1.00  0.00     0.163 C 
ATOM     12  O   UNL     1       6.323 145.435  -9.115  1.00  0.00    -0.294 OA
BRANCH  11  13
ATOM     13  C   UNL     1       4.144 144.618  -8.615  1.00  0.00    -0.002 C 
ATOM     14  C   UNL     1       4.217 143.257  -8.505  1.00  0.00    -0.069 C 
ATOM     15  C   UNL     1       3.080 142.357  -8.935  1.00  0.00     0.039 C 
ATOM     16  C   UNL     1       5.450 142.581  -7.945  1.00  0.00     0.039 C 
BRANCH  13  17
ATOM     17  C   UNL     1       2.891 145.317  -9.117  1.00  0.00     0.066 CG0
ATOM     18  G   UNL     1       1.783 145.329  -8.082  1.00  0.00     0.000 G0
ENDBRANCH  13  17
ENDBRANCH  11  13
ENDBRANCH  10  11
ENDBRANCH   1  10
TORSDOF 0
ENDMDL
MODEL 5
REMARK VINA RESULT:    -2.657      1.745      3.782
REMARK INTER + INTRA:          -1.362
REMARK INTER:                  -2.659
REMARK INTRA:                   1.298
REMARK UNBOUND:                 2.383
REMARK SMILES CC1=CCC(=C(C)C)C(=O)CC(C)=CCC1
REMARK SMILES IDX 12 1 14 2 13 3 15 4 16 5 2 6 1 7 3 8 11 10 9 11 10 12 5 13
REMARK SMILES IDX 6 14 7 15 8 16 4 17
REMARK H PARENT
REMARK Flexibility Score: 60.00
ROOT
ATOM      1  C   UNL     1       3.723 142.978  -7.269  1.00  0.00    -0.070 C 
ATOM      2  C   UNL     1       2.844 143.605  -8.081  1.00  0.00    -0.027 C 
ATOM      3  C   UNL     1       3.178 141.990  -6.268  1.00  0.00     0.039 C 
ENDROOT
BRANCH   2   4
ATOM      4  C   UNL     1       3.183 144.692  -9.077  1.00  0.00     0.032 C 
BRANCH   4   5
ATOM      5  C   UNL     1       2.630 146.089  -8.727  1.00  0.00     0.034 C 
BRANCH   5   6
ATOM      6  C   UNL     1       2.251 146.230  -7.263  1.00  0.00    -0.077 C 
ATOM      7  C   UNL     1       0.816 145.962  -6.881  1.00  0.00     0.039 C 
ATOM      8  C   UNL     1       3.098 146.646  -6.291  1.00  0.00    -0.023 CG0
ATOM      9  G   UNL     1       4.576 146.953  -6.435  1.00  0.00     0.000 G0
ENDBRANCH   5   6
ENDBRANCH   4   5
ENDBRANCH   2   4
BRANCH   1  10
ATOM     10  C   UNL     1       5.207 143.285  -7.252  1.00  0.00     0.111 C 
BRANCH  10  11
ATOM     11  C   UNL     1       5.500 144.571  -6.525  1.00  0.00     0.163 C 
ATOM     12  O   UNL     1       5.817 144.503  -5.306  1.00  0.00    -0.294 OA
BRANCH  11  13
ATOM     13  C   UNL     1       5.366 145.909  -7.174  1.00  0.00    -0.002 C 
ATOM     14  C   UNL     1       5.997 146.178  -8.356  1.00  0.00    -0.069 C 
ATOM     15  C   UNL     1       6.012 147.566  -8.957  1.00  0.00     0.039 C 
ATOM     16  C   UNL     1       6.719 145.093  -9.125  1.00  0.00     0.039 C 
BRANCH  13  17
ATOM     17  C   UNL     1       4.585 146.972  -6.419  1.00  0.00     0.066 CG0
ATOM     18  G   UNL     1       3.112 146.630  -6.301  1.00  0.00     0.000 G0
ENDBRANCH  13  17
ENDBRANCH  11  13
ENDBRANCH  10  11
ENDBRANCH   1  10
TORSDOF 0
ENDMDL
MODEL 6
REMARK VINA RESULT:    -2.620      1.513      4.107
REMARK INTER + INTRA:          -1.310
REMARK INTER:                  -1.887
REMARK INTRA:                   0.577
REMARK UNBOUND:                 2.383
REMARK SMILES CC1=CCC(=C(C)C)C(=O)CC(C)=CCC1
REMARK SMILES IDX 12 1 14 2 13 3 15 4 16 5 2 6 1 7 3 8 11 10 9 11 10 12 5 13
REMARK SMILES IDX 6 14 7 15 8 16 4 17
REMARK H PARENT
REMARK Flexibility Score: 60.00
ROOT
ATOM      1  C   UNL     1       2.695 144.540  -8.369  1.00  0.00    -0.070 C 
ATOM      2  C   UNL     1       1.629 144.740  -7.563  1.00  0.00    -0.027 C 
ATOM      3  C   UNL     1       3.266 143.146  -8.452  1.00  0.00     0.039 C 
ENDROOT
BRANCH   2   4
ATOM      4  C   UNL     1       0.979 146.075  -7.274  1.00  0.00     0.032 C 
BRANCH   4   5
ATOM      5  C   UNL     1       1.189 146.602  -5.838  1.00  0.00     0.034 C 
BRANCH   5   6
ATOM      6  C   UNL     1       2.261 147.673  -5.748  1.00  0.00    -0.077 C 
ATOM      7  C   UNL     1       1.815 149.114  -5.752  1.00  0.00     0.039 C 
ATOM      8  C   UNL     1       3.593 147.423  -5.732  1.00  0.00    -0.023 CG0
ATOM      9  G   UNL     1       4.268 146.065  -5.704  1.00  0.00     0.000 G0
ENDBRANCH   5   6
ENDBRANCH   4   5
ENDBRANCH   2   4
BRANCH   1  10
ATOM     10  C   UNL     1       3.396 145.658  -9.114  1.00  0.00     0.111 C 
BRANCH  10  11
ATOM     11  C   UNL     1       4.434 146.332  -8.257  1.00  0.00     0.163 C 
ATOM     12  O   UNL     1       4.895 147.441  -8.644  1.00  0.00    -0.294 OA
BRANCH  11  13
ATOM     13  C   UNL     1       4.975 145.709  -7.012  1.00  0.00    -0.002 C 
ATOM     14  C   UNL     1       5.993 144.799  -7.071  1.00  0.00    -0.069 C 
ATOM     15  C   UNL     1       6.455 144.034  -5.851  1.00  0.00     0.039 C 
ATOM     16  C   UNL     1       6.710 144.508  -8.372  1.00  0.00     0.039 C 
BRANCH  13  17
ATOM     17  C   UNL     1       4.284 146.058  -5.704  1.00  0.00     0.066 CG0
ATOM     18  G   UNL     1       3.620 147.420  -5.748  1.00  0.00     0.000 G0
ENDBRANCH  13  17
ENDBRANCH  11  13
ENDBRANCH  10  11
ENDBRANCH   1  10
TORSDOF 0
ENDMDL
MODEL 7
REMARK VINA RESULT:    -2.615      1.860      4.719
REMARK INTER + INTRA:          -1.302
REMARK INTER:                  -1.919
REMARK INTRA:                   0.617
REMARK UNBOUND:                 2.383
REMARK SMILES CC1=CCC(=C(C)C)C(=O)CC(C)=CCC1
REMARK SMILES IDX 12 1 14 2 13 3 15 4 16 5 2 6 1 7 3 8 11 10 9 11 10 12 5 13
REMARK SMILES IDX 6 14 7 15 8 16 4 17
REMARK H PARENT
REMARK Flexibility Score: 60.00
ROOT
ATOM      1  C   UNL     1       5.240 146.808  -7.520  1.00  0.00    -0.070 C 
ATOM      2  C   UNL     1       4.422 147.598  -6.792  1.00  0.00    -0.027 C 
ATOM      3  C   UNL     1       5.248 146.990  -9.018  1.00  0.00     0.039 C 
ENDROOT
BRANCH   2   4
ATOM      4  C   UNL     1       4.203 147.503  -5.298  1.00  0.00     0.032 C 
BRANCH   4   5
ATOM      5  C   UNL     1       2.940 146.723  -4.875  1.00  0.00     0.034 C 
BRANCH   5   6
ATOM      6  C   UNL     1       2.012 146.417  -6.036  1.00  0.00    -0.077 C 
ATOM      7  C   UNL     1       1.091 147.515  -6.507  1.00  0.00     0.039 C 
ATOM      8  C   UNL     1       1.907 145.204  -6.632  1.00  0.00    -0.023 CG0
ATOM      9  G   UNL     1       2.736 143.968  -6.342  1.00  0.00     0.000 G0
ENDBRANCH   5   6
ENDBRANCH   4   5
ENDBRANCH   2   4
BRANCH   1  10
ATOM     10  C   UNL     1       6.076 145.695  -6.919  1.00  0.00     0.111 C 
BRANCH  10  11
ATOM     11  C   UNL     1       5.215 144.632  -6.291  1.00  0.00     0.163 C 
ATOM     12  O   UNL     1       5.487 144.266  -5.115  1.00  0.00    -0.294 OA
BRANCH  11  13
ATOM     13  C   UNL     1       4.103 143.960  -7.028  1.00  0.00    -0.002 C 
ATOM     14  C   UNL     1       4.297 143.468  -8.288  1.00  0.00    -0.069 C 
ATOM     15  C   UNL     1       3.155 142.927  -9.120  1.00  0.00     0.039 C 
ATOM     16  C   UNL     1       5.672 143.444  -8.918  1.00  0.00     0.039 C 
BRANCH  13  17
ATOM     17  C   UNL     1       2.740 143.936  -6.356  1.00  0.00     0.066 CG0
ATOM     18  G   UNL     1       1.934 145.188  -6.641  1.00  0.00     0.000 G0
ENDBRANCH  13  17
ENDBRANCH  11  13
ENDBRANCH  10  11
ENDBRANCH   1  10
TORSDOF 0
ENDMDL
MODEL 8
REMARK VINA RESULT:    -2.213      1.920      4.920
REMARK INTER + INTRA:          -0.736
REMARK INTER:                  -2.276
REMARK INTRA:                   1.541
REMARK UNBOUND:                 2.383
REMARK SMILES CC1=CCC(=C(C)C)C(=O)CC(C)=CCC1
REMARK SMILES IDX 12 1 14 2 13 3 15 4 16 5 2 6 1 7 3 8 11 10 9 11 10 12 5 13
REMARK SMILES IDX 6 14 7 15 8 16 4 17
REMARK H PARENT
REMARK Flexibility Score: 60.00
ROOT
ATOM      1  C   UNL     1       2.934 147.320  -6.387  1.00  0.00    -0.070 C 
ATOM      2  C   UNL     1       1.888 146.474  -6.510  1.00  0.00    -0.027 C 
ATOM      3  C   UNL     1       2.855 148.390  -5.326  1.00  0.00     0.039 C 
ENDROOT
BRANCH   2   4
ATOM      4  C   UNL     1       1.738 145.404  -7.569  1.00  0.00     0.032 C 
BRANCH   4   5
ATOM      5  C   UNL     1       2.375 144.044  -7.212  1.00  0.00     0.034 C 
BRANCH   5   6
ATOM      6  C   UNL     1       2.881 143.287  -8.427  1.00  0.00    -0.077 C 
ATOM      7  C   UNL     1       2.139 142.039  -8.835  1.00  0.00     0.039 C 
ATOM      8  C   UNL     1       3.994 143.620  -9.125  1.00  0.00    -0.023 CG0
ATOM      9  G   UNL     1       4.881 144.831  -8.911  1.00  0.00     0.000 G0
ENDBRANCH   5   6
ENDBRANCH   4   5
ENDBRANCH   2   4
BRANCH   1  10
ATOM     10  C   UNL     1       4.131 147.305  -7.315  1.00  0.00     0.111 C 
BRANCH  10  11
ATOM     11  C   UNL     1       5.181 146.330  -6.852  1.00  0.00     0.163 C 
ATOM     12  O   UNL     1       5.954 146.689  -5.921  1.00  0.00    -0.294 OA
BRANCH  11  13
ATOM     13  C   UNL     1       5.375 144.995  -7.491  1.00  0.00    -0.002 C 
ATOM     14  C   UNL     1       6.031 143.993  -6.832  1.00  0.00    -0.069 C 
ATOM     15  C   UNL     1       6.382 142.686  -7.509  1.00  0.00     0.039 C 
ATOM     16  C   UNL     1       6.443 144.145  -5.384  1.00  0.00     0.039 C 
BRANCH  13  17
ATOM     17  C   UNL     1       4.900 144.836  -8.926  1.00  0.00     0.066 CG0
ATOM     18  G   UNL     1       3.990 143.637  -9.103  1.00  0.00     0.000 G0
ENDBRANCH  13  17
ENDBRANCH  11  13
ENDBRANCH  10  11
ENDBRANCH   1  10
TORSDOF 0
ENDMDL
MODEL 9
REMARK VINA RESULT:    -2.131      1.332      4.074
REMARK INTER + INTRA:          -0.620
REMARK INTER:                  -1.984
REMARK INTRA:                   1.364
REMARK UNBOUND:                 2.383
REMARK SMILES CC1=CCC(=C(C)C)C(=O)CC(C)=CCC1
REMARK SMILES IDX 12 1 14 2 13 3 15 4 16 5 2 6 1 7 3 8 11 10 9 11 10 12 5 13
REMARK SMILES IDX 6 14 7 15 8 16 4 17
REMARK H PARENT
REMARK Flexibility Score: 60.00
ROOT
ATOM      1  C   UNL     1       1.980 146.743  -6.073  1.00  0.00    -0.070 C 
ATOM      2  C   UNL     1       3.097 147.438  -5.766  1.00  0.00    -0.027 C 
ATOM      3  C   UNL     1       0.647 147.407  -5.829  1.00  0.00     0.039 C 
ENDROOT
BRANCH   2   4
ATOM      4  C   UNL     1       4.513 146.912  -5.848  1.00  0.00     0.032 C 
BRANCH   4   5
ATOM      5  C   UNL     1       4.684 145.437  -5.427  1.00  0.00     0.034 C 
BRANCH   5   6
ATOM      6  C   UNL     1       5.801 144.730  -6.173  1.00  0.00    -0.077 C 
ATOM      7  C   UNL     1       6.913 144.119  -5.357  1.00  0.00     0.039 C 
ATOM      8  C   UNL     1       5.901 144.672  -7.524  1.00  0.00    -0.023 CG0
ATOM      9  G   UNL     1       4.904 145.195  -8.538  1.00  0.00     0.000 G0
ENDBRANCH   5   6
ENDBRANCH   4   5
ENDBRANCH   2   4
BRANCH   1  10
ATOM     10  C   UNL     1       1.999 145.309  -6.561  1.00  0.00     0.111 C 
BRANCH  10  11
ATOM     11  C   UNL     1       2.373 145.222  -8.017  1.00  0.00     0.163 C 
ATOM     12  O   UNL     1       1.619 145.783  -8.858  1.00  0.00    -0.294 OA
BRANCH  11  13
ATOM     13  C   UNL     1       3.557 144.449  -8.496  1.00  0.00    -0.002 C 
ATOM     14  C   UNL     1       3.453 143.117  -8.784  1.00  0.00    -0.069 C 
ATOM     15  C   UNL     1       4.663 142.274  -9.119  1.00  0.00     0.039 C 
ATOM     16  C   UNL     1       2.112 142.416  -8.779  1.00  0.00     0.039 C 
BRANCH  13  17
ATOM     17  C   UNL     1       4.887 145.182  -8.557  1.00  0.00     0.066 CG0
ATOM     18  G   UNL     1       5.880 144.661  -7.537  1.00  0.00     0.000 G0
ENDBRANCH  13  17
ENDBRANCH  11  13
ENDBRANCH  10  11
ENDBRANCH   1  10
TORSDOF 0
ENDMDL
