MODEL 1
REMARK VINA RESULT:    22.534      0.000      0.000
REMARK INTER + INTRA:          24.510
REMARK INTER:                  24.510
REMARK INTRA:                   0.000
REMARK UNBOUND:                 0.000
REMARK SMILES Cc1cc(O)c2c(c1)C(=O)c1cc(O)cc(O)c1C2=O
REMARK SMILES IDX 1 1 2 2 8 3 7 4 6 5 4 6 3 7 19 8 20 9 18 10 11 11 9 12 10 13
REMARK SMILES IDX 12 14 13 15 15 16 16 17 5 18 17 20 14 22
REMARK H PARENT 5 19 17 21 14 23
REMARK Flexibility Score: inf
ROOT
ATOM      1  C   UNL     1      35.824  23.975  27.105  1.00  0.00     0.044 C 
ATOM      2  C   UNL     1      34.573  23.839  27.921  1.00  0.00    -0.047 A 
ATOM      3  C   UNL     1      34.642  23.802  29.317  1.00  0.00     0.016 A 
ATOM      4  C   UNL     1      33.473  23.703  30.091  1.00  0.00     0.038 A 
ATOM      5  C   UNL     1      32.213  23.639  29.455  1.00  0.00     0.076 A 
ATOM      6  C   UNL     1      32.143  23.763  28.043  1.00  0.00     0.127 A 
ATOM      7  C   UNL     1      33.322  23.840  27.293  1.00  0.00     0.050 A 
ATOM      8  C   UNL     1      31.014  23.386  30.295  1.00  0.00     0.201 C 
ATOM      9  O   UNL     1      30.026  22.773  29.809  1.00  0.00    -0.288 OA
ATOM     10  C   UNL     1      31.056  23.686  31.750  1.00  0.00     0.076 A 
ATOM     11  C   UNL     1      32.318  23.751  32.381  1.00  0.00     0.041 A 
ATOM     12  C   UNL     1      33.556  23.672  31.570  1.00  0.00     0.194 C 
ATOM     13  O   UNL     1      34.680  23.602  32.139  1.00  0.00    -0.289 OA
ATOM     14  C   UNL     1      32.394  23.896  33.778  1.00  0.00     0.059 A 
ATOM     15  C   UNL     1      31.231  23.991  34.545  1.00  0.00     0.120 A 
ATOM     16  C   UNL     1      29.984  23.968  33.920  1.00  0.00     0.093 A 
ATOM     17  C   UNL     1      29.882  23.845  32.531  1.00  0.00     0.131 A 
ENDROOT
BRANCH   6  18
ATOM     18  O   UNL     1      30.932  23.848  27.352  1.00  0.00    -0.507 OA
ATOM     19  H   UNL     1      30.824  23.587  26.382  1.00  0.00     0.293 HD
ENDBRANCH   6  18
BRANCH  17  20
ATOM     20  O   UNL     1      28.605  23.921  31.970  1.00  0.00    -0.507 OA
ATOM     21  H   UNL     1      28.377  24.505  31.176  1.00  0.00     0.293 HD
ENDBRANCH  17  20
BRANCH  15  22
ATOM     22  O   UNL     1      31.301  24.122  35.930  1.00  0.00    -0.508 OA
ATOM     23  H   UNL     1      31.996  23.622  36.475  1.00  0.00     0.293 HD
ENDBRANCH  15  22
TORSDOF 3
ENDMDL
