MODEL 1
REMARK VINA RESULT:    -6.044      0.000      0.000
REMARK INTER + INTRA:          -7.001
REMARK INTER:                  -6.927
REMARK INTRA:                  -0.074
REMARK UNBOUND:                -0.074
REMARK SMILES COc1cc(C(=O)[O-])ccc1O
REMARK SMILES IDX 5 1 9 2 4 3 10 4 3 5 11 6 6 7 7 8 8 9 2 10 1 11 12 12
REMARK H PARENT 12 13
REMARK Flexibility Score: inf
ROOT
ATOM      1  C   UNL     1     -12.083   1.208  -9.715  1.00  0.00     0.001 A 
ATOM      2  C   UNL     1     -13.264   0.737 -10.314  1.00  0.00     0.014 A 
ATOM      3  C   UNL     1     -10.984   0.340  -9.595  1.00  0.00     0.060 A 
ATOM      4  C   UNL     1     -13.343  -0.577 -10.781  1.00  0.00     0.051 A 
ATOM      5  C   UNL     1     -11.061  -0.987 -10.065  1.00  0.00     0.161 A 
ATOM      6  C   UNL     1     -12.247  -1.438 -10.658  1.00  0.00     0.157 A 
ENDROOT
BRANCH   1   7
ATOM      7  C   UNL     1     -11.995   2.600  -9.220  1.00  0.00     0.072 C 
ATOM      8  O   UNL     1     -12.925   3.421  -9.444  1.00  0.00    -0.545 OA
ATOM      9  O   UNL     1     -10.883   3.024  -8.500  1.00  0.00    -0.545 OA
ENDBRANCH   1   7
BRANCH   5  10
ATOM     10  O   UNL     1      -9.984  -1.881  -9.960  1.00  0.00    -0.493 OA
ATOM     11  C   UNL     1      -9.762  -2.754  -8.857  1.00  0.00     0.278 C 
ENDBRANCH   5  10
BRANCH   6  12
ATOM     12  O   UNL     1     -12.329  -2.750 -11.125  1.00  0.00    -0.504 OA
ATOM     13  H   UNL     1     -12.111  -2.985 -12.086  1.00  0.00     0.293 HD
ENDBRANCH   6  12
TORSDOF 3
ENDMDL
MODEL 2
REMARK VINA RESULT:    -6.002      1.247      1.514
REMARK INTER + INTRA:          -6.953
REMARK INTER:                  -6.858
REMARK INTRA:                  -0.095
REMARK UNBOUND:                -0.074
REMARK SMILES COc1cc(C(=O)[O-])ccc1O
REMARK SMILES IDX 5 1 9 2 4 3 10 4 3 5 11 6 6 7 7 8 8 9 2 10 1 11 12 12
REMARK H PARENT 12 13
REMARK Flexibility Score: inf
ROOT
ATOM      1  C   UNL     1     -12.313   2.408  -9.235  1.00  0.00     0.001 A 
ATOM      2  C   UNL     1     -13.668   2.170  -9.519  1.00  0.00     0.014 A 
ATOM      3  C   UNL     1     -11.359   1.439  -9.591  1.00  0.00     0.060 A 
ATOM      4  C   UNL     1     -14.061   0.986 -10.146  1.00  0.00     0.051 A 
ATOM      5  C   UNL     1     -11.752   0.242 -10.224  1.00  0.00     0.161 A 
ATOM      6  C   UNL     1     -13.109   0.023 -10.499  1.00  0.00     0.157 A 
ENDROOT
BRANCH   1   7
ATOM      7  C   UNL     1     -11.892   3.663  -8.571  1.00  0.00     0.072 C 
ATOM      8  O   UNL     1     -12.702   4.619  -8.435  1.00  0.00    -0.545 OA
ATOM      9  O   UNL     1     -10.597   3.805  -8.086  1.00  0.00    -0.545 OA
ENDBRANCH   1   7
BRANCH   5  10
ATOM     10  O   UNL     1     -10.827  -0.748 -10.594  1.00  0.00    -0.493 OA
ATOM     11  C   UNL     1     -10.347  -1.769  -9.726  1.00  0.00     0.278 C 
ENDBRANCH   5  10
BRANCH   6  12
ATOM     12  O   UNL     1     -13.503  -1.159 -11.125  1.00  0.00    -0.504 OA
ATOM     13  H   UNL     1     -14.398  -1.238 -11.593  1.00  0.00     0.293 HD
ENDBRANCH   6  12
TORSDOF 3
ENDMDL
MODEL 3
REMARK VINA RESULT:    -5.882      1.346      4.336
REMARK INTER + INTRA:          -6.815
REMARK INTER:                  -6.741
REMARK INTRA:                  -0.075
REMARK UNBOUND:                -0.074
REMARK SMILES COc1cc(C(=O)[O-])ccc1O
REMARK SMILES IDX 5 1 9 2 4 3 10 4 3 5 11 6 6 7 7 8 8 9 2 10 1 11 12 12
REMARK H PARENT 12 13
REMARK Flexibility Score: inf
ROOT
ATOM      1  C   UNL     1     -11.610  -0.032 -10.009  1.00  0.00     0.001 A 
ATOM      2  C   UNL     1     -12.903  -0.342 -10.463  1.00  0.00     0.014 A 
ATOM      3  C   UNL     1     -11.374   1.223  -9.421  1.00  0.00     0.060 A 
ATOM      4  C   UNL     1     -13.939   0.585 -10.331  1.00  0.00     0.051 A 
ATOM      5  C   UNL     1     -12.418   2.162  -9.287  1.00  0.00     0.161 A 
ATOM      6  C   UNL     1     -13.701   1.834  -9.746  1.00  0.00     0.157 A 
ENDROOT
BRANCH   1   7
ATOM      7  C   UNL     1     -10.509  -1.012 -10.146  1.00  0.00     0.072 C 
ATOM      8  O   UNL     1      -9.716  -0.954 -11.124  1.00  0.00    -0.545 OA
ATOM      9  O   UNL     1     -10.334  -2.012  -9.197  1.00  0.00    -0.545 OA
ENDBRANCH   1   7
BRANCH   5  10
ATOM     10  O   UNL     1     -12.219   3.424  -8.705  1.00  0.00    -0.493 OA
ATOM     11  C   UNL     1     -10.984   3.875  -8.157  1.00  0.00     0.278 C 
ENDBRANCH   5  10
BRANCH   6  12
ATOM     12  O   UNL     1     -14.736   2.758  -9.616  1.00  0.00    -0.504 OA
ATOM     13  H   UNL     1     -15.650   2.487  -9.272  1.00  0.00     0.293 HD
ENDBRANCH   6  12
TORSDOF 3
ENDMDL
MODEL 4
REMARK VINA RESULT:    -5.559      1.422      2.717
REMARK INTER + INTRA:          -6.445
REMARK INTER:                  -6.375
REMARK INTRA:                  -0.071
REMARK UNBOUND:                -0.074
REMARK SMILES COc1cc(C(=O)[O-])ccc1O
REMARK SMILES IDX 5 1 9 2 4 3 10 4 3 5 11 6 6 7 7 8 8 9 2 10 1 11 12 12
REMARK H PARENT 12 13
REMARK Flexibility Score: inf
ROOT
ATOM      1  C   UNL     1     -12.253   2.024  -9.286  1.00  0.00     0.001 A 
ATOM      2  C   UNL     1     -10.999   1.389  -9.281  1.00  0.00     0.014 A 
ATOM      3  C   UNL     1     -13.347   1.372  -9.882  1.00  0.00     0.060 A 
ATOM      4  C   UNL     1     -10.844   0.129  -9.862  1.00  0.00     0.051 A 
ATOM      5  C   UNL     1     -13.194   0.100 -10.469  1.00  0.00     0.161 A 
ATOM      6  C   UNL     1     -11.935  -0.517 -10.454  1.00  0.00     0.157 A 
ENDROOT
BRANCH   1   7
ATOM      7  C   UNL     1     -12.422   3.359  -8.671  1.00  0.00     0.072 C 
ATOM      8  O   UNL     1     -13.547   3.730  -8.239  1.00  0.00    -0.545 OA
ATOM      9  O   UNL     1     -11.341   4.226  -8.559  1.00  0.00    -0.545 OA
ENDBRANCH   1   7
BRANCH   5  10
ATOM     10  O   UNL     1     -14.264  -0.580 -11.072  1.00  0.00    -0.493 OA
ATOM     11  C   UNL     1     -15.125  -1.492 -10.398  1.00  0.00     0.278 C 
ENDBRANCH   5  10
BRANCH   6  12
ATOM     12  O   UNL     1     -11.778  -1.775 -11.034  1.00  0.00    -0.504 OA
ATOM     13  H   UNL     1     -12.007  -2.624 -10.530  1.00  0.00     0.293 HD
ENDBRANCH   6  12
TORSDOF 3
ENDMDL
MODEL 5
REMARK VINA RESULT:    -5.359      1.684      4.856
REMARK INTER + INTRA:          -6.216
REMARK INTER:                  -6.189
REMARK INTRA:                  -0.027
REMARK UNBOUND:                -0.074
REMARK SMILES COc1cc(C(=O)[O-])ccc1O
REMARK SMILES IDX 5 1 9 2 4 3 10 4 3 5 11 6 6 7 7 8 8 9 2 10 1 11 12 12
REMARK H PARENT 12 13
REMARK Flexibility Score: inf
ROOT
ATOM      1  C   UNL     1     -12.923   0.223 -10.004  1.00  0.00     0.001 A 
ATOM      2  C   UNL     1     -11.585  -0.120  -9.742  1.00  0.00     0.014 A 
ATOM      3  C   UNL     1     -13.351   1.540  -9.763  1.00  0.00     0.060 A 
ATOM      4  C   UNL     1     -10.695   0.836  -9.248  1.00  0.00     0.051 A 
ATOM      5  C   UNL     1     -12.455   2.508  -9.264  1.00  0.00     0.161 A 
ATOM      6  C   UNL     1     -11.125   2.147  -9.010  1.00  0.00     0.157 A 
ENDROOT
BRANCH   1   7
ATOM      7  C   UNL     1     -13.869  -0.788 -10.528  1.00  0.00     0.072 C 
ATOM      8  O   UNL     1     -15.114  -0.608 -10.440  1.00  0.00    -0.545 OA
ATOM      9  O   UNL     1     -13.399  -1.952 -11.125  1.00  0.00    -0.545 OA
ENDBRANCH   1   7
BRANCH   5  10
ATOM     10  O   UNL     1     -12.848   3.832  -9.013  1.00  0.00    -0.493 OA
ATOM     11  C   UNL     1     -13.214   4.336  -7.732  1.00  0.00     0.278 C 
ENDBRANCH   5  10
BRANCH   6  12
ATOM     12  O   UNL     1     -10.235   3.099  -8.517  1.00  0.00    -0.504 OA
ATOM     13  H   UNL     1      -9.398   3.358  -9.026  1.00  0.00     0.293 HD
ENDBRANCH   6  12
TORSDOF 3
ENDMDL
MODEL 6
REMARK VINA RESULT:    -4.786     15.694     17.377
REMARK INTER + INTRA:          -5.560
REMARK INTER:                  -5.483
REMARK INTRA:                  -0.077
REMARK UNBOUND:                -0.074
REMARK SMILES COc1cc(C(=O)[O-])ccc1O
REMARK SMILES IDX 5 1 9 2 4 3 10 4 3 5 11 6 6 7 7 8 8 9 2 10 1 11 12 12
REMARK H PARENT 12 13
REMARK Flexibility Score: inf
ROOT
ATOM      1  C   UNL     1     -12.588   5.514   5.749  1.00  0.00     0.001 A 
ATOM      2  C   UNL     1     -12.839   4.633   6.815  1.00  0.00     0.014 A 
ATOM      3  C   UNL     1     -11.346   6.168   5.680  1.00  0.00     0.060 A 
ATOM      4  C   UNL     1     -11.867   4.413   7.793  1.00  0.00     0.051 A 
ATOM      5  C   UNL     1     -10.362   5.949   6.665  1.00  0.00     0.161 A 
ATOM      6  C   UNL     1     -10.631   5.067   7.721  1.00  0.00     0.157 A 
ENDROOT
BRANCH   1   7
ATOM      7  C   UNL     1     -13.616   5.748   4.710  1.00  0.00     0.072 C 
ATOM      8  O   UNL     1     -14.776   6.126   5.029  1.00  0.00    -0.545 OA
ATOM      9  O   UNL     1     -13.318   5.556   3.366  1.00  0.00    -0.545 OA
ENDBRANCH   1   7
BRANCH   5  10
ATOM     10  O   UNL     1      -9.111   6.585   6.629  1.00  0.00    -0.493 OA
ATOM     11  C   UNL     1      -8.756   7.616   5.713  1.00  0.00     0.278 C 
ENDBRANCH   5  10
BRANCH   6  12
ATOM     12  O   UNL     1      -9.662   4.846   8.699  1.00  0.00    -0.504 OA
ATOM     13  H   UNL     1      -9.690   4.030   9.299  1.00  0.00     0.293 HD
ENDBRANCH   6  12
TORSDOF 3
ENDMDL
MODEL 7
REMARK VINA RESULT:    -4.597      1.751      4.324
REMARK INTER + INTRA:          -5.343
REMARK INTER:                  -5.268
REMARK INTRA:                  -0.075
REMARK UNBOUND:                -0.074
REMARK SMILES COc1cc(C(=O)[O-])ccc1O
REMARK SMILES IDX 5 1 9 2 4 3 10 4 3 5 11 6 6 7 7 8 8 9 2 10 1 11 12 12
REMARK H PARENT 12 13
REMARK Flexibility Score: inf
ROOT
ATOM      1  C   UNL     1     -11.101  -0.890 -10.012  1.00  0.00     0.001 A 
ATOM      2  C   UNL     1     -10.952   0.444  -9.595  1.00  0.00     0.014 A 
ATOM      3  C   UNL     1     -12.360  -1.329 -10.459  1.00  0.00     0.060 A 
ATOM      4  C   UNL     1     -12.039   1.319  -9.625  1.00  0.00     0.051 A 
ATOM      5  C   UNL     1     -13.460  -0.448 -10.490  1.00  0.00     0.161 A 
ATOM      6  C   UNL     1     -13.290   0.878 -10.071  1.00  0.00     0.157 A 
ENDROOT
BRANCH   1   7
ATOM      7  C   UNL     1      -9.951  -1.821  -9.982  1.00  0.00     0.072 C 
ATOM      8  O   UNL     1      -9.869  -2.711  -9.094  1.00  0.00    -0.545 OA
ATOM      9  O   UNL     1      -8.943  -1.727 -10.935  1.00  0.00    -0.545 OA
ENDBRANCH   1   7
BRANCH   5  10
ATOM     10  O   UNL     1     -14.730  -0.852 -10.930  1.00  0.00    -0.493 OA
ATOM     11  C   UNL     1     -15.125  -2.207 -11.124  1.00  0.00     0.278 C 
ENDBRANCH   5  10
BRANCH   6  12
ATOM     12  O   UNL     1     -14.375   1.754 -10.100  1.00  0.00    -0.504 OA
ATOM     13  H   UNL     1     -15.147   1.622 -10.742  1.00  0.00     0.293 HD
ENDBRANCH   6  12
TORSDOF 3
ENDMDL
MODEL 8
REMARK VINA RESULT:    -4.596      1.297      4.980
REMARK INTER + INTRA:          -5.342
REMARK INTER:                  -5.239
REMARK INTRA:                  -0.104
REMARK UNBOUND:                -0.074
REMARK SMILES COc1cc(C(=O)[O-])ccc1O
REMARK SMILES IDX 5 1 9 2 4 3 10 4 3 5 11 6 6 7 7 8 8 9 2 10 1 11 12 12
REMARK H PARENT 12 13
REMARK Flexibility Score: inf
ROOT
ATOM      1  C   UNL     1     -12.024  -1.340 -10.159  1.00  0.00     0.001 A 
ATOM      2  C   UNL     1     -10.780  -0.775  -9.827  1.00  0.00     0.014 A 
ATOM      3  C   UNL     1     -13.148  -0.502 -10.266  1.00  0.00     0.060 A 
ATOM      4  C   UNL     1     -10.664   0.599  -9.606  1.00  0.00     0.051 A 
ATOM      5  C   UNL     1     -13.035   0.886 -10.042  1.00  0.00     0.161 A 
ATOM      6  C   UNL     1     -11.786   1.429  -9.712  1.00  0.00     0.157 A 
ENDROOT
BRANCH   1   7
ATOM      7  C   UNL     1     -12.150  -2.795 -10.395  1.00  0.00     0.072 C 
ATOM      8  O   UNL     1     -11.131  -3.537 -10.388  1.00  0.00    -0.545 OA
ATOM      9  O   UNL     1     -13.395  -3.367 -10.629  1.00  0.00    -0.545 OA
ENDBRANCH   1   7
BRANCH   5  10
ATOM     10  O   UNL     1     -14.136   1.751 -10.140  1.00  0.00    -0.493 OA
ATOM     11  C   UNL     1     -15.125   1.918  -9.129  1.00  0.00     0.278 C 
ENDBRANCH   5  10
BRANCH   6  12
ATOM     12  O   UNL     1     -11.668   2.801  -9.491  1.00  0.00    -0.504 OA
ATOM     13  H   UNL     1     -12.341   3.458  -9.866  1.00  0.00     0.293 HD
ENDBRANCH   6  12
TORSDOF 3
ENDMDL
MODEL 9
REMARK VINA RESULT:    -4.356     16.551     17.559
REMARK INTER + INTRA:          -5.067
REMARK INTER:                  -4.966
REMARK INTRA:                  -0.101
REMARK UNBOUND:                -0.074
REMARK SMILES COc1cc(C(=O)[O-])ccc1O
REMARK SMILES IDX 5 1 9 2 4 3 10 4 3 5 11 6 6 7 7 8 8 9 2 10 1 11 12 12
REMARK H PARENT 12 13
REMARK Flexibility Score: inf
ROOT
ATOM      1  C   UNL     1     -12.416   7.659   5.953  1.00  0.00     0.001 A 
ATOM      2  C   UNL     1     -13.344   6.806   5.332  1.00  0.00     0.014 A 
ATOM      3  C   UNL     1     -11.360   7.098   6.692  1.00  0.00     0.060 A 
ATOM      4  C   UNL     1     -13.218   5.420   5.449  1.00  0.00     0.051 A 
ATOM      5  C   UNL     1     -11.230   5.700   6.813  1.00  0.00     0.161 A 
ATOM      6  C   UNL     1     -12.166   4.865   6.186  1.00  0.00     0.157 A 
ENDROOT
BRANCH   1   7
ATOM      7  C   UNL     1     -12.546   9.128   5.830  1.00  0.00     0.072 C 
ATOM      8  O   UNL     1     -13.680   9.663   5.695  1.00  0.00    -0.545 OA
ATOM      9  O   UNL     1     -11.420   9.942   5.862  1.00  0.00    -0.545 OA
ENDBRANCH   1   7
BRANCH   5  10
ATOM     10  O   UNL     1     -10.188   5.105   7.542  1.00  0.00    -0.493 OA
ATOM     11  C   UNL     1     -10.174   4.963   8.959  1.00  0.00     0.278 C 
ENDBRANCH   5  10
BRANCH   6  12
ATOM     12  O   UNL     1     -12.042   3.482   6.302  1.00  0.00    -0.504 OA
ATOM     13  H   UNL     1     -12.059   3.021   7.204  1.00  0.00     0.293 HD
ENDBRANCH   6  12
TORSDOF 3
ENDMDL
