MODEL 1
REMARK VINA RESULT:    -3.942      0.000      0.000
REMARK INTER + INTRA:          -3.942
REMARK INTER:                  -3.942
REMARK INTRA:                   0.000
REMARK UNBOUND:                 0.000
REMARK SMILES C=C1CC[C@@H]2C[C@H]1C2(C)C
REMARK SMILES IDX 9 1 8 2 5 3 4 4 3 5 2 6 1 7 7 8 6 9 10 10
REMARK H PARENT
REMARK Flexibility Score: inf
ROOT
ATOM      1  C   UNL     1     141.894 141.261 132.340  1.00  0.00     0.012 C 
ATOM      2  C   UNL     1     143.049 142.034 131.644  1.00  0.00    -0.026 C 
ATOM      3  C   UNL     1     144.442 142.057 132.321  1.00  0.00    -0.004 C 
ATOM      4  C   UNL     1     144.309 142.129 133.876  1.00  0.00     0.008 C 
ATOM      5  C   UNL     1     143.358 143.292 134.349  1.00  0.00     0.031 C 
ATOM      6  C   UNL     1     142.646 143.980 133.172  1.00  0.00    -0.074 C 
ATOM      7  C   UNL     1     141.693 144.895 133.374  1.00  0.00     0.008 C 
ATOM      8  C   UNL     1     143.079 143.575 131.767  1.00  0.00     0.021 C 
ATOM      9  C   UNL     1     144.613 143.504 131.829  1.00  0.00     0.012 C 
ATOM     10  C   UNL     1     143.129 141.567 130.169  1.00  0.00     0.012 C 
ENDROOT
TORSDOF 0
ENDMDL
MODEL 2
REMARK VINA RESULT:    -3.934      3.197      4.444
REMARK INTER + INTRA:          -3.934
REMARK INTER:                  -3.934
REMARK INTRA:                   0.000
REMARK UNBOUND:                 0.000
REMARK SMILES C=C1CC[C@@H]2C[C@H]1C2(C)C
REMARK SMILES IDX 9 1 8 2 5 3 4 4 3 5 2 6 1 7 7 8 6 9 10 10
REMARK H PARENT
REMARK Flexibility Score: inf
ROOT
ATOM      1  C   UNL     1     141.244 140.218 132.240  1.00  0.00     0.012 C 
ATOM      2  C   UNL     1     142.039 139.062 131.574  1.00  0.00    -0.026 C 
ATOM      3  C   UNL     1     142.071 137.680 132.275  1.00  0.00    -0.004 C 
ATOM      4  C   UNL     1     142.121 137.841 133.828  1.00  0.00     0.008 C 
ATOM      5  C   UNL     1     143.267 138.814 134.300  1.00  0.00     0.031 C 
ATOM      6  C   UNL     1     143.960 139.514 133.120  1.00  0.00    -0.074 C 
ATOM      7  C   UNL     1     144.862 140.482 133.317  1.00  0.00     0.008 C 
ATOM      8  C   UNL     1     143.579 139.052 131.717  1.00  0.00     0.021 C 
ATOM      9  C   UNL     1     143.526 137.519 131.805  1.00  0.00     0.012 C 
ATOM     10  C   UNL     1     141.592 138.951 130.095  1.00  0.00     0.012 C 
ENDROOT
TORSDOF 0
ENDMDL
MODEL 3
REMARK VINA RESULT:    -3.913      3.897      6.168
REMARK INTER + INTRA:          -3.913
REMARK INTER:                  -3.913
REMARK INTRA:                   0.000
REMARK UNBOUND:                 0.000
REMARK SMILES C=C1CC[C@@H]2C[C@H]1C2(C)C
REMARK SMILES IDX 9 1 8 2 5 3 4 4 3 5 2 6 1 7 7 8 6 9 10 10
REMARK H PARENT
REMARK Flexibility Score: inf
ROOT
ATOM      1  C   UNL     1     140.380 140.959 132.549  1.00  0.00     0.012 C 
ATOM      2  C   UNL     1     139.215 140.222 131.831  1.00  0.00    -0.026 C 
ATOM      3  C   UNL     1     137.836 140.148 132.535  1.00  0.00    -0.004 C 
ATOM      4  C   UNL     1     138.003 139.984 134.079  1.00  0.00     0.008 C 
ATOM      5  C   UNL     1     138.970 138.800 134.461  1.00  0.00     0.031 C 
ATOM      6  C   UNL     1     139.660 138.190 133.230  1.00  0.00    -0.074 C 
ATOM      7  C   UNL     1     140.622 137.270 133.356  1.00  0.00     0.008 C 
ATOM      8  C   UNL     1     139.195 138.676 131.861  1.00  0.00     0.021 C 
ATOM      9  C   UNL     1     137.662 138.733 131.960  1.00  0.00     0.012 C 
ATOM     10  C   UNL     1     139.102 140.777 130.390  1.00  0.00     0.012 C 
ENDROOT
TORSDOF 0
ENDMDL
MODEL 4
REMARK VINA RESULT:    -3.886      3.122      4.404
REMARK INTER + INTRA:          -3.886
REMARK INTER:                  -3.886
REMARK INTRA:                   0.000
REMARK UNBOUND:                 0.000
REMARK SMILES C=C1CC[C@@H]2C[C@H]1C2(C)C
REMARK SMILES IDX 9 1 8 2 5 3 4 4 3 5 2 6 1 7 7 8 6 9 10 10
REMARK H PARENT
REMARK Flexibility Score: inf
ROOT
ATOM      1  C   UNL     1     140.940 141.712 132.861  1.00  0.00     0.012 C 
ATOM      2  C   UNL     1     140.225 142.834 132.058  1.00  0.00    -0.026 C 
ATOM      3  C   UNL     1     140.152 144.256 132.671  1.00  0.00    -0.004 C 
ATOM      4  C   UNL     1     139.961 144.190 134.220  1.00  0.00     0.008 C 
ATOM      5  C   UNL     1     138.763 143.258 134.643  1.00  0.00     0.031 C 
ATOM      6  C   UNL     1     138.167 142.495 133.449  1.00  0.00    -0.074 C 
ATOM      7  C   UNL     1     137.237 141.550 133.621  1.00  0.00     0.008 C 
ATOM      8  C   UNL     1     138.679 142.867 132.062  1.00  0.00     0.021 C 
ATOM      9  C   UNL     1     138.747 144.403 132.063  1.00  0.00     0.012 C 
ATOM     10  C   UNL     1     140.804 142.851 130.622  1.00  0.00     0.012 C 
ENDROOT
TORSDOF 0
ENDMDL
MODEL 5
REMARK VINA RESULT:    -3.884      4.079      5.595
REMARK INTER + INTRA:          -3.884
REMARK INTER:                  -3.884
REMARK INTRA:                   0.000
REMARK UNBOUND:                 0.000
REMARK SMILES C=C1CC[C@@H]2C[C@H]1C2(C)C
REMARK SMILES IDX 9 1 8 2 5 3 4 4 3 5 2 6 1 7 7 8 6 9 10 10
REMARK H PARENT
REMARK Flexibility Score: inf
ROOT
ATOM      1  C   UNL     1     140.388 140.754 133.817  1.00  0.00     0.012 C 
ATOM      2  C   UNL     1     138.847 140.560 133.771  1.00  0.00    -0.026 C 
ATOM      3  C   UNL     1     138.046 141.233 132.628  1.00  0.00    -0.004 C 
ATOM      4  C   UNL     1     138.647 142.629 132.269  1.00  0.00     0.008 C 
ATOM      5  C   UNL     1     138.837 143.550 133.533  1.00  0.00     0.031 C 
ATOM      6  C   UNL     1     138.548 142.805 134.847  1.00  0.00    -0.074 C 
ATOM      7  C   UNL     1     138.788 143.370 136.035  1.00  0.00     0.008 C 
ATOM      8  C   UNL     1     137.973 141.397 134.734  1.00  0.00     0.021 C 
ATOM      9  C   UNL     1     136.908 141.490 133.629  1.00  0.00     0.012 C 
ATOM     10  C   UNL     1     138.543 139.045 133.878  1.00  0.00     0.012 C 
ENDROOT
TORSDOF 0
ENDMDL
MODEL 6
REMARK VINA RESULT:    -3.878      1.668      3.418
REMARK INTER + INTRA:          -3.878
REMARK INTER:                  -3.878
REMARK INTRA:                   0.000
REMARK UNBOUND:                 0.000
REMARK SMILES C=C1CC[C@@H]2C[C@H]1C2(C)C
REMARK SMILES IDX 9 1 8 2 5 3 4 4 3 5 2 6 1 7 7 8 6 9 10 10
REMARK H PARENT
REMARK Flexibility Score: inf
ROOT
ATOM      1  C   UNL     1     140.747 141.691 134.095  1.00  0.00     0.012 C 
ATOM      2  C   UNL     1     140.571 143.225 133.917  1.00  0.00    -0.026 C 
ATOM      3  C   UNL     1     141.265 143.918 132.717  1.00  0.00    -0.004 C 
ATOM      4  C   UNL     1     142.657 143.273 132.425  1.00  0.00     0.008 C 
ATOM      5  C   UNL     1     143.564 143.181 133.710  1.00  0.00     0.031 C 
ATOM      6  C   UNL     1     142.810 143.588 134.987  1.00  0.00    -0.074 C 
ATOM      7  C   UNL     1     143.361 143.443 136.197  1.00  0.00     0.008 C 
ATOM      8  C   UNL     1     141.410 144.168 134.812  1.00  0.00     0.021 C 
ATOM      9  C   UNL     1     141.527 145.134 133.622  1.00  0.00     0.012 C 
ATOM     10  C   UNL     1     139.059 143.554 133.983  1.00  0.00     0.012 C 
ENDROOT
TORSDOF 0
ENDMDL
MODEL 7
REMARK VINA RESULT:    -3.871      2.347      4.042
REMARK INTER + INTRA:          -3.871
REMARK INTER:                  -3.871
REMARK INTRA:                   0.000
REMARK UNBOUND:                 0.000
REMARK SMILES C=C1CC[C@@H]2C[C@H]1C2(C)C
REMARK SMILES IDX 9 1 8 2 5 3 4 4 3 5 2 6 1 7 7 8 6 9 10 10
REMARK H PARENT
REMARK Flexibility Score: inf
ROOT
ATOM      1  C   UNL     1     141.786 141.526 134.321  1.00  0.00     0.012 C 
ATOM      2  C   UNL     1     143.304 141.669 134.021  1.00  0.00    -0.026 C 
ATOM      3  C   UNL     1     143.904 140.882 132.828  1.00  0.00    -0.004 C 
ATOM      4  C   UNL     1     143.230 139.480 132.685  1.00  0.00     0.008 C 
ATOM      5  C   UNL     1     143.224 138.670 134.036  1.00  0.00     0.031 C 
ATOM      6  C   UNL     1     143.728 139.509 135.222  1.00  0.00    -0.074 C 
ATOM      7  C   UNL     1     143.667 139.049 136.476  1.00  0.00     0.008 C 
ATOM      8  C   UNL     1     144.303 140.885 134.904  1.00  0.00     0.021 C 
ATOM      9  C   UNL     1     145.180 140.671 133.660  1.00  0.00     0.012 C 
ATOM     10  C   UNL     1     143.648 143.177 133.952  1.00  0.00     0.012 C 
ENDROOT
TORSDOF 0
ENDMDL
MODEL 8
REMARK VINA RESULT:    -3.854      4.055      6.081
REMARK INTER + INTRA:          -3.854
REMARK INTER:                  -3.854
REMARK INTRA:                   0.000
REMARK UNBOUND:                 0.000
REMARK SMILES C=C1CC[C@@H]2C[C@H]1C2(C)C
REMARK SMILES IDX 9 1 8 2 5 3 4 4 3 5 2 6 1 7 7 8 6 9 10 10
REMARK H PARENT
REMARK Flexibility Score: inf
ROOT
ATOM      1  C   UNL     1     140.456 141.469 133.488  1.00  0.00     0.012 C 
ATOM      2  C   UNL     1     138.979 141.948 133.435  1.00  0.00    -0.026 C 
ATOM      3  C   UNL     1     138.082 141.732 134.681  1.00  0.00    -0.004 C 
ATOM      4  C   UNL     1     138.418 140.379 135.385  1.00  0.00     0.008 C 
ATOM      5  C   UNL     1     138.417 139.159 134.387  1.00  0.00     0.031 C 
ATOM      6  C   UNL     1     138.255 139.603 132.924  1.00  0.00    -0.074 C 
ATOM      7  C   UNL     1     138.369 138.732 131.916  1.00  0.00     0.008 C 
ATOM      8  C   UNL     1     137.952 141.077 132.675  1.00  0.00     0.021 C 
ATOM      9  C   UNL     1     136.903 141.452 133.734  1.00  0.00     0.012 C 
ATOM     10  C   UNL     1     138.960 143.421 132.956  1.00  0.00     0.012 C 
ENDROOT
TORSDOF 0
ENDMDL
MODEL 9
REMARK VINA RESULT:    -3.830      3.954      5.692
REMARK INTER + INTRA:          -3.830
REMARK INTER:                  -3.830
REMARK INTRA:                   0.000
REMARK UNBOUND:                 0.000
REMARK SMILES C=C1CC[C@@H]2C[C@H]1C2(C)C
REMARK SMILES IDX 9 1 8 2 5 3 4 4 3 5 2 6 1 7 7 8 6 9 10 10
REMARK H PARENT
REMARK Flexibility Score: inf
ROOT
ATOM      1  C   UNL     1     140.771 140.270 132.640  1.00  0.00     0.012 C 
ATOM      2  C   UNL     1     140.293 138.947 133.301  1.00  0.00    -0.026 C 
ATOM      3  C   UNL     1     140.729 138.643 134.757  1.00  0.00    -0.004 C 
ATOM      4  C   UNL     1     142.186 139.142 135.022  1.00  0.00     0.008 C 
ATOM      5  C   UNL     1     143.208 138.631 133.937  1.00  0.00     0.031 C 
ATOM      6  C   UNL     1     142.511 137.903 132.776  1.00  0.00    -0.074 C 
ATOM      7  C   UNL     1     143.188 137.518 131.689  1.00  0.00     0.008 C 
ATOM      8  C   UNL     1     141.017 137.634 132.922  1.00  0.00     0.021 C 
ATOM      9  C   UNL     1     140.839 137.158 134.373  1.00  0.00     0.012 C 
ATOM     10  C   UNL     1     138.759 138.838 133.121  1.00  0.00     0.012 C 
ENDROOT
TORSDOF 0
ENDMDL
