MODEL 1
REMARK VINA RESULT:    -5.410      0.000      0.000
REMARK INTER + INTRA:          -8.086
REMARK INTER:                  -8.256
REMARK INTRA:                   0.170
REMARK UNBOUND:                 0.170
REMARK SMILES CC1=CCC[C@@H](C)C(=O)C[C@@H](C(C)C)C(=O)C1
REMARK SMILES IDX 8 1 9 2 6 3 7 4 5 5 4 6 3 7 2 8 1 9 10 11 11 12 15 13 16 14
REMARK SMILES IDX 17 15 12 17 13 18 14 19
REMARK H PARENT
REMARK Flexibility Score: 70.00
ROOT
ATOM      1  C   UNL     1      -8.382  32.923  22.615  1.00  0.00     0.136 C 
ATOM      2  O   UNL     1      -9.036  32.557  21.649  1.00  0.00    -0.299 OA
ENDROOT
BRANCH   1   3
ATOM      3  C   UNL     1      -8.230  34.424  22.834  1.00  0.00     0.053 C 
ATOM      4  C   UNL     1      -7.481  35.024  21.635  1.00  0.00     0.016 C 
BRANCH   3   5
ATOM      5  C   UNL     1      -7.538  34.878  24.148  1.00  0.00     0.015 C 
BRANCH   5   6
ATOM      6  C   UNL     1      -8.431  35.010  25.399  1.00  0.00     0.028 C 
BRANCH   6   7
ATOM      7  C   UNL     1      -8.040  34.080  26.522  1.00  0.00    -0.028 C 
ATOM      8  C   UNL     1      -8.568  32.855  26.755  1.00  0.00    -0.070 CG0
ATOM      9  C   UNL     1      -8.059  32.087  27.948  1.00  0.00     0.039 C 
ATOM     10  G   UNL     1      -9.664  32.229  25.910  1.00  0.00     0.000 G0
ENDBRANCH   6   7
ENDBRANCH   5   6
ENDBRANCH   3   5
ENDBRANCH   1   3
BRANCH   1  11
ATOM     11  C   UNL     1      -7.740  31.854  23.474  1.00  0.00     0.087 C 
BRANCH  11  12
ATOM     12  C   UNL     1      -8.733  30.736  23.896  1.00  0.00     0.066 C 
BRANCH  12  13
ATOM     13  C   UNL     1      -9.203  30.903  25.338  1.00  0.00     0.140 C 
ATOM     14  O   UNL     1      -9.195  29.924  26.071  1.00  0.00    -0.299 OA
BRANCH  13  15
ATOM     15  C   UNL     1      -9.664  32.221  25.912  1.00  0.00     0.106 CG0
ATOM     16  G   UNL     1      -8.577  32.855  26.763  1.00  0.00     0.000 G0
ENDBRANCH  13  15
ENDBRANCH  12  13
BRANCH  12  17
ATOM     17  C   UNL     1      -8.176  29.304  23.615  1.00  0.00    -0.006 C 
ATOM     18  C   UNL     1      -6.707  29.344  23.158  1.00  0.00     0.008 C 
ATOM     19  C   UNL     1      -9.010  28.575  22.547  1.00  0.00     0.008 C 
ENDBRANCH  12  17
ENDBRANCH  11  12
ENDBRANCH   1  11
TORSDOF 1
ENDMDL
MODEL 2
REMARK VINA RESULT:    -5.317      2.148      4.082
REMARK INTER + INTRA:          -7.944
REMARK INTER:                  -7.951
REMARK INTRA:                   0.007
REMARK UNBOUND:                 0.170
REMARK SMILES CC1=CCC[C@@H](C)C(=O)C[C@@H](C(C)C)C(=O)C1
REMARK SMILES IDX 8 1 9 2 6 3 7 4 5 5 4 6 3 7 2 8 1 9 10 11 11 12 15 13 16 14
REMARK SMILES IDX 17 15 12 17 13 18 14 19
REMARK H PARENT
REMARK Flexibility Score: 70.00
ROOT
ATOM      1  C   UNL     1      -8.147  33.406  26.102  1.00  0.00     0.136 C 
ATOM      2  O   UNL     1      -7.956  33.102  27.271  1.00  0.00    -0.299 OA
ENDROOT
BRANCH   1   3
ATOM      3  C   UNL     1      -7.659  34.775  25.642  1.00  0.00     0.053 C 
ATOM      4  C   UNL     1      -8.782  35.799  25.865  1.00  0.00     0.016 C 
BRANCH   3   5
ATOM      5  C   UNL     1      -7.148  34.888  24.180  1.00  0.00     0.015 C 
BRANCH   5   6
ATOM      6  C   UNL     1      -8.216  34.990  23.072  1.00  0.00     0.028 C 
BRANCH   6   7
ATOM      7  C   UNL     1      -7.811  34.325  21.779  1.00  0.00    -0.028 C 
ATOM      8  C   UNL     1      -8.075  33.043  21.431  1.00  0.00    -0.070 CG0
ATOM      9  C   UNL     1      -7.562  32.556  20.100  1.00  0.00     0.039 C 
ATOM     10  G   UNL     1      -8.823  32.061  22.318  1.00  0.00     0.000 G0
ENDBRANCH   6   7
ENDBRANCH   5   6
ENDBRANCH   3   5
ENDBRANCH   1   3
BRANCH   1  11
ATOM     11  C   UNL     1      -8.896  32.417  25.232  1.00  0.00     0.087 C 
BRANCH  11  12
ATOM     12  C   UNL     1      -7.998  31.258  24.718  1.00  0.00     0.066 C 
BRANCH  12  13
ATOM     13  C   UNL     1      -7.892  31.250  23.195  1.00  0.00     0.140 C 
ATOM     14  O   UNL     1      -7.017  30.571  22.677  1.00  0.00    -0.299 OA
BRANCH  13  15
ATOM     15  C   UNL     1      -8.823  32.026  22.296  1.00  0.00     0.106 CG0
ATOM     16  G   UNL     1      -8.056  33.032  21.455  1.00  0.00     0.000 G0
ENDBRANCH  13  15
ENDBRANCH  12  13
BRANCH  12  17
ATOM     17  C   UNL     1      -8.426  29.871  25.292  1.00  0.00    -0.006 C 
ATOM     18  C   UNL     1      -9.958  29.721  25.338  1.00  0.00     0.008 C 
ATOM     19  C   UNL     1      -7.862  29.647  26.706  1.00  0.00     0.008 C 
ENDBRANCH  12  17
ENDBRANCH  11  12
ENDBRANCH   1  11
TORSDOF 1
ENDMDL
MODEL 3
REMARK VINA RESULT:    -5.237      1.780      4.197
REMARK INTER + INTRA:          -7.823
REMARK INTER:                  -7.655
REMARK INTRA:                  -0.169
REMARK UNBOUND:                 0.170
REMARK SMILES CC1=CCC[C@@H](C)C(=O)C[C@@H](C(C)C)C(=O)C1
REMARK SMILES IDX 8 1 9 2 6 3 7 4 5 5 4 6 3 7 2 8 1 9 10 11 11 12 15 13 16 14
REMARK SMILES IDX 17 15 12 17 13 18 14 19
REMARK H PARENT
REMARK Flexibility Score: 70.00
ROOT
ATOM      1  C   UNL     1      -8.120  33.963  22.146  1.00  0.00     0.136 C 
ATOM      2  O   UNL     1      -7.561  34.994  21.802  1.00  0.00    -0.299 OA
ENDROOT
BRANCH   1   3
ATOM      3  C   UNL     1      -7.924  32.731  21.269  1.00  0.00     0.053 C 
ATOM      4  C   UNL     1      -7.136  33.137  20.016  1.00  0.00     0.016 C 
BRANCH   3   5
ATOM      5  C   UNL     1      -9.203  31.960  20.841  1.00  0.00     0.015 C 
BRANCH   5   6
ATOM      6  C   UNL     1      -9.433  30.576  21.482  1.00  0.00     0.028 C 
BRANCH   6   7
ATOM      7  C   UNL     1      -8.355  30.178  22.462  1.00  0.00    -0.028 C 
ATOM      8  C   UNL     1      -8.358  30.437  23.791  1.00  0.00    -0.070 CG0
ATOM      9  C   UNL     1      -7.172  29.975  24.599  1.00  0.00     0.039 C 
ATOM     10  G   UNL     1      -9.464  31.196  24.504  1.00  0.00     0.000 G0
ENDBRANCH   6   7
ENDBRANCH   5   6
ENDBRANCH   3   5
ENDBRANCH   1   3
BRANCH   1  11
ATOM     11  C   UNL     1      -8.997  34.016  23.380  1.00  0.00     0.087 C 
BRANCH  11  12
ATOM     12  C   UNL     1      -8.257  33.569  24.670  1.00  0.00     0.066 C 
BRANCH  12  13
ATOM     13  C   UNL     1      -8.911  32.346  25.308  1.00  0.00     0.140 C 
ATOM     14  O   UNL     1      -8.994  32.299  26.527  1.00  0.00    -0.299 OA
BRANCH  13  15
ATOM     15  C   UNL     1      -9.476  31.196  24.509  1.00  0.00     0.106 CG0
ATOM     16  G   UNL     1      -8.373  30.441  23.787  1.00  0.00     0.000 G0
ENDBRANCH  13  15
ENDBRANCH  12  13
BRANCH  12  17
ATOM     17  C   UNL     1      -8.067  34.739  25.687  1.00  0.00    -0.006 C 
ATOM     18  C   UNL     1      -9.149  35.821  25.519  1.00  0.00     0.008 C 
ATOM     19  C   UNL     1      -6.682  35.393  25.540  1.00  0.00     0.008 C 
ENDBRANCH  12  17
ENDBRANCH  11  12
ENDBRANCH   1  11
TORSDOF 1
ENDMDL
MODEL 4
REMARK VINA RESULT:    -5.215      1.786      2.956
REMARK INTER + INTRA:          -7.789
REMARK INTER:                  -7.495
REMARK INTRA:                  -0.294
REMARK UNBOUND:                 0.170
REMARK SMILES CC1=CCC[C@@H](C)C(=O)C[C@@H](C(C)C)C(=O)C1
REMARK SMILES IDX 8 1 9 2 6 3 7 4 5 5 4 6 3 7 2 8 1 9 10 11 11 12 15 13 16 14
REMARK SMILES IDX 17 15 12 17 13 18 14 19
REMARK H PARENT
REMARK Flexibility Score: 70.00
ROOT
ATOM      1  C   UNL     1      -7.785  31.130  22.847  1.00  0.00     0.136 C 
ATOM      2  O   UNL     1      -7.119  30.426  22.102  1.00  0.00    -0.299 OA
ENDROOT
BRANCH   1   3
ATOM      3  C   UNL     1      -8.857  32.009  22.214  1.00  0.00     0.053 C 
ATOM      4  C   UNL     1      -9.530  31.225  21.077  1.00  0.00     0.016 C 
BRANCH   3   5
ATOM      5  C   UNL     1      -8.407  33.397  21.681  1.00  0.00     0.015 C 
BRANCH   5   6
ATOM      6  C   UNL     1      -7.449  34.211  22.575  1.00  0.00     0.028 C 
BRANCH   6   7
ATOM      7  C   UNL     1      -8.159  35.108  23.560  1.00  0.00    -0.028 C 
ATOM      8  C   UNL     1      -8.188  34.941  24.904  1.00  0.00    -0.070 CG0
ATOM      9  C   UNL     1      -8.976  35.936  25.718  1.00  0.00     0.039 C 
ATOM     10  G   UNL     1      -7.508  33.793  25.630  1.00  0.00     0.000 G0
ENDBRANCH   6   7
ENDBRANCH   5   6
ENDBRANCH   3   5
ENDBRANCH   1   3
BRANCH   1  11
ATOM     11  C   UNL     1      -7.450  31.103  24.324  1.00  0.00     0.087 C 
BRANCH  11  12
ATOM     12  C   UNL     1      -8.673  31.411  25.231  1.00  0.00     0.066 C 
BRANCH  12  13
ATOM     13  C   UNL     1      -8.483  32.700  26.028  1.00  0.00     0.140 C 
ATOM     14  O   UNL     1      -9.154  32.863  27.037  1.00  0.00    -0.299 OA
BRANCH  13  15
ATOM     15  C   UNL     1      -7.498  33.776  25.641  1.00  0.00     0.106 CG0
ATOM     16  G   UNL     1      -8.193  34.916  24.916  1.00  0.00     0.000 G0
ENDBRANCH  13  15
ENDBRANCH  12  13
BRANCH  12  17
ATOM     17  C   UNL     1      -9.064  30.203  26.139  1.00  0.00    -0.006 C 
ATOM     18  C   UNL     1      -7.853  29.661  26.919  1.00  0.00     0.008 C 
ATOM     19  C   UNL     1      -9.681  29.057  25.318  1.00  0.00     0.008 C 
ENDBRANCH  12  17
ENDBRANCH  11  12
ENDBRANCH   1  11
TORSDOF 1
ENDMDL
MODEL 5
REMARK VINA RESULT:    -5.063      1.932      4.166
REMARK INTER + INTRA:          -7.557
REMARK INTER:                  -7.621
REMARK INTRA:                   0.064
REMARK UNBOUND:                 0.170
REMARK SMILES CC1=CCC[C@@H](C)C(=O)C[C@@H](C(C)C)C(=O)C1
REMARK SMILES IDX 8 1 9 2 6 3 7 4 5 5 4 6 3 7 2 8 1 9 10 11 11 12 15 13 16 14
REMARK SMILES IDX 17 15 12 17 13 18 14 19
REMARK H PARENT
REMARK Flexibility Score: 70.00
ROOT
ATOM      1  C   UNL     1      -7.500  29.805  23.817  1.00  0.00     0.136 C 
ATOM      2  O   UNL     1      -6.374  29.877  23.344  1.00  0.00    -0.299 OA
ENDROOT
BRANCH   1   3
ATOM      3  C   UNL     1      -8.634  29.414  22.877  1.00  0.00     0.053 C 
ATOM      4  C   UNL     1      -8.411  27.969  22.407  1.00  0.00     0.016 C 
BRANCH   3   5
ATOM      5  C   UNL     1      -8.868  30.323  21.639  1.00  0.00     0.015 C 
BRANCH   5   6
ATOM      6  C   UNL     1      -9.487  31.712  21.899  1.00  0.00     0.028 C 
BRANCH   6   7
ATOM      7  C   UNL     1      -8.463  32.796  22.136  1.00  0.00    -0.028 C 
ATOM      8  C   UNL     1      -8.351  33.548  23.256  1.00  0.00    -0.070 CG0
ATOM      9  C   UNL     1      -7.273  34.601  23.290  1.00  0.00     0.039 C 
ATOM     10  G   UNL     1      -9.270  33.418  24.460  1.00  0.00     0.000 G0
ENDBRANCH   6   7
ENDBRANCH   5   6
ENDBRANCH   3   5
ENDBRANCH   1   3
BRANCH   1  11
ATOM     11  C   UNL     1      -7.671  30.160  25.279  1.00  0.00     0.087 C 
BRANCH  11  12
ATOM     12  C   UNL     1      -8.946  31.004  25.554  1.00  0.00     0.066 C 
BRANCH  12  13
ATOM     13  C   UNL     1      -8.662  32.503  25.503  1.00  0.00     0.140 C 
ATOM     14  O   UNL     1      -7.894  32.978  26.328  1.00  0.00    -0.299 OA
BRANCH  13  15
ATOM     15  C   UNL     1      -9.268  33.427  24.474  1.00  0.00     0.106 CG0
ATOM     16  G   UNL     1      -8.365  33.559  23.260  1.00  0.00     0.000 G0
ENDBRANCH  13  15
ENDBRANCH  12  13
BRANCH  12  17
ATOM     17  C   UNL     1      -9.671  30.582  26.871  1.00  0.00    -0.006 C 
ATOM     18  C   UNL     1      -8.799  30.846  28.111  1.00  0.00     0.008 C 
ATOM     19  C   UNL     1     -10.063  29.094  26.846  1.00  0.00     0.008 C 
ENDBRANCH  12  17
ENDBRANCH  11  12
ENDBRANCH   1  11
TORSDOF 1
ENDMDL
MODEL 6
REMARK VINA RESULT:    -4.894      1.904      3.172
REMARK INTER + INTRA:          -7.299
REMARK INTER:                  -7.691
REMARK INTRA:                   0.392
REMARK UNBOUND:                 0.170
REMARK SMILES CC1=CCC[C@@H](C)C(=O)C[C@@H](C(C)C)C(=O)C1
REMARK SMILES IDX 8 1 9 2 6 3 7 4 5 5 4 6 3 7 2 8 1 9 10 11 11 12 15 13 16 14
REMARK SMILES IDX 17 15 12 17 13 18 14 19
REMARK H PARENT
REMARK Flexibility Score: 70.00
ROOT
ATOM      1  C   UNL     1      -7.973  34.237  24.101  1.00  0.00     0.136 C 
ATOM      2  O   UNL     1      -8.128  35.290  23.500  1.00  0.00    -0.299 OA
ENDROOT
BRANCH   1   3
ATOM      3  C   UNL     1      -8.595  34.119  25.487  1.00  0.00     0.053 C 
ATOM      4  C   UNL     1      -8.635  35.513  26.130  1.00  0.00     0.016 C 
BRANCH   3   5
ATOM      5  C   UNL     1      -7.933  33.119  26.475  1.00  0.00     0.015 C 
BRANCH   5   6
ATOM      6  C   UNL     1      -8.880  32.258  27.337  1.00  0.00     0.028 C 
BRANCH   6   7
ATOM      7  C   UNL     1      -9.585  31.173  26.560  1.00  0.00    -0.028 C 
ATOM      8  C   UNL     1      -9.005  30.327  25.676  1.00  0.00    -0.070 CG0
ATOM      9  C   UNL     1      -9.889  29.324  24.980  1.00  0.00     0.039 C 
ATOM     10  G   UNL     1      -7.529  30.357  25.319  1.00  0.00     0.000 G0
ENDBRANCH   6   7
ENDBRANCH   5   6
ENDBRANCH   3   5
ENDBRANCH   1   3
BRANCH   1  11
ATOM     11  C   UNL     1      -7.134  33.165  23.435  1.00  0.00     0.087 C 
BRANCH  11  12
ATOM     12  C   UNL     1      -7.925  31.857  23.160  1.00  0.00     0.066 C 
BRANCH  12  13
ATOM     13  C   UNL     1      -7.298  30.653  23.859  1.00  0.00     0.140 C 
ATOM     14  O   UNL     1      -6.563  29.922  23.211  1.00  0.00    -0.299 OA
BRANCH  13  15
ATOM     15  C   UNL     1      -7.528  30.327  25.315  1.00  0.00     0.106 CG0
ATOM     16  G   UNL     1      -9.010  30.342  25.649  1.00  0.00     0.000 G0
ENDBRANCH  13  15
ENDBRANCH  12  13
BRANCH  12  17
ATOM     17  C   UNL     1      -8.155  31.607  21.636  1.00  0.00    -0.006 C 
ATOM     18  C   UNL     1      -7.481  32.688  20.773  1.00  0.00     0.008 C 
ATOM     19  C   UNL     1      -9.654  31.559  21.293  1.00  0.00     0.008 C 
ENDBRANCH  12  17
ENDBRANCH  11  12
ENDBRANCH   1  11
TORSDOF 1
ENDMDL
MODEL 7
REMARK VINA RESULT:    -4.752      1.425      3.934
REMARK INTER + INTRA:          -7.082
REMARK INTER:                  -7.762
REMARK INTRA:                   0.680
REMARK UNBOUND:                 0.170
REMARK SMILES CC1=CCC[C@@H](C)C(=O)C[C@@H](C(C)C)C(=O)C1
REMARK SMILES IDX 8 1 9 2 6 3 7 4 5 5 4 6 3 7 2 8 1 9 10 11 11 12 15 13 16 14
REMARK SMILES IDX 17 15 12 17 13 18 14 19
REMARK H PARENT
REMARK Flexibility Score: 70.00
ROOT
ATOM      1  C   UNL     1      -7.898  30.981  22.633  1.00  0.00     0.136 C 
ATOM      2  O   UNL     1      -7.248  31.166  21.613  1.00  0.00    -0.299 OA
ENDROOT
BRANCH   1   3
ATOM      3  C   UNL     1      -7.851  29.590  23.254  1.00  0.00     0.053 C 
ATOM      4  C   UNL     1      -8.611  28.616  22.341  1.00  0.00     0.016 C 
BRANCH   3   5
ATOM      5  C   UNL     1      -8.383  29.448  24.707  1.00  0.00     0.015 C 
BRANCH   5   6
ATOM      6  C   UNL     1      -7.394  29.767  25.847  1.00  0.00     0.028 C 
BRANCH   6   7
ATOM      7  C   UNL     1      -8.066  30.047  27.170  1.00  0.00    -0.028 C 
ATOM      8  C   UNL     1      -8.357  31.273  27.665  1.00  0.00    -0.070 CG0
ATOM      9  C   UNL     1      -9.010  31.345  29.022  1.00  0.00     0.039 C 
ATOM     10  G   UNL     1      -8.032  32.575  26.952  1.00  0.00     0.000 G0
ENDBRANCH   6   7
ENDBRANCH   5   6
ENDBRANCH   3   5
ENDBRANCH   1   3
BRANCH   1  11
ATOM     11  C   UNL     1      -8.729  32.135  23.154  1.00  0.00     0.087 C 
BRANCH  11  12
ATOM     12  C   UNL     1      -8.042  32.901  24.318  1.00  0.00     0.066 C 
BRANCH  12  13
ATOM     13  C   UNL     1      -8.770  32.698  25.644  1.00  0.00     0.140 C 
ATOM     14  O   UNL     1      -9.989  32.595  25.630  1.00  0.00    -0.299 OA
BRANCH  13  15
ATOM     15  C   UNL     1      -8.060  32.602  26.973  1.00  0.00     0.106 CG0
ATOM     16  G   UNL     1      -8.364  31.281  27.659  1.00  0.00     0.000 G0
ENDBRANCH  13  15
ENDBRANCH  12  13
BRANCH  12  17
ATOM     17  C   UNL     1      -7.818  34.411  23.989  1.00  0.00    -0.006 C 
ATOM     18  C   UNL     1      -8.722  35.320  24.841  1.00  0.00     0.008 C 
ATOM     19  C   UNL     1      -8.074  34.708  22.501  1.00  0.00     0.008 C 
ENDBRANCH  12  17
ENDBRANCH  11  12
ENDBRANCH   1  11
TORSDOF 1
ENDMDL
MODEL 8
REMARK VINA RESULT:    -4.540      1.995      4.501
REMARK INTER + INTRA:          -6.759
REMARK INTER:                  -7.772
REMARK INTRA:                   1.012
REMARK UNBOUND:                 0.170
REMARK SMILES CC1=CCC[C@@H](C)C(=O)C[C@@H](C(C)C)C(=O)C1
REMARK SMILES IDX 8 1 9 2 6 3 7 4 5 5 4 6 3 7 2 8 1 9 10 11 11 12 15 13 16 14
REMARK SMILES IDX 17 15 12 17 13 18 14 19
REMARK H PARENT
REMARK Flexibility Score: 70.00
ROOT
ATOM      1  C   UNL     1      -8.137  33.930  25.086  1.00  0.00     0.136 C 
ATOM      2  O   UNL     1      -8.238  35.145  25.178  1.00  0.00    -0.299 OA
ENDROOT
BRANCH   1   3
ATOM      3  C   UNL     1      -8.665  33.090  26.243  1.00  0.00     0.053 C 
ATOM      4  C   UNL     1      -7.886  33.456  27.515  1.00  0.00     0.016 C 
BRANCH   3   5
ATOM      5  C   UNL     1      -8.649  31.548  26.060  1.00  0.00     0.015 C 
BRANCH   5   6
ATOM      6  C   UNL     1      -9.897  30.907  25.418  1.00  0.00     0.028 C 
BRANCH   6   7
ATOM      7  C   UNL     1      -9.610  29.609  24.703  1.00  0.00    -0.028 C 
ATOM      8  C   UNL     1      -8.656  29.418  23.761  1.00  0.00    -0.070 CG0
ATOM      9  C   UNL     1      -8.543  28.047  23.145  1.00  0.00     0.039 C 
ATOM     10  G   UNL     1      -7.724  30.510  23.266  1.00  0.00     0.000 G0
ENDBRANCH   6   7
ENDBRANCH   5   6
ENDBRANCH   3   5
ENDBRANCH   1   3
BRANCH   1  11
ATOM     11  C   UNL     1      -7.449  33.374  23.856  1.00  0.00     0.087 C 
BRANCH  11  12
ATOM     12  C   UNL     1      -8.441  33.010  22.718  1.00  0.00     0.066 C 
BRANCH  12  13
ATOM     13  C   UNL     1      -8.428  31.515  22.405  1.00  0.00     0.140 C 
ATOM     14  O   UNL     1      -9.024  31.124  21.411  1.00  0.00    -0.299 OA
BRANCH  13  15
ATOM     15  C   UNL     1      -7.703  30.498  23.251  1.00  0.00     0.106 CG0
ATOM     16  G   UNL     1      -8.648  29.404  23.717  1.00  0.00     0.000 G0
ENDBRANCH  13  15
ENDBRANCH  12  13
BRANCH  12  17
ATOM     17  C   UNL     1      -8.236  33.886  21.442  1.00  0.00    -0.006 C 
ATOM     18  C   UNL     1      -7.413  33.148  20.370  1.00  0.00     0.008 C 
ATOM     19  C   UNL     1      -7.536  35.215  21.778  1.00  0.00     0.008 C 
ENDBRANCH  12  17
ENDBRANCH  11  12
ENDBRANCH   1  11
TORSDOF 1
ENDMDL
MODEL 9
REMARK VINA RESULT:    -3.708      1.852      4.953
REMARK INTER + INTRA:          -5.489
REMARK INTER:                  -6.942
REMARK INTRA:                   1.453
REMARK UNBOUND:                 0.170
REMARK SMILES CC1=CCC[C@@H](C)C(=O)C[C@@H](C(C)C)C(=O)C1
REMARK SMILES IDX 8 1 9 2 6 3 7 4 5 5 4 6 3 7 2 8 1 9 10 11 11 12 15 13 16 14
REMARK SMILES IDX 17 15 12 17 13 18 14 19
REMARK H PARENT
REMARK Flexibility Score: 70.00
ROOT
ATOM      1  C   UNL     1      -8.177  29.802  24.754  1.00  0.00     0.136 C 
ATOM      2  O   UNL     1      -7.422  29.761  25.714  1.00  0.00    -0.299 OA
ENDROOT
BRANCH   1   3
ATOM      3  C   UNL     1      -7.728  29.105  23.475  1.00  0.00     0.053 C 
ATOM      4  C   UNL     1      -6.313  29.587  23.121  1.00  0.00     0.016 C 
BRANCH   3   5
ATOM      5  C   UNL     1      -8.645  29.256  22.230  1.00  0.00     0.015 C 
BRANCH   5   6
ATOM      6  C   UNL     1      -9.407  30.589  22.080  1.00  0.00     0.028 C 
BRANCH   6   7
ATOM      7  C   UNL     1      -8.660  31.625  21.275  1.00  0.00    -0.028 C 
ATOM      8  C   UNL     1      -8.412  32.899  21.660  1.00  0.00    -0.070 CG0
ATOM      9  C   UNL     1      -7.668  33.790  20.698  1.00  0.00     0.039 C 
ATOM     10  G   UNL     1      -8.871  33.490  22.982  1.00  0.00     0.000 G0
ENDBRANCH   6   7
ENDBRANCH   5   6
ENDBRANCH   3   5
ENDBRANCH   1   3
BRANCH   1  11
ATOM     11  C   UNL     1      -9.465  30.586  24.906  1.00  0.00     0.087 C 
BRANCH  11  12
ATOM     12  C   UNL     1      -9.228  32.088  25.220  1.00  0.00     0.066 C 
BRANCH  12  13
ATOM     13  C   UNL     1      -8.335  32.756  24.177  1.00  0.00     0.140 C 
ATOM     14  O   UNL     1      -7.122  32.659  24.302  1.00  0.00    -0.299 OA
BRANCH  13  15
ATOM     15  C   UNL     1      -8.874  33.518  22.991  1.00  0.00     0.106 CG0
ATOM     16  G   UNL     1      -8.412  32.892  21.686  1.00  0.00     0.000 G0
ENDBRANCH  13  15
ENDBRANCH  12  13
BRANCH  12  17
ATOM     17  C   UNL     1      -8.716  32.322  26.677  1.00  0.00    -0.006 C 
ATOM     18  C   UNL     1      -9.618  31.629  27.715  1.00  0.00     0.008 C 
ATOM     19  C   UNL     1      -8.634  33.822  27.012  1.00  0.00     0.008 C 
ENDBRANCH  12  17
ENDBRANCH  11  12
ENDBRANCH   1  11
TORSDOF 1
ENDMDL
