MODEL 1
REMARK VINA RESULT:    -3.796      0.000      0.000
REMARK INTER + INTRA:          -8.817
REMARK INTER:                  -6.902
REMARK INTRA:                  -1.915
REMARK UNBOUND:                -1.915
REMARK SMILES CCCCCCCCCCCCCCCC(=O)[O-]
REMARK SMILES IDX 9 1 10 2 11 3 12 4 13 5 14 6 15 7 16 8 17 9 18 10 8 11 7 12
REMARK SMILES IDX 6 13 5 14 4 15 3 16 2 17 1 18
REMARK H PARENT
REMARK Flexibility Score: inf
ROOT
ATOM      1  C   UNL     1       4.914  11.567   6.027  1.00  0.00     0.000 C 
ENDROOT
BRANCH   1   2
ATOM      2  C   UNL     1       5.024  10.280   6.857  1.00  0.00     0.000 C 
BRANCH   2   3
ATOM      3  C   UNL     1       4.287  10.424   8.195  1.00  0.00     0.000 C 
BRANCH   3   4
ATOM      4  C   UNL     1       5.183   9.994   9.365  1.00  0.00     0.000 C 
BRANCH   4   5
ATOM      5  C   UNL     1       5.377   8.469   9.443  1.00  0.00     0.000 C 
BRANCH   5   6
ATOM      6  C   UNL     1       4.112   7.633   9.164  1.00  0.00     0.006 C 
BRANCH   6   7
ATOM      7  C   UNL     1       4.255   6.134   9.475  1.00  0.00     0.053 C 
BRANCH   7   8
ATOM      8  C   UNL     1       3.379   5.294   8.596  1.00  0.00     0.041 C 
ATOM      9  O   UNL     1       3.692   5.099   7.392  1.00  0.00    -0.550 OA
ATOM     10  O   UNL     1       2.236   4.700   9.117  1.00  0.00    -0.550 OA
ENDBRANCH   7   8
ENDBRANCH   6   7
ENDBRANCH   5   6
ENDBRANCH   4   5
ENDBRANCH   3   4
ENDBRANCH   2   3
ENDBRANCH   1   2
BRANCH   1  11
ATOM     11  C   UNL     1       4.139  12.685   6.748  1.00  0.00     0.000 C 
BRANCH  11  12
ATOM     12  C   UNL     1       4.743  14.095   6.609  1.00  0.00    -0.000 C 
BRANCH  12  13
ATOM     13  C   UNL     1       6.169  14.194   7.182  1.00  0.00    -0.000 C 
BRANCH  13  14
ATOM     14  C   UNL     1       6.276  13.607   8.599  1.00  0.00    -0.000 C 
BRANCH  14  15
ATOM     15  C   UNL     1       7.591  12.848   8.830  1.00  0.00    -0.000 C 
BRANCH  15  16
ATOM     16  C   UNL     1       8.335  12.625   7.504  1.00  0.00    -0.000 C 
BRANCH  16  17
ATOM     17  C   UNL     1       8.472  11.138   7.146  1.00  0.00    -0.003 C 
ATOM     18  C   UNL     1       9.208  10.913   5.825  1.00  0.00     0.004 C 
ENDBRANCH  16  17
ENDBRANCH  15  16
ENDBRANCH  14  15
ENDBRANCH  13  14
ENDBRANCH  12  13
ENDBRANCH  11  12
ENDBRANCH   1  11
TORSDOF 14
ENDMDL
MODEL 2
REMARK VINA RESULT:    -3.550      3.430      5.643
REMARK INTER + INTRA:          -8.369
REMARK INTER:                  -7.632
REMARK INTRA:                  -0.737
REMARK UNBOUND:                -1.915
REMARK SMILES CCCCCCCCCCCCCCCC(=O)[O-]
REMARK SMILES IDX 9 1 10 2 11 3 12 4 13 5 14 6 15 7 16 8 17 9 18 10 8 11 7 12
REMARK SMILES IDX 6 13 5 14 4 15 3 16 2 17 1 18
REMARK H PARENT
REMARK Flexibility Score: inf
ROOT
ATOM      1  C   UNL     1       4.188   6.948   8.956  1.00  0.00     0.000 C 
ENDROOT
BRANCH   1   2
ATOM      2  C   UNL     1       3.333   5.708   9.254  1.00  0.00     0.000 C 
BRANCH   2   3
ATOM      3  C   UNL     1       3.715   4.542   8.333  1.00  0.00     0.000 C 
BRANCH   3   4
ATOM      4  C   UNL     1       5.238   4.352   8.290  1.00  0.00     0.000 C 
BRANCH   4   5
ATOM      5  C   UNL     1       5.695   3.427   7.148  1.00  0.00     0.000 C 
BRANCH   5   6
ATOM      6  C   UNL     1       7.223   3.305   6.975  1.00  0.00     0.006 C 
BRANCH   6   7
ATOM      7  C   UNL     1       7.703   3.305   5.515  1.00  0.00     0.053 C 
BRANCH   7   8
ATOM      8  C   UNL     1       8.351   2.008   5.138  1.00  0.00     0.041 C 
ATOM      9  O   UNL     1       8.319   1.031   5.932  1.00  0.00    -0.550 OA
ATOM     10  O   UNL     1       8.960   1.868   3.897  1.00  0.00    -0.550 OA
ENDBRANCH   7   8
ENDBRANCH   6   7
ENDBRANCH   5   6
ENDBRANCH   4   5
ENDBRANCH   3   4
ENDBRANCH   2   3
ENDBRANCH   1   2
BRANCH   1  11
ATOM     11  C   UNL     1       3.776   8.177   9.787  1.00  0.00     0.000 C 
BRANCH  11  12
ATOM     12  C   UNL     1       4.752   9.367   9.725  1.00  0.00    -0.000 C 
BRANCH  12  13
ATOM     13  C   UNL     1       4.414  10.361   8.601  1.00  0.00    -0.000 C 
BRANCH  13  14
ATOM     14  C   UNL     1       5.359  10.230   7.395  1.00  0.00    -0.000 C 
BRANCH  14  15
ATOM     15  C   UNL     1       5.109  11.304   6.325  1.00  0.00    -0.000 C 
BRANCH  15  16
ATOM     16  C   UNL     1       4.019  12.286   6.778  1.00  0.00    -0.000 C 
BRANCH  16  17
ATOM     17  C   UNL     1       4.457  13.753   6.659  1.00  0.00    -0.003 C 
ATOM     18  C   UNL     1       5.689  14.073   7.506  1.00  0.00     0.004 C 
ENDBRANCH  16  17
ENDBRANCH  15  16
ENDBRANCH  14  15
ENDBRANCH  13  14
ENDBRANCH  12  13
ENDBRANCH  11  12
ENDBRANCH   1  11
TORSDOF 14
ENDMDL
MODEL 3
REMARK VINA RESULT:    -3.527      1.261      2.896
REMARK INTER + INTRA:          -8.328
REMARK INTER:                  -7.032
REMARK INTRA:                  -1.296
REMARK UNBOUND:                -1.915
REMARK SMILES CCCCCCCCCCCCCCCC(=O)[O-]
REMARK SMILES IDX 9 1 10 2 11 3 12 4 13 5 14 6 15 7 16 8 17 9 18 10 8 11 7 12
REMARK SMILES IDX 6 13 5 14 4 15 3 16 2 17 1 18
REMARK H PARENT
REMARK Flexibility Score: inf
ROOT
ATOM      1  C   UNL     1       5.392  10.065   7.427  1.00  0.00     0.000 C 
ENDROOT
BRANCH   1   2
ATOM      2  C   UNL     1       4.118  10.363   8.231  1.00  0.00     0.000 C 
BRANCH   2   3
ATOM      3  C   UNL     1       3.934   9.348   9.366  1.00  0.00     0.000 C 
BRANCH   3   4
ATOM      4  C   UNL     1       4.203   7.918   8.874  1.00  0.00     0.000 C 
BRANCH   4   5
ATOM      5  C   UNL     1       3.801   6.845   9.901  1.00  0.00     0.000 C 
BRANCH   5   6
ATOM      6  C   UNL     1       3.897   5.390   9.399  1.00  0.00     0.006 C 
BRANCH   6   7
ATOM      7  C   UNL     1       2.584   4.821   8.834  1.00  0.00     0.053 C 
BRANCH   7   8
ATOM      8  C   UNL     1       2.823   3.922   7.660  1.00  0.00     0.041 C 
ATOM      9  O   UNL     1       2.816   4.392   6.492  1.00  0.00    -0.550 OA
ATOM     10  O   UNL     1       3.086   2.572   7.859  1.00  0.00    -0.550 OA
ENDBRANCH   7   8
ENDBRANCH   6   7
ENDBRANCH   5   6
ENDBRANCH   4   5
ENDBRANCH   3   4
ENDBRANCH   2   3
ENDBRANCH   1   2
BRANCH   1  11
ATOM     11  C   UNL     1       6.671  10.581   8.112  1.00  0.00     0.000 C 
BRANCH  11  12
ATOM     12  C   UNL     1       7.880  10.778   7.178  1.00  0.00    -0.000 C 
BRANCH  12  13
ATOM     13  C   UNL     1       8.352  12.241   7.111  1.00  0.00    -0.000 C 
BRANCH  13  14
ATOM     14  C   UNL     1       7.718  13.115   8.206  1.00  0.00    -0.000 C 
BRANCH  14  15
ATOM     15  C   UNL     1       7.698  14.606   7.839  1.00  0.00    -0.000 C 
BRANCH  15  16
ATOM     16  C   UNL     1       6.372  14.985   7.161  1.00  0.00    -0.000 C 
BRANCH  16  17
ATOM     17  C   UNL     1       5.201  14.101   7.614  1.00  0.00    -0.003 C 
ATOM     18  C   UNL     1       4.418  13.510   6.443  1.00  0.00     0.004 C 
ENDBRANCH  16  17
ENDBRANCH  15  16
ENDBRANCH  14  15
ENDBRANCH  13  14
ENDBRANCH  12  13
ENDBRANCH  11  12
ENDBRANCH   1  11
TORSDOF 14
ENDMDL
MODEL 4
REMARK VINA RESULT:    -3.493      3.900      7.657
REMARK INTER + INTRA:          -8.266
REMARK INTER:                  -7.297
REMARK INTRA:                  -0.969
REMARK UNBOUND:                -1.915
REMARK SMILES CCCCCCCCCCCCCCCC(=O)[O-]
REMARK SMILES IDX 9 1 10 2 11 3 12 4 13 5 14 6 15 7 16 8 17 9 18 10 8 11 7 12
REMARK SMILES IDX 6 13 5 14 4 15 3 16 2 17 1 18
REMARK H PARENT
REMARK Flexibility Score: inf
ROOT
ATOM      1  C   UNL     1       4.390   8.035   8.897  1.00  0.00     0.000 C 
ENDROOT
BRANCH   1   2
ATOM      2  C   UNL     1       3.759   9.430   9.016  1.00  0.00     0.000 C 
BRANCH   2   3
ATOM      3  C   UNL     1       4.793  10.528   8.734  1.00  0.00     0.000 C 
BRANCH   3   4
ATOM      4  C   UNL     1       5.491  10.293   7.387  1.00  0.00     0.000 C 
BRANCH   4   5
ATOM      5  C   UNL     1       5.229  11.419   6.371  1.00  0.00     0.000 C 
BRANCH   5   6
ATOM      6  C   UNL     1       4.081  12.380   6.742  1.00  0.00     0.006 C 
BRANCH   6   7
ATOM      7  C   UNL     1       4.452  13.871   6.685  1.00  0.00     0.053 C 
BRANCH   7   8
ATOM      8  C   UNL     1       5.656  14.180   7.522  1.00  0.00     0.041 C 
ATOM      9  O   UNL     1       6.678  14.693   6.994  1.00  0.00    -0.550 OA
ATOM     10  O   UNL     1       5.636  13.934   8.889  1.00  0.00    -0.550 OA
ENDBRANCH   7   8
ENDBRANCH   6   7
ENDBRANCH   5   6
ENDBRANCH   4   5
ENDBRANCH   3   4
ENDBRANCH   2   3
ENDBRANCH   1   2
BRANCH   1  11
ATOM     11  C   UNL     1       3.825   7.030   9.917  1.00  0.00     0.000 C 
BRANCH  11  12
ATOM     12  C   UNL     1       4.150   5.552   9.629  1.00  0.00    -0.000 C 
BRANCH  12  13
ATOM     13  C   UNL     1       3.511   5.042   8.325  1.00  0.00    -0.000 C 
BRANCH  13  14
ATOM     14  C   UNL     1       4.223   3.799   7.767  1.00  0.00    -0.000 C 
BRANCH  14  15
ATOM     15  C   UNL     1       5.615   3.586   8.382  1.00  0.00    -0.000 C 
BRANCH  15  16
ATOM     16  C   UNL     1       6.484   2.700   7.476  1.00  0.00    -0.000 C 
BRANCH  16  17
ATOM     17  C   UNL     1       7.598   3.487   6.771  1.00  0.00    -0.003 C 
ATOM     18  C   UNL     1       7.330   3.682   5.279  1.00  0.00     0.004 C 
ENDBRANCH  16  17
ENDBRANCH  15  16
ENDBRANCH  14  15
ENDBRANCH  13  14
ENDBRANCH  12  13
ENDBRANCH  11  12
ENDBRANCH   1  11
TORSDOF 14
ENDMDL
MODEL 5
REMARK VINA RESULT:    -3.429     15.865     17.218
REMARK INTER + INTRA:          -8.150
REMARK INTER:                  -6.392
REMARK INTRA:                  -1.757
REMARK UNBOUND:                -1.915
REMARK SMILES CCCCCCCCCCCCCCCC(=O)[O-]
REMARK SMILES IDX 9 1 10 2 11 3 12 4 13 5 14 6 15 7 16 8 17 9 18 10 8 11 7 12
REMARK SMILES IDX 6 13 5 14 4 15 3 16 2 17 1 18
REMARK H PARENT
REMARK Flexibility Score: inf
ROOT
ATOM      1  C   UNL     1       1.973   6.492  -9.346  1.00  0.00     0.000 C 
ENDROOT
BRANCH   1   2
ATOM      2  C   UNL     1       1.921   5.017  -9.770  1.00  0.00     0.000 C 
BRANCH   2   3
ATOM      3  C   UNL     1       3.003   4.200  -9.052  1.00  0.00     0.000 C 
BRANCH   3   4
ATOM      4  C   UNL     1       3.868   3.428 -10.058  1.00  0.00     0.000 C 
BRANCH   4   5
ATOM      5  C   UNL     1       5.163   2.875  -9.437  1.00  0.00     0.000 C 
BRANCH   5   6
ATOM      6  C   UNL     1       5.076   2.542  -7.933  1.00  0.00     0.006 C 
BRANCH   6   7
ATOM      7  C   UNL     1       4.841   1.055  -7.620  1.00  0.00     0.053 C 
BRANCH   7   8
ATOM      8  C   UNL     1       4.613   0.819  -6.159  1.00  0.00     0.041 C 
ATOM      9  O   UNL     1       3.724   0.012  -5.779  1.00  0.00    -0.550 OA
ATOM     10  O   UNL     1       5.403   1.466  -5.217  1.00  0.00    -0.550 OA
ENDBRANCH   7   8
ENDBRANCH   6   7
ENDBRANCH   5   6
ENDBRANCH   4   5
ENDBRANCH   3   4
ENDBRANCH   2   3
ENDBRANCH   1   2
BRANCH   1  11
ATOM     11  C   UNL     1       3.059   7.293 -10.087  1.00  0.00     0.000 C 
BRANCH  11  12
ATOM     12  C   UNL     1       3.473   8.615  -9.413  1.00  0.00    -0.000 C 
BRANCH  12  13
ATOM     13  C   UNL     1       3.844   8.439  -7.930  1.00  0.00    -0.000 C 
BRANCH  13  14
ATOM     14  C   UNL     1       5.316   8.037  -7.735  1.00  0.00    -0.000 C 
BRANCH  14  15
ATOM     15  C   UNL     1       5.536   6.520  -7.836  1.00  0.00    -0.000 C 
BRANCH  15  16
ATOM     16  C   UNL     1       6.442   6.176  -9.028  1.00  0.00    -0.000 C 
BRANCH  16  17
ATOM     17  C   UNL     1       7.887   5.874  -8.604  1.00  0.00    -0.003 C 
ATOM     18  C   UNL     1       7.975   4.784  -7.536  1.00  0.00     0.004 C 
ENDBRANCH  16  17
ENDBRANCH  15  16
ENDBRANCH  14  15
ENDBRANCH  13  14
ENDBRANCH  12  13
ENDBRANCH  11  12
ENDBRANCH   1  11
TORSDOF 14
ENDMDL
MODEL 6
REMARK VINA RESULT:    -3.427     15.235     16.573
REMARK INTER + INTRA:          -8.146
REMARK INTER:                  -7.063
REMARK INTRA:                  -1.083
REMARK UNBOUND:                -1.915
REMARK SMILES CCCCCCCCCCCCCCCC(=O)[O-]
REMARK SMILES IDX 9 1 10 2 11 3 12 4 13 5 14 6 15 7 16 8 17 9 18 10 8 11 7 12
REMARK SMILES IDX 6 13 5 14 4 15 3 16 2 17 1 18
REMARK H PARENT
REMARK Flexibility Score: inf
ROOT
ATOM      1  C   UNL     1       1.924   6.012  -9.332  1.00  0.00     0.000 C 
ENDROOT
BRANCH   1   2
ATOM      2  C   UNL     1       2.245   4.575  -9.768  1.00  0.00     0.000 C 
BRANCH   2   3
ATOM      3  C   UNL     1       3.760   4.348  -9.839  1.00  0.00     0.000 C 
BRANCH   3   4
ATOM      4  C   UNL     1       4.165   3.089  -9.057  1.00  0.00     0.000 C 
BRANCH   4   5
ATOM      5  C   UNL     1       5.400   3.308  -8.166  1.00  0.00     0.000 C 
BRANCH   5   6
ATOM      6  C   UNL     1       6.172   2.026  -7.792  1.00  0.00     0.006 C 
BRANCH   6   7
ATOM      7  C   UNL     1       5.288   0.785  -7.587  1.00  0.00     0.053 C 
BRANCH   7   8
ATOM      8  C   UNL     1       4.725   0.721  -6.200  1.00  0.00     0.041 C 
ATOM      9  O   UNL     1       5.389   1.166  -5.227  1.00  0.00    -0.550 OA
ATOM     10  O   UNL     1       3.455   0.201  -5.987  1.00  0.00    -0.550 OA
ENDBRANCH   7   8
ENDBRANCH   6   7
ENDBRANCH   5   6
ENDBRANCH   4   5
ENDBRANCH   3   4
ENDBRANCH   2   3
ENDBRANCH   1   2
BRANCH   1  11
ATOM     11  C   UNL     1       3.174   6.905  -9.234  1.00  0.00     0.000 C 
BRANCH  11  12
ATOM     12  C   UNL     1       2.990   8.202  -8.423  1.00  0.00    -0.000 C 
BRANCH  12  13
ATOM     13  C   UNL     1       4.303   8.711  -7.802  1.00  0.00    -0.000 C 
BRANCH  13  14
ATOM     14  C   UNL     1       5.290   7.571  -7.497  1.00  0.00    -0.000 C 
BRANCH  14  15
ATOM     15  C   UNL     1       6.753   8.039  -7.486  1.00  0.00    -0.000 C 
BRANCH  15  16
ATOM     16  C   UNL     1       7.109   8.694  -6.143  1.00  0.00    -0.000 C 
BRANCH  16  17
ATOM     17  C   UNL     1       7.836  10.036  -6.313  1.00  0.00    -0.003 C 
ATOM     18  C   UNL     1       6.941  11.123  -6.907  1.00  0.00     0.004 C 
ENDBRANCH  16  17
ENDBRANCH  15  16
ENDBRANCH  14  15
ENDBRANCH  13  14
ENDBRANCH  12  13
ENDBRANCH  11  12
ENDBRANCH   1  11
TORSDOF 14
ENDMDL
MODEL 7
REMARK VINA RESULT:    -3.394     14.457     15.868
REMARK INTER + INTRA:          -8.087
REMARK INTER:                  -6.969
REMARK INTRA:                  -1.118
REMARK UNBOUND:                -1.915
REMARK SMILES CCCCCCCCCCCCCCCC(=O)[O-]
REMARK SMILES IDX 9 1 10 2 11 3 12 4 13 5 14 6 15 7 16 8 17 9 18 10 8 11 7 12
REMARK SMILES IDX 6 13 5 14 4 15 3 16 2 17 1 18
REMARK H PARENT
REMARK Flexibility Score: inf
ROOT
ATOM      1  C   UNL     1       3.085   8.044  -8.619  1.00  0.00     0.000 C 
ENDROOT
BRANCH   1   2
ATOM      2  C   UNL     1       3.406   6.825  -9.497  1.00  0.00     0.000 C 
BRANCH   2   3
ATOM      3  C   UNL     1       2.331   5.741  -9.347  1.00  0.00     0.000 C 
BRANCH   3   4
ATOM      4  C   UNL     1       2.968   4.354  -9.179  1.00  0.00     0.000 C 
BRANCH   4   5
ATOM      5  C   UNL     1       4.505   4.401  -9.138  1.00  0.00     0.000 C 
BRANCH   5   6
ATOM      6  C   UNL     1       5.186   3.108  -8.646  1.00  0.00     0.006 C 
BRANCH   6   7
ATOM      7  C   UNL     1       4.384   2.323  -7.595  1.00  0.00     0.053 C 
BRANCH   7   8
ATOM      8  C   UNL     1       5.274   1.687  -6.571  1.00  0.00     0.041 C 
ATOM      9  O   UNL     1       5.580   0.469  -6.668  1.00  0.00    -0.550 OA
ATOM     10  O   UNL     1       5.792   2.446  -5.530  1.00  0.00    -0.550 OA
ENDBRANCH   7   8
ENDBRANCH   6   7
ENDBRANCH   5   6
ENDBRANCH   4   5
ENDBRANCH   3   4
ENDBRANCH   2   3
ENDBRANCH   1   2
BRANCH   1  11
ATOM     11  C   UNL     1       4.328   8.632  -7.928  1.00  0.00     0.000 C 
BRANCH  11  12
ATOM     12  C   UNL     1       5.257   7.599  -7.261  1.00  0.00    -0.000 C 
BRANCH  12  13
ATOM     13  C   UNL     1       6.733   8.034  -7.262  1.00  0.00    -0.000 C 
BRANCH  13  14
ATOM     14  C   UNL     1       6.897   9.562  -7.188  1.00  0.00    -0.000 C 
BRANCH  14  15
ATOM     15  C   UNL     1       7.428  10.036  -5.826  1.00  0.00    -0.000 C 
BRANCH  15  16
ATOM     16  C   UNL     1       8.123   8.888  -5.079  1.00  0.00    -0.000 C 
BRANCH  16  17
ATOM     17  C   UNL     1       9.189   9.384  -4.092  1.00  0.00    -0.003 C 
ATOM     18  C   UNL     1       9.060  10.875  -3.781  1.00  0.00     0.004 C 
ENDBRANCH  16  17
ENDBRANCH  15  16
ENDBRANCH  14  15
ENDBRANCH  13  14
ENDBRANCH  12  13
ENDBRANCH  11  12
ENDBRANCH   1  11
TORSDOF 14
ENDMDL
MODEL 8
REMARK VINA RESULT:    -3.379     15.046     17.196
REMARK INTER + INTRA:          -8.058
REMARK INTER:                  -7.011
REMARK INTRA:                  -1.047
REMARK UNBOUND:                -1.915
REMARK SMILES CCCCCCCCCCCCCCCC(=O)[O-]
REMARK SMILES IDX 9 1 10 2 11 3 12 4 13 5 14 6 15 7 16 8 17 9 18 10 8 11 7 12
REMARK SMILES IDX 6 13 5 14 4 15 3 16 2 17 1 18
REMARK H PARENT
REMARK Flexibility Score: inf
ROOT
ATOM      1  C   UNL     1       3.005   6.870  -9.628  1.00  0.00     0.000 C 
ENDROOT
BRANCH   1   2
ATOM      2  C   UNL     1       2.883   8.008  -8.605  1.00  0.00     0.000 C 
BRANCH   2   3
ATOM      3  C   UNL     1       4.263   8.429  -8.084  1.00  0.00     0.000 C 
BRANCH   3   4
ATOM      4  C   UNL     1       5.212   7.225  -8.003  1.00  0.00     0.000 C 
BRANCH   4   5
ATOM      5  C   UNL     1       6.623   7.604  -7.520  1.00  0.00     0.000 C 
BRANCH   5   6
ATOM      6  C   UNL     1       6.680   8.788  -6.534  1.00  0.00     0.006 C 
BRANCH   6   7
ATOM      7  C   UNL     1       8.099   9.293  -6.223  1.00  0.00     0.053 C 
BRANCH   7   8
ATOM      8  C   UNL     1       8.592   8.797  -4.898  1.00  0.00     0.041 C 
ATOM      9  O   UNL     1       9.133   7.664  -4.808  1.00  0.00    -0.550 OA
ATOM     10  O   UNL     1       8.484   9.600  -3.770  1.00  0.00    -0.550 OA
ENDBRANCH   7   8
ENDBRANCH   6   7
ENDBRANCH   5   6
ENDBRANCH   4   5
ENDBRANCH   3   4
ENDBRANCH   2   3
ENDBRANCH   1   2
BRANCH   1  11
ATOM     11  C   UNL     1       1.983   5.741  -9.397  1.00  0.00     0.000 C 
BRANCH  11  12
ATOM     12  C   UNL     1       2.559   4.314  -9.457  1.00  0.00    -0.000 C 
BRANCH  12  13
ATOM     13  C   UNL     1       4.061   4.288  -9.794  1.00  0.00    -0.000 C 
BRANCH  13  14
ATOM     14  C   UNL     1       4.910   3.703  -8.654  1.00  0.00    -0.000 C 
BRANCH  14  15
ATOM     15  C   UNL     1       4.463   2.290  -8.246  1.00  0.00    -0.000 C 
BRANCH  15  16
ATOM     16  C   UNL     1       5.031   1.914  -6.868  1.00  0.00    -0.000 C 
BRANCH  16  17
ATOM     17  C   UNL     1       4.057   1.063  -6.040  1.00  0.00    -0.003 C 
ATOM     18  C   UNL     1       4.690  -0.230  -5.526  1.00  0.00     0.004 C 
ENDBRANCH  16  17
ENDBRANCH  15  16
ENDBRANCH  14  15
ENDBRANCH  13  14
ENDBRANCH  12  13
ENDBRANCH  11  12
ENDBRANCH   1  11
TORSDOF 14
ENDMDL
MODEL 9
REMARK VINA RESULT:    -3.365     19.110     20.946
REMARK INTER + INTRA:          -8.034
REMARK INTER:                  -5.627
REMARK INTRA:                  -2.406
REMARK UNBOUND:                -1.915
REMARK SMILES CCCCCCCCCCCCCCCC(=O)[O-]
REMARK SMILES IDX 9 1 10 2 11 3 12 4 13 5 14 6 15 7 16 8 17 9 18 10 8 11 7 12
REMARK SMILES IDX 6 13 5 14 4 15 3 16 2 17 1 18
REMARK H PARENT
REMARK Flexibility Score: inf
ROOT
ATOM      1  C   UNL     1      -6.894   2.735  -4.634  1.00  0.00     0.000 C 
ENDROOT
BRANCH   1   2
ATOM      2  C   UNL     1      -6.487   1.359  -5.178  1.00  0.00     0.000 C 
BRANCH   2   3
ATOM      3  C   UNL     1      -7.173   1.072  -6.520  1.00  0.00     0.000 C 
BRANCH   3   4
ATOM      4  C   UNL     1      -8.050  -0.185  -6.432  1.00  0.00     0.000 C 
BRANCH   4   5
ATOM      5  C   UNL     1      -8.413  -0.564  -4.985  1.00  0.00     0.000 C 
BRANCH   5   6
ATOM      6  C   UNL     1      -9.305  -1.813  -4.840  1.00  0.00     0.006 C 
BRANCH   6   7
ATOM      7  C   UNL     1      -8.743  -2.894  -3.902  1.00  0.00     0.053 C 
BRANCH   7   8
ATOM      8  C   UNL     1      -8.061  -3.993  -4.659  1.00  0.00     0.041 C 
ATOM      9  O   UNL     1      -8.041  -3.976  -5.918  1.00  0.00    -0.550 OA
ATOM     10  O   UNL     1      -7.418  -5.016  -3.973  1.00  0.00    -0.550 OA
ENDBRANCH   7   8
ENDBRANCH   6   7
ENDBRANCH   5   6
ENDBRANCH   4   5
ENDBRANCH   3   4
ENDBRANCH   2   3
ENDBRANCH   1   2
BRANCH   1  11
ATOM     11  C   UNL     1      -8.168   3.292  -5.295  1.00  0.00     0.000 C 
BRANCH  11  12
ATOM     12  C   UNL     1      -9.429   3.265  -4.412  1.00  0.00    -0.000 C 
BRANCH  12  13
ATOM     13  C   UNL     1      -9.141   2.810  -2.971  1.00  0.00    -0.000 C 
BRANCH  13  14
ATOM     14  C   UNL     1     -10.052   1.653  -2.526  1.00  0.00    -0.000 C 
BRANCH  14  15
ATOM     15  C   UNL     1      -9.312   0.607  -1.678  1.00  0.00    -0.000 C 
BRANCH  15  16
ATOM     16  C   UNL     1      -7.969   1.159  -1.177  1.00  0.00    -0.000 C 
BRANCH  16  17
ATOM     17  C   UNL     1      -6.767   0.364  -1.707  1.00  0.00    -0.003 C 
ATOM     18  C   UNL     1      -6.813  -1.112  -1.313  1.00  0.00     0.004 C 
ENDBRANCH  16  17
ENDBRANCH  15  16
ENDBRANCH  14  15
ENDBRANCH  13  14
ENDBRANCH  12  13
ENDBRANCH  11  12
ENDBRANCH   1  11
TORSDOF 14
ENDMDL
