MODEL 1
REMARK VINA RESULT:    -5.129      0.000      0.000
REMARK INTER + INTRA:          -5.429
REMARK INTER:                  -5.429
REMARK INTRA:                   0.000
REMARK UNBOUND:                 0.000
REMARK SMILES O=c1ccc2cc(O)c(O)cc2o1
REMARK SMILES IDX 4 1 3 2 2 3 1 4 13 5 12 6 11 7 9 8 7 9 6 10 5 11 8 12 10 14
REMARK H PARENT 8 13 10 15
REMARK Flexibility Score: inf
ROOT
ATOM      1  C   UNL     1      16.805  41.879  37.942  1.00  0.00     0.019 A 
ATOM      2  C   UNL     1      16.803  42.125  39.315  1.00  0.00     0.094 A 
ATOM      3  C   UNL     1      16.804  41.039  40.197  1.00  0.00     0.336 A 
ATOM      4  O   UNL     1      16.803  41.240  41.440  1.00  0.00    -0.246 OA
ATOM      5  O   UNL     1      16.805  39.792  39.732  1.00  0.00    -0.423 OA
ATOM      6  C   UNL     1      16.806  39.515  38.431  1.00  0.00     0.142 A 
ATOM      7  C   UNL     1      16.807  38.184  38.000  1.00  0.00     0.098 A 
ATOM      8  C   UNL     1      16.808  37.884  36.629  1.00  0.00     0.161 A 
ATOM      9  C   UNL     1      16.807  38.926  35.683  1.00  0.00     0.158 A 
ATOM     10  C   UNL     1      16.806  40.259  36.112  1.00  0.00     0.062 A 
ATOM     11  C   UNL     1      16.805  40.559  37.481  1.00  0.00     0.022 A 
ENDROOT
BRANCH   9  12
ATOM     12  O   UNL     1      16.809  38.656  34.315  1.00  0.00    -0.504 OA
ATOM     13  H   UNL     1      16.252  37.911  33.914  1.00  0.00     0.293 HD
ENDBRANCH   9  12
BRANCH   8  14
ATOM     14  O   UNL     1      16.809  36.557  36.205  1.00  0.00    -0.504 OA
ATOM     15  H   UNL     1      17.637  35.977  36.278  1.00  0.00     0.293 HD
ENDBRANCH   8  14
TORSDOF 2
ENDMDL
MODEL 2
REMARK VINA RESULT:    -4.913     14.582     15.746
REMARK INTER + INTRA:          -5.200
REMARK INTER:                  -5.200
REMARK INTRA:                   0.000
REMARK UNBOUND:                 0.000
REMARK SMILES O=c1ccc2cc(O)c(O)cc2o1
REMARK SMILES IDX 4 1 3 2 2 3 1 4 13 5 12 6 11 7 9 8 7 9 6 10 5 11 8 12 10 14
REMARK H PARENT 8 13 10 15
REMARK Flexibility Score: inf
ROOT
ATOM      1  C   UNL     1       6.006  35.258  25.858  1.00  0.00     0.019 A 
ATOM      2  C   UNL     1       6.910  36.254  25.488  1.00  0.00     0.094 A 
ATOM      3  C   UNL     1       8.179  36.270  26.076  1.00  0.00     0.336 A 
ATOM      4  O   UNL     1       9.009  37.160  25.756  1.00  0.00    -0.246 OA
ATOM      5  O   UNL     1       8.517  35.349  26.975  1.00  0.00    -0.423 OA
ATOM      6  C   UNL     1       7.685  34.382  27.356  1.00  0.00     0.142 A 
ATOM      7  C   UNL     1       8.096  33.441  28.305  1.00  0.00     0.098 A 
ATOM      8  C   UNL     1       7.223  32.419  28.712  1.00  0.00     0.161 A 
ATOM      9  C   UNL     1       5.930  32.341  28.162  1.00  0.00     0.158 A 
ATOM     10  C   UNL     1       5.517  33.282  27.211  1.00  0.00     0.062 A 
ATOM     11  C   UNL     1       6.388  34.303  26.805  1.00  0.00     0.022 A 
ENDROOT
BRANCH   9  12
ATOM     12  O   UNL     1       5.044  31.336  28.547  1.00  0.00    -0.504 OA
ATOM     13  H   UNL     1       5.317  30.591  29.178  1.00  0.00     0.293 HD
ENDBRANCH   9  12
BRANCH   8  14
ATOM     14  O   UNL     1       7.637  31.483  29.658  1.00  0.00    -0.504 OA
ATOM     15  H   UNL     1       7.082  31.280  30.481  1.00  0.00     0.293 HD
ENDBRANCH   8  14
TORSDOF 2
ENDMDL
MODEL 3
REMARK VINA RESULT:    -4.848     14.642     16.093
REMARK INTER + INTRA:          -5.132
REMARK INTER:                  -5.132
REMARK INTRA:                   0.000
REMARK UNBOUND:                 0.000
REMARK SMILES O=c1ccc2cc(O)c(O)cc2o1
REMARK SMILES IDX 4 1 3 2 2 3 1 4 13 5 12 6 11 7 9 8 7 9 6 10 5 11 8 12 10 14
REMARK H PARENT 8 13 10 15
REMARK Flexibility Score: inf
ROOT
ATOM      1  C   UNL     1       8.600  35.333  26.744  1.00  0.00     0.019 A 
ATOM      2  C   UNL     1       8.176  36.205  25.741  1.00  0.00     0.094 A 
ATOM      3  C   UNL     1       6.878  36.078  25.235  1.00  0.00     0.336 A 
ATOM      4  O   UNL     1       6.478  36.856  24.330  1.00  0.00    -0.246 OA
ATOM      5  O   UNL     1       6.061  35.138  25.704  1.00  0.00    -0.423 OA
ATOM      6  C   UNL     1       6.425  34.286  26.660  1.00  0.00     0.142 A 
ATOM      7  C   UNL     1       5.524  33.318  27.113  1.00  0.00     0.098 A 
ATOM      8  C   UNL     1       5.901  32.417  28.121  1.00  0.00     0.161 A 
ATOM      9  C   UNL     1       7.192  32.486  28.677  1.00  0.00     0.158 A 
ATOM     10  C   UNL     1       8.097  33.454  28.224  1.00  0.00     0.062 A 
ATOM     11  C   UNL     1       7.720  34.355  27.218  1.00  0.00     0.022 A 
ENDROOT
BRANCH   9  12
ATOM     12  O   UNL     1       7.593  31.603  29.678  1.00  0.00    -0.504 OA
ATOM     13  H   UNL     1       8.345  31.824  30.321  1.00  0.00     0.293 HD
ENDBRANCH   9  12
BRANCH   8  14
ATOM     14  O   UNL     1       4.999  31.454  28.570  1.00  0.00    -0.504 OA
ATOM     15  H   UNL     1       4.031  31.452  28.270  1.00  0.00     0.293 HD
ENDBRANCH   8  14
TORSDOF 2
ENDMDL
MODEL 4
REMARK VINA RESULT:    -4.818     14.617     15.676
REMARK INTER + INTRA:          -5.099
REMARK INTER:                  -5.099
REMARK INTRA:                   0.000
REMARK UNBOUND:                 0.000
REMARK SMILES O=c1ccc2cc(O)c(O)cc2o1
REMARK SMILES IDX 4 1 3 2 2 3 1 4 13 5 12 6 11 7 9 8 7 9 6 10 5 11 8 12 10 14
REMARK H PARENT 8 13 10 15
REMARK Flexibility Score: inf
ROOT
ATOM      1  C   UNL     1       8.210  33.533  27.006  1.00  0.00     0.019 A 
ATOM      2  C   UNL     1       7.056  32.886  27.449  1.00  0.00     0.094 A 
ATOM      3  C   UNL     1       5.854  33.600  27.494  1.00  0.00     0.336 A 
ATOM      4  O   UNL     1       4.802  33.034  27.891  1.00  0.00    -0.246 OA
ATOM      5  O   UNL     1       5.813  34.876  27.121  1.00  0.00    -0.423 OA
ATOM      6  C   UNL     1       6.890  35.531  26.693  1.00  0.00     0.142 A 
ATOM      7  C   UNL     1       6.787  36.873  26.314  1.00  0.00     0.098 A 
ATOM      8  C   UNL     1       7.919  37.569  25.861  1.00  0.00     0.161 A 
ATOM      9  C   UNL     1       9.162  36.915  25.789  1.00  0.00     0.158 A 
ATOM     10  C   UNL     1       9.268  35.571  26.169  1.00  0.00     0.062 A 
ATOM     11  C   UNL     1       8.138  34.876  26.620  1.00  0.00     0.022 A 
ENDROOT
BRANCH   9  12
ATOM     12  O   UNL     1      10.302  37.582  25.343  1.00  0.00    -0.504 OA
ATOM     13  H   UNL     1      11.147  37.635  25.901  1.00  0.00     0.293 HD
ENDBRANCH   9  12
BRANCH   8  14
ATOM     14  O   UNL     1       7.811  38.906  25.484  1.00  0.00    -0.504 OA
ATOM     15  H   UNL     1       7.666  39.641  26.167  1.00  0.00     0.293 HD
ENDBRANCH   8  14
TORSDOF 2
ENDMDL
MODEL 5
REMARK VINA RESULT:    -4.671     14.493     15.502
REMARK INTER + INTRA:          -4.945
REMARK INTER:                  -4.945
REMARK INTRA:                   0.000
REMARK UNBOUND:                 0.000
REMARK SMILES O=c1ccc2cc(O)c(O)cc2o1
REMARK SMILES IDX 4 1 3 2 2 3 1 4 13 5 12 6 11 7 9 8 7 9 6 10 5 11 8 12 10 14
REMARK H PARENT 8 13 10 15
REMARK Flexibility Score: inf
ROOT
ATOM      1  C   UNL     1       5.676  35.158  26.798  1.00  0.00     0.019 A 
ATOM      2  C   UNL     1       5.793  33.972  27.524  1.00  0.00     0.094 A 
ATOM      3  C   UNL     1       7.070  33.486  27.826  1.00  0.00     0.336 A 
ATOM      4  O   UNL     1       7.196  32.419  28.481  1.00  0.00    -0.246 OA
ATOM      5  O   UNL     1       8.154  34.144  27.425  1.00  0.00    -0.423 OA
ATOM      6  C   UNL     1       8.087  35.278  26.730  1.00  0.00     0.142 A 
ATOM      7  C   UNL     1       9.261  35.926  26.335  1.00  0.00     0.098 A 
ATOM      8  C   UNL     1       9.197  37.121  25.602  1.00  0.00     0.161 A 
ATOM      9  C   UNL     1       7.946  37.670  25.262  1.00  0.00     0.158 A 
ATOM     10  C   UNL     1       6.769  37.022  25.657  1.00  0.00     0.062 A 
ATOM     11  C   UNL     1       6.833  35.829  26.389  1.00  0.00     0.022 A 
ENDROOT
BRANCH   9  12
ATOM     12  O   UNL     1       7.854  38.855  24.535  1.00  0.00    -0.504 OA
ATOM     13  H   UNL     1       7.158  39.562  24.745  1.00  0.00     0.293 HD
ENDBRANCH   9  12
BRANCH   8  14
ATOM     14  O   UNL     1      10.370  37.764  25.211  1.00  0.00    -0.504 OA
ATOM     15  H   UNL     1      11.166  37.841  25.833  1.00  0.00     0.293 HD
ENDBRANCH   8  14
TORSDOF 2
ENDMDL
MODEL 6
REMARK VINA RESULT:    -4.645     15.322     16.972
REMARK INTER + INTRA:          -4.916
REMARK INTER:                  -4.916
REMARK INTRA:                   0.000
REMARK UNBOUND:                 0.000
REMARK SMILES O=c1ccc2cc(O)c(O)cc2o1
REMARK SMILES IDX 4 1 3 2 2 3 1 4 13 5 12 6 11 7 9 8 7 9 6 10 5 11 8 12 10 14
REMARK H PARENT 8 13 10 15
REMARK Flexibility Score: inf
ROOT
ATOM      1  C   UNL     1       8.115  34.640  27.346  1.00  0.00     0.019 A 
ATOM      2  C   UNL     1       8.757  35.369  26.345  1.00  0.00     0.094 A 
ATOM      3  C   UNL     1       8.267  35.300  25.036  1.00  0.00     0.336 A 
ATOM      4  O   UNL     1       8.832  35.951  24.119  1.00  0.00    -0.246 OA
ATOM      5  O   UNL     1       7.206  34.549  24.752  1.00  0.00    -0.423 OA
ATOM      6  C   UNL     1       6.564  33.838  25.677  1.00  0.00     0.142 A 
ATOM      7  C   UNL     1       5.455  33.067  25.320  1.00  0.00     0.098 A 
ATOM      8  C   UNL     1       4.774  32.315  26.290  1.00  0.00     0.161 A 
ATOM      9  C   UNL     1       5.210  32.337  27.628  1.00  0.00     0.158 A 
ATOM     10  C   UNL     1       6.322  33.108  27.988  1.00  0.00     0.062 A 
ATOM     11  C   UNL     1       7.001  33.859  27.019  1.00  0.00     0.022 A 
ENDROOT
BRANCH   9  12
ATOM     12  O   UNL     1       4.553  31.600  28.612  1.00  0.00    -0.504 OA
ATOM     13  H   UNL     1       5.055  31.114  29.346  1.00  0.00     0.293 HD
ENDBRANCH   9  12
BRANCH   8  14
ATOM     14  O   UNL     1       3.668  31.548  25.930  1.00  0.00    -0.504 OA
ATOM     15  H   UNL     1       2.876  31.953  25.443  1.00  0.00     0.293 HD
ENDBRANCH   8  14
TORSDOF 2
ENDMDL
MODEL 7
REMARK VINA RESULT:    -4.577     15.462     15.579
REMARK INTER + INTRA:          -4.844
REMARK INTER:                  -4.844
REMARK INTRA:                   0.000
REMARK UNBOUND:                 0.000
REMARK SMILES O=c1ccc2cc(O)c(O)cc2o1
REMARK SMILES IDX 4 1 3 2 2 3 1 4 13 5 12 6 11 7 9 8 7 9 6 10 5 11 8 12 10 14
REMARK H PARENT 8 13 10 15
REMARK Flexibility Score: inf
ROOT
ATOM      1  C   UNL     1       8.293  36.615  25.119  1.00  0.00     0.019 A 
ATOM      2  C   UNL     1       7.581  37.809  25.239  1.00  0.00     0.094 A 
ATOM      3  C   UNL     1       6.543  37.888  26.174  1.00  0.00     0.336 A 
ATOM      4  O   UNL     1       5.890  38.957  26.298  1.00  0.00    -0.246 OA
ATOM      5  O   UNL     1       6.241  36.840  26.935  1.00  0.00    -0.423 OA
ATOM      6  C   UNL     1       6.894  35.683  26.852  1.00  0.00     0.142 A 
ATOM      7  C   UNL     1       6.531  34.615  27.678  1.00  0.00     0.098 A 
ATOM      8  C   UNL     1       7.215  33.392  27.596  1.00  0.00     0.161 A 
ATOM      9  C   UNL     1       8.271  33.240  26.678  1.00  0.00     0.158 A 
ATOM     10  C   UNL     1       8.636  34.308  25.850  1.00  0.00     0.062 A 
ATOM     11  C   UNL     1       7.952  35.529  25.932  1.00  0.00     0.022 A 
ENDROOT
BRANCH   9  12
ATOM     12  O   UNL     1       8.968  32.037  26.576  1.00  0.00    -0.504 OA
ATOM     13  H   UNL     1       9.594  31.715  27.305  1.00  0.00     0.293 HD
ENDBRANCH   9  12
BRANCH   8  14
ATOM     14  O   UNL     1       6.851  32.331  28.422  1.00  0.00    -0.504 OA
ATOM     15  H   UNL     1       5.881  32.143  28.648  1.00  0.00     0.293 HD
ENDBRANCH   8  14
TORSDOF 2
ENDMDL
MODEL 8
REMARK VINA RESULT:    -4.342     15.431     15.733
REMARK INTER + INTRA:          -4.595
REMARK INTER:                  -4.595
REMARK INTRA:                   0.000
REMARK UNBOUND:                 0.000
REMARK SMILES O=c1ccc2cc(O)c(O)cc2o1
REMARK SMILES IDX 4 1 3 2 2 3 1 4 13 5 12 6 11 7 9 8 7 9 6 10 5 11 8 12 10 14
REMARK H PARENT 8 13 10 15
REMARK Flexibility Score: inf
ROOT
ATOM      1  C   UNL     1       5.891  36.800  27.045  1.00  0.00     0.019 A 
ATOM      2  C   UNL     1       6.143  37.881  26.200  1.00  0.00     0.094 A 
ATOM      3  C   UNL     1       7.187  37.787  25.274  1.00  0.00     0.336 A 
ATOM      4  O   UNL     1       7.430  38.751  24.502  1.00  0.00    -0.246 OA
ATOM      5  O   UNL     1       7.927  36.684  25.201  1.00  0.00    -0.423 OA
ATOM      6  C   UNL     1       7.721  35.631  25.989  1.00  0.00     0.142 A 
ATOM      7  C   UNL     1       8.532  34.499  25.869  1.00  0.00     0.098 A 
ATOM      8  C   UNL     1       8.320  33.385  26.696  1.00  0.00     0.161 A 
ATOM      9  C   UNL     1       7.287  33.408  27.651  1.00  0.00     0.158 A 
ATOM     10  C   UNL     1       6.473  34.541  27.774  1.00  0.00     0.062 A 
ATOM     11  C   UNL     1       6.685  35.653  26.948  1.00  0.00     0.022 A 
ENDROOT
BRANCH   9  12
ATOM     12  O   UNL     1       7.053  32.316  28.485  1.00  0.00    -0.504 OA
ATOM     13  H   UNL     1       6.906  32.422  29.483  1.00  0.00     0.293 HD
ENDBRANCH   9  12
BRANCH   8  14
ATOM     14  O   UNL     1       9.130  32.258  26.572  1.00  0.00    -0.504 OA
ATOM     15  H   UNL     1       9.960  32.136  27.141  1.00  0.00     0.293 HD
ENDBRANCH   8  14
TORSDOF 2
ENDMDL
MODEL 9
REMARK VINA RESULT:    -4.304     15.354     15.994
REMARK INTER + INTRA:          -4.556
REMARK INTER:                  -4.556
REMARK INTRA:                   0.000
REMARK UNBOUND:                 0.000
REMARK SMILES O=c1ccc2cc(O)c(O)cc2o1
REMARK SMILES IDX 4 1 3 2 2 3 1 4 13 5 12 6 11 7 9 8 7 9 6 10 5 11 8 12 10 14
REMARK H PARENT 8 13 10 15
REMARK Flexibility Score: inf
ROOT
ATOM      1  C   UNL     1       6.409  33.971  27.314  1.00  0.00     0.019 A 
ATOM      2  C   UNL     1       7.348  33.002  26.961  1.00  0.00     0.094 A 
ATOM      3  C   UNL     1       8.475  33.386  26.226  1.00  0.00     0.336 A 
ATOM      4  O   UNL     1       9.334  32.527  25.898  1.00  0.00    -0.246 OA
ATOM      5  O   UNL     1       8.647  34.657  25.870  1.00  0.00    -0.423 OA
ATOM      6  C   UNL     1       7.775  35.612  26.186  1.00  0.00     0.142 A 
ATOM      7  C   UNL     1       8.008  36.930  25.784  1.00  0.00     0.098 A 
ATOM      8  C   UNL     1       7.093  37.943  26.113  1.00  0.00     0.161 A 
ATOM      9  C   UNL     1       5.936  37.630  26.851  1.00  0.00     0.158 A 
ATOM     10  C   UNL     1       5.701  36.310  27.255  1.00  0.00     0.062 A 
ATOM     11  C   UNL     1       6.615  35.299  26.926  1.00  0.00     0.022 A 
ENDROOT
BRANCH   9  12
ATOM     12  O   UNL     1       5.012  38.615  27.193  1.00  0.00    -0.504 OA
ATOM     13  H   UNL     1       5.294  39.500  27.599  1.00  0.00     0.293 HD
ENDBRANCH   9  12
BRANCH   8  14
ATOM     14  O   UNL     1       7.329  39.256  25.711  1.00  0.00    -0.504 OA
ATOM     15  H   UNL     1       6.745  39.712  25.019  1.00  0.00     0.293 HD
ENDBRANCH   8  14
TORSDOF 2
ENDMDL
