MODEL 1
REMARK VINA RESULT:    -5.340      0.000      0.000
REMARK INTER + INTRA:          -6.731
REMARK INTER:                  -6.432
REMARK INTRA:                  -0.299
REMARK UNBOUND:                -0.299
REMARK SMILES O=c1c(O)c(-c2ccc(O)c(O)c2)oc2cc(O)cc(O)c12
REMARK SMILES IDX 5 1 3 2 2 3 1 4 22 5 20 6 19 7 17 8 16 9 15 10 14 11 6 12
REMARK SMILES IDX 7 13 8 14 9 15 13 16 11 17 10 18 12 20 4 22 21 24 18 26
REMARK H PARENT 10 19 12 21 4 23 21 25 18 27
REMARK Flexibility Score: inf
ROOT
ATOM      1  C   UNL     1     -24.460 100.840  28.833  1.00  0.00     0.180 A 
ATOM      2  C   UNL     1     -24.310 100.601  27.455  1.00  0.00     0.208 A 
ATOM      3  C   UNL     1     -24.493  99.298  26.967  1.00  0.00     0.238 A 
ATOM      4  O   UNL     1     -24.411  99.101  25.726  1.00  0.00    -0.285 OA
ATOM      5  C   UNL     1     -24.808  98.248  27.860  1.00  0.00     0.111 A 
ATOM      6  C   UNL     1     -24.976  96.882  27.480  1.00  0.00     0.134 A 
ATOM      7  C   UNL     1     -25.416  95.950  28.429  1.00  0.00     0.093 A 
ATOM      8  C   UNL     1     -25.630  96.322  29.758  1.00  0.00     0.123 A 
ATOM      9  C   UNL     1     -25.411  97.640  30.152  1.00  0.00     0.094 A 
ATOM     10  C   UNL     1     -25.008  98.600  29.222  1.00  0.00     0.146 A 
ATOM     11  O   UNL     1     -24.820  99.847  29.637  1.00  0.00    -0.452 OA
ENDROOT
BRANCH   1  12
ATOM     12  C   UNL     1     -24.258 102.181  29.427  1.00  0.00     0.025 A 
ATOM     13  C   UNL     1     -22.969 102.692  29.659  1.00  0.00     0.016 A 
ATOM     14  C   UNL     1     -22.803 103.952  30.242  1.00  0.00     0.051 A 
ATOM     15  C   UNL     1     -23.919 104.712  30.615  1.00  0.00     0.157 A 
ATOM     16  C   UNL     1     -25.373 102.938  29.822  1.00  0.00     0.062 A 
ATOM     17  C   UNL     1     -25.211 104.200  30.406  1.00  0.00     0.158 A 
BRANCH  15  18
ATOM     18  O   UNL     1     -23.750 105.967  31.196  1.00  0.00    -0.504 OA
ATOM     19  H   UNL     1     -23.876 106.113  32.190  1.00  0.00     0.293 HD
ENDBRANCH  15  18
BRANCH  17  20
ATOM     20  O   UNL     1     -26.343 104.927  30.773  1.00  0.00    -0.504 OA
ATOM     21  H   UNL     1     -26.295 105.710  31.414  1.00  0.00     0.293 HD
ENDBRANCH  17  20
ENDBRANCH   1  12
BRANCH   2  22
ATOM     22  O   UNL     1     -24.019 101.658  26.588  1.00  0.00    -0.502 OA
ATOM     23  H   UNL     1     -23.966 101.537  25.583  1.00  0.00     0.293 HD
ENDBRANCH   2  22
BRANCH   6  24
ATOM     24  O   UNL     1     -24.701  96.388  26.202  1.00  0.00    -0.507 OA
ATOM     25  H   UNL     1     -24.004  96.767  25.578  1.00  0.00     0.293 HD
ENDBRANCH   6  24
BRANCH   8  26
ATOM     26  O   UNL     1     -26.051  95.384  30.699  1.00  0.00    -0.508 OA
ATOM     27  H   UNL     1     -26.924  95.494  31.202  1.00  0.00     0.293 HD
ENDBRANCH   8  26
TORSDOF 6
ENDMDL
MODEL 2
REMARK VINA RESULT:    -5.334      2.313      7.368
REMARK INTER + INTRA:          -6.725
REMARK INTER:                  -6.419
REMARK INTRA:                  -0.306
REMARK UNBOUND:                -0.299
REMARK SMILES O=c1c(O)c(-c2ccc(O)c(O)c2)oc2cc(O)cc(O)c12
REMARK SMILES IDX 5 1 3 2 2 3 1 4 22 5 20 6 19 7 17 8 16 9 15 10 14 11 6 12
REMARK SMILES IDX 7 13 8 14 9 15 13 16 11 17 10 18 12 20 4 22 21 24 18 26
REMARK H PARENT 10 19 12 21 4 23 21 25 18 27
REMARK Flexibility Score: inf
ROOT
ATOM      1  C   UNL     1     -24.535  97.085  28.450  1.00  0.00     0.180 A 
ATOM      2  C   UNL     1     -23.137  97.206  28.359  1.00  0.00     0.208 A 
ATOM      3  C   UNL     1     -22.549  98.465  28.557  1.00  0.00     0.238 A 
ATOM      4  O   UNL     1     -21.293  98.557  28.529  1.00  0.00    -0.285 OA
ATOM      5  C   UNL     1     -23.364  99.590  28.828  1.00  0.00     0.111 A 
ATOM      6  C   UNL     1     -22.877 100.920  29.006  1.00  0.00     0.134 A 
ATOM      7  C   UNL     1     -23.762 101.932  29.400  1.00  0.00     0.093 A 
ATOM      8  C   UNL     1     -25.126 101.675  29.557  1.00  0.00     0.123 A 
ATOM      9  C   UNL     1     -25.620 100.393  29.327  1.00  0.00     0.094 A 
ATOM     10  C   UNL     1     -24.757  99.355  28.969  1.00  0.00     0.146 A 
ATOM     11  O   UNL     1     -25.267  98.146  28.770  1.00  0.00    -0.452 OA
ENDROOT
BRANCH   1  12
ATOM     12  C   UNL     1     -25.230  95.797  28.228  1.00  0.00     0.025 A 
ATOM     13  C   UNL     1     -25.468  95.308  26.932  1.00  0.00     0.016 A 
ATOM     14  C   UNL     1     -26.147  94.100  26.746  1.00  0.00     0.051 A 
ATOM     15  C   UNL     1     -26.611  93.372  27.850  1.00  0.00     0.157 A 
ATOM     16  C   UNL     1     -25.714  95.073  29.330  1.00  0.00     0.062 A 
ATOM     17  C   UNL     1     -26.395  93.864  29.148  1.00  0.00     0.158 A 
BRANCH  15  18
ATOM     18  O   UNL     1     -27.287  92.168  27.661  1.00  0.00    -0.504 OA
ATOM     19  H   UNL     1     -27.843  91.996  26.832  1.00  0.00     0.293 HD
ENDBRANCH  15  18
BRANCH  17  20
ATOM     20  O   UNL     1     -26.849  93.167  30.267  1.00  0.00    -0.504 OA
ATOM     21  H   UNL     1     -27.107  92.189  30.224  1.00  0.00     0.293 HD
ENDBRANCH  17  20
ENDBRANCH   1  12
BRANCH   2  22
ATOM     22  O   UNL     1     -22.349  96.079  28.112  1.00  0.00    -0.502 OA
ATOM     23  H   UNL     1     -22.749  95.179  27.872  1.00  0.00     0.293 HD
ENDBRANCH   2  22
BRANCH   6  24
ATOM     24  O   UNL     1     -21.551 101.302  28.786  1.00  0.00    -0.507 OA
ATOM     25  H   UNL     1     -21.081 102.051  29.273  1.00  0.00     0.293 HD
ENDBRANCH   6  24
BRANCH   8  26
ATOM     26  O   UNL     1     -26.003 102.691  29.932  1.00  0.00    -0.508 OA
ATOM     27  H   UNL     1     -26.973 102.689  29.640  1.00  0.00     0.293 HD
ENDBRANCH   8  26
TORSDOF 6
ENDMDL
MODEL 3
REMARK VINA RESULT:    -5.323      1.534      6.853
REMARK INTER + INTRA:          -6.711
REMARK INTER:                  -6.436
REMARK INTRA:                  -0.275
REMARK UNBOUND:                -0.299
REMARK SMILES O=c1c(O)c(-c2ccc(O)c(O)c2)oc2cc(O)cc(O)c12
REMARK SMILES IDX 5 1 3 2 2 3 1 4 22 5 20 6 19 7 17 8 16 9 15 10 14 11 6 12
REMARK SMILES IDX 7 13 8 14 9 15 13 16 11 17 10 18 12 20 4 22 21 24 18 26
REMARK H PARENT 10 19 12 21 4 23 21 25 18 27
REMARK Flexibility Score: inf
ROOT
ATOM      1  C   UNL     1     -24.003 100.072  29.051  1.00  0.00     0.180 A 
ATOM      2  C   UNL     1     -22.644 100.424  28.978  1.00  0.00     0.208 A 
ATOM      3  C   UNL     1     -22.266 101.744  29.267  1.00  0.00     0.238 A 
ATOM      4  O   UNL     1     -21.042 102.039  29.253  1.00  0.00    -0.285 OA
ATOM      5  C   UNL     1     -23.251 102.700  29.611  1.00  0.00     0.111 A 
ATOM      6  C   UNL     1     -22.985 104.075  29.884  1.00  0.00     0.134 A 
ATOM      7  C   UNL     1     -24.020 104.901  30.342  1.00  0.00     0.093 A 
ATOM      8  C   UNL     1     -25.324 104.416  30.472  1.00  0.00     0.123 A 
ATOM      9  C   UNL     1     -25.605 103.091  30.150  1.00  0.00     0.094 A 
ATOM     10  C   UNL     1     -24.587 102.234  29.726  1.00  0.00     0.146 A 
ATOM     11  O   UNL     1     -24.896 100.975  29.440  1.00  0.00    -0.452 OA
ENDROOT
BRANCH   1  12
ATOM     12  C   UNL     1     -24.483  98.707  28.735  1.00  0.00     0.025 A 
ATOM     13  C   UNL     1     -24.551  98.244  27.409  1.00  0.00     0.016 A 
ATOM     14  C   UNL     1     -25.028  96.959  27.134  1.00  0.00     0.051 A 
ATOM     15  C   UNL     1     -25.457  96.125  28.174  1.00  0.00     0.157 A 
ATOM     16  C   UNL     1     -24.933  97.875  29.772  1.00  0.00     0.062 A 
ATOM     17  C   UNL     1     -25.412  96.588  29.500  1.00  0.00     0.158 A 
BRANCH  15  18
ATOM     18  O   UNL     1     -25.932  94.845  27.896  1.00  0.00    -0.504 OA
ATOM     19  H   UNL     1     -26.657  94.414  28.457  1.00  0.00     0.293 HD
ENDBRANCH  15  18
BRANCH  17  20
ATOM     20  O   UNL     1     -25.838  95.786  30.558  1.00  0.00    -0.504 OA
ATOM     21  H   UNL     1     -26.819  95.661  30.778  1.00  0.00     0.293 HD
ENDBRANCH  17  20
ENDBRANCH   1  12
BRANCH   2  22
ATOM     22  O   UNL     1     -21.686  99.458  28.657  1.00  0.00    -0.502 OA
ATOM     23  H   UNL     1     -20.725  99.519  28.975  1.00  0.00     0.293 HD
ENDBRANCH   2  22
BRANCH   6  24
ATOM     24  O   UNL     1     -21.739 104.682  29.700  1.00  0.00    -0.507 OA
ATOM     25  H   UNL     1     -20.865 104.185  29.621  1.00  0.00     0.293 HD
ENDBRANCH   6  24
BRANCH   8  26
ATOM     26  O   UNL     1     -26.351 105.249  30.913  1.00  0.00    -0.508 OA
ATOM     27  H   UNL     1     -26.746 105.158  31.842  1.00  0.00     0.293 HD
ENDBRANCH   8  26
TORSDOF 6
ENDMDL
MODEL 4
REMARK VINA RESULT:    -5.271      2.108      7.210
REMARK INTER + INTRA:          -6.649
REMARK INTER:                  -6.333
REMARK INTRA:                  -0.317
REMARK UNBOUND:                -0.299
REMARK SMILES O=c1c(O)c(-c2ccc(O)c(O)c2)oc2cc(O)cc(O)c12
REMARK SMILES IDX 5 1 3 2 2 3 1 4 22 5 20 6 19 7 17 8 16 9 15 10 14 11 6 12
REMARK SMILES IDX 7 13 8 14 9 15 13 16 11 17 10 18 12 20 4 22 21 24 18 26
REMARK H PARENT 10 19 12 21 4 23 21 25 18 27
REMARK Flexibility Score: inf
ROOT
ATOM      1  C   UNL     1     -24.157 102.574  29.410  1.00  0.00     0.180 A 
ATOM      2  C   UNL     1     -24.614 103.400  28.367  1.00  0.00     0.208 A 
ATOM      3  C   UNL     1     -24.425 104.787  28.465  1.00  0.00     0.238 A 
ATOM      4  O   UNL     1     -24.787 105.516  27.504  1.00  0.00    -0.285 OA
ATOM      5  C   UNL     1     -23.795 105.335  29.608  1.00  0.00     0.111 A 
ATOM      6  C   UNL     1     -23.588 106.729  29.830  1.00  0.00     0.134 A 
ATOM      7  C   UNL     1     -22.837 107.148  30.936  1.00  0.00     0.093 A 
ATOM      8  C   UNL     1     -22.343 106.226  31.862  1.00  0.00     0.123 A 
ATOM      9  C   UNL     1     -22.592 104.867  31.686  1.00  0.00     0.094 A 
ATOM     10  C   UNL     1     -23.306 104.416  30.574  1.00  0.00     0.146 A 
ATOM     11  O   UNL     1     -23.512 103.111  30.439  1.00  0.00    -0.452 OA
ENDROOT
BRANCH   1  12
ATOM     12  C   UNL     1     -24.343 101.106  29.392  1.00  0.00     0.025 A 
ATOM     13  C   UNL     1     -23.434 100.261  28.733  1.00  0.00     0.016 A 
ATOM     14  C   UNL     1     -23.643  98.879  28.710  1.00  0.00     0.051 A 
ATOM     15  C   UNL     1     -24.769  98.323  29.331  1.00  0.00     0.157 A 
ATOM     16  C   UNL     1     -25.481 100.545  29.995  1.00  0.00     0.062 A 
ATOM     17  C   UNL     1     -25.694  99.162  29.974  1.00  0.00     0.158 A 
BRANCH  15  18
ATOM     18  O   UNL     1     -24.974  96.945  29.306  1.00  0.00    -0.504 OA
ATOM     19  H   UNL     1     -25.679  96.524  28.713  1.00  0.00     0.293 HD
ENDBRANCH  15  18
BRANCH  17  20
ATOM     20  O   UNL     1     -26.829  98.642  30.596  1.00  0.00    -0.504 OA
ATOM     21  H   UNL     1     -27.702  99.153  30.636  1.00  0.00     0.293 HD
ENDBRANCH  17  20
ENDBRANCH   1  12
BRANCH   2  22
ATOM     22  O   UNL     1     -25.214 102.836  27.238  1.00  0.00    -0.502 OA
ATOM     23  H   UNL     1     -26.190 102.562  27.221  1.00  0.00     0.293 HD
ENDBRANCH   2  22
BRANCH   6  24
ATOM     24  O   UNL     1     -24.115 107.736  29.017  1.00  0.00    -0.507 OA
ATOM     25  H   UNL     1     -23.594 108.531  28.677  1.00  0.00     0.293 HD
ENDBRANCH   6  24
BRANCH   8  26
ATOM     26  O   UNL     1     -21.611 106.653  32.968  1.00  0.00    -0.508 OA
ATOM     27  H   UNL     1     -22.037 106.741  33.884  1.00  0.00     0.293 HD
ENDBRANCH   8  26
TORSDOF 6
ENDMDL
MODEL 5
REMARK VINA RESULT:    -5.259      1.942      2.915
REMARK INTER + INTRA:          -6.634
REMARK INTER:                  -6.349
REMARK INTRA:                  -0.285
REMARK UNBOUND:                -0.299
REMARK SMILES O=c1c(O)c(-c2ccc(O)c(O)c2)oc2cc(O)cc(O)c12
REMARK SMILES IDX 5 1 3 2 2 3 1 4 22 5 20 6 19 7 17 8 16 9 15 10 14 11 6 12
REMARK SMILES IDX 7 13 8 14 9 15 13 16 11 17 10 18 12 20 4 22 21 24 18 26
REMARK H PARENT 10 19 12 21 4 23 21 25 18 27
REMARK Flexibility Score: inf
ROOT
ATOM      1  C   UNL     1     -24.881  98.042  28.105  1.00  0.00     0.180 A 
ATOM      2  C   UNL     1     -24.828  97.699  26.742  1.00  0.00     0.208 A 
ATOM      3  C   UNL     1     -25.125  96.382  26.360  1.00  0.00     0.238 A 
ATOM      4  O   UNL     1     -25.130  96.095  25.134  1.00  0.00    -0.285 OA
ATOM      5  C   UNL     1     -25.456  95.419  27.343  1.00  0.00     0.111 A 
ATOM      6  C   UNL     1     -25.736  94.047  27.072  1.00  0.00     0.134 A 
ATOM      7  C   UNL     1     -26.180  93.214  28.108  1.00  0.00     0.093 A 
ATOM      8  C   UNL     1     -26.291  93.691  29.416  1.00  0.00     0.123 A 
ATOM      9  C   UNL     1     -25.962  95.014  29.702  1.00  0.00     0.094 A 
ATOM     10  C   UNL     1     -25.552  95.877  28.684  1.00  0.00     0.146 A 
ATOM     11  O   UNL     1     -25.258  97.133  28.997  1.00  0.00    -0.452 OA
ENDROOT
BRANCH   1  12
ATOM     12  C   UNL     1     -24.556  99.403  28.589  1.00  0.00     0.025 A 
ATOM     13  C   UNL     1     -23.227  99.852  28.673  1.00  0.00     0.016 A 
ATOM     14  C   UNL     1     -22.943 101.133  29.154  1.00  0.00     0.051 A 
ATOM     15  C   UNL     1     -23.979 101.978  29.572  1.00  0.00     0.157 A 
ATOM     16  C   UNL     1     -25.590 100.246  29.028  1.00  0.00     0.062 A 
ATOM     17  C   UNL     1     -25.309 101.529  29.511  1.00  0.00     0.158 A 
BRANCH  15  18
ATOM     18  O   UNL     1     -23.693 103.254  30.051  1.00  0.00    -0.504 OA
ATOM     19  H   UNL     1     -23.745 104.070  29.453  1.00  0.00     0.293 HD
ENDBRANCH  15  18
BRANCH  17  20
ATOM     20  O   UNL     1     -26.364 102.343  29.926  1.00  0.00    -0.504 OA
ATOM     21  H   UNL     1     -26.269 103.348  30.006  1.00  0.00     0.293 HD
ENDBRANCH  17  20
ENDBRANCH   1  12
BRANCH   2  22
ATOM     22  O   UNL     1     -24.520  98.671  25.786  1.00  0.00    -0.502 OA
ATOM     23  H   UNL     1     -24.354  99.641  26.031  1.00  0.00     0.293 HD
ENDBRANCH   2  22
BRANCH   6  24
ATOM     24  O   UNL     1     -25.570  93.448  25.820  1.00  0.00    -0.507 OA
ATOM     25  H   UNL     1     -26.257  92.862  25.368  1.00  0.00     0.293 HD
ENDBRANCH   6  24
BRANCH   8  26
ATOM     26  O   UNL     1     -26.717  92.852  30.444  1.00  0.00    -0.508 OA
ATOM     27  H   UNL     1     -26.618  91.845  30.383  1.00  0.00     0.293 HD
ENDBRANCH   8  26
TORSDOF 6
ENDMDL
MODEL 6
REMARK VINA RESULT:    -5.224      2.521      7.010
REMARK INTER + INTRA:          -6.592
REMARK INTER:                  -6.302
REMARK INTRA:                  -0.290
REMARK UNBOUND:                -0.299
REMARK SMILES O=c1c(O)c(-c2ccc(O)c(O)c2)oc2cc(O)cc(O)c12
REMARK SMILES IDX 5 1 3 2 2 3 1 4 22 5 20 6 19 7 17 8 16 9 15 10 14 11 6 12
REMARK SMILES IDX 7 13 8 14 9 15 13 16 11 17 10 18 12 20 4 22 21 24 18 26
REMARK H PARENT 10 19 12 21 4 23 21 25 18 27
REMARK Flexibility Score: inf
ROOT
ATOM      1  C   UNL     1     -24.550 102.449  28.334  1.00  0.00     0.180 A 
ATOM      2  C   UNL     1     -24.947 102.791  27.029  1.00  0.00     0.208 A 
ATOM      3  C   UNL     1     -24.938 104.142  26.647  1.00  0.00     0.238 A 
ATOM      4  O   UNL     1     -25.243 104.436  25.461  1.00  0.00    -0.285 OA
ATOM      5  C   UNL     1     -24.547 105.135  27.576  1.00  0.00     0.111 A 
ATOM      6  C   UNL     1     -24.538 106.536  27.309  1.00  0.00     0.134 A 
ATOM      7  C   UNL     1     -24.007 107.418  28.260  1.00  0.00     0.093 A 
ATOM      8  C   UNL     1     -23.546 106.953  29.494  1.00  0.00     0.123 A 
ATOM      9  C   UNL     1     -23.606 105.593  29.788  1.00  0.00     0.094 A 
ATOM     10  C   UNL     1     -24.096 104.685  28.846  1.00  0.00     0.146 A 
ATOM     11  O   UNL     1     -24.126 103.396  29.162  1.00  0.00    -0.452 OA
ENDROOT
BRANCH   1  12
ATOM     12  C   UNL     1     -24.558 101.050  28.819  1.00  0.00     0.025 A 
ATOM     13  C   UNL     1     -23.530 100.152  28.482  1.00  0.00     0.016 A 
ATOM     14  C   UNL     1     -23.571  98.830  28.933  1.00  0.00     0.051 A 
ATOM     15  C   UNL     1     -24.644  98.381  29.714  1.00  0.00     0.157 A 
ATOM     16  C   UNL     1     -25.641 100.590  29.585  1.00  0.00     0.062 A 
ATOM     17  C   UNL     1     -25.686  99.266  30.038  1.00  0.00     0.158 A 
BRANCH  15  18
ATOM     18  O   UNL     1     -24.681  97.063  30.162  1.00  0.00    -0.504 OA
ATOM     19  H   UNL     1     -24.844  96.290  29.526  1.00  0.00     0.293 HD
ENDBRANCH  15  18
BRANCH  17  20
ATOM     20  O   UNL     1     -26.772  98.849  30.807  1.00  0.00    -0.504 OA
ATOM     21  H   UNL     1     -27.084  99.365  31.621  1.00  0.00     0.293 HD
ENDBRANCH  17  20
ENDBRANCH   1  12
BRANCH   2  22
ATOM     22  O   UNL     1     -25.310 101.792  26.121  1.00  0.00    -0.502 OA
ATOM     23  H   UNL     1     -26.233 101.744  25.706  1.00  0.00     0.293 HD
ENDBRANCH   2  22
BRANCH   6  24
ATOM     24  O   UNL     1     -25.058 107.113  26.147  1.00  0.00    -0.507 OA
ATOM     25  H   UNL     1     -25.713 106.661  25.525  1.00  0.00     0.293 HD
ENDBRANCH   6  24
BRANCH   8  26
ATOM     26  O   UNL     1     -23.035 107.838  30.441  1.00  0.00    -0.508 OA
ATOM     27  H   UNL     1     -22.478 108.641  30.170  1.00  0.00     0.293 HD
ENDBRANCH   8  26
TORSDOF 6
ENDMDL
MODEL 7
REMARK VINA RESULT:    -5.205     10.779     13.829
REMARK INTER + INTRA:          -6.569
REMARK INTER:                  -6.264
REMARK INTRA:                  -0.305
REMARK UNBOUND:                -0.299
REMARK SMILES O=c1c(O)c(-c2ccc(O)c(O)c2)oc2cc(O)cc(O)c12
REMARK SMILES IDX 5 1 3 2 2 3 1 4 22 5 20 6 19 7 17 8 16 9 15 10 14 11 6 12
REMARK SMILES IDX 7 13 8 14 9 15 13 16 11 17 10 18 12 20 4 22 21 24 18 26
REMARK H PARENT 10 19 12 21 4 23 21 25 18 27
REMARK Flexibility Score: inf
ROOT
ATOM      1  C   UNL     1     -15.557 104.707  23.171  1.00  0.00     0.180 A 
ATOM      2  C   UNL     1     -16.153 105.963  22.959  1.00  0.00     0.208 A 
ATOM      3  C   UNL     1     -15.371 107.120  23.100  1.00  0.00     0.238 A 
ATOM      4  O   UNL     1     -15.897 108.238  22.856  1.00  0.00    -0.285 OA
ATOM      5  C   UNL     1     -14.009 107.010  23.467  1.00  0.00     0.111 A 
ATOM      6  C   UNL     1     -13.135 108.118  23.677  1.00  0.00     0.134 A 
ATOM      7  C   UNL     1     -11.772 107.889  23.910  1.00  0.00     0.093 A 
ATOM      8  C   UNL     1     -11.267 106.589  24.004  1.00  0.00     0.123 A 
ATOM      9  C   UNL     1     -12.124 105.501  23.860  1.00  0.00     0.094 A 
ATOM     10  C   UNL     1     -13.480 105.698  23.591  1.00  0.00     0.146 A 
ATOM     11  O   UNL     1     -14.261 104.633  23.450  1.00  0.00    -0.452 OA
ENDROOT
BRANCH   1  12
ATOM     12  C   UNL     1     -16.321 103.443  23.066  1.00  0.00     0.025 A 
ATOM     13  C   UNL     1     -16.819 102.792  24.208  1.00  0.00     0.016 A 
ATOM     14  C   UNL     1     -17.518 101.588  24.086  1.00  0.00     0.051 A 
ATOM     15  C   UNL     1     -17.718 101.010  22.825  1.00  0.00     0.157 A 
ATOM     16  C   UNL     1     -16.507 102.850  21.807  1.00  0.00     0.062 A 
ATOM     17  C   UNL     1     -17.207 101.645  21.681  1.00  0.00     0.158 A 
BRANCH  15  18
ATOM     18  O   UNL     1     -18.417  99.810  22.707  1.00  0.00    -0.504 OA
ATOM     19  H   UNL     1     -18.018  98.932  23.015  1.00  0.00     0.293 HD
ENDBRANCH  15  18
BRANCH  17  20
ATOM     20  O   UNL     1     -17.383 101.093  20.412  1.00  0.00    -0.504 OA
ATOM     21  H   UNL     1     -17.503 101.668  19.587  1.00  0.00     0.293 HD
ENDBRANCH  17  20
ENDBRANCH   1  12
BRANCH   2  22
ATOM     22  O   UNL     1     -17.495 106.046  22.576  1.00  0.00    -0.502 OA
ATOM     23  H   UNL     1     -17.812 106.666  21.840  1.00  0.00     0.293 HD
ENDBRANCH   2  22
BRANCH   6  24
ATOM     24  O   UNL     1     -13.553 109.451  23.695  1.00  0.00    -0.507 OA
ATOM     25  H   UNL     1     -13.241 110.160  23.048  1.00  0.00     0.293 HD
ENDBRANCH   6  24
BRANCH   8  26
ATOM     26  O   UNL     1      -9.914 106.369  24.252  1.00  0.00    -0.508 OA
ATOM     27  H   UNL     1      -9.584 106.056  25.158  1.00  0.00     0.293 HD
ENDBRANCH   8  26
TORSDOF 6
ENDMDL
MODEL 8
REMARK VINA RESULT:    -5.107      2.497      4.199
REMARK INTER + INTRA:          -6.451
REMARK INTER:                  -6.130
REMARK INTRA:                  -0.321
REMARK UNBOUND:                -0.299
REMARK SMILES O=c1c(O)c(-c2ccc(O)c(O)c2)oc2cc(O)cc(O)c12
REMARK SMILES IDX 5 1 3 2 2 3 1 4 22 5 20 6 19 7 17 8 16 9 15 10 14 11 6 12
REMARK SMILES IDX 7 13 8 14 9 15 13 16 11 17 10 18 12 20 4 22 21 24 18 26
REMARK H PARENT 10 19 12 21 4 23 21 25 18 27
REMARK Flexibility Score: inf
ROOT
ATOM      1  C   UNL     1     -24.627  97.494  28.844  1.00  0.00     0.180 A 
ATOM      2  C   UNL     1     -23.399  96.914  29.207  1.00  0.00     0.208 A 
ATOM      3  C   UNL     1     -23.259  95.519  29.142  1.00  0.00     0.238 A 
ATOM      4  O   UNL     1     -22.140  95.010  29.416  1.00  0.00    -0.285 OA
ATOM      5  C   UNL     1     -24.351  94.719  28.731  1.00  0.00     0.111 A 
ATOM      6  C   UNL     1     -24.334  93.294  28.666  1.00  0.00     0.134 A 
ATOM      7  C   UNL     1     -25.430  92.613  28.119  1.00  0.00     0.093 A 
ATOM      8  C   UNL     1     -26.568  93.304  27.696  1.00  0.00     0.123 A 
ATOM      9  C   UNL     1     -26.618  94.692  27.810  1.00  0.00     0.094 A 
ATOM     10  C   UNL     1     -25.527  95.401  28.317  1.00  0.00     0.146 A 
ATOM     11  O   UNL     1     -25.612  96.723  28.400  1.00  0.00    -0.452 OA
ENDROOT
BRANCH   1  12
ATOM     12  C   UNL     1     -24.860  98.955  28.912  1.00  0.00     0.025 A 
ATOM     13  C   UNL     1     -25.450  99.551  30.039  1.00  0.00     0.016 A 
ATOM     14  C   UNL     1     -25.681 100.929  30.071  1.00  0.00     0.051 A 
ATOM     15  C   UNL     1     -25.339 101.729  28.973  1.00  0.00     0.157 A 
ATOM     16  C   UNL     1     -24.537  99.758  27.806  1.00  0.00     0.062 A 
ATOM     17  C   UNL     1     -24.766 101.138  27.833  1.00  0.00     0.158 A 
BRANCH  15  18
ATOM     18  O   UNL     1     -25.569 103.102  29.007  1.00  0.00    -0.504 OA
ATOM     19  H   UNL     1     -24.834 103.770  28.805  1.00  0.00     0.293 HD
ENDBRANCH  15  18
BRANCH  17  20
ATOM     20  O   UNL     1     -24.421 101.905  26.721  1.00  0.00    -0.504 OA
ATOM     21  H   UNL     1     -24.372 101.510  25.789  1.00  0.00     0.293 HD
ENDBRANCH  17  20
ENDBRANCH   1  12
BRANCH   2  22
ATOM     22  O   UNL     1     -22.326  97.724  29.591  1.00  0.00    -0.502 OA
ATOM     23  H   UNL     1     -21.386  97.585  29.238  1.00  0.00     0.293 HD
ENDBRANCH   2  22
BRANCH   6  24
ATOM     24  O   UNL     1     -23.286  92.503  29.146  1.00  0.00    -0.507 OA
ATOM     25  H   UNL     1     -22.548  92.119  28.574  1.00  0.00     0.293 HD
ENDBRANCH   6  24
BRANCH   8  26
ATOM     26  O   UNL     1     -27.660  92.619  27.168  1.00  0.00    -0.508 OA
ATOM     27  H   UNL     1     -28.388  92.242  27.764  1.00  0.00     0.293 HD
ENDBRANCH   8  26
TORSDOF 6
ENDMDL
MODEL 9
REMARK VINA RESULT:    -4.979      3.898      8.461
REMARK INTER + INTRA:          -6.297
REMARK INTER:                  -6.022
REMARK INTRA:                  -0.275
REMARK UNBOUND:                -0.299
REMARK SMILES O=c1c(O)c(-c2ccc(O)c(O)c2)oc2cc(O)cc(O)c12
REMARK SMILES IDX 5 1 3 2 2 3 1 4 22 5 20 6 19 7 17 8 16 9 15 10 14 11 6 12
REMARK SMILES IDX 7 13 8 14 9 15 13 16 11 17 10 18 12 20 4 22 21 24 18 26
REMARK H PARENT 10 19 12 21 4 23 21 25 18 27
REMARK Flexibility Score: inf
ROOT
ATOM      1  C   UNL     1     -24.514 104.957  28.121  1.00  0.00     0.180 A 
ATOM      2  C   UNL     1     -23.226 105.510  28.231  1.00  0.00     0.208 A 
ATOM      3  C   UNL     1     -23.022 106.842  27.836  1.00  0.00     0.238 A 
ATOM      4  O   UNL     1     -21.878 107.348  27.988  1.00  0.00    -0.285 OA
ATOM      5  C   UNL     1     -24.101 107.599  27.322  1.00  0.00     0.111 A 
ATOM      6  C   UNL     1     -23.998 108.943  26.855  1.00  0.00     0.134 A 
ATOM      7  C   UNL     1     -25.158 109.639  26.490  1.00  0.00     0.093 A 
ATOM      8  C   UNL     1     -26.408 109.015  26.513  1.00  0.00     0.123 A 
ATOM      9  C   UNL     1     -26.511 107.684  26.910  1.00  0.00     0.094 A 
ATOM     10  C   UNL     1     -25.377 106.976  27.315  1.00  0.00     0.146 A 
ATOM     11  O   UNL     1     -25.520 105.713  27.696  1.00  0.00    -0.452 OA
ENDROOT
BRANCH   1  12
ATOM     12  C   UNL     1     -24.803 103.553  28.492  1.00  0.00     0.025 A 
ATOM     13  C   UNL     1     -24.924 103.161  29.836  1.00  0.00     0.016 A 
ATOM     14  C   UNL     1     -25.174 101.825  30.163  1.00  0.00     0.051 A 
ATOM     15  C   UNL     1     -25.293 100.860  29.154  1.00  0.00     0.157 A 
ATOM     16  C   UNL     1     -24.903 102.578  27.485  1.00  0.00     0.062 A 
ATOM     17  C   UNL     1     -25.154 101.240  27.809  1.00  0.00     0.158 A 
BRANCH  15  18
ATOM     18  O   UNL     1     -25.544  99.530  29.484  1.00  0.00    -0.504 OA
ATOM     19  H   UNL     1     -26.479  99.142  29.453  1.00  0.00     0.293 HD
ENDBRANCH  15  18
BRANCH  17  20
ATOM     20  O   UNL     1     -25.260 100.303  26.781  1.00  0.00    -0.504 OA
ATOM     21  H   UNL     1     -25.151 100.558  25.807  1.00  0.00     0.293 HD
ENDBRANCH  17  20
ENDBRANCH   1  12
BRANCH   2  22
ATOM     22  O   UNL     1     -22.179 104.751  28.761  1.00  0.00    -0.502 OA
ATOM     23  H   UNL     1     -22.337 103.887  29.268  1.00  0.00     0.293 HD
ENDBRANCH   2  22
BRANCH   6  24
ATOM     24  O   UNL     1     -22.789 109.628  26.707  1.00  0.00    -0.507 OA
ATOM     25  H   UNL     1     -21.896 109.296  27.040  1.00  0.00     0.293 HD
ENDBRANCH   6  24
BRANCH   8  26
ATOM     26  O   UNL     1     -27.555 109.708  26.132  1.00  0.00    -0.508 OA
ATOM     27  H   UNL     1     -27.861 110.539  26.626  1.00  0.00     0.293 HD
ENDBRANCH   8  26
TORSDOF 6
ENDMDL
