MODEL 1
REMARK VINA RESULT:    -2.656      0.000      0.000
REMARK INTER + INTRA:          -4.324
REMARK INTER:                  -4.053
REMARK INTRA:                  -0.270
REMARK UNBOUND:                -0.270
REMARK SMILES CC1=CCC[C@H](C)C(=O)C[C@@H](C(C)C)C(=O)C1
REMARK SMILES IDX 8 1 9 2 6 3 7 4 5 5 4 6 3 7 2 8 1 9 10 11 11 12 15 13 16 14
REMARK SMILES IDX 17 15 12 17 13 18 14 19
REMARK H PARENT
REMARK Flexibility Score: 70.00
ROOT
ATOM      1  C   UNL     1      21.788  36.916  85.773  1.00  0.00     0.136 C 
ATOM      2  O   UNL     1      22.215  37.655  84.897  1.00  0.00    -0.299 OA
ENDROOT
BRANCH   1   3
ATOM      3  C   UNL     1      22.072  35.432  85.706  1.00  0.00     0.053 C 
ATOM      4  C   UNL     1      21.565  34.882  84.368  1.00  0.00     0.016 C 
BRANCH   3   5
ATOM      5  C   UNL     1      23.572  35.101  85.882  1.00  0.00     0.015 C 
BRANCH   5   6
ATOM      6  C   UNL     1      24.052  35.163  87.343  1.00  0.00     0.028 C 
BRANCH   6   7
ATOM      7  C   UNL     1      23.118  34.421  88.272  1.00  0.00    -0.028 C 
ATOM      8  C   UNL     1      22.474  34.923  89.354  1.00  0.00    -0.070 CG0
ATOM      9  C   UNL     1      21.587  33.988  90.137  1.00  0.00     0.039 C 
ATOM     10  G   UNL     1      22.611  36.352  89.841  1.00  0.00     0.000 G0
ENDBRANCH   6   7
ENDBRANCH   5   6
ENDBRANCH   3   5
ENDBRANCH   1   3
BRANCH   1  11
ATOM     11  C   UNL     1      20.883  37.496  86.836  1.00  0.00     0.087 C 
BRANCH  11  12
ATOM     12  C   UNL     1      21.613  38.130  88.051  1.00  0.00     0.066 C 
BRANCH  12  13
ATOM     13  C   UNL     1      21.483  37.219  89.271  1.00  0.00     0.140 C 
ATOM     14  O   UNL     1      20.404  37.190  89.845  1.00  0.00    -0.299 OA
BRANCH  13  15
ATOM     15  C   UNL     1      22.605  36.368  89.831  1.00  0.00     0.106 CG0
ATOM     16  G   UNL     1      22.485  34.928  89.370  1.00  0.00     0.000 G0
ENDBRANCH  13  15
ENDBRANCH  12  13
BRANCH  12  17
ATOM     17  C   UNL     1      21.305  39.643  88.312  1.00  0.00    -0.006 C 
ATOM     18  C   UNL     1      22.591  40.489  88.213  1.00  0.00     0.008 C 
ATOM     19  C   UNL     1      20.281  40.219  87.314  1.00  0.00     0.008 C 
ENDBRANCH  12  17
ENDBRANCH  11  12
ENDBRANCH   1  11
TORSDOF 1
ENDMDL
MODEL 2
REMARK VINA RESULT:    -2.641      1.781      3.954
REMARK INTER + INTRA:          -4.301
REMARK INTER:                  -4.441
REMARK INTRA:                   0.140
REMARK UNBOUND:                -0.270
REMARK SMILES CC1=CCC[C@H](C)C(=O)C[C@@H](C(C)C)C(=O)C1
REMARK SMILES IDX 8 1 9 2 6 3 7 4 5 5 4 6 3 7 2 8 1 9 10 11 11 12 15 13 16 14
REMARK SMILES IDX 17 15 12 17 13 18 14 19
REMARK H PARENT
REMARK Flexibility Score: 70.00
ROOT
ATOM      1  C   UNL     1      23.222  36.032  89.438  1.00  0.00     0.136 C 
ATOM      2  O   UNL     1      22.579  36.248  90.456  1.00  0.00    -0.299 OA
ENDROOT
BRANCH   1   3
ATOM      3  C   UNL     1      23.745  34.640  89.163  1.00  0.00     0.053 C 
ATOM      4  C   UNL     1      24.304  34.047  90.461  1.00  0.00     0.016 C 
BRANCH   3   5
ATOM      5  C   UNL     1      22.668  33.701  88.572  1.00  0.00     0.015 C 
BRANCH   5   6
ATOM      6  C   UNL     1      21.392  34.433  88.116  1.00  0.00     0.028 C 
BRANCH   6   7
ATOM      7  C   UNL     1      21.157  34.274  86.630  1.00  0.00    -0.028 C 
ATOM      8  C   UNL     1      21.891  34.812  85.626  1.00  0.00    -0.070 CG0
ATOM      9  C   UNL     1      21.464  34.516  84.210  1.00  0.00     0.039 C 
ATOM     10  G   UNL     1      23.093  35.712  85.835  1.00  0.00     0.000 G0
ENDBRANCH   6   7
ENDBRANCH   5   6
ENDBRANCH   3   5
ENDBRANCH   1   3
BRANCH   1  11
ATOM     11  C   UNL     1      23.578  37.196  88.542  1.00  0.00     0.087 C 
BRANCH  11  12
ATOM     12  C   UNL     1      22.453  37.652  87.573  1.00  0.00     0.066 C 
BRANCH  12  13
ATOM     13  C   UNL     1      22.740  37.140  86.163  1.00  0.00     0.140 C 
ATOM     14  O   UNL     1      22.637  37.934  85.239  1.00  0.00    -0.299 OA
BRANCH  13  15
ATOM     15  C   UNL     1      23.121  35.711  85.828  1.00  0.00     0.106 CG0
ATOM     16  G   UNL     1      21.892  34.846  85.627  1.00  0.00     0.000 G0
ENDBRANCH  13  15
ENDBRANCH  12  13
BRANCH  12  17
ATOM     17  C   UNL     1      22.050  39.162  87.666  1.00  0.00    -0.006 C 
ATOM     18  C   UNL     1      20.519  39.316  87.769  1.00  0.00     0.008 C 
ATOM     19  C   UNL     1      22.682  39.870  88.881  1.00  0.00     0.008 C 
ENDBRANCH  12  17
ENDBRANCH  11  12
ENDBRANCH   1  11
TORSDOF 1
ENDMDL
MODEL 3
REMARK VINA RESULT:    -2.580      1.977      4.302
REMARK INTER + INTRA:          -4.208
REMARK INTER:                  -3.947
REMARK INTRA:                  -0.261
REMARK UNBOUND:                -0.270
REMARK SMILES CC1=CCC[C@H](C)C(=O)C[C@@H](C(C)C)C(=O)C1
REMARK SMILES IDX 8 1 9 2 6 3 7 4 5 5 4 6 3 7 2 8 1 9 10 11 11 12 15 13 16 14
REMARK SMILES IDX 17 15 12 17 13 18 14 19
REMARK H PARENT
REMARK Flexibility Score: 70.00
ROOT
ATOM      1  C   UNL     1      21.678  35.503  85.213  1.00  0.00     0.136 C 
ATOM      2  O   UNL     1      21.590  34.509  84.506  1.00  0.00    -0.299 OA
ENDROOT
BRANCH   1   3
ATOM      3  C   UNL     1      20.559  36.521  85.217  1.00  0.00     0.053 C 
ATOM      4  C   UNL     1      19.861  36.508  83.853  1.00  0.00     0.016 C 
BRANCH   3   5
ATOM      5  C   UNL     1      19.528  36.273  86.343  1.00  0.00     0.015 C 
BRANCH   5   6
ATOM      6  C   UNL     1      19.533  37.356  87.437  1.00  0.00     0.028 C 
BRANCH   6   7
ATOM      7  C   UNL     1      20.270  38.599  86.990  1.00  0.00    -0.028 C 
ATOM      8  C   UNL     1      21.473  39.038  87.433  1.00  0.00    -0.070 CG0
ATOM      9  C   UNL     1      22.015  40.314  86.840  1.00  0.00     0.039 C 
ATOM     10  G   UNL     1      22.293  38.344  88.503  1.00  0.00     0.000 G0
ENDBRANCH   6   7
ENDBRANCH   5   6
ENDBRANCH   3   5
ENDBRANCH   1   3
BRANCH   1  11
ATOM     11  C   UNL     1      22.962  35.744  85.972  1.00  0.00     0.087 C 
BRANCH  11  12
ATOM     12  C   UNL     1      22.802  35.897  87.510  1.00  0.00     0.066 C 
BRANCH  12  13
ATOM     13  C   UNL     1      23.237  37.296  87.942  1.00  0.00     0.140 C 
ATOM     14  O   UNL     1      24.421  37.581  87.831  1.00  0.00    -0.299 OA
BRANCH  13  15
ATOM     15  C   UNL     1      22.309  38.346  88.520  1.00  0.00     0.106 CG0
ATOM     16  G   UNL     1      21.496  39.020  87.432  1.00  0.00     0.000 G0
ENDBRANCH  13  15
ENDBRANCH  12  13
BRANCH  12  17
ATOM     17  C   UNL     1      23.375  34.723  88.371  1.00  0.00    -0.006 C 
ATOM     18  C   UNL     1      23.393  35.097  89.867  1.00  0.00     0.008 C 
ATOM     19  C   UNL     1      22.561  33.423  88.217  1.00  0.00     0.008 C 
ENDBRANCH  12  17
ENDBRANCH  11  12
ENDBRANCH   1  11
TORSDOF 1
ENDMDL
MODEL 4
REMARK VINA RESULT:    -2.562      1.628      3.555
REMARK INTER + INTRA:          -4.181
REMARK INTER:                  -4.366
REMARK INTRA:                   0.185
REMARK UNBOUND:                -0.270
REMARK SMILES CC1=CCC[C@H](C)C(=O)C[C@@H](C(C)C)C(=O)C1
REMARK SMILES IDX 8 1 9 2 6 3 7 4 5 5 4 6 3 7 2 8 1 9 10 11 11 12 15 13 16 14
REMARK SMILES IDX 17 15 12 17 13 18 14 19
REMARK H PARENT
REMARK Flexibility Score: 70.00
ROOT
ATOM      1  C   UNL     1      21.553  38.149  86.632  1.00  0.00     0.136 C 
ATOM      2  O   UNL     1      21.294  38.533  85.499  1.00  0.00    -0.299 OA
ENDROOT
BRANCH   1   3
ATOM      3  C   UNL     1      22.756  38.712  87.357  1.00  0.00     0.053 C 
ATOM      4  C   UNL     1      22.278  39.662  88.461  1.00  0.00     0.016 C 
BRANCH   3   5
ATOM      5  C   UNL     1      23.661  37.612  87.958  1.00  0.00     0.015 C 
BRANCH   5   6
ATOM      6  C   UNL     1      23.170  37.080  89.316  1.00  0.00     0.028 C 
BRANCH   6   7
ATOM      7  C   UNL     1      23.488  35.611  89.491  1.00  0.00    -0.028 C 
ATOM      8  C   UNL     1      22.632  34.569  89.355  1.00  0.00    -0.070 CG0
ATOM      9  C   UNL     1      23.178  33.181  89.580  1.00  0.00     0.039 C 
ATOM     10  G   UNL     1      21.161  34.712  89.020  1.00  0.00     0.000 G0
ENDBRANCH   6   7
ENDBRANCH   5   6
ENDBRANCH   3   5
ENDBRANCH   1   3
BRANCH   1  11
ATOM     11  C   UNL     1      20.729  37.030  87.226  1.00  0.00     0.087 C 
BRANCH  11  12
ATOM     12  C   UNL     1      20.879  35.654  86.523  1.00  0.00     0.066 C 
BRANCH  12  13
ATOM     13  C   UNL     1      20.869  34.533  87.561  1.00  0.00     0.140 C 
ATOM     14  O   UNL     1      20.605  33.404  87.174  1.00  0.00    -0.299 OA
BRANCH  13  15
ATOM     15  C   UNL     1      21.140  34.729  89.039  1.00  0.00     0.106 CG0
ATOM     16  G   UNL     1      22.616  34.577  89.352  1.00  0.00     0.000 G0
ENDBRANCH  13  15
ENDBRANCH  12  13
BRANCH  12  17
ATOM     17  C   UNL     1      22.016  35.561  85.450  1.00  0.00    -0.006 C 
ATOM     18  C   UNL     1      23.201  34.727  85.978  1.00  0.00     0.008 C 
ATOM     19  C   UNL     1      21.536  34.923  84.132  1.00  0.00     0.008 C 
ENDBRANCH  12  17
ENDBRANCH  11  12
ENDBRANCH   1  11
TORSDOF 1
ENDMDL
MODEL 5
REMARK VINA RESULT:    -2.558      2.462      4.233
REMARK INTER + INTRA:          -4.175
REMARK INTER:                  -3.852
REMARK INTRA:                  -0.323
REMARK UNBOUND:                -0.270
REMARK SMILES CC1=CCC[C@H](C)C(=O)C[C@@H](C(C)C)C(=O)C1
REMARK SMILES IDX 8 1 9 2 6 3 7 4 5 5 4 6 3 7 2 8 1 9 10 11 11 12 15 13 16 14
REMARK SMILES IDX 17 15 12 17 13 18 14 19
REMARK H PARENT
REMARK Flexibility Score: 70.00
ROOT
ATOM      1  C   UNL     1      23.232  34.208  88.762  1.00  0.00     0.136 C 
ATOM      2  O   UNL     1      23.949  34.511  89.705  1.00  0.00    -0.299 OA
ENDROOT
BRANCH   1   3
ATOM      3  C   UNL     1      22.358  32.976  88.850  1.00  0.00     0.053 C 
ATOM      4  C   UNL     1      23.223  31.771  89.235  1.00  0.00     0.016 C 
BRANCH   3   5
ATOM      5  C   UNL     1      21.195  33.138  89.857  1.00  0.00     0.015 C 
BRANCH   5   6
ATOM      6  C   UNL     1      20.087  34.092  89.374  1.00  0.00     0.028 C 
BRANCH   6   7
ATOM      7  C   UNL     1      19.579  33.711  88.002  1.00  0.00    -0.028 C 
ATOM      8  C   UNL     1      19.477  34.517  86.917  1.00  0.00    -0.070 CG0
ATOM      9  C   UNL     1      18.937  33.914  85.644  1.00  0.00     0.039 C 
ATOM     10  G   UNL     1      19.844  35.989  86.910  1.00  0.00     0.000 G0
ENDBRANCH   6   7
ENDBRANCH   5   6
ENDBRANCH   3   5
ENDBRANCH   1   3
BRANCH   1  11
ATOM     11  C   UNL     1      23.332  35.009  87.485  1.00  0.00     0.087 C 
BRANCH  11  12
ATOM     12  C   UNL     1      22.499  36.319  87.459  1.00  0.00     0.066 C 
BRANCH  12  13
ATOM     13  C   UNL     1      21.326  36.173  86.491  1.00  0.00     0.140 C 
ATOM     14  O   UNL     1      21.570  36.223  85.293  1.00  0.00    -0.299 OA
BRANCH  13  15
ATOM     15  C   UNL     1      19.881  35.993  86.911  1.00  0.00     0.106 CG0
ATOM     16  G   UNL     1      19.485  34.530  86.907  1.00  0.00     0.000 G0
ENDBRANCH  13  15
ENDBRANCH  12  13
BRANCH  12  17
ATOM     17  C   UNL     1      23.322  37.644  87.316  1.00  0.00    -0.006 C 
ATOM     18  C   UNL     1      22.384  38.865  87.223  1.00  0.00     0.008 C 
ATOM     19  C   UNL     1      24.284  37.873  88.499  1.00  0.00     0.008 C 
ENDBRANCH  12  17
ENDBRANCH  11  12
ENDBRANCH   1  11
TORSDOF 1
ENDMDL
MODEL 6
REMARK VINA RESULT:    -2.490      1.995      3.863
REMARK INTER + INTRA:          -4.071
REMARK INTER:                  -3.811
REMARK INTRA:                  -0.260
REMARK UNBOUND:                -0.270
REMARK SMILES CC1=CCC[C@H](C)C(=O)C[C@@H](C(C)C)C(=O)C1
REMARK SMILES IDX 8 1 9 2 6 3 7 4 5 5 4 6 3 7 2 8 1 9 10 11 11 12 15 13 16 14
REMARK SMILES IDX 17 15 12 17 13 18 14 19
REMARK H PARENT
REMARK Flexibility Score: 70.00
ROOT
ATOM      1  C   UNL     1      23.055  35.139  86.473  1.00  0.00     0.136 C 
ATOM      2  O   UNL     1      24.173  35.355  86.919  1.00  0.00    -0.299 OA
ENDROOT
BRANCH   1   3
ATOM      3  C   UNL     1      22.668  35.696  85.121  1.00  0.00     0.053 C 
ATOM      4  C   UNL     1      21.801  34.670  84.383  1.00  0.00     0.016 C 
BRANCH   3   5
ATOM      5  C   UNL     1      21.922  37.047  85.221  1.00  0.00     0.015 C 
BRANCH   5   6
ATOM      6  C   UNL     1      22.641  38.087  86.099  1.00  0.00     0.028 C 
BRANCH   6   7
ATOM      7  C   UNL     1      21.681  38.792  87.032  1.00  0.00    -0.028 C 
ATOM      8  C   UNL     1      21.398  38.460  88.315  1.00  0.00    -0.070 CG0
ATOM      9  C   UNL     1      20.400  39.313  89.056  1.00  0.00     0.039 C 
ATOM     10  G   UNL     1      21.999  37.272  89.041  1.00  0.00     0.000 G0
ENDBRANCH   6   7
ENDBRANCH   5   6
ENDBRANCH   3   5
ENDBRANCH   1   3
BRANCH   1  11
ATOM     11  C   UNL     1      22.051  34.421  87.344  1.00  0.00     0.087 C 
BRANCH  11  12
ATOM     12  C   UNL     1      20.803  35.257  87.740  1.00  0.00     0.066 C 
BRANCH  12  13
ATOM     13  C   UNL     1      21.093  36.058  89.008  1.00  0.00     0.140 C 
ATOM     14  O   UNL     1      20.541  35.707  90.041  1.00  0.00    -0.299 OA
BRANCH  13  15
ATOM     15  C   UNL     1      21.999  37.272  89.069  1.00  0.00     0.106 CG0
ATOM     16  G   UNL     1      21.409  38.439  88.301  1.00  0.00     0.000 G0
ENDBRANCH  13  15
ENDBRANCH  12  13
BRANCH  12  17
ATOM     17  C   UNL     1      19.441  34.484  87.735  1.00  0.00    -0.006 C 
ATOM     18  C   UNL     1      18.615  34.837  86.482  1.00  0.00     0.008 C 
ATOM     19  C   UNL     1      19.628  32.954  87.766  1.00  0.00     0.008 C 
ENDBRANCH  12  17
ENDBRANCH  11  12
ENDBRANCH   1  11
TORSDOF 1
ENDMDL
MODEL 7
REMARK VINA RESULT:    -2.445      2.275      5.052
REMARK INTER + INTRA:          -4.002
REMARK INTER:                  -3.663
REMARK INTRA:                  -0.339
REMARK UNBOUND:                -0.270
REMARK SMILES CC1=CCC[C@H](C)C(=O)C[C@@H](C(C)C)C(=O)C1
REMARK SMILES IDX 8 1 9 2 6 3 7 4 5 5 4 6 3 7 2 8 1 9 10 11 11 12 15 13 16 14
REMARK SMILES IDX 17 15 12 17 13 18 14 19
REMARK H PARENT
REMARK Flexibility Score: 70.00
ROOT
ATOM      1  C   UNL     1      19.901  34.374  88.206  1.00  0.00     0.136 C 
ATOM      2  O   UNL     1      19.193  33.654  88.896  1.00  0.00    -0.299 OA
ENDROOT
BRANCH   1   3
ATOM      3  C   UNL     1      19.473  35.798  87.925  1.00  0.00     0.053 C 
ATOM      4  C   UNL     1      17.994  35.809  87.523  1.00  0.00     0.016 C 
BRANCH   3   5
ATOM      5  C   UNL     1      19.703  36.741  89.128  1.00  0.00     0.015 C 
BRANCH   5   6
ATOM      6  C   UNL     1      20.897  37.696  88.946  1.00  0.00     0.028 C 
BRANCH   6   7
ATOM      7  C   UNL     1      21.211  37.929  87.485  1.00  0.00    -0.028 C 
ATOM      8  C   UNL     1      22.288  37.475  86.800  1.00  0.00    -0.070 CG0
ATOM      9  C   UNL     1      22.392  37.836  85.339  1.00  0.00     0.039 C 
ATOM     10  G   UNL     1      23.406  36.654  87.414  1.00  0.00     0.000 G0
ENDBRANCH   6   7
ENDBRANCH   5   6
ENDBRANCH   3   5
ENDBRANCH   1   3
BRANCH   1  11
ATOM     11  C   UNL     1      21.128  33.779  87.555  1.00  0.00     0.087 C 
BRANCH  11  12
ATOM     12  C   UNL     1      22.484  34.227  88.166  1.00  0.00     0.066 C 
BRANCH  12  13
ATOM     13  C   UNL     1      23.213  35.153  87.194  1.00  0.00     0.140 C 
ATOM     14  O   UNL     1      23.679  34.657  86.179  1.00  0.00    -0.299 OA
BRANCH  13  15
ATOM     15  C   UNL     1      23.419  36.639  87.413  1.00  0.00     0.106 CG0
ATOM     16  G   UNL     1      22.290  37.446  86.802  1.00  0.00     0.000 G0
ENDBRANCH  13  15
ENDBRANCH  12  13
BRANCH  12  17
ATOM     17  C   UNL     1      23.358  33.085  88.784  1.00  0.00    -0.006 C 
ATOM     18  C   UNL     1      24.181  33.610  89.978  1.00  0.00     0.008 C 
ATOM     19  C   UNL     1      22.514  31.893  89.276  1.00  0.00     0.008 C 
ENDBRANCH  12  17
ENDBRANCH  11  12
ENDBRANCH   1  11
TORSDOF 1
ENDMDL
MODEL 8
REMARK VINA RESULT:    -2.431      9.100     11.185
REMARK INTER + INTRA:          -3.981
REMARK INTER:                  -4.171
REMARK INTRA:                   0.191
REMARK UNBOUND:                -0.270
REMARK SMILES CC1=CCC[C@H](C)C(=O)C[C@@H](C(C)C)C(=O)C1
REMARK SMILES IDX 8 1 9 2 6 3 7 4 5 5 4 6 3 7 2 8 1 9 10 11 11 12 15 13 16 14
REMARK SMILES IDX 17 15 12 17 13 18 14 19
REMARK H PARENT
REMARK Flexibility Score: 70.00
ROOT
ATOM      1  C   UNL     1      25.728  45.127  84.416  1.00  0.00     0.136 C 
ATOM      2  O   UNL     1      25.155  44.343  83.672  1.00  0.00    -0.299 OA
ENDROOT
BRANCH   1   3
ATOM      3  C   UNL     1      25.070  45.549  85.712  1.00  0.00     0.053 C 
ATOM      4  C   UNL     1      23.757  46.273  85.397  1.00  0.00     0.016 C 
BRANCH   3   5
ATOM      5  C   UNL     1      24.806  44.359  86.664  1.00  0.00     0.015 C 
BRANCH   5   6
ATOM      6  C   UNL     1      25.638  44.406  87.958  1.00  0.00     0.028 C 
BRANCH   6   7
ATOM      7  C   UNL     1      26.027  45.821  88.323  1.00  0.00    -0.028 C 
ATOM      8  C   UNL     1      27.215  46.428  88.081  1.00  0.00    -0.070 CG0
ATOM      9  C   UNL     1      27.378  47.856  88.540  1.00  0.00     0.039 C 
ATOM     10  G   UNL     1      28.395  45.757  87.407  1.00  0.00     0.000 G0
ENDBRANCH   6   7
ENDBRANCH   5   6
ENDBRANCH   3   5
ENDBRANCH   1   3
BRANCH   1  11
ATOM     11  C   UNL     1      27.028  45.746  83.957  1.00  0.00     0.087 C 
BRANCH  11  12
ATOM     12  C   UNL     1      28.289  45.293  84.742  1.00  0.00     0.066 C 
BRANCH  12  13
ATOM     13  C   UNL     1      28.512  46.207  85.945  1.00  0.00     0.140 C 
ATOM     14  O   UNL     1      28.819  47.370  85.725  1.00  0.00    -0.299 OA
BRANCH  13  15
ATOM     15  C   UNL     1      28.401  45.768  87.392  1.00  0.00     0.106 CG0
ATOM     16  G   UNL     1      27.213  46.417  88.074  1.00  0.00     0.000 G0
ENDBRANCH  13  15
ENDBRANCH  12  13
BRANCH  12  17
ATOM     17  C   UNL     1      29.561  45.008  83.875  1.00  0.00    -0.006 C 
ATOM     18  C   UNL     1      30.564  44.125  84.644  1.00  0.00     0.008 C 
ATOM     19  C   UNL     1      29.226  44.300  82.547  1.00  0.00     0.008 C 
ENDBRANCH  12  17
ENDBRANCH  11  12
ENDBRANCH   1  11
TORSDOF 1
ENDMDL
MODEL 9
REMARK VINA RESULT:    -2.390      2.467      4.204
REMARK INTER + INTRA:          -3.918
REMARK INTER:                  -3.597
REMARK INTRA:                  -0.321
REMARK UNBOUND:                -0.270
REMARK SMILES CC1=CCC[C@H](C)C(=O)C[C@@H](C(C)C)C(=O)C1
REMARK SMILES IDX 8 1 9 2 6 3 7 4 5 5 4 6 3 7 2 8 1 9 10 11 11 12 15 13 16 14
REMARK SMILES IDX 17 15 12 17 13 18 14 19
REMARK H PARENT
REMARK Flexibility Score: 70.00
ROOT
ATOM      1  C   UNL     1      21.066  34.897  86.745  1.00  0.00     0.136 C 
ATOM      2  O   UNL     1      20.480  33.885  86.385  1.00  0.00    -0.299 OA
ENDROOT
BRANCH   1   3
ATOM      3  C   UNL     1      22.499  34.804  87.220  1.00  0.00     0.053 C 
ATOM      4  C   UNL     1      23.439  35.016  86.028  1.00  0.00     0.016 C 
BRANCH   3   5
ATOM      5  C   UNL     1      22.826  35.818  88.341  1.00  0.00     0.015 C 
BRANCH   5   6
ATOM      6  C   UNL     1      23.793  36.932  87.904  1.00  0.00     0.028 C 
BRANCH   6   7
ATOM      7  C   UNL     1      23.294  38.300  88.315  1.00  0.00    -0.028 C 
ATOM      8  C   UNL     1      22.613  39.184  87.546  1.00  0.00    -0.070 CG0
ATOM      9  C   UNL     1      22.216  40.497  88.174  1.00  0.00     0.039 C 
ATOM     10  G   UNL     1      22.251  38.950  86.093  1.00  0.00     0.000 G0
ENDBRANCH   6   7
ENDBRANCH   5   6
ENDBRANCH   3   5
ENDBRANCH   1   3
BRANCH   1  11
ATOM     11  C   UNL     1      20.296  36.195  86.820  1.00  0.00     0.087 C 
BRANCH  11  12
ATOM     12  C   UNL     1      20.377  37.085  85.550  1.00  0.00     0.066 C 
BRANCH  12  13
ATOM     13  C   UNL     1      20.813  38.499  85.930  1.00  0.00     0.140 C 
ATOM     14  O   UNL     1      19.938  39.335  86.103  1.00  0.00    -0.299 OA
BRANCH  13  15
ATOM     15  C   UNL     1      22.255  38.941  86.087  1.00  0.00     0.106 CG0
ATOM     16  G   UNL     1      22.598  39.194  87.542  1.00  0.00     0.000 G0
ENDBRANCH  13  15
ENDBRANCH  12  13
BRANCH  12  17
ATOM     17  C   UNL     1      19.147  37.003  84.585  1.00  0.00    -0.006 C 
ATOM     18  C   UNL     1      19.404  35.985  83.455  1.00  0.00     0.008 C 
ATOM     19  C   UNL     1      17.852  36.589  85.311  1.00  0.00     0.008 C 
ENDBRANCH  12  17
ENDBRANCH  11  12
ENDBRANCH   1  11
TORSDOF 1
ENDMDL
