MODEL 1
REMARK VINA RESULT:    -4.946      0.000      0.000
REMARK INTER + INTRA:          -4.946
REMARK INTER:                  -4.946
REMARK INTRA:                   0.000
REMARK UNBOUND:                 0.000
REMARK SMILES CC1=CC[C@]2(C)CCCC(C)(C)[C@@]23C[C@@H]13
REMARK SMILES IDX 1 1 2 2 3 3 4 4 5 5 7 6 8 7 9 8 10 9 13 10 15 11 14 12 11 13
REMARK SMILES IDX 12 14 6 15
REMARK H PARENT
REMARK Flexibility Score: inf
ROOT
ATOM      1  C   UNL     1      54.801  42.680  42.207  1.00  0.00     0.039 C 
ATOM      2  C   UNL     1      55.899  43.609  42.646  1.00  0.00    -0.074 C 
ATOM      3  C   UNL     1      55.626  44.911  42.772  1.00  0.00    -0.027 C 
ATOM      4  C   UNL     1      56.596  45.858  43.390  1.00  0.00     0.034 C 
ATOM      5  C   UNL     1      58.088  45.611  43.004  1.00  0.00    -0.022 C 
ATOM      6  C   UNL     1      58.414  46.303  41.639  1.00  0.00     0.008 C 
ATOM      7  C   UNL     1      58.403  45.324  40.459  1.00  0.00     0.001 C 
ATOM      8  C   UNL     1      59.507  44.253  40.579  1.00  0.00     0.007 C 
ATOM      9  C   UNL     1      59.723  43.683  42.026  1.00  0.00    -0.029 C 
ATOM     10  C   UNL     1      58.468  44.072  42.924  1.00  0.00    -0.012 C 
ATOM     11  C   UNL     1      57.302  43.063  42.783  1.00  0.00     0.022 C 
ATOM     12  C   UNL     1      58.016  43.222  44.123  1.00  0.00     0.017 C 
ATOM     13  C   UNL     1      60.007  42.154  41.903  1.00  0.00     0.012 C 
ATOM     14  C   UNL     1      61.011  44.296  42.633  1.00  0.00     0.012 C 
ATOM     15  C   UNL     1      58.907  46.310  44.125  1.00  0.00     0.012 C 
ENDROOT
TORSDOF 0
ENDMDL
MODEL 2
REMARK VINA RESULT:    -4.246     17.980     20.188
REMARK INTER + INTRA:          -4.246
REMARK INTER:                  -4.246
REMARK INTRA:                   0.000
REMARK UNBOUND:                 0.000
REMARK SMILES CC1=CC[C@]2(C)CCCC(C)(C)[C@@]23C[C@@H]13
REMARK SMILES IDX 1 1 2 2 3 3 4 4 5 5 7 6 8 7 9 8 10 9 13 10 15 11 14 12 11 13
REMARK SMILES IDX 12 14 6 15
REMARK H PARENT
REMARK Flexibility Score: inf
ROOT
ATOM      1  C   UNL     1      52.921  32.085  26.482  1.00  0.00     0.039 C 
ATOM      2  C   UNL     1      51.657  32.552  27.152  1.00  0.00    -0.074 C 
ATOM      3  C   UNL     1      51.492  33.859  27.371  1.00  0.00    -0.027 C 
ATOM      4  C   UNL     1      50.193  34.416  27.841  1.00  0.00     0.034 C 
ATOM      5  C   UNL     1      49.459  33.549  28.912  1.00  0.00    -0.022 C 
ATOM      6  C   UNL     1      50.015  33.869  30.339  1.00  0.00     0.008 C 
ATOM      7  C   UNL     1      51.029  32.829  30.829  1.00  0.00     0.001 C 
ATOM      8  C   UNL     1      50.395  31.434  31.007  1.00  0.00     0.007 C 
ATOM      9  C   UNL     1      49.377  31.020  29.885  1.00  0.00    -0.029 C 
ATOM     10  C   UNL     1      49.567  31.990  28.637  1.00  0.00    -0.012 C 
ATOM     11  C   UNL     1      50.692  31.517  27.684  1.00  0.00     0.022 C 
ATOM     12  C   UNL     1      49.245  31.554  27.197  1.00  0.00     0.017 C 
ATOM     13  C   UNL     1      49.580  29.503  29.587  1.00  0.00     0.012 C 
ATOM     14  C   UNL     1      47.932  31.146  30.430  1.00  0.00     0.012 C 
ATOM     15  C   UNL     1      47.975  34.006  28.841  1.00  0.00     0.012 C 
ENDROOT
TORSDOF 0
ENDMDL
MODEL 3
REMARK VINA RESULT:    -3.944     21.362     23.148
REMARK INTER + INTRA:          -3.944
REMARK INTER:                  -3.944
REMARK INTRA:                   0.000
REMARK UNBOUND:                 0.000
REMARK SMILES CC1=CC[C@]2(C)CCCC(C)(C)[C@@]23C[C@@H]13
REMARK SMILES IDX 1 1 2 2 3 3 4 4 5 5 7 6 8 7 9 8 10 9 13 10 15 11 14 12 11 13
REMARK SMILES IDX 12 14 6 15
REMARK H PARENT
REMARK Flexibility Score: inf
ROOT
ATOM      1  C   UNL     1      52.409  32.034  25.676  1.00  0.00     0.039 C 
ATOM      2  C   UNL     1      53.155  30.791  25.274  1.00  0.00    -0.074 C 
ATOM      3  C   UNL     1      52.497  29.829  24.621  1.00  0.00    -0.027 C 
ATOM      4  C   UNL     1      53.204  28.667  24.017  1.00  0.00     0.034 C 
ATOM      5  C   UNL     1      54.370  28.090  24.881  1.00  0.00    -0.022 C 
ATOM      6  C   UNL     1      53.809  27.087  25.943  1.00  0.00     0.008 C 
ATOM      7  C   UNL     1      53.670  27.712  27.336  1.00  0.00     0.001 C 
ATOM      8  C   UNL     1      55.034  28.122  27.931  1.00  0.00     0.007 C 
ATOM      9  C   UNL     1      56.032  28.775  26.910  1.00  0.00    -0.029 C 
ATOM     10  C   UNL     1      55.224  29.211  25.609  1.00  0.00    -0.012 C 
ATOM     11  C   UNL     1      54.578  30.610  25.754  1.00  0.00     0.022 C 
ATOM     12  C   UNL     1      55.671  30.379  24.714  1.00  0.00     0.017 C 
ATOM     13  C   UNL     1      56.786  29.927  27.644  1.00  0.00     0.012 C 
ATOM     14  C   UNL     1      57.123  27.744  26.526  1.00  0.00     0.012 C 
ATOM     15  C   UNL     1      55.257  27.305  23.875  1.00  0.00     0.012 C 
ENDROOT
TORSDOF 0
ENDMDL
MODEL 4
REMARK VINA RESULT:    -3.780     18.069     20.635
REMARK INTER + INTRA:          -3.780
REMARK INTER:                  -3.780
REMARK INTRA:                   0.000
REMARK UNBOUND:                 0.000
REMARK SMILES CC1=CC[C@]2(C)CCCC(C)(C)[C@@]23C[C@@H]13
REMARK SMILES IDX 1 1 2 2 3 3 4 4 5 5 7 6 8 7 9 8 10 9 13 10 15 11 14 12 11 13
REMARK SMILES IDX 12 14 6 15
REMARK H PARENT
REMARK Flexibility Score: inf
ROOT
ATOM      1  C   UNL     1      51.637  34.708  30.249  1.00  0.00     0.039 C 
ATOM      2  C   UNL     1      50.718  33.526  30.101  1.00  0.00    -0.074 C 
ATOM      3  C   UNL     1      50.858  32.494  30.938  1.00  0.00    -0.027 C 
ATOM      4  C   UNL     1      49.867  31.384  30.985  1.00  0.00     0.034 C 
ATOM      5  C   UNL     1      49.319  30.935  29.594  1.00  0.00    -0.022 C 
ATOM      6  C   UNL     1      50.303  29.913  28.932  1.00  0.00     0.008 C 
ATOM      7  C   UNL     1      51.209  30.558  27.878  1.00  0.00     0.001 C 
ATOM      8  C   UNL     1      50.411  31.102  26.675  1.00  0.00     0.007 C 
ATOM      9  C   UNL     1      49.062  31.816  27.043  1.00  0.00    -0.029 C 
ATOM     10  C   UNL     1      49.064  32.146  28.601  1.00  0.00    -0.012 C 
ATOM     11  C   UNL     1      49.772  33.485  28.922  1.00  0.00     0.022 C 
ATOM     12  C   UNL     1      48.278  33.327  29.194  1.00  0.00     0.017 C 
ATOM     13  C   UNL     1      48.897  33.049  26.101  1.00  0.00     0.012 C 
ATOM     14  C   UNL     1      47.876  30.877  26.709  1.00  0.00     0.012 C 
ATOM     15  C   UNL     1      47.983  30.208  29.910  1.00  0.00     0.012 C 
ENDROOT
TORSDOF 0
ENDMDL
MODEL 5
REMARK VINA RESULT:    -3.746     18.306     20.670
REMARK INTER + INTRA:          -3.746
REMARK INTER:                  -3.746
REMARK INTRA:                   0.000
REMARK UNBOUND:                 0.000
REMARK SMILES CC1=CC[C@]2(C)CCCC(C)(C)[C@@]23C[C@@H]13
REMARK SMILES IDX 1 1 2 2 3 3 4 4 5 5 7 6 8 7 9 8 10 9 13 10 15 11 14 12 11 13
REMARK SMILES IDX 12 14 6 15
REMARK H PARENT
REMARK Flexibility Score: inf
ROOT
ATOM      1  C   UNL     1      52.776  30.043  26.692  1.00  0.00     0.039 C 
ATOM      2  C   UNL     1      51.536  30.888  26.804  1.00  0.00    -0.074 C 
ATOM      3  C   UNL     1      51.144  31.598  25.741  1.00  0.00    -0.027 C 
ATOM      4  C   UNL     1      49.829  32.295  25.707  1.00  0.00     0.034 C 
ATOM      5  C   UNL     1      49.417  32.980  27.048  1.00  0.00    -0.022 C 
ATOM      6  C   UNL     1      50.070  34.398  27.153  1.00  0.00     0.008 C 
ATOM      7  C   UNL     1      51.321  34.413  28.038  1.00  0.00     0.001 C 
ATOM      8  C   UNL     1      51.001  34.068  29.507  1.00  0.00     0.007 C 
ATOM      9  C   UNL     1      49.955  32.914  29.704  1.00  0.00    -0.029 C 
ATOM     10  C   UNL     1      49.796  32.125  28.330  1.00  0.00    -0.012 C 
ATOM     11  C   UNL     1      50.867  31.021  28.153  1.00  0.00     0.022 C 
ATOM     12  C   UNL     1      49.392  30.642  28.273  1.00  0.00     0.017 C 
ATOM     13  C   UNL     1      50.415  32.050  30.919  1.00  0.00     0.012 C 
ATOM     14  C   UNL     1      48.591  33.521  30.120  1.00  0.00     0.012 C 
ATOM     15  C   UNL     1      47.875  33.147  26.949  1.00  0.00     0.012 C 
ENDROOT
TORSDOF 0
ENDMDL
MODEL 6
REMARK VINA RESULT:    -3.685     21.165     22.933
REMARK INTER + INTRA:          -3.685
REMARK INTER:                  -3.685
REMARK INTRA:                   0.000
REMARK UNBOUND:                 0.000
REMARK SMILES CC1=CC[C@]2(C)CCCC(C)(C)[C@@]23C[C@@H]13
REMARK SMILES IDX 1 1 2 2 3 3 4 4 5 5 7 6 8 7 9 8 10 9 13 10 15 11 14 12 11 13
REMARK SMILES IDX 12 14 6 15
REMARK H PARENT
REMARK Flexibility Score: inf
ROOT
ATOM      1  C   UNL     1      52.768  32.513  26.283  1.00  0.00     0.039 C 
ATOM      2  C   UNL     1      53.095  31.062  26.059  1.00  0.00    -0.074 C 
ATOM      3  C   UNL     1      52.496  30.143  26.822  1.00  0.00    -0.027 C 
ATOM      4  C   UNL     1      52.613  28.687  26.532  1.00  0.00     0.034 C 
ATOM      5  C   UNL     1      54.030  28.224  26.068  1.00  0.00    -0.022 C 
ATOM      6  C   UNL     1      54.946  27.962  27.309  1.00  0.00     0.008 C 
ATOM      7  C   UNL     1      55.901  29.125  27.599  1.00  0.00     0.001 C 
ATOM      8  C   UNL     1      56.917  29.345  26.458  1.00  0.00     0.007 C 
ATOM      9  C   UNL     1      56.327  29.199  25.010  1.00  0.00    -0.029 C 
ATOM     10  C   UNL     1      54.738  29.257  25.094  1.00  0.00    -0.012 C 
ATOM     11  C   UNL     1      54.197  30.707  25.085  1.00  0.00     0.022 C 
ATOM     12  C   UNL     1      53.869  29.764  23.931  1.00  0.00     0.017 C 
ATOM     13  C   UNL     1      56.987  30.289  24.110  1.00  0.00     0.012 C 
ATOM     14  C   UNL     1      56.770  27.841  24.408  1.00  0.00     0.012 C 
ATOM     15  C   UNL     1      53.785  26.875  25.336  1.00  0.00     0.012 C 
ENDROOT
TORSDOF 0
ENDMDL
MODEL 7
REMARK VINA RESULT:    -3.566      1.380      4.259
REMARK INTER + INTRA:          -3.566
REMARK INTER:                  -3.566
REMARK INTRA:                   0.000
REMARK UNBOUND:                 0.000
REMARK SMILES CC1=CC[C@]2(C)CCCC(C)(C)[C@@]23C[C@@H]13
REMARK SMILES IDX 1 1 2 2 3 3 4 4 5 5 7 6 8 7 9 8 10 9 13 10 15 11 14 12 11 13
REMARK SMILES IDX 12 14 6 15
REMARK H PARENT
REMARK Flexibility Score: inf
ROOT
ATOM      1  C   UNL     1      62.712  45.154  43.662  1.00  0.00     0.039 C 
ATOM      2  C   UNL     1      61.316  44.599  43.573  1.00  0.00    -0.074 C 
ATOM      3  C   UNL     1      61.139  43.281  43.710  1.00  0.00    -0.027 C 
ATOM      4  C   UNL     1      59.781  42.683  43.834  1.00  0.00     0.034 C 
ATOM      5  C   UNL     1      58.697  43.323  42.911  1.00  0.00    -0.022 C 
ATOM      6  C   UNL     1      58.756  42.681  41.484  1.00  0.00     0.008 C 
ATOM      7  C   UNL     1      59.505  43.553  40.471  1.00  0.00     0.001 C 
ATOM      8  C   UNL     1      58.793  44.898  40.218  1.00  0.00     0.007 C 
ATOM      9  C   UNL     1      58.194  45.582  41.498  1.00  0.00    -0.029 C 
ATOM     10  C   UNL     1      58.829  44.899  42.789  1.00  0.00    -0.012 C 
ATOM     11  C   UNL     1      60.188  45.528  43.184  1.00  0.00     0.022 C 
ATOM     12  C   UNL     1      58.990  45.648  44.123  1.00  0.00     0.017 C 
ATOM     13  C   UNL     1      58.424  47.119  41.376  1.00  0.00     0.012 C 
ATOM     14  C   UNL     1      56.656  45.392  41.510  1.00  0.00     0.012 C 
ATOM     15  C   UNL     1      57.342  42.946  43.571  1.00  0.00     0.012 C 
ENDROOT
TORSDOF 0
ENDMDL
MODEL 8
REMARK VINA RESULT:    -3.408     18.481     20.842
REMARK INTER + INTRA:          -3.408
REMARK INTER:                  -3.408
REMARK INTRA:                   0.000
REMARK UNBOUND:                 0.000
REMARK SMILES CC1=CC[C@]2(C)CCCC(C)(C)[C@@]23C[C@@H]13
REMARK SMILES IDX 1 1 2 2 3 3 4 4 5 5 7 6 8 7 9 8 10 9 13 10 15 11 14 12 11 13
REMARK SMILES IDX 12 14 6 15
REMARK H PARENT
REMARK Flexibility Score: inf
ROOT
ATOM      1  C   UNL     1      50.878  32.095  31.402  1.00  0.00     0.039 C 
ATOM      2  C   UNL     1      50.121  32.524  30.175  1.00  0.00    -0.074 C 
ATOM      3  C   UNL     1      48.789  32.618  30.242  1.00  0.00    -0.027 C 
ATOM      4  C   UNL     1      47.991  33.224  29.141  1.00  0.00     0.034 C 
ATOM      5  C   UNL     1      48.476  32.859  27.703  1.00  0.00    -0.022 C 
ATOM      6  C   UNL     1      47.876  31.482  27.265  1.00  0.00     0.008 C 
ATOM      7  C   UNL     1      48.869  30.324  27.420  1.00  0.00     0.001 C 
ATOM      8  C   UNL     1      50.095  30.478  26.497  1.00  0.00     0.007 C 
ATOM      9  C   UNL     1      50.658  31.940  26.382  1.00  0.00    -0.029 C 
ATOM     10  C   UNL     1      50.056  32.817  27.567  1.00  0.00    -0.012 C 
ATOM     11  C   UNL     1      50.875  32.687  28.875  1.00  0.00     0.022 C 
ATOM     12  C   UNL     1      50.798  34.030  28.153  1.00  0.00     0.017 C 
ATOM     13  C   UNL     1      52.215  31.854  26.340  1.00  0.00     0.012 C 
ATOM     14  C   UNL     1      50.239  32.546  25.019  1.00  0.00     0.012 C 
ATOM     15  C   UNL     1      47.887  33.972  26.792  1.00  0.00     0.012 C 
ENDROOT
TORSDOF 0
ENDMDL
