MODEL 1
REMARK VINA RESULT:    -5.004      0.000      0.000
REMARK INTER + INTRA:          -5.443
REMARK INTER:                  -5.443
REMARK INTRA:                   0.000
REMARK UNBOUND:                 0.000
REMARK SMILES Cc1cc(O)c2c(c1)C(=O)c1cc(O)cc(O)c1C2=O
REMARK SMILES IDX 1 1 2 2 8 3 7 4 6 5 4 6 3 7 19 8 20 9 18 10 11 11 9 12 10 13
REMARK SMILES IDX 12 14 13 15 15 16 16 17 5 18 17 20 14 22
REMARK H PARENT 5 19 17 21 14 23
REMARK Flexibility Score: inf
ROOT
ATOM      1  C   UNL     1      19.197  22.000   4.176  1.00  0.00     0.044 C 
ATOM      2  C   UNL     1      19.819  23.366   4.158  1.00  0.00    -0.047 A 
ATOM      3  C   UNL     1      20.986  23.617   4.888  1.00  0.00     0.016 A 
ATOM      4  C   UNL     1      21.561  24.900   4.900  1.00  0.00     0.038 A 
ATOM      5  C   UNL     1      20.957  25.947   4.170  1.00  0.00     0.076 A 
ATOM      6  C   UNL     1      19.729  25.706   3.501  1.00  0.00     0.127 A 
ATOM      7  C   UNL     1      19.187  24.417   3.487  1.00  0.00     0.050 A 
ATOM      8  C   UNL     1      21.672  27.247   4.085  1.00  0.00     0.201 C 
ATOM      9  O   UNL     1      21.530  27.976   3.067  1.00  0.00    -0.288 OA
ATOM     10  C   UNL     1      22.691  27.597   5.108  1.00  0.00     0.076 A 
ATOM     11  C   UNL     1      23.290  26.546   5.838  1.00  0.00     0.041 A 
ATOM     12  C   UNL     1      22.793  25.159   5.681  1.00  0.00     0.194 C 
ATOM     13  O   UNL     1      23.404  24.202   6.233  1.00  0.00    -0.289 OA
ATOM     14  C   UNL     1      24.354  26.822   6.715  1.00  0.00     0.059 A 
ATOM     15  C   UNL     1      24.813  28.128   6.883  1.00  0.00     0.120 A 
ATOM     16  C   UNL     1      24.197  29.176   6.194  1.00  0.00     0.093 A 
ATOM     17  C   UNL     1      23.124  28.930   5.331  1.00  0.00     0.131 A 
ENDROOT
BRANCH   6  18
ATOM     18  O   UNL     1      18.999  26.720   2.875  1.00  0.00    -0.507 OA
ATOM     19  H   UNL     1      18.036  26.932   3.095  1.00  0.00     0.293 HD
ENDBRANCH   6  18
BRANCH  17  20
ATOM     20  O   UNL     1      22.500  30.035   4.748  1.00  0.00    -0.507 OA
ATOM     21  H   UNL     1      21.505  30.205   4.795  1.00  0.00     0.293 HD
ENDBRANCH  17  20
BRANCH  15  22
ATOM     22  O   UNL     1      25.877  28.376   7.747  1.00  0.00    -0.508 OA
ATOM     23  H   UNL     1      26.805  28.590   7.400  1.00  0.00     0.293 HD
ENDBRANCH  15  22
TORSDOF 3
ENDMDL
MODEL 2
REMARK VINA RESULT:    -4.740      2.549      4.240
REMARK INTER + INTRA:          -5.155
REMARK INTER:                  -5.155
REMARK INTRA:                   0.000
REMARK UNBOUND:                 0.000
REMARK SMILES Cc1cc(O)c2c(c1)C(=O)c1cc(O)cc(O)c1C2=O
REMARK SMILES IDX 1 1 2 2 8 3 7 4 6 5 4 6 3 7 19 8 20 9 18 10 11 11 9 12 10 13
REMARK SMILES IDX 12 14 13 15 15 16 16 17 5 18 17 20 14 22
REMARK H PARENT 5 19 17 21 14 23
REMARK Flexibility Score: inf
ROOT
ATOM      1  C   UNL     1      26.239  23.530   7.027  1.00  0.00     0.044 C 
ATOM      2  C   UNL     1      25.381  24.487   6.254  1.00  0.00    -0.047 A 
ATOM      3  C   UNL     1      25.692  25.852   6.233  1.00  0.00     0.016 A 
ATOM      4  C   UNL     1      24.879  26.761   5.534  1.00  0.00     0.038 A 
ATOM      5  C   UNL     1      23.736  26.296   4.847  1.00  0.00     0.076 A 
ATOM      6  C   UNL     1      23.380  24.927   4.942  1.00  0.00     0.127 A 
ATOM      7  C   UNL     1      24.215  24.038   5.626  1.00  0.00     0.050 A 
ATOM      8  C   UNL     1      22.986  27.261   3.999  1.00  0.00     0.201 C 
ATOM      9  O   UNL     1      22.375  26.852   2.977  1.00  0.00    -0.288 OA
ATOM     10  C   UNL     1      23.114  28.719   4.251  1.00  0.00     0.076 A 
ATOM     11  C   UNL     1      24.258  29.179   4.943  1.00  0.00     0.041 A 
ATOM     12  C   UNL     1      25.212  28.205   5.523  1.00  0.00     0.194 C 
ATOM     13  O   UNL     1      26.296  28.607   6.029  1.00  0.00    -0.289 OA
ATOM     14  C   UNL     1      24.483  30.560   5.080  1.00  0.00     0.059 A 
ATOM     15  C   UNL     1      23.578  31.482   4.554  1.00  0.00     0.120 A 
ATOM     16  C   UNL     1      22.425  31.032   3.906  1.00  0.00     0.093 A 
ATOM     17  C   UNL     1      22.168  29.663   3.773  1.00  0.00     0.131 A 
ENDROOT
BRANCH   6  18
ATOM     18  O   UNL     1      22.193  24.416   4.409  1.00  0.00    -0.507 OA
ATOM     19  H   UNL     1      22.163  23.690   3.707  1.00  0.00     0.293 HD
ENDBRANCH   6  18
BRANCH  17  20
ATOM     20  O   UNL     1      20.953  29.289   3.195  1.00  0.00    -0.507 OA
ATOM     21  H   UNL     1      20.135  29.882   3.179  1.00  0.00     0.293 HD
ENDBRANCH  17  20
BRANCH  15  22
ATOM     22  O   UNL     1      23.829  32.845   4.691  1.00  0.00    -0.508 OA
ATOM     23  H   UNL     1      23.703  33.488   3.919  1.00  0.00     0.293 HD
ENDBRANCH  15  22
TORSDOF 3
ENDMDL
MODEL 3
REMARK VINA RESULT:    -4.687      1.878      6.040
REMARK INTER + INTRA:          -5.098
REMARK INTER:                  -5.098
REMARK INTRA:                   0.000
REMARK UNBOUND:                 0.000
REMARK SMILES Cc1cc(O)c2c(c1)C(=O)c1cc(O)cc(O)c1C2=O
REMARK SMILES IDX 1 1 2 2 8 3 7 4 6 5 4 6 3 7 19 8 20 9 18 10 11 11 9 12 10 13
REMARK SMILES IDX 12 14 13 15 15 16 16 17 5 18 17 20 14 22
REMARK H PARENT 5 19 17 21 14 23
REMARK Flexibility Score: inf
ROOT
ATOM      1  C   UNL     1      22.707  32.483   3.452  1.00  0.00     0.044 C 
ATOM      2  C   UNL     1      22.964  31.106   3.989  1.00  0.00    -0.047 A 
ATOM      3  C   UNL     1      22.118  30.046   3.643  1.00  0.00     0.016 A 
ATOM      4  C   UNL     1      22.334  28.758   4.164  1.00  0.00     0.038 A 
ATOM      5  C   UNL     1      23.414  28.529   5.045  1.00  0.00     0.076 A 
ATOM      6  C   UNL     1      24.216  29.624   5.457  1.00  0.00     0.127 A 
ATOM      7  C   UNL     1      23.993  30.891   4.911  1.00  0.00     0.050 A 
ATOM      8  C   UNL     1      23.699  27.129   5.456  1.00  0.00     0.201 C 
ATOM      9  O   UNL     1      24.880  26.783   5.726  1.00  0.00    -0.288 OA
ATOM     10  C   UNL     1      22.630  26.101   5.368  1.00  0.00     0.076 A 
ATOM     11  C   UNL     1      21.550  26.337   4.488  1.00  0.00     0.041 A 
ATOM     12  C   UNL     1      21.429  27.643   3.798  1.00  0.00     0.194 C 
ATOM     13  O   UNL     1      20.541  27.813   2.918  1.00  0.00    -0.289 OA
ATOM     14  C   UNL     1      20.591  25.331   4.273  1.00  0.00     0.059 A 
ATOM     15  C   UNL     1      20.687  24.107   4.934  1.00  0.00     0.120 A 
ATOM     16  C   UNL     1      21.731  23.885   5.836  1.00  0.00     0.093 A 
ATOM     17  C   UNL     1      22.686  24.876   6.083  1.00  0.00     0.131 A 
ENDROOT
BRANCH   6  18
ATOM     18  O   UNL     1      25.212  29.506   6.430  1.00  0.00    -0.507 OA
ATOM     19  H   UNL     1      25.443  28.636   6.890  1.00  0.00     0.293 HD
ENDBRANCH   6  18
BRANCH  17  20
ATOM     20  O   UNL     1      23.646  24.617   7.064  1.00  0.00    -0.507 OA
ATOM     21  H   UNL     1      24.565  24.247   6.863  1.00  0.00     0.293 HD
ENDBRANCH  17  20
BRANCH  15  22
ATOM     22  O   UNL     1      19.733  23.121   4.695  1.00  0.00    -0.508 OA
ATOM     23  H   UNL     1      19.740  22.243   5.202  1.00  0.00     0.293 HD
ENDBRANCH  15  22
TORSDOF 3
ENDMDL
MODEL 4
REMARK VINA RESULT:    -4.644      2.781      5.361
REMARK INTER + INTRA:          -5.052
REMARK INTER:                  -5.052
REMARK INTRA:                   0.000
REMARK UNBOUND:                 0.000
REMARK SMILES Cc1cc(O)c2c(c1)C(=O)c1cc(O)cc(O)c1C2=O
REMARK SMILES IDX 1 1 2 2 8 3 7 4 6 5 4 6 3 7 19 8 20 9 18 10 11 11 9 12 10 13
REMARK SMILES IDX 12 14 13 15 15 16 16 17 5 18 17 20 14 22
REMARK H PARENT 5 19 17 21 14 23
REMARK Flexibility Score: inf
ROOT
ATOM      1  C   UNL     1      23.981  32.131   4.009  1.00  0.00     0.044 C 
ATOM      2  C   UNL     1      23.753  30.702   4.407  1.00  0.00    -0.047 A 
ATOM      3  C   UNL     1      24.791  29.957   4.979  1.00  0.00     0.016 A 
ATOM      4  C   UNL     1      24.596  28.610   5.328  1.00  0.00     0.038 A 
ATOM      5  C   UNL     1      23.343  27.999   5.101  1.00  0.00     0.076 A 
ATOM      6  C   UNL     1      22.323  28.735   4.445  1.00  0.00     0.127 A 
ATOM      7  C   UNL     1      22.534  30.079   4.124  1.00  0.00     0.050 A 
ATOM      8  C   UNL     1      23.129  26.622   5.619  1.00  0.00     0.201 C 
ATOM      9  O   UNL     1      21.975  26.255   5.965  1.00  0.00    -0.288 OA
ATOM     10  C   UNL     1      24.298  25.750   5.901  1.00  0.00     0.076 A 
ATOM     11  C   UNL     1      25.550  26.365   6.124  1.00  0.00     0.041 A 
ATOM     12  C   UNL     1      25.702  27.826   5.927  1.00  0.00     0.194 C 
ATOM     13  O   UNL     1      26.781  28.398   6.246  1.00  0.00    -0.289 OA
ATOM     14  C   UNL     1      26.649  25.587   6.529  1.00  0.00     0.059 A 
ATOM     15  C   UNL     1      26.518  24.209   6.697  1.00  0.00     0.120 A 
ATOM     16  C   UNL     1      25.292  23.590   6.438  1.00  0.00     0.093 A 
ATOM     17  C   UNL     1      24.189  24.339   6.015  1.00  0.00     0.131 A 
ENDROOT
BRANCH   6  18
ATOM     18  O   UNL     1      21.108  28.162   4.060  1.00  0.00    -0.507 OA
ATOM     19  H   UNL     1      20.432  27.793   4.715  1.00  0.00     0.293 HD
ENDBRANCH   6  18
BRANCH  17  20
ATOM     20  O   UNL     1      23.024  23.642   5.688  1.00  0.00    -0.507 OA
ATOM     21  H   UNL     1      22.841  22.692   5.979  1.00  0.00     0.293 HD
ENDBRANCH  17  20
BRANCH  15  22
ATOM     22  O   UNL     1      27.617  23.460   7.111  1.00  0.00    -0.508 OA
ATOM     23  H   UNL     1      28.049  23.607   8.016  1.00  0.00     0.293 HD
ENDBRANCH  15  22
TORSDOF 3
ENDMDL
MODEL 5
REMARK VINA RESULT:    -4.544      1.691      5.619
REMARK INTER + INTRA:          -4.943
REMARK INTER:                  -4.943
REMARK INTRA:                   0.000
REMARK UNBOUND:                 0.000
REMARK SMILES Cc1cc(O)c2c(c1)C(=O)c1cc(O)cc(O)c1C2=O
REMARK SMILES IDX 1 1 2 2 8 3 7 4 6 5 4 6 3 7 19 8 20 9 18 10 11 11 9 12 10 13
REMARK SMILES IDX 12 14 13 15 15 16 16 17 5 18 17 20 14 22
REMARK H PARENT 5 19 17 21 14 23
REMARK Flexibility Score: inf
ROOT
ATOM      1  C   UNL     1      26.966  27.751   6.943  1.00  0.00     0.044 C 
ATOM      2  C   UNL     1      25.576  27.418   6.487  1.00  0.00    -0.047 A 
ATOM      3  C   UNL     1      25.210  26.086   6.262  1.00  0.00     0.016 A 
ATOM      4  C   UNL     1      23.919  25.766   5.807  1.00  0.00     0.038 A 
ATOM      5  C   UNL     1      22.980  26.795   5.574  1.00  0.00     0.076 A 
ATOM      6  C   UNL     1      23.385  28.147   5.723  1.00  0.00     0.127 A 
ATOM      7  C   UNL     1      24.668  28.440   6.195  1.00  0.00     0.050 A 
ATOM      8  C   UNL     1      21.584  26.410   5.238  1.00  0.00     0.201 C 
ATOM      9  O   UNL     1      20.630  27.162   5.571  1.00  0.00    -0.288 OA
ATOM     10  C   UNL     1      21.304  25.062   4.682  1.00  0.00     0.076 A 
ATOM     11  C   UNL     1      22.247  24.035   4.915  1.00  0.00     0.041 A 
ATOM     12  C   UNL     1      23.541  24.353   5.564  1.00  0.00     0.194 C 
ATOM     13  O   UNL     1      24.331  23.423   5.888  1.00  0.00    -0.289 OA
ATOM     14  C   UNL     1      21.955  22.716   4.526  1.00  0.00     0.059 A 
ATOM     15  C   UNL     1      20.749  22.414   3.896  1.00  0.00     0.120 A 
ATOM     16  C   UNL     1      19.830  23.432   3.627  1.00  0.00     0.093 A 
ATOM     17  C   UNL     1      20.105  24.755   3.986  1.00  0.00     0.131 A 
ENDROOT
BRANCH   6  18
ATOM     18  O   UNL     1      22.562  29.223   5.379  1.00  0.00    -0.507 OA
ATOM     19  H   UNL     1      22.172  29.355   4.456  1.00  0.00     0.293 HD
ENDBRANCH   6  18
BRANCH  17  20
ATOM     20  O   UNL     1      19.183  25.732   3.604  1.00  0.00    -0.507 OA
ATOM     21  H   UNL     1      18.240  25.781   3.963  1.00  0.00     0.293 HD
ENDBRANCH  17  20
BRANCH  15  22
ATOM     22  O   UNL     1      20.476  21.098   3.530  1.00  0.00    -0.508 OA
ATOM     23  H   UNL     1      19.729  20.870   2.884  1.00  0.00     0.293 HD
ENDBRANCH  15  22
TORSDOF 3
ENDMDL
MODEL 6
REMARK VINA RESULT:    -4.391      1.568      3.832
REMARK INTER + INTRA:          -4.776
REMARK INTER:                  -4.776
REMARK INTRA:                   0.000
REMARK UNBOUND:                 0.000
REMARK SMILES Cc1cc(O)c2c(c1)C(=O)c1cc(O)cc(O)c1C2=O
REMARK SMILES IDX 1 1 2 2 8 3 7 4 6 5 4 6 3 7 19 8 20 9 18 10 11 11 9 12 10 13
REMARK SMILES IDX 12 14 13 15 15 16 16 17 5 18 17 20 14 22
REMARK H PARENT 5 19 17 21 14 23
REMARK Flexibility Score: inf
ROOT
ATOM      1  C   UNL     1      20.397  22.718   4.749  1.00  0.00     0.044 C 
ATOM      2  C   UNL     1      21.270  23.905   5.030  1.00  0.00    -0.047 A 
ATOM      3  C   UNL     1      20.950  25.157   4.493  1.00  0.00     0.016 A 
ATOM      4  C   UNL     1      21.777  26.269   4.727  1.00  0.00     0.038 A 
ATOM      5  C   UNL     1      22.943  26.125   5.510  1.00  0.00     0.076 A 
ATOM      6  C   UNL     1      23.306  24.837   5.980  1.00  0.00     0.127 A 
ATOM      7  C   UNL     1      22.458  23.750   5.751  1.00  0.00     0.050 A 
ATOM      8  C   UNL     1      23.710  27.350   5.859  1.00  0.00     0.201 C 
ATOM      9  O   UNL     1      24.355  27.399   6.940  1.00  0.00    -0.288 OA
ATOM     10  C   UNL     1      23.564  28.573   5.029  1.00  0.00     0.076 A 
ATOM     11  C   UNL     1      22.397  28.712   4.245  1.00  0.00     0.041 A 
ATOM     12  C   UNL     1      21.434  27.590   4.149  1.00  0.00     0.194 C 
ATOM     13  O   UNL     1      20.332  27.753   3.554  1.00  0.00    -0.289 OA
ATOM     14  C   UNL     1      22.158  29.913   3.554  1.00  0.00     0.059 A 
ATOM     15  C   UNL     1      23.071  30.965   3.624  1.00  0.00     0.120 A 
ATOM     16  C   UNL     1      24.246  30.818   4.365  1.00  0.00     0.093 A 
ATOM     17  C   UNL     1      24.517  29.626   5.045  1.00  0.00     0.131 A 
ENDROOT
BRANCH   6  18
ATOM     18  O   UNL     1      24.512  24.587   6.641  1.00  0.00    -0.507 OA
ATOM     19  H   UNL     1      24.595  24.521   7.646  1.00  0.00     0.293 HD
ENDBRANCH   6  18
BRANCH  17  20
ATOM     20  O   UNL     1      25.751  29.518   5.689  1.00  0.00    -0.507 OA
ATOM     21  H   UNL     1      26.129  30.231   6.298  1.00  0.00     0.293 HD
ENDBRANCH  17  20
BRANCH  15  22
ATOM     22  O   UNL     1      22.806  32.150   2.942  1.00  0.00    -0.508 OA
ATOM     23  H   UNL     1      22.218  32.168   2.117  1.00  0.00     0.293 HD
ENDBRANCH  15  22
TORSDOF 3
ENDMDL
MODEL 7
REMARK VINA RESULT:    -4.344      1.449      3.489
REMARK INTER + INTRA:          -4.725
REMARK INTER:                  -4.725
REMARK INTRA:                   0.000
REMARK UNBOUND:                 0.000
REMARK SMILES Cc1cc(O)c2c(c1)C(=O)c1cc(O)cc(O)c1C2=O
REMARK SMILES IDX 1 1 2 2 8 3 7 4 6 5 4 6 3 7 19 8 20 9 18 10 11 11 9 12 10 13
REMARK SMILES IDX 12 14 13 15 15 16 16 17 5 18 17 20 14 22
REMARK H PARENT 5 19 17 21 14 23
REMARK Flexibility Score: inf
ROOT
ATOM      1  C   UNL     1      19.770  21.741   3.375  1.00  0.00     0.044 C 
ATOM      2  C   UNL     1      20.857  22.541   4.031  1.00  0.00    -0.047 A 
ATOM      3  C   UNL     1      20.706  23.922   4.205  1.00  0.00     0.016 A 
ATOM      4  C   UNL     1      21.730  24.684   4.792  1.00  0.00     0.038 A 
ATOM      5  C   UNL     1      22.923  24.055   5.211  1.00  0.00     0.076 A 
ATOM      6  C   UNL     1      23.103  22.672   4.955  1.00  0.00     0.127 A 
ATOM      7  C   UNL     1      22.062  21.930   4.387  1.00  0.00     0.050 A 
ATOM      8  C   UNL     1      23.919  24.866   5.961  1.00  0.00     0.201 C 
ATOM      9  O   UNL     1      24.662  24.313   6.815  1.00  0.00    -0.288 OA
ATOM     10  C   UNL     1      23.908  26.346   5.839  1.00  0.00     0.076 A 
ATOM     11  C   UNL     1      22.713  26.971   5.416  1.00  0.00     0.041 A 
ATOM     12  C   UNL     1      21.566  26.147   4.967  1.00  0.00     0.194 C 
ATOM     13  O   UNL     1      20.457  26.694   4.710  1.00  0.00    -0.289 OA
ATOM     14  C   UNL     1      22.619  28.374   5.420  1.00  0.00     0.059 A 
ATOM     15  C   UNL     1      23.701  29.156   5.821  1.00  0.00     0.120 A 
ATOM     16  C   UNL     1      24.898  28.544   6.201  1.00  0.00     0.093 A 
ATOM     17  C   UNL     1      25.024  27.151   6.188  1.00  0.00     0.131 A 
ENDROOT
BRANCH   6  18
ATOM     18  O   UNL     1      24.305  22.007   5.211  1.00  0.00    -0.507 OA
ATOM     19  H   UNL     1      24.702  21.907   6.135  1.00  0.00     0.293 HD
ENDBRANCH   6  18
BRANCH  17  20
ATOM     20  O   UNL     1      26.277  26.614   6.491  1.00  0.00    -0.507 OA
ATOM     21  H   UNL     1      27.126  27.161   6.527  1.00  0.00     0.293 HD
ENDBRANCH  17  20
BRANCH  15  22
ATOM     22  O   UNL     1      23.581  30.544   5.829  1.00  0.00    -0.508 OA
ATOM     23  H   UNL     1      23.541  31.068   6.696  1.00  0.00     0.293 HD
ENDBRANCH  15  22
TORSDOF 3
ENDMDL
MODEL 8
REMARK VINA RESULT:    -4.237      2.307      6.013
REMARK INTER + INTRA:          -4.609
REMARK INTER:                  -4.609
REMARK INTRA:                   0.000
REMARK UNBOUND:                 0.000
REMARK SMILES Cc1cc(O)c2c(c1)C(=O)c1cc(O)cc(O)c1C2=O
REMARK SMILES IDX 1 1 2 2 8 3 7 4 6 5 4 6 3 7 19 8 20 9 18 10 11 11 9 12 10 13
REMARK SMILES IDX 12 14 13 15 15 16 16 17 5 18 17 20 14 22
REMARK H PARENT 5 19 17 21 14 23
REMARK Flexibility Score: inf
ROOT
ATOM      1  C   UNL     1      27.485  27.976   6.737  1.00  0.00     0.044 C 
ATOM      2  C   UNL     1      26.170  27.303   6.475  1.00  0.00    -0.047 A 
ATOM      3  C   UNL     1      26.125  25.933   6.194  1.00  0.00     0.016 A 
ATOM      4  C   UNL     1      24.901  25.299   5.919  1.00  0.00     0.038 A 
ATOM      5  C   UNL     1      23.704  26.049   5.925  1.00  0.00     0.076 A 
ATOM      6  C   UNL     1      23.767  27.452   6.127  1.00  0.00     0.127 A 
ATOM      7  C   UNL     1      24.994  28.056   6.418  1.00  0.00     0.050 A 
ATOM      8  C   UNL     1      22.417  25.319   5.778  1.00  0.00     0.201 C 
ATOM      9  O   UNL     1      21.374  25.773   6.319  1.00  0.00    -0.288 OA
ATOM     10  C   UNL     1      22.401  23.970   5.156  1.00  0.00     0.076 A 
ATOM     11  C   UNL     1      23.601  23.225   5.149  1.00  0.00     0.041 A 
ATOM     12  C   UNL     1      24.862  23.849   5.615  1.00  0.00     0.194 C 
ATOM     13  O   UNL     1      25.908  23.151   5.730  1.00  0.00    -0.289 OA
ATOM     14  C   UNL     1      23.595  21.894   4.696  1.00  0.00     0.059 A 
ATOM     15  C   UNL     1      22.416  21.307   4.237  1.00  0.00     0.120 A 
ATOM     16  C   UNL     1      21.235  22.053   4.204  1.00  0.00     0.093 A 
ATOM     17  C   UNL     1      21.219  23.385   4.631  1.00  0.00     0.131 A 
ENDROOT
BRANCH   6  18
ATOM     18  O   UNL     1      22.650  28.282   6.011  1.00  0.00    -0.507 OA
ATOM     19  H   UNL     1      22.705  29.262   5.770  1.00  0.00     0.293 HD
ENDBRANCH   6  18
BRANCH  17  20
ATOM     20  O   UNL     1      20.026  24.095   4.483  1.00  0.00    -0.507 OA
ATOM     21  H   UNL     1      19.730  24.829   5.112  1.00  0.00     0.293 HD
ENDBRANCH  17  20
BRANCH  15  22
ATOM     22  O   UNL     1      22.431  19.983   3.805  1.00  0.00    -0.508 OA
ATOM     23  H   UNL     1      22.142  19.727   2.868  1.00  0.00     0.293 HD
ENDBRANCH  15  22
TORSDOF 3
ENDMDL
MODEL 9
REMARK VINA RESULT:    -4.177      1.629      2.237
REMARK INTER + INTRA:          -4.543
REMARK INTER:                  -4.543
REMARK INTRA:                   0.000
REMARK UNBOUND:                 0.000
REMARK SMILES Cc1cc(O)c2c(c1)C(=O)c1cc(O)cc(O)c1C2=O
REMARK SMILES IDX 1 1 2 2 8 3 7 4 6 5 4 6 3 7 19 8 20 9 18 10 11 11 9 12 10 13
REMARK SMILES IDX 12 14 13 15 15 16 16 17 5 18 17 20 14 22
REMARK H PARENT 5 19 17 21 14 23
REMARK Flexibility Score: inf
ROOT
ATOM      1  C   UNL     1      18.322  20.516   2.894  1.00  0.00     0.044 C 
ATOM      2  C   UNL     1      18.929  21.841   3.248  1.00  0.00    -0.047 A 
ATOM      3  C   UNL     1      20.274  21.920   3.627  1.00  0.00     0.016 A 
ATOM      4  C   UNL     1      20.845  23.153   3.988  1.00  0.00     0.038 A 
ATOM      5  C   UNL     1      20.056  24.324   3.969  1.00  0.00     0.076 A 
ATOM      6  C   UNL     1      18.674  24.224   3.667  1.00  0.00     0.127 A 
ATOM      7  C   UNL     1      18.134  22.990   3.292  1.00  0.00     0.050 A 
ATOM      8  C   UNL     1      20.729  25.628   4.212  1.00  0.00     0.201 C 
ATOM      9  O   UNL     1      20.279  26.675   3.676  1.00  0.00    -0.288 OA
ATOM     10  C   UNL     1      22.031  25.664   4.927  1.00  0.00     0.076 A 
ATOM     11  C   UNL     1      22.815  24.489   4.946  1.00  0.00     0.041 A 
ATOM     12  C   UNL     1      22.268  23.227   4.394  1.00  0.00     0.194 C 
ATOM     13  O   UNL     1      23.008  22.208   4.293  1.00  0.00    -0.289 OA
ATOM     14  C   UNL     1      24.110  24.521   5.492  1.00  0.00     0.059 A 
ATOM     15  C   UNL     1      24.623  25.700   6.031  1.00  0.00     0.120 A 
ATOM     16  C   UNL     1      23.836  26.855   6.052  1.00  0.00     0.093 A 
ATOM     17  C   UNL     1      22.537  26.844   5.533  1.00  0.00     0.131 A 
ENDROOT
BRANCH   6  18
ATOM     18  O   UNL     1      17.800  25.309   3.763  1.00  0.00    -0.507 OA
ATOM     19  H   UNL     1      16.795  25.224   3.700  1.00  0.00     0.293 HD
ENDBRANCH   6  18
BRANCH  17  20
ATOM     20  O   UNL     1      21.778  28.008   5.671  1.00  0.00    -0.507 OA
ATOM     21  H   UNL     1      21.780  28.760   4.995  1.00  0.00     0.293 HD
ENDBRANCH  17  20
BRANCH  15  22
ATOM     22  O   UNL     1      25.914  25.712   6.555  1.00  0.00    -0.508 OA
ATOM     23  H   UNL     1      26.483  24.874   6.580  1.00  0.00     0.293 HD
ENDBRANCH  15  22
TORSDOF 3
ENDMDL
