MODEL 1
REMARK VINA RESULT:    -3.155      0.000      0.000
REMARK INTER + INTRA:          -3.747
REMARK INTER:                  -3.709
REMARK INTRA:                  -0.039
REMARK UNBOUND:                -0.039
REMARK SMILES O=c1c(O)c(-c2ccc(O)c(O)c2)oc2cc(O)ccc12
REMARK SMILES IDX 5 1 3 2 2 3 1 4 21 5 15 6 14 7 16 8 17 9 19 10 20 11 6 12
REMARK SMILES IDX 7 13 8 14 9 15 13 16 11 17 10 18 12 20 4 22 18 24
REMARK H PARENT 10 19 12 21 4 23 18 25
REMARK Flexibility Score: inf
ROOT
ATOM      1  C   UNL     1     -19.024   9.430  26.263  1.00  0.00     0.180 A 
ATOM      2  C   UNL     1     -17.629   9.489  26.466  1.00  0.00     0.208 A 
ATOM      3  C   UNL     1     -16.792   9.694  25.358  1.00  0.00     0.235 A 
ATOM      4  O   UNL     1     -15.542   9.763  25.516  1.00  0.00    -0.285 OA
ATOM      5  C   UNL     1     -17.357   9.813  24.079  1.00  0.00     0.069 A 
ATOM      6  C   UNL     1     -18.760   9.717  23.955  1.00  0.00     0.142 A 
ATOM      7  O   UNL     1     -19.517   9.532  25.030  1.00  0.00    -0.452 OA
ATOM      8  C   UNL     1     -19.361   9.821  22.695  1.00  0.00     0.094 A 
ATOM      9  C   UNL     1     -18.574  10.021  21.553  1.00  0.00     0.119 A 
ATOM     10  C   UNL     1     -17.184  10.117  21.673  1.00  0.00     0.047 A 
ATOM     11  C   UNL     1     -16.574  10.014  22.927  1.00  0.00     0.020 A 
ENDROOT
BRANCH   1  12
ATOM     12  C   UNL     1     -19.973   9.234  27.381  1.00  0.00     0.025 A 
ATOM     13  C   UNL     1     -21.039  10.123  27.599  1.00  0.00     0.016 A 
ATOM     14  C   UNL     1     -21.937   9.905  28.645  1.00  0.00     0.051 A 
ATOM     15  C   UNL     1     -21.799   8.794  29.485  1.00  0.00     0.157 A 
ATOM     16  C   UNL     1     -19.846   8.108  28.208  1.00  0.00     0.062 A 
ATOM     17  C   UNL     1     -20.742   7.881  29.261  1.00  0.00     0.158 A 
BRANCH  15  18
ATOM     18  O   UNL     1     -22.727   8.636  30.516  1.00  0.00    -0.504 OA
ATOM     19  H   UNL     1     -23.579   8.101  30.431  1.00  0.00     0.293 HD
ENDBRANCH  15  18
BRANCH  17  20
ATOM     20  O   UNL     1     -20.545   6.746  30.050  1.00  0.00    -0.504 OA
ATOM     21  H   UNL     1     -20.153   5.880  29.707  1.00  0.00     0.293 HD
ENDBRANCH  17  20
ENDBRANCH   1  12
BRANCH   2  22
ATOM     22  O   UNL     1     -17.093   9.320  27.745  1.00  0.00    -0.502 OA
ATOM     23  H   UNL     1     -17.051   8.415  28.199  1.00  0.00     0.293 HD
ENDBRANCH   2  22
BRANCH   9  24
ATOM     24  O   UNL     1     -19.163  10.125  20.295  1.00  0.00    -0.508 OA
ATOM     25  H   UNL     1     -18.824  10.785  19.605  1.00  0.00     0.293 HD
ENDBRANCH   9  24
TORSDOF 5
ENDMDL
MODEL 2
REMARK VINA RESULT:    -1.988      1.607      6.557
REMARK INTER + INTRA:          -2.375
REMARK INTER:                  -2.907
REMARK INTRA:                   0.532
REMARK UNBOUND:                -0.039
REMARK SMILES O=c1c(O)c(-c2ccc(O)c(O)c2)oc2cc(O)ccc12
REMARK SMILES IDX 5 1 3 2 2 3 1 4 21 5 15 6 14 7 16 8 17 9 19 10 20 11 6 12
REMARK SMILES IDX 7 13 8 14 9 15 13 16 11 17 10 18 12 20 4 22 18 24
REMARK H PARENT 10 19 12 21 4 23 18 25
REMARK Flexibility Score: inf
ROOT
ATOM      1  C   UNL     1     -18.993   9.375  26.914  1.00  0.00     0.180 A 
ATOM      2  C   UNL     1     -18.425   8.910  28.119  1.00  0.00     0.208 A 
ATOM      3  C   UNL     1     -19.254   8.754  29.240  1.00  0.00     0.235 A 
ATOM      4  O   UNL     1     -18.772   8.328  30.327  1.00  0.00    -0.285 OA
ATOM      5  C   UNL     1     -20.615   9.082  29.144  1.00  0.00     0.069 A 
ATOM      6  C   UNL     1     -21.101   9.565  27.911  1.00  0.00     0.142 A 
ATOM      7  O   UNL     1     -20.286   9.689  26.870  1.00  0.00    -0.452 OA
ATOM      8  C   UNL     1     -22.451   9.912  27.777  1.00  0.00     0.094 A 
ATOM      9  C   UNL     1     -23.324   9.781  28.865  1.00  0.00     0.119 A 
ATOM     10  C   UNL     1     -22.845   9.302  30.090  1.00  0.00     0.047 A 
ATOM     11  C   UNL     1     -21.498   8.953  30.233  1.00  0.00     0.020 A 
ENDROOT
BRANCH   1  12
ATOM     12  C   UNL     1     -18.190   9.549  25.683  1.00  0.00     0.025 A 
ATOM     13  C   UNL     1     -18.786   9.929  24.469  1.00  0.00     0.016 A 
ATOM     14  C   UNL     1     -18.005  10.111  23.326  1.00  0.00     0.051 A 
ATOM     15  C   UNL     1     -16.618   9.931  23.373  1.00  0.00     0.157 A 
ATOM     16  C   UNL     1     -16.797   9.389  25.737  1.00  0.00     0.062 A 
ATOM     17  C   UNL     1     -16.005   9.569  24.596  1.00  0.00     0.158 A 
BRANCH  15  18
ATOM     18  O   UNL     1     -15.896  10.124  22.194  1.00  0.00    -0.504 OA
ATOM     19  H   UNL     1     -14.901   9.968  22.109  1.00  0.00     0.293 HD
ENDBRANCH  15  18
BRANCH  17  20
ATOM     20  O   UNL     1     -14.627   9.381  24.722  1.00  0.00    -0.504 OA
ATOM     21  H   UNL     1     -14.038   9.918  25.343  1.00  0.00     0.293 HD
ENDBRANCH  17  20
ENDBRANCH   1  12
BRANCH   2  22
ATOM     22  O   UNL     1     -17.057   8.637  28.197  1.00  0.00    -0.502 OA
ATOM     23  H   UNL     1     -16.354   9.305  27.907  1.00  0.00     0.293 HD
ENDBRANCH   2  22
BRANCH   9  24
ATOM     24  O   UNL     1     -24.668  10.125  28.742  1.00  0.00    -0.508 OA
ATOM     25  H   UNL     1     -25.342   9.894  29.463  1.00  0.00     0.293 HD
ENDBRANCH   9  24
TORSDOF 5
ENDMDL
MODEL 3
REMARK VINA RESULT:    -1.850      1.576      6.630
REMARK INTER + INTRA:          -2.213
REMARK INTER:                  -2.621
REMARK INTRA:                   0.408
REMARK UNBOUND:                -0.039
REMARK SMILES O=c1c(O)c(-c2ccc(O)c(O)c2)oc2cc(O)ccc12
REMARK SMILES IDX 5 1 3 2 2 3 1 4 21 5 15 6 14 7 16 8 17 9 19 10 20 11 6 12
REMARK SMILES IDX 7 13 8 14 9 15 13 16 11 17 10 18 12 20 4 22 18 24
REMARK H PARENT 10 19 12 21 4 23 18 25
REMARK Flexibility Score: inf
ROOT
ATOM      1  C   UNL     1     -18.945   9.419  26.929  1.00  0.00     0.180 A 
ATOM      2  C   UNL     1     -18.398   8.924  28.132  1.00  0.00     0.208 A 
ATOM      3  C   UNL     1     -19.246   8.740  29.235  1.00  0.00     0.235 A 
ATOM      4  O   UNL     1     -18.783   8.287  30.318  1.00  0.00    -0.285 OA
ATOM      5  C   UNL     1     -20.606   9.071  29.123  1.00  0.00     0.069 A 
ATOM      6  C   UNL     1     -21.070   9.584  27.894  1.00  0.00     0.142 A 
ATOM      7  O   UNL     1     -20.237   9.734  26.871  1.00  0.00    -0.452 OA
ATOM      8  C   UNL     1     -22.417   9.935  27.746  1.00  0.00     0.094 A 
ATOM      9  C   UNL     1     -23.309   9.778  28.815  1.00  0.00     0.119 A 
ATOM     10  C   UNL     1     -22.851   9.269  30.035  1.00  0.00     0.047 A 
ATOM     11  C   UNL     1     -21.507   8.916  30.193  1.00  0.00     0.020 A 
ENDROOT
BRANCH   1  12
ATOM     12  C   UNL     1     -18.121   9.623  25.717  1.00  0.00     0.025 A 
ATOM     13  C   UNL     1     -16.719   9.666  25.784  1.00  0.00     0.016 A 
ATOM     14  C   UNL     1     -15.962   9.835  24.623  1.00  0.00     0.051 A 
ATOM     15  C   UNL     1     -16.584   9.952  23.375  1.00  0.00     0.157 A 
ATOM     16  C   UNL     1     -18.746   9.718  24.464  1.00  0.00     0.062 A 
ATOM     17  C   UNL     1     -17.995   9.888  23.294  1.00  0.00     0.158 A 
BRANCH  15  18
ATOM     18  O   UNL     1     -15.770  10.124  22.254  1.00  0.00    -0.504 OA
ATOM     19  H   UNL     1     -14.888   9.651  22.119  1.00  0.00     0.293 HD
ENDBRANCH  15  18
BRANCH  17  20
ATOM     20  O   UNL     1     -18.686   9.988  22.085  1.00  0.00    -0.504 OA
ATOM     21  H   UNL     1     -18.706   9.260  21.384  1.00  0.00     0.293 HD
ENDBRANCH  17  20
ENDBRANCH   1  12
BRANCH   2  22
ATOM     22  O   UNL     1     -17.032   8.648  28.227  1.00  0.00    -0.502 OA
ATOM     23  H   UNL     1     -16.390   9.258  28.719  1.00  0.00     0.293 HD
ENDBRANCH   2  22
BRANCH   9  24
ATOM     24  O   UNL     1     -24.651  10.125  28.677  1.00  0.00    -0.508 OA
ATOM     25  H   UNL     1     -24.955  10.797  27.983  1.00  0.00     0.293 HD
ENDBRANCH   9  24
TORSDOF 5
ENDMDL
