MODEL 1
REMARK VINA RESULT:    -4.764      0.000      0.000
REMARK INTER + INTRA:          -6.025
REMARK INTER:                  -5.878
REMARK INTRA:                  -0.147
REMARK UNBOUND:                -0.147
REMARK SMILES C=CC[C@H](C)C(=O)CC
REMARK SMILES IDX 4 1 5 2 6 3 7 4 8 5 9 6 3 7 2 8 1 9
REMARK H PARENT
REMARK Flexibility Score: inf
ROOT
ATOM      1  C   UNL     1     -13.648 -32.221  28.685  1.00  0.00     0.057 C 
ATOM      2  C   UNL     1     -14.735 -31.214  28.280  1.00  0.00     0.016 C 
ENDROOT
BRANCH   1   3
ATOM      3  C   UNL     1     -13.478 -33.258  27.597  1.00  0.00     0.135 C 
ATOM      4  O   UNL     1     -14.381 -33.449  26.793  1.00  0.00    -0.299 OA
BRANCH   3   5
ATOM      5  C   UNL     1     -12.216 -34.073  27.486  1.00  0.00     0.072 C 
ATOM      6  C   UNL     1     -11.808 -34.243  26.026  1.00  0.00     0.012 C 
ENDBRANCH   3   5
ENDBRANCH   1   3
BRANCH   1   7
ATOM      7  C   UNL     1     -13.981 -32.912  30.024  1.00  0.00     0.038 C 
BRANCH   7   8
ATOM      8  C   UNL     1     -14.719 -32.003  30.971  1.00  0.00    -0.034 C 
ATOM      9  C   UNL     1     -14.772 -32.249  32.284  1.00  0.00     0.004 C 
ENDBRANCH   7   8
ENDBRANCH   1   7
TORSDOF 4
ENDMDL
MODEL 2
REMARK VINA RESULT:    -4.732      1.763      2.430
REMARK INTER + INTRA:          -5.986
REMARK INTER:                  -5.748
REMARK INTRA:                  -0.237
REMARK UNBOUND:                -0.147
REMARK SMILES C=CC[C@H](C)C(=O)CC
REMARK SMILES IDX 4 1 5 2 6 3 7 4 8 5 9 6 3 7 2 8 1 9
REMARK H PARENT
REMARK Flexibility Score: inf
ROOT
ATOM      1  C   UNL     1     -13.859 -33.560  28.797  1.00  0.00     0.057 C 
ATOM      2  C   UNL     1     -13.618 -34.001  30.248  1.00  0.00     0.016 C 
ENDROOT
BRANCH   1   3
ATOM      3  C   UNL     1     -13.002 -34.384  27.861  1.00  0.00     0.135 C 
ATOM      4  O   UNL     1     -12.488 -35.419  28.262  1.00  0.00    -0.299 OA
BRANCH   3   5
ATOM      5  C   UNL     1     -12.760 -33.950  26.439  1.00  0.00     0.072 C 
ATOM      6  C   UNL     1     -11.402 -34.441  25.947  1.00  0.00     0.012 C 
ENDBRANCH   3   5
ENDBRANCH   1   3
BRANCH   1   7
ATOM      7  C   UNL     1     -13.562 -32.059  28.599  1.00  0.00     0.038 C 
BRANCH   7   8
ATOM      8  C   UNL     1     -14.775 -31.287  28.151  1.00  0.00    -0.034 C 
ATOM      9  C   UNL     1     -15.488 -30.542  29.002  1.00  0.00     0.004 C 
ENDBRANCH   7   8
ENDBRANCH   1   7
TORSDOF 4
ENDMDL
MODEL 3
REMARK VINA RESULT:    -4.717      1.552      4.431
REMARK INTER + INTRA:          -5.967
REMARK INTER:                  -5.733
REMARK INTRA:                  -0.234
REMARK UNBOUND:                -0.147
REMARK SMILES C=CC[C@H](C)C(=O)CC
REMARK SMILES IDX 4 1 5 2 6 3 7 4 8 5 9 6 3 7 2 8 1 9
REMARK H PARENT
REMARK Flexibility Score: inf
ROOT
ATOM      1  C   UNL     1     -12.830 -32.670  28.496  1.00  0.00     0.057 C 
ATOM      2  C   UNL     1     -11.453 -32.948  29.117  1.00  0.00     0.016 C 
ENDROOT
BRANCH   1   3
ATOM      3  C   UNL     1     -13.905 -32.793  29.554  1.00  0.00     0.135 C 
ATOM      4  O   UNL     1     -14.056 -33.853  30.146  1.00  0.00    -0.299 OA
BRANCH   3   5
ATOM      5  C   UNL     1     -14.806 -31.633  29.889  1.00  0.00     0.072 C 
ATOM      6  C   UNL     1     -15.083 -30.788  28.650  1.00  0.00     0.012 C 
ENDBRANCH   3   5
ENDBRANCH   1   3
BRANCH   1   7
ATOM      7  C   UNL     1     -13.132 -33.628  27.325  1.00  0.00     0.038 C 
BRANCH   7   8
ATOM      8  C   UNL     1     -11.938 -34.465  26.945  1.00  0.00    -0.034 C 
ATOM      9  C   UNL     1     -11.396 -34.404  25.724  1.00  0.00     0.004 C 
ENDBRANCH   7   8
ENDBRANCH   1   7
TORSDOF 4
ENDMDL
MODEL 4
REMARK VINA RESULT:    -4.688      1.280      4.229
REMARK INTER + INTRA:          -5.931
REMARK INTER:                  -5.612
REMARK INTRA:                  -0.319
REMARK UNBOUND:                -0.147
REMARK SMILES C=CC[C@H](C)C(=O)CC
REMARK SMILES IDX 4 1 5 2 6 3 7 4 8 5 9 6 3 7 2 8 1 9
REMARK H PARENT
REMARK Flexibility Score: inf
ROOT
ATOM      1  C   UNL     1     -13.614 -33.559  28.499  1.00  0.00     0.057 C 
ATOM      2  C   UNL     1     -14.246 -34.924  28.188  1.00  0.00     0.016 C 
ENDROOT
BRANCH   1   3
ATOM      3  C   UNL     1     -14.356 -32.469  27.757  1.00  0.00     0.135 C 
ATOM      4  O   UNL     1     -14.664 -32.634  26.584  1.00  0.00    -0.299 OA
BRANCH   3   5
ATOM      5  C   UNL     1     -14.718 -31.172  28.432  1.00  0.00     0.072 C 
ATOM      6  C   UNL     1     -14.996 -31.394  29.915  1.00  0.00     0.012 C 
ENDBRANCH   3   5
ENDBRANCH   1   3
BRANCH   1   7
ATOM      7  C   UNL     1     -12.117 -33.525  28.126  1.00  0.00     0.038 C 
BRANCH   7   8
ATOM      8  C   UNL     1     -11.744 -34.609  27.150  1.00  0.00    -0.034 C 
ATOM      9  C   UNL     1     -11.519 -34.346  25.859  1.00  0.00     0.004 C 
ENDBRANCH   7   8
ENDBRANCH   1   7
TORSDOF 4
ENDMDL
MODEL 5
REMARK VINA RESULT:    -4.685      2.235      3.660
REMARK INTER + INTRA:          -5.928
REMARK INTER:                  -5.645
REMARK INTRA:                  -0.284
REMARK UNBOUND:                -0.147
REMARK SMILES C=CC[C@H](C)C(=O)CC
REMARK SMILES IDX 4 1 5 2 6 3 7 4 8 5 9 6 3 7 2 8 1 9
REMARK H PARENT
REMARK Flexibility Score: inf
ROOT
ATOM      1  C   UNL     1     -12.643 -34.052  27.303  1.00  0.00     0.057 C 
ATOM      2  C   UNL     1     -11.603 -34.414  26.233  1.00  0.00     0.016 C 
ENDROOT
BRANCH   1   3
ATOM      3  C   UNL     1     -12.852 -35.227  28.234  1.00  0.00     0.135 C 
ATOM      4  O   UNL     1     -11.905 -35.679  28.863  1.00  0.00    -0.299 OA
BRANCH   3   5
ATOM      5  C   UNL     1     -14.208 -35.862  28.397  1.00  0.00     0.072 C 
ATOM      6  C   UNL     1     -14.094 -37.382  28.424  1.00  0.00     0.012 C 
ENDBRANCH   3   5
ENDBRANCH   1   3
BRANCH   1   7
ATOM      7  C   UNL     1     -13.987 -33.633  26.674  1.00  0.00     0.038 C 
BRANCH   7   8
ATOM      8  C   UNL     1     -14.526 -32.357  27.267  1.00  0.00    -0.034 C 
ATOM      9  C   UNL     1     -14.068 -31.872  28.426  1.00  0.00     0.004 C 
ENDBRANCH   7   8
ENDBRANCH   1   7
TORSDOF 4
ENDMDL
MODEL 6
REMARK VINA RESULT:    -4.653      1.733      3.539
REMARK INTER + INTRA:          -5.888
REMARK INTER:                  -5.485
REMARK INTRA:                  -0.404
REMARK UNBOUND:                -0.147
REMARK SMILES C=CC[C@H](C)C(=O)CC
REMARK SMILES IDX 4 1 5 2 6 3 7 4 8 5 9 6 3 7 2 8 1 9
REMARK H PARENT
REMARK Flexibility Score: inf
ROOT
ATOM      1  C   UNL     1     -13.142 -32.855  29.179  1.00  0.00     0.057 C 
ATOM      2  C   UNL     1     -11.665 -32.997  28.783  1.00  0.00     0.016 C 
ENDROOT
BRANCH   1   3
ATOM      3  C   UNL     1     -13.626 -34.136  29.824  1.00  0.00     0.135 C 
ATOM      4  O   UNL     1     -14.009 -35.061  29.122  1.00  0.00    -0.299 OA
BRANCH   3   5
ATOM      5  C   UNL     1     -13.654 -34.292  31.322  1.00  0.00     0.072 C 
ATOM      6  C   UNL     1     -14.330 -33.093  31.978  1.00  0.00     0.012 C 
ENDBRANCH   3   5
ENDBRANCH   1   3
BRANCH   1   7
ATOM      7  C   UNL     1     -14.027 -32.510  27.963  1.00  0.00     0.038 C 
BRANCH   7   8
ATOM      8  C   UNL     1     -14.693 -31.166  28.101  1.00  0.00    -0.034 C 
ATOM      9  C   UNL     1     -15.331 -30.808  29.220  1.00  0.00     0.004 C 
ENDBRANCH   7   8
ENDBRANCH   1   7
TORSDOF 4
ENDMDL
MODEL 7
REMARK VINA RESULT:    -4.631      2.146      3.454
REMARK INTER + INTRA:          -5.861
REMARK INTER:                  -5.441
REMARK INTRA:                  -0.420
REMARK UNBOUND:                -0.147
REMARK SMILES C=CC[C@H](C)C(=O)CC
REMARK SMILES IDX 4 1 5 2 6 3 7 4 8 5 9 6 3 7 2 8 1 9
REMARK H PARENT
REMARK Flexibility Score: inf
ROOT
ATOM      1  C   UNL     1     -12.412 -33.867  27.076  1.00  0.00     0.057 C 
ATOM      2  C   UNL     1     -11.638 -34.296  25.821  1.00  0.00     0.016 C 
ENDROOT
BRANCH   1   3
ATOM      3  C   UNL     1     -12.098 -34.807  28.220  1.00  0.00     0.135 C 
ATOM      4  O   UNL     1     -12.700 -35.868  28.317  1.00  0.00    -0.299 OA
BRANCH   3   5
ATOM      5  C   UNL     1     -11.059 -34.458  29.253  1.00  0.00     0.072 C 
ATOM      6  C   UNL     1     -10.742 -32.967  29.220  1.00  0.00     0.012 C 
ENDBRANCH   3   5
ENDBRANCH   1   3
BRANCH   1   7
ATOM      7  C   UNL     1     -13.934 -33.835  26.825  1.00  0.00     0.038 C 
BRANCH   7   8
ATOM      8  C   UNL     1     -14.544 -32.500  27.161  1.00  0.00    -0.034 C 
ATOM      9  C   UNL     1     -14.265 -31.868  28.306  1.00  0.00     0.004 C 
ENDBRANCH   7   8
ENDBRANCH   1   7
TORSDOF 4
ENDMDL
MODEL 8
REMARK VINA RESULT:    -4.557      1.607      4.471
REMARK INTER + INTRA:          -5.769
REMARK INTER:                  -5.560
REMARK INTRA:                  -0.210
REMARK UNBOUND:                -0.147
REMARK SMILES C=CC[C@H](C)C(=O)CC
REMARK SMILES IDX 4 1 5 2 6 3 7 4 8 5 9 6 3 7 2 8 1 9
REMARK H PARENT
REMARK Flexibility Score: inf
ROOT
ATOM      1  C   UNL     1     -13.668 -32.936  28.897  1.00  0.00     0.057 C 
ATOM      2  C   UNL     1     -14.318 -31.685  28.288  1.00  0.00     0.016 C 
ENDROOT
BRANCH   1   3
ATOM      3  C   UNL     1     -14.036 -33.044  30.361  1.00  0.00     0.135 C 
ATOM      4  O   UNL     1     -13.768 -34.065  30.980  1.00  0.00    -0.299 OA
BRANCH   3   5
ATOM      5  C   UNL     1     -14.739 -31.919  31.074  1.00  0.00     0.072 C 
ATOM      6  C   UNL     1     -14.859 -32.216  32.565  1.00  0.00     0.012 C 
ENDBRANCH   3   5
ENDBRANCH   1   3
BRANCH   1   7
ATOM      7  C   UNL     1     -12.134 -32.916  28.740  1.00  0.00     0.038 C 
BRANCH   7   8
ATOM      8  C   UNL     1     -11.619 -34.106  27.974  1.00  0.00    -0.034 C 
ATOM      9  C   UNL     1     -11.787 -34.219  26.653  1.00  0.00     0.004 C 
ENDBRANCH   7   8
ENDBRANCH   1   7
TORSDOF 4
ENDMDL
MODEL 9
REMARK VINA RESULT:    -4.408      2.521      3.753
REMARK INTER + INTRA:          -5.586
REMARK INTER:                  -5.379
REMARK INTRA:                  -0.207
REMARK UNBOUND:                -0.147
REMARK SMILES C=CC[C@H](C)C(=O)CC
REMARK SMILES IDX 4 1 5 2 6 3 7 4 8 5 9 6 3 7 2 8 1 9
REMARK H PARENT
REMARK Flexibility Score: inf
ROOT
ATOM      1  C   UNL     1     -13.972 -33.821  30.087  1.00  0.00     0.057 C 
ATOM      2  C   UNL     1     -13.960 -33.246  31.511  1.00  0.00     0.016 C 
ENDROOT
BRANCH   1   3
ATOM      3  C   UNL     1     -13.452 -35.242  30.103  1.00  0.00     0.135 C 
ATOM      4  O   UNL     1     -12.982 -35.727  29.083  1.00  0.00    -0.299 OA
BRANCH   3   5
ATOM      5  C   UNL     1     -13.510 -36.080  31.353  1.00  0.00     0.072 C 
ATOM      6  C   UNL     1     -12.552 -37.262  31.257  1.00  0.00     0.012 C 
ENDBRANCH   3   5
ENDBRANCH   1   3
BRANCH   1   7
ATOM      7  C   UNL     1     -13.132 -32.963  29.118  1.00  0.00     0.038 C 
BRANCH   7   8
ATOM      8  C   UNL     1     -13.980 -32.262  28.090  1.00  0.00    -0.034 C 
ATOM      9  C   UNL     1     -14.711 -31.185  28.397  1.00  0.00     0.004 C 
ENDBRANCH   7   8
ENDBRANCH   1   7
TORSDOF 4
ENDMDL
