MODEL 1
REMARK VINA RESULT:    -0.069      0.000      0.000
REMARK INTER + INTRA:          -2.432
REMARK INTER:                  -0.093
REMARK INTRA:                  -2.339
REMARK UNBOUND:                -2.339
REMARK SMILES CC[C@H](CC[C@@H](C)[C@H]1CC[C@@H]2[C@H]3CC(=O)C4=CC(=O)CC[C@@]4(C)[C@H]3CC[C@@]21C)C(C)C
REMARK SMILES IDX 4 1 3 2 2 3 1 4 29 5 30 6 31 7 5 8 6 9 7 10 8 11 9 12 27 13
REMARK SMILES IDX 10 14 11 15 26 16 28 17 12 18 25 19 24 20 13 21 22 22 14 23
REMARK SMILES IDX 16 24 21 25 23 26 15 27 17 28 20 29 18 30 19 31
REMARK H PARENT
REMARK Flexibility Score: inf
ROOT
ATOM      1  C   UNL     1     122.664 139.023 124.577  1.00  0.00     0.004 C 
ENDROOT
BRANCH   1   2
ATOM      2  C   UNL     1     121.201 138.622 124.910  1.00  0.00    -0.009 C 
BRANCH   2   3
ATOM      3  C   UNL     1     120.375 139.757 125.578  1.00  0.00     0.000 C 
ATOM      4  C   UNL     1     120.653 139.988 127.065  1.00  0.00     0.004 C 
ENDBRANCH   2   3
BRANCH   2   5
ATOM      5  C   UNL     1     120.451 137.952 123.706  1.00  0.00    -0.014 C 
ATOM      6  C   UNL     1     121.301 137.791 122.428  1.00  0.00     0.007 C 
ATOM      7  C   UNL     1     119.877 136.581 124.103  1.00  0.00     0.007 C 
ENDBRANCH   2   5
ENDBRANCH   1   2
BRANCH   1   8
ATOM      8  C   UNL     1     123.716 138.126 125.272  1.00  0.00     0.004 C 
BRANCH   8   9
ATOM      9  C   UNL     1     123.143 136.838 125.932  1.00  0.00    -0.011 C 
ATOM     10  C   UNL     1     123.733 135.592 125.230  1.00  0.00     0.008 C 
BRANCH   9  11
ATOM     11  C   UNL     1     123.348 136.789 127.489  1.00  0.00    -0.002 C 
ATOM     12  C   UNL     1     123.636 138.155 128.118  1.00  0.00     0.005 C 
ATOM     13  C   UNL     1     122.189 136.186 128.380  1.00  0.00    -0.026 C 
ATOM     14  C   UNL     1     123.448 137.931 129.601  1.00  0.00     0.005 C 
ATOM     15  C   UNL     1     122.207 137.047 129.692  1.00  0.00    -0.001 C 
ATOM     16  C   UNL     1     122.459 134.684 128.676  1.00  0.00     0.007 C 
ATOM     17  C   UNL     1     120.784 136.338 127.738  1.00  0.00     0.012 C 
ATOM     18  C   UNL     1     122.101 136.281 131.055  1.00  0.00     0.004 C 
ATOM     19  C   UNL     1     123.497 134.501 129.788  1.00  0.00     0.005 C 
ATOM     20  C   UNL     1     122.945 134.953 131.162  1.00  0.00     0.003 C 
ATOM     21  C   UNL     1     120.638 136.088 131.446  1.00  0.00     0.085 C 
ATOM     22  C   UNL     1     122.366 133.762 132.092  1.00  0.00    -0.000 C 
ATOM     23  C   UNL     1     120.592 135.514 132.812  1.00  0.00     0.159 C 
ATOM     24  C   UNL     1     121.217 134.208 133.011  1.00  0.00     0.005 C 
ATOM     25  C   UNL     1     121.800 132.529 131.303  1.00  0.00     0.020 C 
ATOM     26  C   UNL     1     123.547 133.286 132.989  1.00  0.00     0.017 C 
ATOM     27  O   UNL     1     119.979 136.102 133.745  1.00  0.00    -0.295 OA
ATOM     28  C   UNL     1     120.545 133.310 133.750  1.00  0.00     0.055 C 
ATOM     29  C   UNL     1     121.340 131.376 132.227  1.00  0.00     0.081 C 
ATOM     30  C   UNL     1     120.669 131.869 133.481  1.00  0.00     0.156 C 
ATOM     31  O   UNL     1     120.168 131.040 134.283  1.00  0.00    -0.295 OA
ENDBRANCH   9  11
ENDBRANCH   8   9
ENDBRANCH   1   8
TORSDOF 6
ENDMDL
MODEL 2
REMARK VINA RESULT:    -0.053     17.341     20.062
REMARK INTER + INTRA:          -2.411
REMARK INTER:                  -0.073
REMARK INTRA:                  -2.339
REMARK UNBOUND:                -2.339
REMARK SMILES CC[C@H](CC[C@@H](C)[C@H]1CC[C@@H]2[C@H]3CC(=O)C4=CC(=O)CC[C@@]4(C)[C@H]3CC[C@@]21C)C(C)C
REMARK SMILES IDX 4 1 3 2 2 3 1 4 29 5 30 6 31 7 5 8 6 9 7 10 8 11 9 12 27 13
REMARK SMILES IDX 10 14 11 15 26 16 28 17 12 18 25 19 24 20 13 21 22 22 14 23
REMARK SMILES IDX 16 24 21 25 23 26 15 27 17 28 20 29 18 30 19 31
REMARK H PARENT
REMARK Flexibility Score: inf
ROOT
ATOM      1  C   UNL     1     136.728 121.053 125.966  1.00  0.00     0.004 C 
ENDROOT
BRANCH   1   2
ATOM      2  C   UNL     1     138.103 121.532 125.428  1.00  0.00    -0.009 C 
BRANCH   2   3
ATOM      3  C   UNL     1     139.249 121.457 126.476  1.00  0.00     0.000 C 
ATOM      4  C   UNL     1     139.278 122.591 127.504  1.00  0.00     0.004 C 
ENDBRANCH   2   3
BRANCH   2   5
ATOM      5  C   UNL     1     138.493 120.883 124.054  1.00  0.00    -0.014 C 
ATOM      6  C   UNL     1     137.429 119.932 123.468  1.00  0.00     0.007 C 
ATOM      7  C   UNL     1     138.835 121.959 123.009  1.00  0.00     0.007 C 
ENDBRANCH   2   5
ENDBRANCH   1   2
BRANCH   1   8
ATOM      8  C   UNL     1     135.630 122.142 125.893  1.00  0.00     0.004 C 
BRANCH   8   9
ATOM      9  C   UNL     1     136.007 123.392 125.045  1.00  0.00    -0.011 C 
ATOM     10  C   UNL     1     135.056 123.496 123.829  1.00  0.00     0.008 C 
BRANCH   9  11
ATOM     11  C   UNL     1     136.045 124.724 125.878  1.00  0.00    -0.002 C 
ATOM     12  C   UNL     1     136.169 124.505 127.388  1.00  0.00     0.005 C 
ATOM     13  C   UNL     1     137.168 125.787 125.544  1.00  0.00    -0.026 C 
ATOM     14  C   UNL     1     136.535 125.867 127.934  1.00  0.00     0.005 C 
ATOM     15  C   UNL     1     137.548 126.413 126.931  1.00  0.00    -0.001 C 
ATOM     16  C   UNL     1     136.622 126.860 124.560  1.00  0.00     0.007 C 
ATOM     17  C   UNL     1     138.452 125.150 124.947  1.00  0.00     0.012 C 
ATOM     18  C   UNL     1     137.696 127.971 127.000  1.00  0.00     0.004 C 
ATOM     19  C   UNL     1     135.758 127.902 125.279  1.00  0.00     0.005 C 
ATOM     20  C   UNL     1     136.607 128.798 126.213  1.00  0.00     0.003 C 
ATOM     21  C   UNL     1     139.124 128.387 126.651  1.00  0.00     0.085 C 
ATOM     22  C   UNL     1     137.048 130.222 125.583  1.00  0.00    -0.000 C 
ATOM     23  C   UNL     1     139.256 129.844 126.892  1.00  0.00     0.159 C 
ATOM     24  C   UNL     1     138.398 130.733 126.112  1.00  0.00     0.005 C 
ATOM     25  C   UNL     1     137.195 130.230 124.021  1.00  0.00     0.020 C 
ATOM     26  C   UNL     1     135.948 131.246 125.991  1.00  0.00     0.017 C 
ATOM     27  O   UNL     1     140.125 130.295 127.689  1.00  0.00    -0.295 OA
ATOM     28  C   UNL     1     138.963 131.835 125.592  1.00  0.00     0.055 C 
ATOM     29  C   UNL     1     137.528 131.629 123.449  1.00  0.00     0.081 C 
ATOM     30  C   UNL     1     138.481 132.400 124.322  1.00  0.00     0.156 C 
ATOM     31  O   UNL     1     138.907 133.520 123.938  1.00  0.00    -0.295 OA
ENDBRANCH   9  11
ENDBRANCH   8   9
ENDBRANCH   1   8
TORSDOF 6
ENDMDL
MODEL 3
REMARK VINA RESULT:    -0.049     16.601     19.508
REMARK INTER + INTRA:          -2.406
REMARK INTER:                  -0.074
REMARK INTRA:                  -2.331
REMARK UNBOUND:                -2.339
REMARK SMILES CC[C@H](CC[C@@H](C)[C@H]1CC[C@@H]2[C@H]3CC(=O)C4=CC(=O)CC[C@@]4(C)[C@H]3CC[C@@]21C)C(C)C
REMARK SMILES IDX 4 1 3 2 2 3 1 4 29 5 30 6 31 7 5 8 6 9 7 10 8 11 9 12 27 13
REMARK SMILES IDX 10 14 11 15 26 16 28 17 12 18 25 19 24 20 13 21 22 22 14 23
REMARK SMILES IDX 16 24 21 25 23 26 15 27 17 28 20 29 18 30 19 31
REMARK H PARENT
REMARK Flexibility Score: inf
ROOT
ATOM      1  C   UNL     1     130.399 125.207 130.630  1.00  0.00     0.004 C 
ENDROOT
BRANCH   1   2
ATOM      2  C   UNL     1     131.347 124.204 131.342  1.00  0.00    -0.009 C 
BRANCH   2   3
ATOM      3  C   UNL     1     132.341 124.873 132.332  1.00  0.00     0.000 C 
ATOM      4  C   UNL     1     133.797 124.413 132.217  1.00  0.00     0.004 C 
ENDBRANCH   2   3
BRANCH   2   5
ATOM      5  C   UNL     1     130.596 122.978 131.971  1.00  0.00    -0.014 C 
ATOM      6  C   UNL     1     129.070 123.162 132.109  1.00  0.00     0.007 C 
ATOM      7  C   UNL     1     130.877 121.689 131.180  1.00  0.00     0.007 C 
ENDBRANCH   2   5
ENDBRANCH   1   2
BRANCH   1   8
ATOM      8  C   UNL     1     130.727 125.396 129.129  1.00  0.00     0.004 C 
BRANCH   8   9
ATOM      9  C   UNL     1     131.525 124.225 128.482  1.00  0.00    -0.011 C 
ATOM     10  C   UNL     1     130.695 123.609 127.332  1.00  0.00     0.008 C 
BRANCH   9  11
ATOM     11  C   UNL     1     132.967 124.637 128.013  1.00  0.00    -0.002 C 
ATOM     12  C   UNL     1     133.551 125.826 128.780  1.00  0.00     0.005 C 
ATOM     13  C   UNL     1     134.110 123.544 128.057  1.00  0.00    -0.026 C 
ATOM     14  C   UNL     1     135.021 125.816 128.423  1.00  0.00     0.005 C 
ATOM     15  C   UNL     1     135.404 124.338 128.456  1.00  0.00    -0.001 C 
ATOM     16  C   UNL     1     134.262 122.863 126.668  1.00  0.00     0.007 C 
ATOM     17  C   UNL     1     133.874 122.457 129.139  1.00  0.00     0.012 C 
ATOM     18  C   UNL     1     136.712 124.029 127.653  1.00  0.00     0.004 C 
ATOM     19  C   UNL     1     135.047 123.739 125.687  1.00  0.00     0.005 C 
ATOM     20  C   UNL     1     136.535 123.856 126.094  1.00  0.00     0.003 C 
ATOM     21  C   UNL     1     137.472 122.871 128.296  1.00  0.00     0.085 C 
ATOM     22  C   UNL     1     137.537 122.842 125.327  1.00  0.00    -0.000 C 
ATOM     23  C   UNL     1     138.777 122.728 127.605  1.00  0.00     0.159 C 
ATOM     24  C   UNL     1     138.747 122.419 126.177  1.00  0.00     0.005 C 
ATOM     25  C   UNL     1     136.878 121.497 124.862  1.00  0.00     0.020 C 
ATOM     26  C   UNL     1     138.066 123.604 124.076  1.00  0.00     0.017 C 
ATOM     27  O   UNL     1     139.863 122.803 128.243  1.00  0.00    -0.295 OA
ATOM     28  C   UNL     1     139.602 121.484 125.731  1.00  0.00     0.055 C 
ATOM     29  C   UNL     1     137.843 120.595 124.054  1.00  0.00     0.081 C 
ATOM     30  C   UNL     1     139.250 120.626 124.588  1.00  0.00     0.156 C 
ATOM     31  O   UNL     1     140.123 119.875 124.082  1.00  0.00    -0.295 OA
ENDBRANCH   9  11
ENDBRANCH   8   9
ENDBRANCH   1   8
TORSDOF 6
ENDMDL
MODEL 4
REMARK VINA RESULT:    -0.048      3.384      8.028
REMARK INTER + INTRA:          -2.404
REMARK INTER:                  -0.075
REMARK INTRA:                  -2.329
REMARK UNBOUND:                -2.339
REMARK SMILES CC[C@H](CC[C@@H](C)[C@H]1CC[C@@H]2[C@H]3CC(=O)C4=CC(=O)CC[C@@]4(C)[C@H]3CC[C@@]21C)C(C)C
REMARK SMILES IDX 4 1 3 2 2 3 1 4 29 5 30 6 31 7 5 8 6 9 7 10 8 11 9 12 27 13
REMARK SMILES IDX 10 14 11 15 26 16 28 17 12 18 25 19 24 20 13 21 22 22 14 23
REMARK SMILES IDX 16 24 21 25 23 26 15 27 17 28 20 29 18 30 19 31
REMARK H PARENT
REMARK Flexibility Score: inf
ROOT
ATOM      1  C   UNL     1     126.701 132.209 131.820  1.00  0.00     0.004 C 
ENDROOT
BRANCH   1   2
ATOM      2  C   UNL     1     126.782 133.751 131.984  1.00  0.00    -0.009 C 
BRANCH   2   3
ATOM      3  C   UNL     1     125.944 134.300 133.173  1.00  0.00     0.000 C 
ATOM      4  C   UNL     1     125.182 135.599 132.899  1.00  0.00     0.004 C 
ENDBRANCH   2   3
BRANCH   2   5
ATOM      5  C   UNL     1     128.251 134.302 131.969  1.00  0.00    -0.014 C 
ATOM      6  C   UNL     1     129.286 133.387 132.656  1.00  0.00     0.007 C 
ATOM      7  C   UNL     1     128.717 134.601 130.535  1.00  0.00     0.007 C 
ENDBRANCH   2   5
ENDBRANCH   1   2
BRANCH   1   8
ATOM      8  C   UNL     1     125.741 131.765 130.690  1.00  0.00     0.004 C 
BRANCH   8   9
ATOM      9  C   UNL     1     125.646 132.750 129.488  1.00  0.00    -0.011 C 
ATOM     10  C   UNL     1     126.130 132.041 128.201  1.00  0.00     0.008 C 
BRANCH   9  11
ATOM     11  C   UNL     1     124.219 133.384 129.311  1.00  0.00    -0.002 C 
ATOM     12  C   UNL     1     123.361 133.339 130.577  1.00  0.00     0.005 C 
ATOM     13  C   UNL     1     124.121 134.886 128.825  1.00  0.00    -0.026 C 
ATOM     14  C   UNL     1     122.218 134.285 130.288  1.00  0.00     0.005 C 
ATOM     15  C   UNL     1     122.880 135.469 129.589  1.00  0.00    -0.001 C 
ATOM     16  C   UNL     1     123.926 134.946 127.284  1.00  0.00     0.007 C 
ATOM     17  C   UNL     1     125.358 135.737 129.220  1.00  0.00     0.012 C 
ATOM     18  C   UNL     1     121.869 136.333 128.761  1.00  0.00     0.004 C 
ATOM     19  C   UNL     1     122.477 134.653 126.883  1.00  0.00     0.005 C 
ATOM     20  C   UNL     1     121.524 135.791 127.320  1.00  0.00     0.003 C 
ATOM     21  C   UNL     1     122.298 137.799 128.757  1.00  0.00     0.085 C 
ATOM     22  C   UNL     1     121.175 136.874 126.168  1.00  0.00    -0.000 C 
ATOM     23  C   UNL     1     121.228 138.596 128.109  1.00  0.00     0.159 C 
ATOM     24  C   UNL     1     120.913 138.286 126.716  1.00  0.00     0.005 C 
ATOM     25  C   UNL     1     122.293 137.060 125.084  1.00  0.00     0.020 C 
ATOM     26  C   UNL     1     119.875 136.374 125.470  1.00  0.00     0.017 C 
ATOM     27  O   UNL     1     120.665 139.547 128.719  1.00  0.00    -0.295 OA
ATOM     28  C   UNL     1     120.736 139.322 125.879  1.00  0.00     0.055 C 
ATOM     29  C   UNL     1     121.886 138.034 123.952  1.00  0.00     0.081 C 
ATOM     30  C   UNL     1     121.090 139.208 124.456  1.00  0.00     0.156 C 
ATOM     31  O   UNL     1     120.764 140.124 123.658  1.00  0.00    -0.295 OA
ENDBRANCH   9  11
ENDBRANCH   8   9
ENDBRANCH   1   8
TORSDOF 6
ENDMDL
MODEL 5
REMARK VINA RESULT:    -0.048     16.268     19.278
REMARK INTER + INTRA:          -2.403
REMARK INTER:                  -0.064
REMARK INTRA:                  -2.339
REMARK UNBOUND:                -2.339
REMARK SMILES CC[C@H](CC[C@@H](C)[C@H]1CC[C@@H]2[C@H]3CC(=O)C4=CC(=O)CC[C@@]4(C)[C@H]3CC[C@@]21C)C(C)C
REMARK SMILES IDX 4 1 3 2 2 3 1 4 29 5 30 6 31 7 5 8 6 9 7 10 8 11 9 12 27 13
REMARK SMILES IDX 10 14 11 15 26 16 28 17 12 18 25 19 24 20 13 21 22 22 14 23
REMARK SMILES IDX 16 24 21 25 23 26 15 27 17 28 20 29 18 30 19 31
REMARK H PARENT
REMARK Flexibility Score: inf
ROOT
ATOM      1  C   UNL     1     132.724 127.648 132.337  1.00  0.00     0.004 C 
ENDROOT
BRANCH   1   2
ATOM      2  C   UNL     1     134.248 127.548 132.617  1.00  0.00    -0.009 C 
BRANCH   2   3
ATOM      3  C   UNL     1     135.043 128.826 132.230  1.00  0.00     0.000 C 
ATOM      4  C   UNL     1     135.404 128.956 130.748  1.00  0.00     0.004 C 
ENDBRANCH   2   3
BRANCH   2   5
ATOM      5  C   UNL     1     134.583 127.038 134.062  1.00  0.00    -0.014 C 
ATOM      6  C   UNL     1     133.350 126.711 134.930  1.00  0.00     0.007 C 
ATOM      7  C   UNL     1     135.506 125.808 134.018  1.00  0.00     0.007 C 
ENDBRANCH   2   5
ENDBRANCH   1   2
BRANCH   1   8
ATOM      8  C   UNL     1     132.209 126.558 131.365  1.00  0.00     0.004 C 
BRANCH   8   9
ATOM      9  C   UNL     1     133.220 125.410 131.076  1.00  0.00    -0.011 C 
ATOM     10  C   UNL     1     132.643 124.072 131.595  1.00  0.00     0.008 C 
BRANCH   9  11
ATOM     11  C   UNL     1     133.648 125.321 129.567  1.00  0.00    -0.002 C 
ATOM     12  C   UNL     1     133.406 126.610 128.778  1.00  0.00     0.005 C 
ATOM     13  C   UNL     1     135.145 124.934 129.233  1.00  0.00    -0.026 C 
ATOM     14  C   UNL     1     134.191 126.419 127.500  1.00  0.00     0.005 C 
ATOM     15  C   UNL     1     135.497 125.773 127.955  1.00  0.00    -0.001 C 
ATOM     16  C   UNL     1     135.264 123.407 128.967  1.00  0.00     0.007 C 
ATOM     17  C   UNL     1     136.144 125.339 130.351  1.00  0.00     0.012 C 
ATOM     18  C   UNL     1     136.250 125.035 126.797  1.00  0.00     0.004 C 
ATOM     19  C   UNL     1     134.786 123.036 127.560  1.00  0.00     0.005 C 
ATOM     20  C   UNL     1     135.747 123.576 126.472  1.00  0.00     0.003 C 
ATOM     21  C   UNL     1     137.761 125.108 127.010  1.00  0.00     0.085 C 
ATOM     22  C   UNL     1     136.831 122.506 125.924  1.00  0.00    -0.000 C 
ATOM     23  C   UNL     1     138.429 124.548 125.811  1.00  0.00     0.159 C 
ATOM     24  C   UNL     1     138.156 123.149 125.485  1.00  0.00     0.005 C 
ATOM     25  C   UNL     1     137.240 121.399 126.957  1.00  0.00     0.020 C 
ATOM     26  C   UNL     1     136.188 121.822 124.681  1.00  0.00     0.017 C 
ATOM     27  O   UNL     1     139.251 125.234 125.143  1.00  0.00    -0.295 OA
ATOM     28  C   UNL     1     139.201 122.385 125.127  1.00  0.00     0.055 C 
ATOM     29  C   UNL     1     138.207 120.345 126.367  1.00  0.00     0.081 C 
ATOM     30  C   UNL     1     139.222 120.946 125.433  1.00  0.00     0.156 C 
ATOM     31  O   UNL     1     140.125 120.219 124.945  1.00  0.00    -0.295 OA
ENDBRANCH   9  11
ENDBRANCH   8   9
ENDBRANCH   1   8
TORSDOF 6
ENDMDL
MODEL 6
REMARK VINA RESULT:    -0.047     16.167     18.661
REMARK INTER + INTRA:          -2.403
REMARK INTER:                  -0.065
REMARK INTRA:                  -2.339
REMARK UNBOUND:                -2.339
REMARK SMILES CC[C@H](CC[C@@H](C)[C@H]1CC[C@@H]2[C@H]3CC(=O)C4=CC(=O)CC[C@@]4(C)[C@H]3CC[C@@]21C)C(C)C
REMARK SMILES IDX 4 1 3 2 2 3 1 4 29 5 30 6 31 7 5 8 6 9 7 10 8 11 9 12 27 13
REMARK SMILES IDX 10 14 11 15 26 16 28 17 12 18 25 19 24 20 13 21 22 22 14 23
REMARK SMILES IDX 16 24 21 25 23 26 15 27 17 28 20 29 18 30 19 31
REMARK H PARENT
REMARK Flexibility Score: inf
ROOT
ATOM      1  C   UNL     1     128.166 124.659 127.608  1.00  0.00     0.004 C 
ENDROOT
BRANCH   1   2
ATOM      2  C   UNL     1     128.332 123.129 127.405  1.00  0.00    -0.009 C 
BRANCH   2   3
ATOM      3  C   UNL     1     128.435 122.327 128.732  1.00  0.00     0.000 C 
ATOM      4  C   UNL     1     129.808 122.343 129.409  1.00  0.00     0.004 C 
ENDBRANCH   2   3
BRANCH   2   5
ATOM      5  C   UNL     1     127.289 122.518 126.405  1.00  0.00    -0.014 C 
ATOM      6  C   UNL     1     126.321 123.544 125.780  1.00  0.00     0.007 C 
ATOM      7  C   UNL     1     127.990 121.738 125.279  1.00  0.00     0.007 C 
ENDBRANCH   2   5
ENDBRANCH   1   2
BRANCH   1   8
ATOM      8  C   UNL     1     129.293 125.489 126.945  1.00  0.00     0.004 C 
BRANCH   8   9
ATOM      9  C   UNL     1     130.211 124.687 125.978  1.00  0.00    -0.011 C 
ATOM     10  C   UNL     1     130.068 125.251 124.545  1.00  0.00     0.008 C 
BRANCH   9  11
ATOM     11  C   UNL     1     131.712 124.632 126.442  1.00  0.00    -0.002 C 
ATOM     12  C   UNL     1     131.911 124.940 127.928  1.00  0.00     0.005 C 
ATOM     13  C   UNL     1     132.521 123.294 126.209  1.00  0.00    -0.026 C 
ATOM     14  C   UNL     1     133.327 124.495 128.216  1.00  0.00     0.005 C 
ATOM     15  C   UNL     1     133.467 123.180 127.456  1.00  0.00    -0.001 C 
ATOM     16  C   UNL     1     133.328 123.372 124.882  1.00  0.00     0.007 C 
ATOM     17  C   UNL     1     131.618 122.031 126.187  1.00  0.00     0.012 C 
ATOM     18  C   UNL     1     134.960 122.784 127.190  1.00  0.00     0.004 C 
ATOM     19  C   UNL     1     134.609 124.196 125.044  1.00  0.00     0.005 C 
ATOM     20  C   UNL     1     135.640 123.473 125.945  1.00  0.00     0.003 C 
ATOM     21  C   UNL     1     135.117 121.265 127.188  1.00  0.00     0.085 C 
ATOM     22  C   UNL     1     136.781 122.643 125.151  1.00  0.00    -0.000 C 
ATOM     23  C   UNL     1     136.563 120.947 127.103  1.00  0.00     0.159 C 
ATOM     24  C   UNL     1     137.281 121.407 125.916  1.00  0.00     0.005 C 
ATOM     25  C   UNL     1     136.339 122.100 123.747  1.00  0.00     0.020 C 
ATOM     26  C   UNL     1     137.983 123.615 124.960  1.00  0.00     0.017 C 
ATOM     27  O   UNL     1     137.129 120.247 127.988  1.00  0.00    -0.295 OA
ATOM     28  C   UNL     1     138.133 120.544 125.338  1.00  0.00     0.055 C 
ATOM     29  C   UNL     1     137.483 121.392 122.982  1.00  0.00     0.081 C 
ATOM     30  C   UNL     1     138.367 120.576 123.886  1.00  0.00     0.156 C 
ATOM     31  O   UNL     1     139.288 119.878 123.388  1.00  0.00    -0.295 OA
ENDBRANCH   9  11
ENDBRANCH   8   9
ENDBRANCH   1   8
TORSDOF 6
ENDMDL
MODEL 7
REMARK VINA RESULT:    -0.045     15.728     18.209
REMARK INTER + INTRA:          -2.401
REMARK INTER:                  -0.062
REMARK INTRA:                  -2.339
REMARK UNBOUND:                -2.339
REMARK SMILES CC[C@H](CC[C@@H](C)[C@H]1CC[C@@H]2[C@H]3CC(=O)C4=CC(=O)CC[C@@]4(C)[C@H]3CC[C@@]21C)C(C)C
REMARK SMILES IDX 4 1 3 2 2 3 1 4 29 5 30 6 31 7 5 8 6 9 7 10 8 11 9 12 27 13
REMARK SMILES IDX 10 14 11 15 26 16 28 17 12 18 25 19 24 20 13 21 22 22 14 23
REMARK SMILES IDX 16 24 21 25 23 26 15 27 17 28 20 29 18 30 19 31
REMARK H PARENT
REMARK Flexibility Score: inf
ROOT
ATOM      1  C   UNL     1     130.628 128.802 127.024  1.00  0.00     0.004 C 
ENDROOT
BRANCH   1   2
ATOM      2  C   UNL     1     131.851 128.677 127.971  1.00  0.00    -0.009 C 
BRANCH   2   3
ATOM      3  C   UNL     1     132.803 129.905 127.934  1.00  0.00     0.000 C 
ATOM      4  C   UNL     1     133.846 129.899 126.814  1.00  0.00     0.004 C 
ENDBRANCH   2   3
BRANCH   2   5
ATOM      5  C   UNL     1     131.467 128.250 129.431  1.00  0.00    -0.014 C 
ATOM      6  C   UNL     1     129.961 127.993 129.649  1.00  0.00     0.007 C 
ATOM      7  C   UNL     1     132.258 127.007 129.874  1.00  0.00     0.007 C 
ENDBRANCH   2   5
ENDBRANCH   1   2
BRANCH   1   8
ATOM      8  C   UNL     1     130.555 127.672 125.969  1.00  0.00     0.004 C 
BRANCH   8   9
ATOM      9  C   UNL     1     131.518 126.476 126.224  1.00  0.00    -0.011 C 
ATOM     10  C   UNL     1     130.693 125.192 126.474  1.00  0.00     0.008 C 
BRANCH   9  11
ATOM     11  C   UNL     1     132.585 126.278 125.087  1.00  0.00    -0.002 C 
ATOM     12  C   UNL     1     132.813 127.526 124.230  1.00  0.00     0.005 C 
ATOM     13  C   UNL     1     134.040 125.813 125.496  1.00  0.00    -0.026 C 
ATOM     14  C   UNL     1     134.083 127.227 123.465  1.00  0.00     0.005 C 
ATOM     15  C   UNL     1     134.991 126.560 124.495  1.00  0.00    -0.001 C 
ATOM     16  C   UNL     1     134.172 124.270 125.369  1.00  0.00     0.007 C 
ATOM     17  C   UNL     1     134.438 126.246 126.932  1.00  0.00     0.012 C 
ATOM     18  C   UNL     1     136.144 125.724 123.841  1.00  0.00     0.004 C 
ATOM     19  C   UNL     1     134.370 123.834 123.913  1.00  0.00     0.005 C 
ATOM     20  C   UNL     1     135.754 124.268 123.373  1.00  0.00     0.003 C 
ATOM     21  C   UNL     1     137.389 125.751 124.724  1.00  0.00     0.085 C 
ATOM     22  C   UNL     1     136.900 123.126 123.425  1.00  0.00    -0.000 C 
ATOM     23  C   UNL     1     138.496 125.093 123.989  1.00  0.00     0.159 C 
ATOM     24  C   UNL     1     138.316 123.689 123.624  1.00  0.00     0.005 C 
ATOM     25  C   UNL     1     136.719 122.068 124.569  1.00  0.00     0.020 C 
ATOM     26  C   UNL     1     136.857 122.394 122.051  1.00  0.00     0.017 C 
ATOM     27  O   UNL     1     139.574 125.704 123.752  1.00  0.00    -0.295 OA
ATOM     28  C   UNL     1     139.359 122.864 123.816  1.00  0.00     0.055 C 
ATOM     29  C   UNL     1     137.781 120.943 124.529  1.00  0.00     0.081 C 
ATOM     30  C   UNL     1     139.146 121.446 124.148  1.00  0.00     0.156 C 
ATOM     31  O   UNL     1     140.125 120.656 124.158  1.00  0.00    -0.295 OA
ENDBRANCH   9  11
ENDBRANCH   8   9
ENDBRANCH   1   8
TORSDOF 6
ENDMDL
MODEL 8
REMARK VINA RESULT:     0.104      8.761     13.190
REMARK INTER + INTRA:          -2.199
REMARK INTER:                   0.144
REMARK INTRA:                  -2.343
REMARK UNBOUND:                -2.339
REMARK SMILES CC[C@H](CC[C@@H](C)[C@H]1CC[C@@H]2[C@H]3CC(=O)C4=CC(=O)CC[C@@]4(C)[C@H]3CC[C@@]21C)C(C)C
REMARK SMILES IDX 4 1 3 2 2 3 1 4 29 5 30 6 31 7 5 8 6 9 7 10 8 11 9 12 27 13
REMARK SMILES IDX 10 14 11 15 26 16 28 17 12 18 25 19 24 20 13 21 22 22 14 23
REMARK SMILES IDX 16 24 21 25 23 26 15 27 17 28 20 29 18 30 19 31
REMARK H PARENT
REMARK Flexibility Score: inf
ROOT
ATOM      1  C   UNL     1     124.334 127.787 131.519  1.00  0.00     0.004 C 
ENDROOT
BRANCH   1   2
ATOM      2  C   UNL     1     123.701 128.565 132.704  1.00  0.00    -0.009 C 
BRANCH   2   3
ATOM      3  C   UNL     1     124.720 129.415 133.513  1.00  0.00     0.000 C 
ATOM      4  C   UNL     1     124.901 129.011 134.978  1.00  0.00     0.004 C 
ENDBRANCH   2   3
BRANCH   2   5
ATOM      5  C   UNL     1     122.418 129.373 132.302  1.00  0.00    -0.014 C 
ATOM      6  C   UNL     1     121.619 128.769 131.128  1.00  0.00     0.007 C 
ATOM      7  C   UNL     1     121.478 129.558 133.506  1.00  0.00     0.007 C 
ENDBRANCH   2   5
ENDBRANCH   1   2
BRANCH   1   8
ATOM      8  C   UNL     1     124.345 126.253 131.731  1.00  0.00     0.004 C 
BRANCH   8   9
ATOM      9  C   UNL     1     123.246 125.720 132.697  1.00  0.00    -0.011 C 
ATOM     10  C   UNL     1     122.278 124.799 131.917  1.00  0.00     0.008 C 
BRANCH   9  11
ATOM     11  C   UNL     1     123.827 125.016 133.976  1.00  0.00    -0.002 C 
ATOM     12  C   UNL     1     125.260 125.434 134.315  1.00  0.00     0.005 C 
ATOM     13  C   UNL     1     123.041 125.173 135.340  1.00  0.00    -0.026 C 
ATOM     14  C   UNL     1     125.473 124.928 135.724  1.00  0.00     0.005 C 
ATOM     15  C   UNL     1     124.161 125.242 136.437  1.00  0.00    -0.001 C 
ATOM     16  C   UNL     1     122.095 123.959 135.563  1.00  0.00     0.007 C 
ATOM     17  C   UNL     1     122.219 126.487 135.423  1.00  0.00     0.012 C 
ATOM     18  C   UNL     1     123.951 124.388 137.733  1.00  0.00     0.004 C 
ATOM     19  C   UNL     1     122.857 122.729 136.067  1.00  0.00     0.005 C 
ATOM     20  C   UNL     1     123.377 122.935 137.510  1.00  0.00     0.003 C 
ATOM     21  C   UNL     1     123.166 125.182 138.775  1.00  0.00     0.085 C 
ATOM     22  C   UNL     1     122.443 122.304 138.671  1.00  0.00    -0.000 C 
ATOM     23  C   UNL     1     123.139 124.400 140.034  1.00  0.00     0.159 C 
ATOM     24  C   UNL     1     122.499 123.086 139.994  1.00  0.00     0.005 C 
ATOM     25  C   UNL     1     120.918 122.221 138.313  1.00  0.00     0.020 C 
ATOM     26  C   UNL     1     122.977 120.865 138.937  1.00  0.00     0.017 C 
ATOM     27  O   UNL     1     123.591 124.882 141.110  1.00  0.00    -0.295 OA
ATOM     28  C   UNL     1     121.685 122.766 141.013  1.00  0.00     0.055 C 
ATOM     29  C   UNL     1     120.073 121.530 139.411  1.00  0.00     0.081 C 
ATOM     30  C   UNL     1     120.525 121.886 140.801  1.00  0.00     0.156 C 
ATOM     31  O   UNL     1     119.875 121.464 141.792  1.00  0.00    -0.295 OA
ENDBRANCH   9  11
ENDBRANCH   8   9
ENDBRANCH   1   8
TORSDOF 6
ENDMDL
