MODEL 1
REMARK VINA RESULT:    -2.587      0.000      0.000
REMARK INTER + INTRA:          -3.260
REMARK INTER:                  -2.965
REMARK INTRA:                  -0.295
REMARK UNBOUND:                -0.295
REMARK SMILES COc1ccc(C(C)=O)c(O)c1
REMARK SMILES IDX 6 1 10 2 12 3 3 4 4 5 5 6 7 7 8 8 9 9 11 10 2 12 1 13
REMARK H PARENT 11 11
REMARK Flexibility Score: inf
ROOT
ATOM      1  C   UNL     1      31.977  22.747  27.996  1.00  0.00     0.059 A 
ATOM      2  C   UNL     1      32.519  23.403  29.127  1.00  0.00     0.130 A 
ATOM      3  C   UNL     1      33.852  23.843  29.116  1.00  0.00     0.093 A 
ATOM      4  C   UNL     1      34.665  23.634  27.988  1.00  0.00     0.122 A 
ATOM      5  C   UNL     1      34.130  22.983  26.875  1.00  0.00     0.047 A 
ATOM      6  C   UNL     1      32.805  22.544  26.875  1.00  0.00     0.019 A 
ENDROOT
BRANCH   1   7
ATOM      7  C   UNL     1      30.561  22.279  27.979  1.00  0.00     0.163 C 
ATOM      8  C   UNL     1      30.123  21.125  27.128  1.00  0.00     0.093 C 
ATOM      9  O   UNL     1      29.688  22.873  28.668  1.00  0.00    -0.294 OA
ENDBRANCH   1   7
BRANCH   2  10
ATOM     10  O   UNL     1      31.742  23.612  30.268  1.00  0.00    -0.507 OA
ATOM     11  H   UNL     1      31.838  23.030  31.092  1.00  0.00     0.293 HD
ENDBRANCH   2  10
BRANCH   4  12
ATOM     12  O   UNL     1      36.002  24.056  27.935  1.00  0.00    -0.497 OA
ATOM     13  C   UNL     1      37.035  23.563  28.781  1.00  0.00     0.278 C 
ENDBRANCH   4  12
TORSDOF 3
ENDMDL
MODEL 2
REMARK VINA RESULT:    -1.136     20.268     21.629
REMARK INTER + INTRA:          -1.596
REMARK INTER:                  -1.302
REMARK INTRA:                  -0.295
REMARK UNBOUND:                -0.295
REMARK SMILES COc1ccc(C(C)=O)c(O)c1
REMARK SMILES IDX 6 1 10 2 12 3 3 4 4 5 5 6 7 7 8 8 9 9 11 10 2 12 1 13
REMARK H PARENT 11 11
REMARK Flexibility Score: inf
ROOT
ATOM      1  C   UNL     1      19.276  23.353  45.737  1.00  0.00     0.059 A 
ATOM      2  C   UNL     1      20.137  23.540  44.629  1.00  0.00     0.130 A 
ATOM      3  C   UNL     1      21.482  23.149  44.708  1.00  0.00     0.093 A 
ATOM      4  C   UNL     1      21.992  22.571  45.884  1.00  0.00     0.122 A 
ATOM      5  C   UNL     1      21.143  22.391  46.977  1.00  0.00     0.047 A 
ATOM      6  C   UNL     1      19.802  22.775  46.908  1.00  0.00     0.019 A 
ENDROOT
BRANCH   1   7
ATOM      7  C   UNL     1      17.840  23.752  45.676  1.00  0.00     0.163 C 
ATOM      8  C   UNL     1      17.071  24.118  46.910  1.00  0.00     0.093 C 
ATOM      9  O   UNL     1      17.230  23.759  44.572  1.00  0.00    -0.294 OA
ENDBRANCH   1   7
BRANCH   2  10
ATOM     10  O   UNL     1      19.665  24.125  43.453  1.00  0.00    -0.507 OA
ATOM     11  H   UNL     1      19.875  23.735  42.541  1.00  0.00     0.293 HD
ENDBRANCH   2  10
BRANCH   4  12
ATOM     12  O   UNL     1      23.330  22.167  46.006  1.00  0.00    -0.497 OA
ATOM     13  C   UNL     1      24.445  23.052  45.969  1.00  0.00     0.278 C 
ENDBRANCH   4  12
TORSDOF 3
ENDMDL
MODEL 3
REMARK VINA RESULT:    -0.636      0.991      1.100
REMARK INTER + INTRA:          -1.023
REMARK INTER:                  -1.703
REMARK INTRA:                   0.680
REMARK UNBOUND:                -0.295
REMARK SMILES COc1ccc(C(C)=O)c(O)c1
REMARK SMILES IDX 6 1 10 2 12 3 3 4 4 5 5 6 7 7 8 8 9 9 11 10 2 12 1 13
REMARK H PARENT 11 11
REMARK Flexibility Score: inf
ROOT
ATOM      1  C   UNL     1      32.016  22.497  27.768  1.00  0.00     0.059 A 
ATOM      2  C   UNL     1      32.345  23.523  28.686  1.00  0.00     0.130 A 
ATOM      3  C   UNL     1      33.643  24.058  28.709  1.00  0.00     0.093 A 
ATOM      4  C   UNL     1      34.630  23.581  27.829  1.00  0.00     0.122 A 
ATOM      5  C   UNL     1      34.304  22.566  26.927  1.00  0.00     0.047 A 
ATOM      6  C   UNL     1      33.016  22.029  26.894  1.00  0.00     0.019 A 
ENDROOT
BRANCH   1   7
ATOM      7  C   UNL     1      30.642  21.919  27.716  1.00  0.00     0.163 C 
ATOM      8  C   UNL     1      29.557  22.380  28.643  1.00  0.00     0.093 C 
ATOM      9  O   UNL     1      30.372  20.998  26.899  1.00  0.00    -0.294 OA
ENDBRANCH   1   7
BRANCH   2  10
ATOM     10  O   UNL     1      31.392  24.007  29.583  1.00  0.00    -0.507 OA
ATOM     11  H   UNL     1      30.423  23.712  29.543  1.00  0.00     0.293 HD
ENDBRANCH   2  10
BRANCH   4  12
ATOM     12  O   UNL     1      35.938  24.086  27.820  1.00  0.00    -0.497 OA
ATOM     13  C   UNL     1      37.112  23.281  27.784  1.00  0.00     0.278 C 
ENDBRANCH   4  12
TORSDOF 3
ENDMDL
