MODEL 1
REMARK VINA RESULT:    -6.359      0.000      0.000
REMARK INTER + INTRA:          -6.545
REMARK INTER:                  -6.545
REMARK INTRA:                   0.000
REMARK UNBOUND:                 0.000
REMARK SMILES C=C1[C@H](O)C[C@]23C[C@H]1C(C)(C)[C@H]2CC[C@@H]3C
REMARK SMILES IDX 16 1 15 2 14 3 13 4 12 5 6 6 7 7 8 8 9 9 10 10 11 11 2 12
REMARK SMILES IDX 1 13 3 14 5 15 4 16
REMARK H PARENT 4 17
REMARK Flexibility Score: inf
ROOT
ATOM      1  C   UNL     1      -3.794  25.831  52.985  1.00  0.00     0.008 C 
ATOM      2  C   UNL     1      -4.613  26.342  51.791  1.00  0.00    -0.008 C 
ATOM      3  C   UNL     1      -4.049  27.650  51.238  1.00  0.00     0.004 C 
ATOM      4  C   UNL     1      -4.603  27.741  49.828  1.00  0.00     0.005 C 
ATOM      5  C   UNL     1      -4.569  26.294  49.313  1.00  0.00     0.002 C 
ATOM      6  C   UNL     1      -4.721  25.390  50.560  1.00  0.00    -0.020 C 
ATOM      7  C   UNL     1      -6.108  24.757  50.411  1.00  0.00     0.016 C 
ATOM      8  C   UNL     1      -6.161  24.487  48.916  1.00  0.00     0.023 C 
ATOM      9  C   UNL     1      -5.662  25.824  48.290  1.00  0.00    -0.025 C 
ATOM     10  C   UNL     1      -6.862  26.796  48.141  1.00  0.00     0.012 C 
ATOM     11  C   UNL     1      -5.056  25.643  46.875  1.00  0.00     0.012 C 
ATOM     12  C   UNL     1      -5.210  23.323  48.634  1.00  0.00    -0.045 C 
ATOM     13  C   UNL     1      -5.540  22.415  47.701  1.00  0.00     0.011 C 
ATOM     14  C   UNL     1      -3.819  23.298  49.275  1.00  0.00     0.140 C 
ATOM     15  C   UNL     1      -3.683  24.226  50.520  1.00  0.00     0.044 C 
ENDROOT
BRANCH  14  16
ATOM     16  O   UNL     1      -3.494  21.985  49.664  1.00  0.00    -0.389 OA
ATOM     17  H   UNL     1      -4.329  21.554  49.984  1.00  0.00     0.211 HD
ENDBRANCH  14  16
TORSDOF 1
ENDMDL
MODEL 2
REMARK VINA RESULT:    -6.152      4.294      7.003
REMARK INTER + INTRA:          -6.332
REMARK INTER:                  -6.332
REMARK INTRA:                   0.000
REMARK UNBOUND:                 0.000
REMARK SMILES C=C1[C@H](O)C[C@]23C[C@H]1C(C)(C)[C@H]2CC[C@@H]3C
REMARK SMILES IDX 16 1 15 2 14 3 13 4 12 5 6 6 7 7 8 8 9 9 10 10 11 11 2 12
REMARK SMILES IDX 1 13 3 14 5 15 4 16
REMARK H PARENT 4 17
REMARK Flexibility Score: inf
ROOT
ATOM      1  C   UNL     1      -2.027  16.875  46.597  1.00  0.00     0.008 C 
ATOM      2  C   UNL     1      -2.980  18.002  47.022  1.00  0.00    -0.008 C 
ATOM      3  C   UNL     1      -3.440  17.838  48.469  1.00  0.00     0.004 C 
ATOM      4  C   UNL     1      -3.914  19.219  48.881  1.00  0.00     0.005 C 
ATOM      5  C   UNL     1      -2.918  20.177  48.210  1.00  0.00     0.002 C 
ATOM      6  C   UNL     1      -2.422  19.457  46.933  1.00  0.00    -0.020 C 
ATOM      7  C   UNL     1      -3.025  20.261  45.778  1.00  0.00     0.016 C 
ATOM      8  C   UNL     1      -2.886  21.685  46.292  1.00  0.00     0.023 C 
ATOM      9  C   UNL     1      -3.414  21.595  47.755  1.00  0.00    -0.025 C 
ATOM     10  C   UNL     1      -4.956  21.764  47.752  1.00  0.00     0.012 C 
ATOM     11  C   UNL     1      -2.845  22.703  48.676  1.00  0.00     0.012 C 
ATOM     12  C   UNL     1      -1.400  22.042  46.232  1.00  0.00    -0.045 C 
ATOM     13  C   UNL     1      -1.036  23.291  45.899  1.00  0.00     0.011 C 
ATOM     14  C   UNL     1      -0.351  21.040  46.726  1.00  0.00     0.140 C 
ATOM     15  C   UNL     1      -0.872  19.574  46.809  1.00  0.00     0.044 C 
ENDROOT
BRANCH  14  16
ATOM     16  O   UNL     1       0.771  21.066  45.877  1.00  0.00    -0.389 OA
ATOM     17  H   UNL     1       0.539  20.553  45.060  1.00  0.00     0.211 HD
ENDBRANCH  14  16
TORSDOF 1
ENDMDL
MODEL 3
REMARK VINA RESULT:    -6.113      2.164      5.104
REMARK INTER + INTRA:          -6.292
REMARK INTER:                  -6.292
REMARK INTRA:                   0.000
REMARK UNBOUND:                 0.000
REMARK SMILES C=C1[C@H](O)C[C@]23C[C@H]1C(C)(C)[C@H]2CC[C@@H]3C
REMARK SMILES IDX 16 1 15 2 14 3 13 4 12 5 6 6 7 7 8 8 9 9 10 10 11 11 2 12
REMARK SMILES IDX 1 13 3 14 5 15 4 16
REMARK H PARENT 4 17
REMARK Flexibility Score: inf
ROOT
ATOM      1  C   UNL     1      -5.479  23.478  48.351  1.00  0.00     0.008 C 
ATOM      2  C   UNL     1      -4.374  23.187  49.377  1.00  0.00    -0.008 C 
ATOM      3  C   UNL     1      -3.040  22.879  48.699  1.00  0.00     0.004 C 
ATOM      4  C   UNL     1      -1.998  23.125  49.773  1.00  0.00     0.005 C 
ATOM      5  C   UNL     1      -2.517  24.354  50.534  1.00  0.00     0.002 C 
ATOM      6  C   UNL     1      -4.059  24.320  50.404  1.00  0.00    -0.020 C 
ATOM      7  C   UNL     1      -4.558  24.004  51.817  1.00  0.00     0.016 C 
ATOM      8  C   UNL     1      -3.603  24.825  52.668  1.00  0.00     0.023 C 
ATOM      9  C   UNL     1      -2.205  24.492  52.065  1.00  0.00    -0.025 C 
ATOM     10  C   UNL     1      -1.659  23.199  52.727  1.00  0.00     0.012 C 
ATOM     11  C   UNL     1      -1.154  25.601  52.320  1.00  0.00     0.012 C 
ATOM     12  C   UNL     1      -3.981  26.294  52.481  1.00  0.00    -0.045 C 
ATOM     13  C   UNL     1      -3.897  27.134  53.526  1.00  0.00     0.011 C 
ATOM     14  C   UNL     1      -4.271  26.837  51.078  1.00  0.00     0.140 C 
ATOM     15  C   UNL     1      -4.607  25.732  50.032  1.00  0.00     0.044 C 
ENDROOT
BRANCH  14  16
ATOM     16  O   UNL     1      -5.348  27.742  51.129  1.00  0.00    -0.389 OA
ATOM     17  H   UNL     1      -5.496  28.082  50.208  1.00  0.00     0.211 HD
ENDBRANCH  14  16
TORSDOF 1
ENDMDL
MODEL 4
REMARK VINA RESULT:    -6.093      1.783      3.955
REMARK INTER + INTRA:          -6.271
REMARK INTER:                  -6.271
REMARK INTRA:                   0.000
REMARK UNBOUND:                 0.000
REMARK SMILES C=C1[C@H](O)C[C@]23C[C@H]1C(C)(C)[C@H]2CC[C@@H]3C
REMARK SMILES IDX 16 1 15 2 14 3 13 4 12 5 6 6 7 7 8 8 9 9 10 10 11 11 2 12
REMARK SMILES IDX 1 13 3 14 5 15 4 16
REMARK H PARENT 4 17
REMARK Flexibility Score: inf
ROOT
ATOM      1  C   UNL     1      -7.334  28.489  47.780  1.00  0.00     0.008 C 
ATOM      2  C   UNL     1      -6.905  27.047  47.470  1.00  0.00    -0.008 C 
ATOM      3  C   UNL     1      -6.058  26.970  46.201  1.00  0.00     0.004 C 
ATOM      4  C   UNL     1      -5.315  25.652  46.315  1.00  0.00     0.005 C 
ATOM      5  C   UNL     1      -4.965  25.541  47.807  1.00  0.00     0.002 C 
ATOM      6  C   UNL     1      -6.068  26.318  48.566  1.00  0.00    -0.020 C 
ATOM      7  C   UNL     1      -6.860  25.236  49.306  1.00  0.00     0.016 C 
ATOM      8  C   UNL     1      -5.752  24.297  49.753  1.00  0.00     0.023 C 
ATOM      9  C   UNL     1      -4.887  24.121  48.468  1.00  0.00    -0.025 C 
ATOM     10  C   UNL     1      -5.486  22.978  47.605  1.00  0.00     0.012 C 
ATOM     11  C   UNL     1      -3.420  23.729  48.772  1.00  0.00     0.012 C 
ATOM     12  C   UNL     1      -4.988  25.003  50.874  1.00  0.00    -0.045 C 
ATOM     13  C   UNL     1      -4.519  24.282  51.906  1.00  0.00     0.011 C 
ATOM     14  C   UNL     1      -4.604  26.479  50.727  1.00  0.00     0.140 C 
ATOM     15  C   UNL     1      -5.435  27.242  49.652  1.00  0.00     0.044 C 
ENDROOT
BRANCH  14  16
ATOM     16  O   UNL     1      -4.762  27.139  51.961  1.00  0.00    -0.389 OA
ATOM     17  H   UNL     1      -4.013  26.857  52.548  1.00  0.00     0.211 HD
ENDBRANCH  14  16
TORSDOF 1
ENDMDL
MODEL 5
REMARK VINA RESULT:    -5.846      1.923      4.361
REMARK INTER + INTRA:          -6.017
REMARK INTER:                  -6.017
REMARK INTRA:                   0.000
REMARK UNBOUND:                 0.000
REMARK SMILES C=C1[C@H](O)C[C@]23C[C@H]1C(C)(C)[C@H]2CC[C@@H]3C
REMARK SMILES IDX 16 1 15 2 14 3 13 4 12 5 6 6 7 7 8 8 9 9 10 10 11 11 2 12
REMARK SMILES IDX 1 13 3 14 5 15 4 16
REMARK H PARENT 4 17
REMARK Flexibility Score: inf
ROOT
ATOM      1  C   UNL     1      -5.397  22.125  47.554  1.00  0.00     0.008 C 
ATOM      2  C   UNL     1      -4.961  22.793  48.867  1.00  0.00    -0.008 C 
ATOM      3  C   UNL     1      -3.485  22.541  49.167  1.00  0.00     0.004 C 
ATOM      4  C   UNL     1      -3.101  23.634  50.147  1.00  0.00     0.005 C 
ATOM      5  C   UNL     1      -3.865  24.872  49.654  1.00  0.00     0.002 C 
ATOM      6  C   UNL     1      -5.139  24.341  48.955  1.00  0.00    -0.020 C 
ATOM      7  C   UNL     1      -6.288  24.761  49.876  1.00  0.00     0.016 C 
ATOM      8  C   UNL     1      -5.839  26.147  50.310  1.00  0.00     0.023 C 
ATOM      9  C   UNL     1      -4.345  25.937  50.701  1.00  0.00    -0.025 C 
ATOM     10  C   UNL     1      -4.267  25.466  52.178  1.00  0.00     0.012 C 
ATOM     11  C   UNL     1      -3.504  27.234  50.601  1.00  0.00     0.012 C 
ATOM     12  C   UNL     1      -5.999  27.072  49.102  1.00  0.00    -0.045 C 
ATOM     13  C   UNL     1      -6.401  28.339  49.292  1.00  0.00     0.011 C 
ATOM     14  C   UNL     1      -5.528  26.612  47.719  1.00  0.00     0.140 C 
ATOM     15  C   UNL     1      -5.357  25.068  47.592  1.00  0.00     0.044 C 
ENDROOT
BRANCH  14  16
ATOM     16  O   UNL     1      -6.440  27.040  46.736  1.00  0.00    -0.389 OA
ATOM     17  H   UNL     1      -7.299  27.238  47.193  1.00  0.00     0.211 HD
ENDBRANCH  14  16
TORSDOF 1
ENDMDL
MODEL 6
REMARK VINA RESULT:    -5.794      1.457      2.116
REMARK INTER + INTRA:          -5.964
REMARK INTER:                  -5.964
REMARK INTRA:                   0.000
REMARK UNBOUND:                 0.000
REMARK SMILES C=C1[C@H](O)C[C@]23C[C@H]1C(C)(C)[C@H]2CC[C@@H]3C
REMARK SMILES IDX 16 1 15 2 14 3 13 4 12 5 6 6 7 7 8 8 9 9 10 10 11 11 2 12
REMARK SMILES IDX 1 13 3 14 5 15 4 16
REMARK H PARENT 4 17
REMARK Flexibility Score: inf
ROOT
ATOM      1  C   UNL     1      -1.425  23.925  53.432  1.00  0.00     0.008 C 
ATOM      2  C   UNL     1      -2.400  24.974  52.877  1.00  0.00    -0.008 C 
ATOM      3  C   UNL     1      -1.703  26.306  52.606  1.00  0.00     0.004 C 
ATOM      4  C   UNL     1      -2.613  27.023  51.627  1.00  0.00     0.005 C 
ATOM      5  C   UNL     1      -3.126  25.911  50.700  1.00  0.00     0.002 C 
ATOM      6  C   UNL     1      -3.127  24.614  51.545  1.00  0.00    -0.020 C 
ATOM      7  C   UNL     1      -4.610  24.284  51.741  1.00  0.00     0.016 C 
ATOM      8  C   UNL     1      -5.185  24.641  50.380  1.00  0.00     0.023 C 
ATOM      9  C   UNL     1      -4.561  26.038  50.079  1.00  0.00    -0.025 C 
ATOM     10  C   UNL     1      -5.443  27.139  50.724  1.00  0.00     0.012 C 
ATOM     11  C   UNL     1      -4.485  26.356  48.565  1.00  0.00     0.012 C 
ATOM     12  C   UNL     1      -4.713  23.570  49.396  1.00  0.00    -0.045 C 
ATOM     13  C   UNL     1      -5.540  23.163  48.420  1.00  0.00     0.011 C 
ATOM     14  C   UNL     1      -3.252  23.107  49.411  1.00  0.00     0.140 C 
ATOM     15  C   UNL     1      -2.501  23.436  50.737  1.00  0.00     0.044 C 
ENDROOT
BRANCH  14  16
ATOM     16  O   UNL     1      -3.189  21.717  49.198  1.00  0.00    -0.389 OA
ATOM     17  H   UNL     1      -2.578  21.338  49.883  1.00  0.00     0.211 HD
ENDBRANCH  14  16
TORSDOF 1
ENDMDL
MODEL 7
REMARK VINA RESULT:    -5.701      5.697      7.771
REMARK INTER + INTRA:          -5.868
REMARK INTER:                  -5.868
REMARK INTRA:                   0.000
REMARK UNBOUND:                 0.000
REMARK SMILES C=C1[C@H](O)C[C@]23C[C@H]1C(C)(C)[C@H]2CC[C@@H]3C
REMARK SMILES IDX 16 1 15 2 14 3 13 4 12 5 6 6 7 7 8 8 9 9 10 10 11 11 2 12
REMARK SMILES IDX 1 13 3 14 5 15 4 16
REMARK H PARENT 4 17
REMARK Flexibility Score: inf
ROOT
ATOM      1  C   UNL     1       0.468  22.255  46.661  1.00  0.00     0.008 C 
ATOM      2  C   UNL     1       0.124  20.800  46.308  1.00  0.00    -0.008 C 
ATOM      3  C   UNL     1       1.253  19.844  46.689  1.00  0.00     0.004 C 
ATOM      4  C   UNL     1       0.592  18.481  46.766  1.00  0.00     0.005 C 
ATOM      5  C   UNL     1      -0.786  18.761  47.385  1.00  0.00     0.002 C 
ATOM      6  C   UNL     1      -1.157  20.205  46.971  1.00  0.00    -0.020 C 
ATOM      7  C   UNL     1      -2.319  20.038  45.987  1.00  0.00     0.016 C 
ATOM      8  C   UNL     1      -3.102  18.905  46.630  1.00  0.00     0.023 C 
ATOM      9  C   UNL     1      -2.002  17.857  46.978  1.00  0.00    -0.025 C 
ATOM     10  C   UNL     1      -1.747  16.957  45.739  1.00  0.00     0.012 C 
ATOM     11  C   UNL     1      -2.407  16.914  48.139  1.00  0.00     0.012 C 
ATOM     12  C   UNL     1      -3.777  19.474  47.879  1.00  0.00    -0.045 C 
ATOM     13  C   UNL     1      -5.006  19.051  48.214  1.00  0.00     0.011 C 
ATOM     14  C   UNL     1      -2.985  20.374  48.833  1.00  0.00     0.140 C 
ATOM     15  C   UNL     1      -1.708  20.999  48.195  1.00  0.00     0.044 C 
ENDROOT
BRANCH  14  16
ATOM     16  O   UNL     1      -3.806  21.419  49.297  1.00  0.00    -0.389 OA
ATOM     17  H   UNL     1      -3.252  22.242  49.329  1.00  0.00     0.211 HD
ENDBRANCH  14  16
TORSDOF 1
ENDMDL
MODEL 8
REMARK VINA RESULT:    -5.675      3.630      5.813
REMARK INTER + INTRA:          -5.841
REMARK INTER:                  -5.841
REMARK INTRA:                   0.000
REMARK UNBOUND:                 0.000
REMARK SMILES C=C1[C@H](O)C[C@]23C[C@H]1C(C)(C)[C@H]2CC[C@@H]3C
REMARK SMILES IDX 16 1 15 2 14 3 13 4 12 5 6 6 7 7 8 8 9 9 10 10 11 11 2 12
REMARK SMILES IDX 1 13 3 14 5 15 4 16
REMARK H PARENT 4 17
REMARK Flexibility Score: inf
ROOT
ATOM      1  C   UNL     1      -4.988  23.313  48.977  1.00  0.00     0.008 C 
ATOM      2  C   UNL     1      -3.611  23.079  48.340  1.00  0.00    -0.008 C 
ATOM      3  C   UNL     1      -2.476  23.424  49.302  1.00  0.00     0.004 C 
ATOM      4  C   UNL     1      -1.270  22.684  48.757  1.00  0.00     0.005 C 
ATOM      5  C   UNL     1      -1.839  21.346  48.258  1.00  0.00     0.002 C 
ATOM      6  C   UNL     1      -3.306  21.628  47.852  1.00  0.00    -0.020 C 
ATOM      7  C   UNL     1      -3.316  21.494  46.326  1.00  0.00     0.016 C 
ATOM      8  C   UNL     1      -2.387  20.309  46.118  1.00  0.00     0.023 C 
ATOM      9  C   UNL     1      -1.166  20.643  47.028  1.00  0.00    -0.025 C 
ATOM     10  C   UNL     1      -0.174  21.540  46.240  1.00  0.00     0.012 C 
ATOM     11  C   UNL     1      -0.377  19.386  47.470  1.00  0.00     0.012 C 
ATOM     12  C   UNL     1      -3.136  19.061  46.586  1.00  0.00    -0.045 C 
ATOM     13  C   UNL     1      -2.973  17.907  45.920  1.00  0.00     0.011 C 
ATOM     14  C   UNL     1      -3.913  19.086  47.906  1.00  0.00     0.140 C 
ATOM     15  C   UNL     1      -4.250  20.521  48.412  1.00  0.00     0.044 C 
ENDROOT
BRANCH  14  16
ATOM     16  O   UNL     1      -5.118  18.371  47.765  1.00  0.00    -0.389 OA
ATOM     17  H   UNL     1      -4.937  17.597  47.171  1.00  0.00     0.211 HD
ENDBRANCH  14  16
TORSDOF 1
ENDMDL
MODEL 9
REMARK VINA RESULT:    -5.606      1.540      3.990
REMARK INTER + INTRA:          -5.770
REMARK INTER:                  -5.770
REMARK INTRA:                   0.000
REMARK UNBOUND:                 0.000
REMARK SMILES C=C1[C@H](O)C[C@]23C[C@H]1C(C)(C)[C@H]2CC[C@@H]3C
REMARK SMILES IDX 16 1 15 2 14 3 13 4 12 5 6 6 7 7 8 8 9 9 10 10 11 11 2 12
REMARK SMILES IDX 1 13 3 14 5 15 4 16
REMARK H PARENT 4 17
REMARK Flexibility Score: inf
ROOT
ATOM      1  C   UNL     1      -2.453  21.619  49.245  1.00  0.00     0.008 C 
ATOM      2  C   UNL     1      -3.409  22.565  48.503  1.00  0.00    -0.008 C 
ATOM      3  C   UNL     1      -4.646  21.830  47.992  1.00  0.00     0.004 C 
ATOM      4  C   UNL     1      -5.676  22.921  47.767  1.00  0.00     0.005 C 
ATOM      5  C   UNL     1      -5.455  23.897  48.933  1.00  0.00     0.002 C 
ATOM      6  C   UNL     1      -3.961  23.777  49.317  1.00  0.00    -0.020 C 
ATOM      7  C   UNL     1      -3.345  25.114  48.892  1.00  0.00     0.016 C 
ATOM      8  C   UNL     1      -4.444  26.091  49.277  1.00  0.00     0.023 C 
ATOM      9  C   UNL     1      -5.734  25.425  48.712  1.00  0.00    -0.025 C 
ATOM     10  C   UNL     1      -5.911  25.836  47.225  1.00  0.00     0.012 C 
ATOM     11  C   UNL     1      -7.021  25.867  49.452  1.00  0.00     0.012 C 
ATOM     12  C   UNL     1      -4.456  26.178  50.803  1.00  0.00    -0.045 C 
ATOM     13  C   UNL     1      -4.710  27.357  51.394  1.00  0.00     0.011 C 
ATOM     14  C   UNL     1      -4.366  24.900  51.643  1.00  0.00     0.140 C 
ATOM     15  C   UNL     1      -3.801  23.673  50.865  1.00  0.00     0.044 C 
ENDROOT
BRANCH  14  16
ATOM     16  O   UNL     1      -3.551  25.124  52.769  1.00  0.00    -0.389 OA
ATOM     17  H   UNL     1      -4.074  24.865  53.572  1.00  0.00     0.211 HD
ENDBRANCH  14  16
TORSDOF 1
ENDMDL
