MODEL 1
REMARK VINA RESULT:    -5.600      0.000      0.000
REMARK INTER + INTRA:          -6.430
REMARK INTER:                  -5.928
REMARK INTRA:                  -0.502
REMARK UNBOUND:                -0.502
REMARK SMILES CC1=C[C@@H]2C(=C(C)CC[C@@H]2C(C)C)CC1
REMARK SMILES IDX 1 1 2 2 3 3 4 4 10 5 9 6 8 7 6 8 5 9 14 10 15 11 7 12 11 13
REMARK SMILES IDX 12 14 13 15
REMARK H PARENT
REMARK Flexibility Score: inf
ROOT
ATOM      1  C   UNL     1     141.064 144.595 137.036  1.00  0.00     0.039 C 
ATOM      2  C   UNL     1     141.675 144.260 135.702  1.00  0.00    -0.076 C 
ATOM      3  C   UNL     1     142.891 143.679 135.666  1.00  0.00    -0.020 C 
ATOM      4  C   UNL     1     143.606 143.317 134.385  1.00  0.00     0.041 C 
ATOM      5  C   UNL     1     144.042 141.808 134.284  1.00  0.00     0.003 C 
ATOM      6  C   UNL     1     144.493 141.422 132.835  1.00  0.00     0.009 C 
ATOM      7  C   UNL     1     144.715 142.629 131.922  1.00  0.00     0.031 C 
ATOM      8  C   UNL     1     143.485 143.509 131.927  1.00  0.00    -0.073 C 
ATOM      9  C   UNL     1     142.913 143.812 133.122  1.00  0.00    -0.064 C 
ATOM     10  C   UNL     1     141.793 144.826 133.247  1.00  0.00     0.036 C 
ATOM     11  C   UNL     1     140.889 144.513 134.437  1.00  0.00     0.035 C 
ATOM     12  C   UNL     1     142.941 144.026 130.617  1.00  0.00     0.039 C 
ENDROOT
BRANCH   5  13
ATOM     13  C   UNL     1     143.049 140.721 134.829  1.00  0.00    -0.013 C 
ATOM     14  C   UNL     1     141.791 140.538 133.962  1.00  0.00     0.007 C 
ATOM     15  C   UNL     1     143.706 139.365 135.127  1.00  0.00     0.007 C 
ENDBRANCH   5  13
TORSDOF 1
ENDMDL
MODEL 2
REMARK VINA RESULT:    -5.587      3.205      4.534
REMARK INTER + INTRA:          -6.416
REMARK INTER:                  -5.916
REMARK INTRA:                  -0.500
REMARK UNBOUND:                -0.502
REMARK SMILES CC1=C[C@@H]2C(=C(C)CC[C@@H]2C(C)C)CC1
REMARK SMILES IDX 1 1 2 2 3 3 4 4 10 5 9 6 8 7 6 8 5 9 14 10 15 11 7 12 11 13
REMARK SMILES IDX 12 14 13 15
REMARK H PARENT
REMARK Flexibility Score: inf
ROOT
ATOM      1  C   UNL     1     137.602 140.998 137.040  1.00  0.00     0.039 C 
ATOM      2  C   UNL     1     137.940 141.635 135.719  1.00  0.00    -0.076 C 
ATOM      3  C   UNL     1     138.526 142.848 135.707  1.00  0.00    -0.020 C 
ATOM      4  C   UNL     1     138.891 143.588 134.441  1.00  0.00     0.041 C 
ATOM      5  C   UNL     1     140.402 144.019 134.348  1.00  0.00     0.003 C 
ATOM      6  C   UNL     1     140.790 144.498 132.909  1.00  0.00     0.009 C 
ATOM      7  C   UNL     1     139.584 144.744 132.000  1.00  0.00     0.031 C 
ATOM      8  C   UNL     1     138.698 143.517 131.981  1.00  0.00    -0.073 C 
ATOM      9  C   UNL     1     138.393 142.923 133.164  1.00  0.00    -0.064 C 
ATOM     10  C   UNL     1     137.374 141.804 133.266  1.00  0.00     0.036 C 
ATOM     11  C   UNL     1     137.684 140.875 134.438  1.00  0.00     0.035 C 
ATOM     12  C   UNL     1     138.179 143.002 130.660  1.00  0.00     0.039 C 
ENDROOT
BRANCH   5  13
ATOM     13  C   UNL     1     141.485 143.011 134.873  1.00  0.00    -0.013 C 
ATOM     14  C   UNL     1     141.644 141.757 133.995  1.00  0.00     0.007 C 
ATOM     15  C   UNL     1     142.851 143.651 135.160  1.00  0.00     0.007 C 
ENDBRANCH   5  13
TORSDOF 1
ENDMDL
MODEL 3
REMARK VINA RESULT:    -5.582      3.705      6.439
REMARK INTER + INTRA:          -6.411
REMARK INTER:                  -5.913
REMARK INTRA:                  -0.497
REMARK UNBOUND:                -0.502
REMARK SMILES CC1=C[C@@H]2C(=C(C)CC[C@@H]2C(C)C)CC1
REMARK SMILES IDX 1 1 2 2 3 3 4 4 10 5 9 6 8 7 6 8 5 9 14 10 15 11 7 12 11 13
REMARK SMILES IDX 12 14 13 15
REMARK H PARENT
REMARK Flexibility Score: inf
ROOT
ATOM      1  C   UNL     1     141.009 137.443 137.119  1.00  0.00     0.039 C 
ATOM      2  C   UNL     1     140.434 137.841 135.786  1.00  0.00    -0.076 C 
ATOM      3  C   UNL     1     139.222 138.429 135.745  1.00  0.00    -0.020 C 
ATOM      4  C   UNL     1     138.542 138.852 134.463  1.00  0.00     0.041 C 
ATOM      5  C   UNL     1     138.115 140.366 134.419  1.00  0.00     0.003 C 
ATOM      6  C   UNL     1     137.704 140.819 132.978  1.00  0.00     0.009 C 
ATOM      7  C   UNL     1     137.501 139.655 132.005  1.00  0.00     0.031 C 
ATOM      8  C   UNL     1     138.727 138.769 132.003  1.00  0.00    -0.073 C 
ATOM      9  C   UNL     1     139.266 138.410 133.198  1.00  0.00    -0.064 C 
ATOM     10  C   UNL     1     140.379 137.386 133.305  1.00  0.00     0.036 C 
ATOM     11  C   UNL     1     141.253 137.641 134.532  1.00  0.00     0.035 C 
ATOM     12  C   UNL     1     139.303 138.309 130.685  1.00  0.00     0.039 C 
ENDROOT
BRANCH   5  13
ATOM     13  C   UNL     1     139.098 141.422 135.038  1.00  0.00    -0.013 C 
ATOM     14  C   UNL     1     140.405 141.596 134.243  1.00  0.00     0.007 C 
ATOM     15  C   UNL     1     138.452 142.785 135.327  1.00  0.00     0.007 C 
ENDBRANCH   5  13
TORSDOF 1
ENDMDL
MODEL 4
REMARK VINA RESULT:    -5.561      3.271      4.637
REMARK INTER + INTRA:          -6.388
REMARK INTER:                  -5.887
REMARK INTRA:                  -0.502
REMARK UNBOUND:                -0.502
REMARK SMILES CC1=C[C@@H]2C(=C(C)CC[C@@H]2C(C)C)CC1
REMARK SMILES IDX 1 1 2 2 3 3 4 4 10 5 9 6 8 7 6 8 5 9 14 10 15 11 7 12 11 13
REMARK SMILES IDX 12 14 13 15
REMARK H PARENT
REMARK Flexibility Score: inf
ROOT
ATOM      1  C   UNL     1     144.774 140.792 137.143  1.00  0.00     0.039 C 
ATOM      2  C   UNL     1     144.351 140.278 135.793  1.00  0.00    -0.076 C 
ATOM      3  C   UNL     1     143.691 139.105 135.716  1.00  0.00    -0.020 C 
ATOM      4  C   UNL     1     143.237 138.486 134.415  1.00  0.00     0.041 C 
ATOM      5  C   UNL     1     141.700 138.153 134.351  1.00  0.00     0.003 C 
ATOM      6  C   UNL     1     141.232 137.808 132.898  1.00  0.00     0.009 C 
ATOM      7  C   UNL     1     142.388 137.560 131.926  1.00  0.00     0.031 C 
ATOM      8  C   UNL     1     143.346 138.730 131.961  1.00  0.00    -0.073 C 
ATOM      9  C   UNL     1     143.729 139.215 133.172  1.00  0.00    -0.064 C 
ATOM     10  C   UNL     1     144.818 140.260 133.314  1.00  0.00     0.036 C 
ATOM     11  C   UNL     1     144.609 141.115 134.562  1.00  0.00     0.035 C 
ATOM     12  C   UNL     1     143.849 139.311 130.661  1.00  0.00     0.039 C 
ENDROOT
BRANCH   5  13
ATOM     13  C   UNL     1     140.701 139.182 134.991  1.00  0.00    -0.013 C 
ATOM     14  C   UNL     1     140.581 140.501 134.208  1.00  0.00     0.007 C 
ATOM     15  C   UNL     1     139.311 138.601 135.294  1.00  0.00     0.007 C 
ENDBRANCH   5  13
TORSDOF 1
ENDMDL
MODEL 5
REMARK VINA RESULT:    -5.429      2.745      6.190
REMARK INTER + INTRA:          -6.248
REMARK INTER:                  -5.874
REMARK INTRA:                  -0.375
REMARK UNBOUND:                -0.502
REMARK SMILES CC1=C[C@@H]2C(=C(C)CC[C@@H]2C(C)C)CC1
REMARK SMILES IDX 1 1 2 2 3 3 4 4 10 5 9 6 8 7 6 8 5 9 14 10 15 11 7 12 11 13
REMARK SMILES IDX 12 14 13 15
REMARK H PARENT
REMARK Flexibility Score: inf
ROOT
ATOM      1  C   UNL     1     142.417 137.829 130.216  1.00  0.00     0.039 C 
ATOM      2  C   UNL     1     142.081 137.955 131.678  1.00  0.00    -0.076 C 
ATOM      3  C   UNL     1     143.081 137.955 132.582  1.00  0.00    -0.020 C 
ATOM      4  C   UNL     1     142.858 138.056 134.074  1.00  0.00     0.041 C 
ATOM      5  C   UNL     1     143.638 139.232 134.772  1.00  0.00     0.003 C 
ATOM      6  C   UNL     1     143.140 139.481 136.235  1.00  0.00     0.009 C 
ATOM      7  C   UNL     1     142.250 138.360 136.777  1.00  0.00     0.031 C 
ATOM      8  C   UNL     1     141.111 138.099 135.816  1.00  0.00    -0.073 C 
ATOM      9  C   UNL     1     141.395 137.994 134.491  1.00  0.00    -0.064 C 
ATOM     10  C   UNL     1     140.357 137.558 133.476  1.00  0.00     0.036 C 
ATOM     11  C   UNL     1     140.644 138.151 132.098  1.00  0.00     0.035 C 
ATOM     12  C   UNL     1     139.708 137.956 136.356  1.00  0.00     0.039 C 
ENDROOT
BRANCH   5  13
ATOM     13  C   UNL     1     143.730 140.603 134.011  1.00  0.00    -0.013 C 
ATOM     14  C   UNL     1     143.152 141.791 134.800  1.00  0.00     0.007 C 
ATOM     15  C   UNL     1     145.133 140.933 133.482  1.00  0.00     0.007 C 
ENDBRANCH   5  13
TORSDOF 1
ENDMDL
MODEL 6
REMARK VINA RESULT:    -5.385      1.775      3.065
REMARK INTER + INTRA:          -6.202
REMARK INTER:                  -5.699
REMARK INTRA:                  -0.503
REMARK UNBOUND:                -0.502
REMARK SMILES CC1=C[C@@H]2C(=C(C)CC[C@@H]2C(C)C)CC1
REMARK SMILES IDX 1 1 2 2 3 3 4 4 10 5 9 6 8 7 6 8 5 9 14 10 15 11 7 12 11 13
REMARK SMILES IDX 12 14 13 15
REMARK H PARENT
REMARK Flexibility Score: inf
ROOT
ATOM      1  C   UNL     1     145.122 140.330 137.302  1.00  0.00     0.039 C 
ATOM      2  C   UNL     1     144.647 140.996 136.039  1.00  0.00    -0.076 C 
ATOM      3  C   UNL     1     145.185 140.625 134.860  1.00  0.00    -0.020 C 
ATOM      4  C   UNL     1     144.798 141.239 133.535  1.00  0.00     0.041 C 
ATOM      5  C   UNL     1     144.325 140.204 132.448  1.00  0.00     0.003 C 
ATOM      6  C   UNL     1     143.652 140.904 131.221  1.00  0.00     0.009 C 
ATOM      7  C   UNL     1     143.874 142.418 131.184  1.00  0.00     0.031 C 
ATOM      8  C   UNL     1     143.450 143.030 132.501  1.00  0.00    -0.073 C 
ATOM      9  C   UNL     1     143.861 142.435 133.651  1.00  0.00    -0.064 C 
ATOM     10  C   UNL     1     143.642 143.069 135.011  1.00  0.00     0.036 C 
ATOM     11  C   UNL     1     143.530 142.011 136.107  1.00  0.00     0.035 C 
ATOM     12  C   UNL     1     142.600 144.278 132.495  1.00  0.00     0.039 C 
ENDROOT
BRANCH   5  13
ATOM     13  C   UNL     1     143.428 139.005 132.921  1.00  0.00    -0.013 C 
ATOM     14  C   UNL     1     141.996 139.414 133.308  1.00  0.00     0.007 C 
ATOM     15  C   UNL     1     143.409 137.815 131.951  1.00  0.00     0.007 C 
ENDBRANCH   5  13
TORSDOF 1
ENDMDL
MODEL 7
REMARK VINA RESULT:    -5.365      1.624      4.863
REMARK INTER + INTRA:          -6.181
REMARK INTER:                  -5.677
REMARK INTRA:                  -0.504
REMARK UNBOUND:                -0.502
REMARK SMILES CC1=C[C@@H]2C(=C(C)CC[C@@H]2C(C)C)CC1
REMARK SMILES IDX 1 1 2 2 3 3 4 4 10 5 9 6 8 7 6 8 5 9 14 10 15 11 7 12 11 13
REMARK SMILES IDX 12 14 13 15
REMARK H PARENT
REMARK Flexibility Score: inf
ROOT
ATOM      1  C   UNL     1     144.346 142.769 129.896  1.00  0.00     0.039 C 
ATOM      2  C   UNL     1     143.817 143.015 131.283  1.00  0.00    -0.076 C 
ATOM      3  C   UNL     1     142.921 144.004 131.477  1.00  0.00    -0.020 C 
ATOM      4  C   UNL     1     142.339 144.351 132.827  1.00  0.00     0.041 C 
ATOM      5  C   UNL     1     140.766 144.342 132.882  1.00  0.00     0.003 C 
ATOM      6  C   UNL     1     140.228 144.402 134.351  1.00  0.00     0.009 C 
ATOM      7  C   UNL     1     141.300 144.769 135.380  1.00  0.00     0.031 C 
ATOM      8  C   UNL     1     142.486 143.840 135.238  1.00  0.00    -0.073 C 
ATOM      9  C   UNL     1     142.969 143.598 133.991  1.00  0.00    -0.064 C 
ATOM     10  C   UNL     1     144.257 142.831 133.760  1.00  0.00     0.036 C 
ATOM     11  C   UNL     1     144.240 142.108 132.415  1.00  0.00     0.035 C 
ATOM     12  C   UNL     1     143.095 143.226 136.475  1.00  0.00     0.039 C 
ENDROOT
BRANCH   5  13
ATOM     13  C   UNL     1     140.012 143.211 132.096  1.00  0.00    -0.013 C 
ATOM     14  C   UNL     1     140.003 141.852 132.818  1.00  0.00     0.007 C 
ATOM     15  C   UNL     1     138.595 143.597 131.647  1.00  0.00     0.007 C 
ENDBRANCH   5  13
TORSDOF 1
ENDMDL
MODEL 8
REMARK VINA RESULT:    -5.358      4.279      6.460
REMARK INTER + INTRA:          -6.173
REMARK INTER:                  -5.800
REMARK INTRA:                  -0.374
REMARK UNBOUND:                -0.502
REMARK SMILES CC1=C[C@@H]2C(=C(C)CC[C@@H]2C(C)C)CC1
REMARK SMILES IDX 1 1 2 2 3 3 4 4 10 5 9 6 8 7 6 8 5 9 14 10 15 11 7 12 11 13
REMARK SMILES IDX 12 14 13 15
REMARK H PARENT
REMARK Flexibility Score: inf
ROOT
ATOM      1  C   UNL     1     138.518 139.136 130.127  1.00  0.00     0.039 C 
ATOM      2  C   UNL     1     138.801 139.025 131.601  1.00  0.00    -0.076 C 
ATOM      3  C   UNL     1     139.513 137.974 132.054  1.00  0.00    -0.020 C 
ATOM      4  C   UNL     1     139.839 137.753 133.513  1.00  0.00     0.041 C 
ATOM      5  C   UNL     1     141.373 137.582 133.821  1.00  0.00     0.003 C 
ATOM      6  C   UNL     1     141.678 137.665 135.355  1.00  0.00     0.009 C 
ATOM      7  C   UNL     1     140.427 137.576 136.233  1.00  0.00     0.031 C 
ATOM      8  C   UNL     1     139.416 138.610 135.789  1.00  0.00    -0.073 C 
ATOM      9  C   UNL     1     139.157 138.731 134.460  1.00  0.00    -0.064 C 
ATOM     10  C   UNL     1     138.036 139.606 133.934  1.00  0.00     0.036 C 
ATOM     11  C   UNL     1     138.348 140.125 132.532  1.00  0.00     0.035 C 
ATOM     12  C   UNL     1     138.725 139.460 136.828  1.00  0.00     0.039 C 
ENDROOT
BRANCH   5  13
ATOM     13  C   UNL     1     142.383 138.495 133.038  1.00  0.00    -0.013 C 
ATOM     14  C   UNL     1     143.275 139.358 133.948  1.00  0.00     0.007 C 
ATOM     15  C   UNL     1     143.230 137.744 132.000  1.00  0.00     0.007 C 
ENDBRANCH   5  13
TORSDOF 1
ENDMDL
MODEL 9
REMARK VINA RESULT:    -5.356      3.320      5.688
REMARK INTER + INTRA:          -6.171
REMARK INTER:                  -5.666
REMARK INTRA:                  -0.505
REMARK UNBOUND:                -0.502
REMARK SMILES CC1=C[C@@H]2C(=C(C)CC[C@@H]2C(C)C)CC1
REMARK SMILES IDX 1 1 2 2 3 3 4 4 10 5 9 6 8 7 6 8 5 9 14 10 15 11 7 12 11 13
REMARK SMILES IDX 12 14 13 15
REMARK H PARENT
REMARK Flexibility Score: inf
ROOT
ATOM      1  C   UNL     1     139.702 144.382 130.039  1.00  0.00     0.039 C 
ATOM      2  C   UNL     1     139.465 143.921 131.452  1.00  0.00    -0.076 C 
ATOM      3  C   UNL     1     138.341 143.235 131.738  1.00  0.00    -0.020 C 
ATOM      4  C   UNL     1     137.993 142.741 133.123  1.00  0.00     0.041 C 
ATOM      5  C   UNL     1     137.704 141.197 133.213  1.00  0.00     0.003 C 
ATOM      6  C   UNL     1     137.655 140.692 134.694  1.00  0.00     0.009 C 
ATOM      7  C   UNL     1     137.580 141.823 135.723  1.00  0.00     0.031 C 
ATOM      8  C   UNL     1     138.705 142.806 135.485  1.00  0.00    -0.073 C 
ATOM      9  C   UNL     1     138.940 143.224 134.214  1.00  0.00    -0.064 C 
ATOM     10  C   UNL     1     139.919 144.337 133.899  1.00  0.00     0.036 C 
ATOM     11  C   UNL     1     140.520 144.171 132.504  1.00  0.00     0.035 C 
ATOM     12  C   UNL     1     139.518 143.295 136.660  1.00  0.00     0.039 C 
ENDROOT
BRANCH   5  13
ATOM     13  C   UNL     1     138.606 140.233 132.363  1.00  0.00    -0.013 C 
ATOM     14  C   UNL     1     140.033 140.069 132.915  1.00  0.00     0.007 C 
ATOM     15  C   UNL     1     137.971 138.863 132.084  1.00  0.00     0.007 C 
ENDBRANCH   5  13
TORSDOF 1
ENDMDL
