MODEL 1
REMARK VINA RESULT:    -3.542      0.000      0.000
REMARK INTER + INTRA:          -4.305
REMARK INTER:                  -4.164
REMARK INTRA:                  -0.142
REMARK UNBOUND:                -0.142
REMARK SMILES [NH3+][C@H](CO)C(=O)[O-]
REMARK SMILES IDX 3 1 2 2 1 3 5 7 6 8 7 9 4 10
REMARK H PARENT 1 4 1 5 1 6 4 11
REMARK Flexibility Score: inf
ROOT
ATOM      1  C   UNL     1       2.897  -3.004 -21.782  1.00  0.00     0.227 C 
ENDROOT
BRANCH   1   2
ATOM      2  C   UNL     1       1.746  -2.044 -22.133  1.00  0.00     0.253 C 
BRANCH   2   3
ATOM      3  N   UNL     1       0.793  -1.949 -21.021  1.00  0.00    -0.348 N 
ATOM      4  H   UNL     1       0.285  -2.855 -20.890  1.00  0.00     0.345 HD
ATOM      5  H   UNL     1       1.301  -1.708 -20.139  1.00  0.00     0.345 HD
ATOM      6  H   UNL     1       0.098  -1.192 -21.216  1.00  0.00     0.345 HD
ENDBRANCH   2   3
BRANCH   2   7
ATOM      7  C   UNL     1       2.280  -0.680 -22.487  1.00  0.00     0.102 C 
ATOM      8  O   UNL     1       2.754  -0.456 -23.633  1.00  0.00    -0.544 OA
ATOM      9  O   UNL     1       2.239   0.345 -21.551  1.00  0.00    -0.544 OA
ENDBRANCH   2   7
ENDBRANCH   1   2
BRANCH   1  10
ATOM     10  O   UNL     1       3.454  -3.559 -22.943  1.00  0.00    -0.390 OA
ATOM     11  H   UNL     1       4.430  -3.374 -22.907  1.00  0.00     0.210 HD
ENDBRANCH   1  10
TORSDOF 4
ENDMDL
MODEL 2
REMARK VINA RESULT:    -3.362      7.398      8.389
REMARK INTER + INTRA:          -4.093
REMARK INTER:                  -3.858
REMARK INTRA:                  -0.235
REMARK UNBOUND:                -0.142
REMARK SMILES [NH3+][C@H](CO)C(=O)[O-]
REMARK SMILES IDX 3 1 2 2 1 3 5 7 6 8 7 9 4 10
REMARK H PARENT 1 4 1 5 1 6 4 11
REMARK Flexibility Score: inf
ROOT
ATOM      1  C   UNL     1      -2.555   2.860 -22.477  1.00  0.00     0.227 C 
ENDROOT
BRANCH   1   2
ATOM      2  C   UNL     1      -3.876   2.681 -21.707  1.00  0.00     0.253 C 
BRANCH   2   3
ATOM      3  N   UNL     1      -3.671   2.893 -20.270  1.00  0.00    -0.348 N 
ATOM      4  H   UNL     1      -4.180   3.749 -19.945  1.00  0.00     0.345 HD
ATOM      5  H   UNL     1      -4.018   2.063 -19.736  1.00  0.00     0.345 HD
ATOM      6  H   UNL     1      -2.650   3.007 -20.072  1.00  0.00     0.345 HD
ENDBRANCH   2   3
BRANCH   2   7
ATOM      7  C   UNL     1      -4.929   3.620 -22.234  1.00  0.00     0.102 C 
ATOM      8  O   UNL     1      -5.886   3.985 -21.500  1.00  0.00    -0.544 OA
ATOM      9  O   UNL     1      -4.843   4.101 -23.534  1.00  0.00    -0.544 OA
ENDBRANCH   2   7
ENDBRANCH   1   2
BRANCH   1  10
ATOM     10  O   UNL     1      -2.182   4.211 -22.521  1.00  0.00    -0.390 OA
ATOM     11  H   UNL     1      -2.485   4.618 -21.666  1.00  0.00     0.210 HD
ENDBRANCH   1  10
TORSDOF 4
ENDMDL
MODEL 3
REMARK VINA RESULT:    -3.238      1.775      2.761
REMARK INTER + INTRA:          -3.947
REMARK INTER:                  -3.726
REMARK INTRA:                  -0.222
REMARK UNBOUND:                -0.142
REMARK SMILES [NH3+][C@H](CO)C(=O)[O-]
REMARK SMILES IDX 3 1 2 2 1 3 5 7 6 8 7 9 4 10
REMARK H PARENT 1 4 1 5 1 6 4 11
REMARK Flexibility Score: inf
ROOT
ATOM      1  C   UNL     1       2.376   0.125 -23.875  1.00  0.00     0.227 C 
ENDROOT
BRANCH   1   2
ATOM      2  C   UNL     1       1.927  -0.130 -22.425  1.00  0.00     0.253 C 
BRANCH   2   3
ATOM      3  N   UNL     1       0.615   0.475 -22.174  1.00  0.00    -0.348 N 
ATOM      4  H   UNL     1      -0.155  -0.178 -22.452  1.00  0.00     0.345 HD
ATOM      5  H   UNL     1       0.519   0.706 -21.158  1.00  0.00     0.345 HD
ATOM      6  H   UNL     1       0.525   1.362 -22.721  1.00  0.00     0.345 HD
ENDBRANCH   2   3
BRANCH   2   7
ATOM      7  C   UNL     1       1.891  -1.608 -22.132  1.00  0.00     0.102 C 
ATOM      8  O   UNL     1       2.645  -2.402 -22.755  1.00  0.00    -0.544 OA
ATOM      9  O   UNL     1       1.030  -2.102 -21.160  1.00  0.00    -0.544 OA
ENDBRANCH   2   7
ENDBRANCH   1   2
BRANCH   1  10
ATOM     10  O   UNL     1       3.774   0.104 -23.976  1.00  0.00    -0.390 OA
ATOM     11  H   UNL     1       4.094   1.000 -23.690  1.00  0.00     0.210 HD
ENDBRANCH   1  10
TORSDOF 4
ENDMDL
MODEL 4
REMARK VINA RESULT:    -3.234      2.425      2.730
REMARK INTER + INTRA:          -3.943
REMARK INTER:                  -3.934
REMARK INTRA:                  -0.009
REMARK UNBOUND:                -0.142
REMARK SMILES [NH3+][C@H](CO)C(=O)[O-]
REMARK SMILES IDX 3 1 2 2 1 3 5 7 6 8 7 9 4 10
REMARK H PARENT 1 4 1 5 1 6 4 11
REMARK Flexibility Score: inf
ROOT
ATOM      1  C   UNL     1       1.010  -0.390 -22.221  1.00  0.00     0.227 C 
ENDROOT
BRANCH   1   2
ATOM      2  C   UNL     1       2.449  -0.618 -22.718  1.00  0.00     0.253 C 
BRANCH   2   3
ATOM      3  N   UNL     1       2.658  -2.026 -23.073  1.00  0.00    -0.348 N 
ATOM      4  H   UNL     1       2.101  -2.280 -23.923  1.00  0.00     0.345 HD
ATOM      5  H   UNL     1       3.672  -2.197 -23.263  1.00  0.00     0.345 HD
ATOM      6  H   UNL     1       2.365  -2.638 -22.277  1.00  0.00     0.345 HD
ENDBRANCH   2   3
BRANCH   2   7
ATOM      7  C   UNL     1       2.753   0.273 -23.894  1.00  0.00     0.102 C 
ATOM      8  O   UNL     1       3.944   0.562 -24.187  1.00  0.00    -0.544 OA
ATOM      9  O   UNL     1       1.717   0.772 -24.672  1.00  0.00    -0.544 OA
ENDBRANCH   2   7
ENDBRANCH   1   2
BRANCH   1  10
ATOM     10  O   UNL     1       0.584  -1.459 -21.420  1.00  0.00    -0.390 OA
ATOM     11  H   UNL     1      -0.231  -1.830 -21.851  1.00  0.00     0.210 HD
ENDBRANCH   1  10
TORSDOF 4
ENDMDL
MODEL 5
REMARK VINA RESULT:    -3.203      1.802      2.089
REMARK INTER + INTRA:          -3.907
REMARK INTER:                  -3.664
REMARK INTRA:                  -0.242
REMARK UNBOUND:                -0.142
REMARK SMILES [NH3+][C@H](CO)C(=O)[O-]
REMARK SMILES IDX 3 1 2 2 1 3 5 7 6 8 7 9 4 10
REMARK H PARENT 1 4 1 5 1 6 4 11
REMARK Flexibility Score: inf
ROOT
ATOM      1  C   UNL     1       2.420  -1.689 -22.193  1.00  0.00     0.227 C 
ENDROOT
BRANCH   1   2
ATOM      2  C   UNL     1       1.836  -0.303 -22.520  1.00  0.00     0.253 C 
BRANCH   2   3
ATOM      3  N   UNL     1       2.035   0.621 -21.398  1.00  0.00    -0.348 N 
ATOM      4  H   UNL     1       2.209   0.095 -20.510  1.00  0.00     0.345 HD
ATOM      5  H   UNL     1       2.851   1.246 -21.593  1.00  0.00     0.345 HD
ATOM      6  H   UNL     1       1.186   1.220 -21.279  1.00  0.00     0.345 HD
ENDBRANCH   2   3
BRANCH   2   7
ATOM      7  C   UNL     1       2.457   0.252 -23.776  1.00  0.00     0.102 C 
ATOM      8  O   UNL     1       3.705   0.216 -23.942  1.00  0.00    -0.544 OA
ATOM      9  O   UNL     1       1.650   0.797 -24.766  1.00  0.00    -0.544 OA
ENDBRANCH   2   7
ENDBRANCH   1   2
BRANCH   1  10
ATOM     10  O   UNL     1       2.759  -2.377 -23.367  1.00  0.00    -0.390 OA
ATOM     11  H   UNL     1       3.517  -1.882 -23.777  1.00  0.00     0.210 HD
ENDBRANCH   1  10
TORSDOF 4
ENDMDL
MODEL 6
REMARK VINA RESULT:    -3.157      6.235      7.025
REMARK INTER + INTRA:          -3.852
REMARK INTER:                  -3.627
REMARK INTRA:                  -0.225
REMARK UNBOUND:                -0.142
REMARK SMILES [NH3+][C@H](CO)C(=O)[O-]
REMARK SMILES IDX 3 1 2 2 1 3 5 7 6 8 7 9 4 10
REMARK H PARENT 1 4 1 5 1 6 4 11
REMARK Flexibility Score: inf
ROOT
ATOM      1  C   UNL     1      -1.647   1.916 -23.215  1.00  0.00     0.227 C 
ENDROOT
BRANCH   1   2
ATOM      2  C   UNL     1      -2.151   3.069 -22.327  1.00  0.00     0.253 C 
BRANCH   2   3
ATOM      3  N   UNL     1      -1.822   4.366 -22.927  1.00  0.00    -0.348 N 
ATOM      4  H   UNL     1      -0.879   4.693 -22.612  1.00  0.00     0.345 HD
ATOM      5  H   UNL     1      -1.828   4.287 -23.970  1.00  0.00     0.345 HD
ATOM      6  H   UNL     1      -2.540   5.076 -22.650  1.00  0.00     0.345 HD
ENDBRANCH   2   3
BRANCH   2   7
ATOM      7  C   UNL     1      -3.635   2.955 -22.099  1.00  0.00     0.102 C 
ATOM      8  O   UNL     1      -4.429   3.783 -22.620  1.00  0.00    -0.544 OA
ATOM      9  O   UNL     1      -4.140   1.922 -21.320  1.00  0.00    -0.544 OA
ENDBRANCH   2   7
ENDBRANCH   1   2
BRANCH   1  10
ATOM     10  O   UNL     1      -1.674   0.701 -22.517  1.00  0.00    -0.390 OA
ATOM     11  H   UNL     1      -2.325   0.116 -22.988  1.00  0.00     0.210 HD
ENDBRANCH   1  10
TORSDOF 4
ENDMDL
MODEL 7
REMARK VINA RESULT:    -3.114      6.948      7.861
REMARK INTER + INTRA:          -3.802
REMARK INTER:                  -3.425
REMARK INTRA:                  -0.377
REMARK UNBOUND:                -0.142
REMARK SMILES [NH3+][C@H](CO)C(=O)[O-]
REMARK SMILES IDX 3 1 2 2 1 3 5 7 6 8 7 9 4 10
REMARK H PARENT 1 4 1 5 1 6 4 11
REMARK Flexibility Score: inf
ROOT
ATOM      1  C   UNL     1      -0.553   5.858 -24.118  1.00  0.00     0.227 C 
ENDROOT
BRANCH   1   2
ATOM      2  C   UNL     1      -1.117   4.500 -24.570  1.00  0.00     0.253 C 
BRANCH   2   3
ATOM      3  N   UNL     1      -0.031   3.569 -24.894  1.00  0.00    -0.348 N 
ATOM      4  H   UNL     1       0.191   2.957 -24.073  1.00  0.00     0.345 HD
ATOM      5  H   UNL     1      -0.307   2.969 -25.705  1.00  0.00     0.345 HD
ATOM      6  H   UNL     1       0.826   4.106 -25.161  1.00  0.00     0.345 HD
ENDBRANCH   2   3
BRANCH   2   7
ATOM      7  C   UNL     1      -2.012   3.916 -23.508  1.00  0.00     0.102 C 
ATOM      8  O   UNL     1      -1.558   3.091 -22.671  1.00  0.00    -0.544 OA
ATOM      9  O   UNL     1      -3.346   4.296 -23.439  1.00  0.00    -0.544 OA
ENDBRANCH   2   7
ENDBRANCH   1   2
BRANCH   1  10
ATOM     10  O   UNL     1      -0.783   6.064 -22.751  1.00  0.00    -0.390 OA
ATOM     11  H   UNL     1      -1.441   5.376 -22.466  1.00  0.00     0.210 HD
ENDBRANCH   1  10
TORSDOF 4
ENDMDL
MODEL 8
REMARK VINA RESULT:    -3.096      8.128      8.629
REMARK INTER + INTRA:          -3.781
REMARK INTER:                  -3.774
REMARK INTRA:                  -0.007
REMARK UNBOUND:                -0.142
REMARK SMILES [NH3+][C@H](CO)C(=O)[O-]
REMARK SMILES IDX 3 1 2 2 1 3 5 7 6 8 7 9 4 10
REMARK H PARENT 1 4 1 5 1 6 4 11
REMARK Flexibility Score: inf
ROOT
ATOM      1  C   UNL     1      -4.885   2.586 -20.000  1.00  0.00     0.227 C 
ENDROOT
BRANCH   1   2
ATOM      2  C   UNL     1      -4.109   2.979 -21.270  1.00  0.00     0.253 C 
BRANCH   2   3
ATOM      3  N   UNL     1      -3.275   1.865 -21.734  1.00  0.00    -0.348 N 
ATOM      4  H   UNL     1      -2.286   2.177 -21.883  1.00  0.00     0.345 HD
ATOM      5  H   UNL     1      -3.289   1.093 -21.027  1.00  0.00     0.345 HD
ATOM      6  H   UNL     1      -3.654   1.491 -22.634  1.00  0.00     0.345 HD
ENDBRANCH   2   3
BRANCH   2   7
ATOM      7  C   UNL     1      -5.055   3.417 -22.358  1.00  0.00     0.102 C 
ATOM      8  O   UNL     1      -4.670   4.207 -23.260  1.00  0.00    -0.544 OA
ATOM      9  O   UNL     1      -6.358   2.938 -22.378  1.00  0.00    -0.544 OA
ENDBRANCH   2   7
ENDBRANCH   1   2
BRANCH   1  10
ATOM     10  O   UNL     1      -4.005   2.265 -18.957  1.00  0.00    -0.390 OA
ATOM     11  H   UNL     1      -3.218   2.863 -19.054  1.00  0.00     0.210 HD
ENDBRANCH   1  10
TORSDOF 4
ENDMDL
MODEL 9
REMARK VINA RESULT:    -3.037      5.851      6.792
REMARK INTER + INTRA:          -3.711
REMARK INTER:                  -3.492
REMARK INTRA:                  -0.220
REMARK UNBOUND:                -0.142
REMARK SMILES [NH3+][C@H](CO)C(=O)[O-]
REMARK SMILES IDX 3 1 2 2 1 3 5 7 6 8 7 9 4 10
REMARK H PARENT 1 4 1 5 1 6 4 11
REMARK Flexibility Score: inf
ROOT
ATOM      1  C   UNL     1      -3.284   3.257 -22.546  1.00  0.00     0.227 C 
ENDROOT
BRANCH   1   2
ATOM      2  C   UNL     1      -2.131   3.574 -23.515  1.00  0.00     0.253 C 
BRANCH   2   3
ATOM      3  N   UNL     1      -1.266   4.623 -22.964  1.00  0.00    -0.348 N 
ATOM      4  H   UNL     1      -0.311   4.247 -22.756  1.00  0.00     0.345 HD
ATOM      5  H   UNL     1      -1.184   5.411 -23.648  1.00  0.00     0.345 HD
ATOM      6  H   UNL     1      -1.684   4.999 -22.082  1.00  0.00     0.345 HD
ENDBRANCH   2   3
BRANCH   2   7
ATOM      7  C   UNL     1      -1.329   2.333 -23.812  1.00  0.00     0.102 C 
ATOM      8  O   UNL     1      -0.585   2.280 -24.827  1.00  0.00    -0.544 OA
ATOM      9  O   UNL     1      -1.398   1.242 -22.956  1.00  0.00    -0.544 OA
ENDBRANCH   2   7
ENDBRANCH   1   2
BRANCH   1  10
ATOM     10  O   UNL     1      -2.799   3.027 -21.251  1.00  0.00    -0.390 OA
ATOM     11  H   UNL     1      -3.477   2.467 -20.788  1.00  0.00     0.210 HD
ENDBRANCH   1  10
TORSDOF 4
ENDMDL
