MODEL 1
REMARK VINA RESULT:    -1.555      0.000      0.000
REMARK INTER + INTRA:          -4.120
REMARK INTER:                  -2.373
REMARK INTRA:                  -1.747
REMARK UNBOUND:                -1.747
REMARK SMILES C=CCCCCCCCCCC
REMARK SMILES IDX 7 1 8 2 9 3 10 4 11 5 12 6 6 7 5 8 4 9 3 10 2 11 1 12
REMARK H PARENT
REMARK Flexibility Score: inf
ROOT
ATOM      1  C   UNL     1     164.562 156.445 138.384  1.00  0.00     0.000 C 
ENDROOT
BRANCH   1   2
ATOM      2  C   UNL     1     163.350 156.111 139.267  1.00  0.00    -0.000 C 
BRANCH   2   3
ATOM      3  C   UNL     1     162.494 157.358 139.520  1.00  0.00    -0.000 C 
BRANCH   3   4
ATOM      4  C   UNL     1     163.068 158.577 138.781  1.00  0.00    -0.000 C 
BRANCH   4   5
ATOM      5  C   UNL     1     163.260 159.790 139.705  1.00  0.00    -0.003 C 
ATOM      6  C   UNL     1     163.109 159.437 141.185  1.00  0.00     0.004 C 
ENDBRANCH   4   5
ENDBRANCH   3   4
ENDBRANCH   2   3
ENDBRANCH   1   2
BRANCH   1   7
ATOM      7  C   UNL     1     165.894 155.999 139.010  1.00  0.00     0.000 C 
BRANCH   7   8
ATOM      8  C   UNL     1     166.011 156.393 140.493  1.00  0.00     0.000 C 
BRANCH   8   9
ATOM      9  C   UNL     1     166.388 157.871 140.682  1.00  0.00     0.004 C 
BRANCH   9  10
ATOM     10  C   UNL     1     167.390 158.367 139.627  1.00  0.00     0.027 C 
BRANCH  10  11
ATOM     11  C   UNL     1     166.929 159.657 139.006  1.00  0.00    -0.035 C 
ATOM     12  C   UNL     1     166.476 159.710 137.750  1.00  0.00     0.004 C 
ENDBRANCH  10  11
ENDBRANCH   9  10
ENDBRANCH   8   9
ENDBRANCH   7   8
ENDBRANCH   1   7
TORSDOF 9
ENDMDL
MODEL 2
REMARK VINA RESULT:    -1.541     14.579     16.571
REMARK INTER + INTRA:          -4.099
REMARK INTER:                  -2.298
REMARK INTRA:                  -1.801
REMARK UNBOUND:                -1.747
REMARK SMILES C=CCCCCCCCCCC
REMARK SMILES IDX 7 1 8 2 9 3 10 4 11 5 12 6 6 7 5 8 4 9 3 10 2 11 1 12
REMARK H PARENT
REMARK Flexibility Score: inf
ROOT
ATOM      1  C   UNL     1     168.197 175.165 138.020  1.00  0.00     0.000 C 
ENDROOT
BRANCH   1   2
ATOM      2  C   UNL     1     168.441 175.775 139.409  1.00  0.00    -0.000 C 
BRANCH   2   3
ATOM      3  C   UNL     1     167.134 175.863 140.208  1.00  0.00    -0.000 C 
BRANCH   3   4
ATOM      4  C   UNL     1     165.936 176.099 139.276  1.00  0.00    -0.000 C 
BRANCH   4   5
ATOM      5  C   UNL     1     164.742 175.191 139.608  1.00  0.00    -0.003 C 
ATOM      6  C   UNL     1     164.748 174.711 141.061  1.00  0.00     0.004 C 
ENDBRANCH   4   5
ENDBRANCH   3   4
ENDBRANCH   2   3
ENDBRANCH   1   2
BRANCH   1   7
ATOM      7  C   UNL     1     168.469 173.652 137.980  1.00  0.00     0.000 C 
BRANCH   7   8
ATOM      8  C   UNL     1     167.177 172.820 137.920  1.00  0.00     0.000 C 
BRANCH   8   9
ATOM      9  C   UNL     1     166.897 172.071 139.233  1.00  0.00     0.004 C 
BRANCH   9  10
ATOM     10  C   UNL     1     168.051 172.188 140.241  1.00  0.00     0.027 C 
BRANCH  10  11
ATOM     11  C   UNL     1     167.533 172.277 141.650  1.00  0.00    -0.035 C 
ATOM     12  C   UNL     1     168.116 173.057 142.565  1.00  0.00     0.004 C 
ENDBRANCH  10  11
ENDBRANCH   9  10
ENDBRANCH   8   9
ENDBRANCH   7   8
ENDBRANCH   1   7
TORSDOF 9
ENDMDL
MODEL 3
REMARK VINA RESULT:    -1.512     14.132     15.882
REMARK INTER + INTRA:          -4.054
REMARK INTER:                  -2.509
REMARK INTRA:                  -1.545
REMARK UNBOUND:                -1.747
REMARK SMILES C=CCCCCCCCCCC
REMARK SMILES IDX 7 1 8 2 9 3 10 4 11 5 12 6 6 7 5 8 4 9 3 10 2 11 1 12
REMARK H PARENT
REMARK Flexibility Score: inf
ROOT
ATOM      1  C   UNL     1     166.575 172.209 139.258  1.00  0.00     0.000 C 
ENDROOT
BRANCH   1   2
ATOM      2  C   UNL     1     166.150 173.445 138.450  1.00  0.00    -0.000 C 
BRANCH   2   3
ATOM      3  C   UNL     1     165.785 174.610 139.379  1.00  0.00    -0.000 C 
BRANCH   3   4
ATOM      4  C   UNL     1     166.438 175.917 138.904  1.00  0.00    -0.000 C 
BRANCH   4   5
ATOM      5  C   UNL     1     167.849 175.700 138.337  1.00  0.00    -0.003 C 
ATOM      6  C   UNL     1     168.940 175.809 139.404  1.00  0.00     0.004 C 
ENDBRANCH   4   5
ENDBRANCH   3   4
ENDBRANCH   2   3
ENDBRANCH   1   2
BRANCH   1   7
ATOM      7  C   UNL     1     167.530 172.554 140.412  1.00  0.00     0.000 C 
BRANCH   7   8
ATOM      8  C   UNL     1     168.549 171.436 140.690  1.00  0.00     0.000 C 
BRANCH   8   9
ATOM      9  C   UNL     1     169.491 171.188 139.500  1.00  0.00     0.004 C 
BRANCH   9  10
ATOM     10  C   UNL     1     170.360 172.411 139.166  1.00  0.00     0.027 C 
BRANCH  10  11
ATOM     11  C   UNL     1     170.479 172.601 137.678  1.00  0.00    -0.035 C 
ATOM     12  C   UNL     1     169.410 172.570 136.877  1.00  0.00     0.004 C 
ENDBRANCH  10  11
ENDBRANCH   9  10
ENDBRANCH   8   9
ENDBRANCH   7   8
ENDBRANCH   1   7
TORSDOF 9
ENDMDL
MODEL 4
REMARK VINA RESULT:    -1.506     14.367     16.375
REMARK INTER + INTRA:          -4.045
REMARK INTER:                  -2.290
REMARK INTRA:                  -1.755
REMARK UNBOUND:                -1.747
REMARK SMILES C=CCCCCCCCCCC
REMARK SMILES IDX 7 1 8 2 9 3 10 4 11 5 12 6 6 7 5 8 4 9 3 10 2 11 1 12
REMARK H PARENT
REMARK Flexibility Score: inf
ROOT
ATOM      1  C   UNL     1     166.656 176.125 139.115  1.00  0.00     0.000 C 
ENDROOT
BRANCH   1   2
ATOM      2  C   UNL     1     165.773 174.867 139.141  1.00  0.00    -0.000 C 
BRANCH   2   3
ATOM      3  C   UNL     1     165.630 174.327 140.569  1.00  0.00    -0.000 C 
BRANCH   3   4
ATOM      4  C   UNL     1     165.866 172.809 140.609  1.00  0.00    -0.000 C 
BRANCH   4   5
ATOM      5  C   UNL     1     166.994 172.413 141.574  1.00  0.00    -0.003 C 
ATOM      6  C   UNL     1     167.494 173.588 142.416  1.00  0.00     0.004 C 
ENDBRANCH   4   5
ENDBRANCH   3   4
ENDBRANCH   2   3
ENDBRANCH   1   2
BRANCH   1   7
ATOM      7  C   UNL     1     168.033 175.870 138.481  1.00  0.00     0.000 C 
BRANCH   7   8
ATOM      8  C   UNL     1     169.032 175.243 139.470  1.00  0.00     0.000 C 
BRANCH   8   9
ATOM      9  C   UNL     1     169.423 173.809 139.081  1.00  0.00     0.004 C 
BRANCH   9  10
ATOM     10  C   UNL     1     168.927 173.417 137.680  1.00  0.00     0.027 C 
BRANCH  10  11
ATOM     11  C   UNL     1     168.082 172.174 137.731  1.00  0.00    -0.035 C 
ATOM     12  C   UNL     1     168.448 171.104 138.443  1.00  0.00     0.004 C 
ENDBRANCH  10  11
ENDBRANCH   9  10
ENDBRANCH   8   9
ENDBRANCH   7   8
ENDBRANCH   1   7
TORSDOF 9
ENDMDL
MODEL 5
REMARK VINA RESULT:    -1.505     13.790     15.770
REMARK INTER + INTRA:          -4.043
REMARK INTER:                  -2.222
REMARK INTRA:                  -1.821
REMARK UNBOUND:                -1.747
REMARK SMILES C=CCCCCCCCCCC
REMARK SMILES IDX 7 1 8 2 9 3 10 4 11 5 12 6 6 7 5 8 4 9 3 10 2 11 1 12
REMARK H PARENT
REMARK Flexibility Score: inf
ROOT
ATOM      1  C   UNL     1     167.202 172.218 141.270  1.00  0.00     0.000 C 
ENDROOT
BRANCH   1   2
ATOM      2  C   UNL     1     166.077 172.691 140.336  1.00  0.00    -0.000 C 
BRANCH   2   3
ATOM      3  C   UNL     1     165.946 171.764 139.122  1.00  0.00    -0.000 C 
BRANCH   3   4
ATOM      4  C   UNL     1     166.106 172.548 137.811  1.00  0.00    -0.000 C 
BRANCH   4   5
ATOM      5  C   UNL     1     167.296 172.057 136.971  1.00  0.00    -0.003 C 
ATOM      6  C   UNL     1     167.983 170.832 137.576  1.00  0.00     0.004 C 
ENDBRANCH   4   5
ENDBRANCH   3   4
ENDBRANCH   2   3
ENDBRANCH   1   2
BRANCH   1   7
ATOM      7  C   UNL     1     168.389 173.194 141.312  1.00  0.00     0.000 C 
BRANCH   7   8
ATOM      8  C   UNL     1     169.498 172.819 140.314  1.00  0.00     0.000 C 
BRANCH   8   9
ATOM      9  C   UNL     1     169.636 173.842 139.175  1.00  0.00     0.004 C 
BRANCH   9  10
ATOM     10  C   UNL     1     168.991 175.196 139.512  1.00  0.00     0.027 C 
BRANCH  10  11
ATOM     11  C   UNL     1     168.083 175.654 138.404  1.00  0.00    -0.035 C 
ATOM     12  C   UNL     1     166.856 176.125 138.649  1.00  0.00     0.004 C 
ENDBRANCH  10  11
ENDBRANCH   9  10
ENDBRANCH   8   9
ENDBRANCH   7   8
ENDBRANCH   1   7
TORSDOF 9
ENDMDL
MODEL 6
REMARK VINA RESULT:    -1.492      0.992      3.675
REMARK INTER + INTRA:          -4.024
REMARK INTER:                  -2.246
REMARK INTRA:                  -1.778
REMARK UNBOUND:                -1.747
REMARK SMILES C=CCCCCCCCCCC
REMARK SMILES IDX 7 1 8 2 9 3 10 4 11 5 12 6 6 7 5 8 4 9 3 10 2 11 1 12
REMARK H PARENT
REMARK Flexibility Score: inf
ROOT
ATOM      1  C   UNL     1     165.753 158.929 141.374  1.00  0.00     0.000 C 
ENDROOT
BRANCH   1   2
ATOM      2  C   UNL     1     166.551 157.646 141.095  1.00  0.00    -0.000 C 
BRANCH   2   3
ATOM      3  C   UNL     1     165.621 156.506 140.661  1.00  0.00    -0.000 C 
BRANCH   3   4
ATOM      4  C   UNL     1     165.795 156.194 139.167  1.00  0.00    -0.000 C 
BRANCH   4   5
ATOM      5  C   UNL     1     164.457 156.166 138.410  1.00  0.00    -0.003 C 
ATOM      6  C   UNL     1     163.248 156.134 139.346  1.00  0.00     0.004 C 
ENDBRANCH   4   5
ENDBRANCH   3   4
ENDBRANCH   2   3
ENDBRANCH   1   2
BRANCH   1   7
ATOM      7  C   UNL     1     164.364 158.648 141.969  1.00  0.00     0.000 C 
BRANCH   7   8
ATOM      8  C   UNL     1     163.234 159.336 141.184  1.00  0.00     0.000 C 
BRANCH   8   9
ATOM      9  C   UNL     1     163.765 160.274 140.088  1.00  0.00     0.004 C 
BRANCH   9  10
ATOM     10  C   UNL     1     163.492 159.746 138.671  1.00  0.00     0.027 C 
BRANCH  10  11
ATOM     11  C   UNL     1     164.570 160.178 137.714  1.00  0.00    -0.035 C 
ATOM     12  C   UNL     1     165.779 159.609 137.713  1.00  0.00     0.004 C 
ENDBRANCH  10  11
ENDBRANCH   9  10
ENDBRANCH   8   9
ENDBRANCH   7   8
ENDBRANCH   1   7
TORSDOF 9
ENDMDL
MODEL 7
REMARK VINA RESULT:    -1.466      1.184      3.418
REMARK INTER + INTRA:          -3.984
REMARK INTER:                  -2.186
REMARK INTRA:                  -1.798
REMARK UNBOUND:                -1.747
REMARK SMILES C=CCCCCCCCCCC
REMARK SMILES IDX 7 1 8 2 9 3 10 4 11 5 12 6 6 7 5 8 4 9 3 10 2 11 1 12
REMARK H PARENT
REMARK Flexibility Score: inf
ROOT
ATOM      1  C   UNL     1     167.028 157.281 140.090  1.00  0.00     0.000 C 
ENDROOT
BRANCH   1   2
ATOM      2  C   UNL     1     167.244 158.529 139.219  1.00  0.00    -0.000 C 
BRANCH   2   3
ATOM      3  C   UNL     1     166.429 159.715 139.748  1.00  0.00    -0.000 C 
BRANCH   3   4
ATOM      4  C   UNL     1     166.092 159.530 141.235  1.00  0.00    -0.000 C 
BRANCH   4   5
ATOM      5  C   UNL     1     164.609 159.791 141.542  1.00  0.00    -0.003 C 
ATOM      6  C   UNL     1     163.947 158.636 142.294  1.00  0.00     0.004 C 
ENDBRANCH   4   5
ENDBRANCH   3   4
ENDBRANCH   2   3
ENDBRANCH   1   2
BRANCH   1   7
ATOM      7  C   UNL     1     166.199 156.198 139.381  1.00  0.00     0.000 C 
BRANCH   7   8
ATOM      8  C   UNL     1     164.889 155.878 140.122  1.00  0.00     0.000 C 
BRANCH   8   9
ATOM      9  C   UNL     1     163.644 156.179 139.273  1.00  0.00     0.004 C 
BRANCH   9  10
ATOM     10  C   UNL     1     163.974 156.957 137.989  1.00  0.00     0.027 C 
BRANCH  10  11
ATOM     11  C   UNL     1     163.437 158.361 138.053  1.00  0.00    -0.035 C 
ATOM     12  C   UNL     1     162.354 158.667 138.773  1.00  0.00     0.004 C 
ENDBRANCH  10  11
ENDBRANCH   9  10
ENDBRANCH   8   9
ENDBRANCH   7   8
ENDBRANCH   1   7
TORSDOF 9
ENDMDL
MODEL 8
REMARK VINA RESULT:    -1.429     14.445     16.418
REMARK INTER + INTRA:          -3.928
REMARK INTER:                  -2.224
REMARK INTRA:                  -1.704
REMARK UNBOUND:                -1.747
REMARK SMILES C=CCCCCCCCCCC
REMARK SMILES IDX 7 1 8 2 9 3 10 4 11 5 12 6 6 7 5 8 4 9 3 10 2 11 1 12
REMARK H PARENT
REMARK Flexibility Score: inf
ROOT
ATOM      1  C   UNL     1     168.812 174.534 139.421  1.00  0.00     0.000 C 
ENDROOT
BRANCH   1   2
ATOM      2  C   UNL     1     168.219 175.359 138.267  1.00  0.00    -0.000 C 
BRANCH   2   3
ATOM      3  C   UNL     1     166.972 176.125 138.724  1.00  0.00    -0.000 C 
BRANCH   3   4
ATOM      4  C   UNL     1     166.756 175.971 140.238  1.00  0.00    -0.000 C 
BRANCH   4   5
ATOM      5  C   UNL     1     165.309 175.592 140.592  1.00  0.00    -0.003 C 
ATOM      6  C   UNL     1     164.322 175.913 139.469  1.00  0.00     0.004 C 
ENDBRANCH   4   5
ENDBRANCH   3   4
ENDBRANCH   2   3
ENDBRANCH   1   2
BRANCH   1   7
ATOM      7  C   UNL     1     169.425 173.207 138.947  1.00  0.00     0.000 C 
BRANCH   7   8
ATOM      8  C   UNL     1     168.907 171.998 139.745  1.00  0.00     0.000 C 
BRANCH   8   9
ATOM      9  C   UNL     1     167.605 172.307 140.503  1.00  0.00     0.004 C 
BRANCH   9  10
ATOM     10  C   UNL     1     166.385 171.588 139.905  1.00  0.00     0.027 C 
BRANCH  10  11
ATOM     11  C   UNL     1     165.697 172.449 138.882  1.00  0.00    -0.035 C 
ATOM     12  C   UNL     1     165.948 172.326 137.575  1.00  0.00     0.004 C 
ENDBRANCH  10  11
ENDBRANCH   9  10
ENDBRANCH   8   9
ENDBRANCH   7   8
ENDBRANCH   1   7
TORSDOF 9
ENDMDL
