MODEL 1
REMARK VINA RESULT:    -3.883      0.000      0.000
REMARK INTER + INTRA:          -5.454
REMARK INTER:                  -5.244
REMARK INTRA:                  -0.209
REMARK UNBOUND:                -0.209
REMARK SMILES CC[C@@H](CC[C@H](C)[C@@H]1CC[C@@H]2[C@@H]3CC(=O)C4=CC(=O)CC[C@]4(C)[C@H]3CC[C@]21C)C(C)C
REMARK SMILES IDX 4 1 3 2 2 3 1 4 29 5 30 6 31 7 5 8 6 9 7 10 8 11 9 12 27 13
REMARK SMILES IDX 10 14 11 15 26 16 28 17 12 18 25 19 24 20 13 21 22 22 14 23
REMARK SMILES IDX 16 24 21 25 23 26 15 27 17 28 20 29 18 30 19 31
REMARK H PARENT
REMARK Flexibility Score: inf
ROOT
ATOM      1  C   UNL     1       8.942   3.739   6.142  1.00  0.00     0.004 C 
ENDROOT
BRANCH   1   2
ATOM      2  C   UNL     1       8.136   5.045   6.411  1.00  0.00    -0.009 C 
BRANCH   2   3
ATOM      3  C   UNL     1       6.999   5.224   5.364  1.00  0.00     0.000 C 
ATOM      4  C   UNL     1       5.620   4.788   5.862  1.00  0.00     0.004 C 
ENDBRANCH   2   3
BRANCH   2   5
ATOM      5  C   UNL     1       9.068   6.301   6.525  1.00  0.00    -0.014 C 
ATOM      6  C   UNL     1       9.380   6.719   7.973  1.00  0.00     0.007 C 
ATOM      7  C   UNL     1       8.526   7.507   5.736  1.00  0.00     0.007 C 
ENDBRANCH   2   5
ENDBRANCH   1   2
BRANCH   1   8
ATOM      8  C   UNL     1       9.300   2.892   7.385  1.00  0.00     0.004 C 
BRANCH   8   9
ATOM      9  C   UNL     1      10.446   1.867   7.183  1.00  0.00    -0.011 C 
ATOM     10  C   UNL     1      11.066   1.993   5.772  1.00  0.00     0.008 C 
BRANCH   9  11
ATOM     11  C   UNL     1      10.008   0.429   7.642  1.00  0.00    -0.002 C 
ATOM     12  C   UNL     1      10.840  -0.159   8.815  1.00  0.00     0.005 C 
ATOM     13  C   UNL     1       9.852  -0.748   6.622  1.00  0.00    -0.026 C 
ATOM     14  C   UNL     1      10.788  -1.690   8.670  1.00  0.00     0.005 C 
ATOM     15  C   UNL     1       9.717  -1.920   7.612  1.00  0.00    -0.001 C 
ATOM     16  C   UNL     1       8.555  -0.690   5.744  1.00  0.00     0.007 C 
ATOM     17  C   UNL     1      11.123  -0.864   5.731  1.00  0.00     0.012 C 
ATOM     18  C   UNL     1       9.507  -3.335   6.994  1.00  0.00     0.004 C 
ATOM     19  C   UNL     1       7.832  -2.056   5.554  1.00  0.00     0.005 C 
ATOM     20  C   UNL     1       8.811  -3.262   5.598  1.00  0.00     0.003 C 
ATOM     21  C   UNL     1      10.742  -4.236   6.925  1.00  0.00     0.085 C 
ATOM     22  C   UNL     1       8.211  -4.654   5.173  1.00  0.00    -0.000 C 
ATOM     23  C   UNL     1      10.369  -5.587   6.374  1.00  0.00     0.159 C 
ATOM     24  C   UNL     1       9.286  -5.743   5.355  1.00  0.00     0.005 C 
ATOM     25  C   UNL     1       7.801  -4.602   3.665  1.00  0.00     0.020 C 
ATOM     26  C   UNL     1       6.965  -5.025   6.022  1.00  0.00     0.017 C 
ATOM     27  O   UNL     1      11.036  -6.589   6.749  1.00  0.00    -0.295 OA
ATOM     28  C   UNL     1       9.246  -6.872   4.620  1.00  0.00     0.055 C 
ATOM     29  C   UNL     1       7.350  -5.964   3.115  1.00  0.00     0.081 C 
ATOM     30  C   UNL     1       8.284  -7.060   3.525  1.00  0.00     0.156 C 
ATOM     31  O   UNL     1       8.233  -8.169   2.931  1.00  0.00    -0.295 OA
ENDBRANCH   9  11
ENDBRANCH   8   9
ENDBRANCH   1   8
TORSDOF 6
ENDMDL
MODEL 2
REMARK VINA RESULT:    -3.881      3.948      6.912
REMARK INTER + INTRA:          -5.452
REMARK INTER:                  -4.747
REMARK INTRA:                  -0.705
REMARK UNBOUND:                -0.209
REMARK SMILES CC[C@@H](CC[C@H](C)[C@@H]1CC[C@@H]2[C@@H]3CC(=O)C4=CC(=O)CC[C@]4(C)[C@H]3CC[C@]21C)C(C)C
REMARK SMILES IDX 4 1 3 2 2 3 1 4 29 5 30 6 31 7 5 8 6 9 7 10 8 11 9 12 27 13
REMARK SMILES IDX 10 14 11 15 26 16 28 17 12 18 25 19 24 20 13 21 22 22 14 23
REMARK SMILES IDX 16 24 21 25 23 26 15 27 17 28 20 29 18 30 19 31
REMARK H PARENT
REMARK Flexibility Score: inf
ROOT
ATOM      1  C   UNL     1       9.782  -2.134   6.853  1.00  0.00     0.004 C 
ENDROOT
BRANCH   1   2
ATOM      2  C   UNL     1      10.603  -0.898   7.329  1.00  0.00    -0.009 C 
BRANCH   2   3
ATOM      3  C   UNL     1      11.035  -1.055   8.815  1.00  0.00     0.000 C 
ATOM      4  C   UNL     1      10.645   0.127   9.705  1.00  0.00     0.004 C 
ENDBRANCH   2   3
BRANCH   2   5
ATOM      5  C   UNL     1       9.857   0.451   7.046  1.00  0.00    -0.014 C 
ATOM      6  C   UNL     1       8.575   0.293   6.209  1.00  0.00     0.007 C 
ATOM      7  C   UNL     1      10.776   1.507   6.404  1.00  0.00     0.007 C 
ENDBRANCH   2   5
ENDBRANCH   1   2
BRANCH   1   8
ATOM      8  C   UNL     1      10.595  -3.410   6.536  1.00  0.00     0.004 C 
BRANCH   8   9
ATOM      9  C   UNL     1      10.159  -4.177   5.261  1.00  0.00    -0.011 C 
ATOM     10  C   UNL     1       9.337  -3.268   4.317  1.00  0.00     0.008 C 
BRANCH   9  11
ATOM     11  C   UNL     1       9.536  -5.573   5.624  1.00  0.00    -0.002 C 
ATOM     12  C   UNL     1       9.111  -6.433   4.401  1.00  0.00     0.005 C 
ATOM     13  C   UNL     1       8.356  -5.706   6.645  1.00  0.00    -0.026 C 
ATOM     14  C   UNL     1       7.964  -7.342   4.876  1.00  0.00     0.005 C 
ATOM     15  C   UNL     1       7.970  -7.175   6.390  1.00  0.00    -0.001 C 
ATOM     16  C   UNL     1       8.769  -5.558   8.150  1.00  0.00     0.007 C 
ATOM     17  C   UNL     1       7.211  -4.718   6.283  1.00  0.00     0.012 C 
ATOM     18  C   UNL     1       6.808  -7.751   7.253  1.00  0.00     0.004 C 
ATOM     19  C   UNL     1       8.098  -6.578   9.117  1.00  0.00     0.005 C 
ATOM     20  C   UNL     1       6.692  -7.026   8.631  1.00  0.00     0.003 C 
ATOM     21  C   UNL     1       5.437  -7.833   6.580  1.00  0.00     0.085 C 
ATOM     22  C   UNL     1       5.840  -7.859   9.659  1.00  0.00    -0.000 C 
ATOM     23  C   UNL     1       4.439  -8.473   7.508  1.00  0.00     0.159 C 
ATOM     24  C   UNL     1       4.520  -8.289   8.989  1.00  0.00     0.005 C 
ATOM     25  C   UNL     1       5.505  -6.967  10.898  1.00  0.00     0.020 C 
ATOM     26  C   UNL     1       6.600  -9.125  10.141  1.00  0.00     0.017 C 
ATOM     27  O   UNL     1       3.485  -9.125   7.001  1.00  0.00    -0.295 OA
ATOM     28  C   UNL     1       3.426  -8.539   9.734  1.00  0.00     0.055 C 
ATOM     29  C   UNL     1       4.542  -7.643  11.887  1.00  0.00     0.081 C 
ATOM     30  C   UNL     1       3.387  -8.281  11.181  1.00  0.00     0.156 C 
ATOM     31  O   UNL     1       2.369  -8.617  11.841  1.00  0.00    -0.295 OA
ENDBRANCH   9  11
ENDBRANCH   8   9
ENDBRANCH   1   8
TORSDOF 6
ENDMDL
MODEL 3
REMARK VINA RESULT:    -2.792     13.545     15.843
REMARK INTER + INTRA:          -3.981
REMARK INTER:                  -4.296
REMARK INTRA:                   0.315
REMARK UNBOUND:                -0.209
REMARK SMILES CC[C@@H](CC[C@H](C)[C@@H]1CC[C@@H]2[C@@H]3CC(=O)C4=CC(=O)CC[C@]4(C)[C@H]3CC[C@]21C)C(C)C
REMARK SMILES IDX 4 1 3 2 2 3 1 4 29 5 30 6 31 7 5 8 6 9 7 10 8 11 9 12 27 13
REMARK SMILES IDX 10 14 11 15 26 16 28 17 12 18 25 19 24 20 13 21 22 22 14 23
REMARK SMILES IDX 16 24 21 25 23 26 15 27 17 28 20 29 18 30 19 31
REMARK H PARENT
REMARK Flexibility Score: inf
ROOT
ATOM      1  C   UNL     1      -8.210   0.139   9.694  1.00  0.00     0.004 C 
ENDROOT
BRANCH   1   2
ATOM      2  C   UNL     1      -8.928   1.263  10.499  1.00  0.00    -0.009 C 
BRANCH   2   3
ATOM      3  C   UNL     1      -9.121   2.537   9.627  1.00  0.00     0.000 C 
ATOM      4  C   UNL     1      -9.117   2.267   8.120  1.00  0.00     0.004 C 
ENDBRANCH   2   3
BRANCH   2   5
ATOM      5  C   UNL     1      -8.217   1.558  11.865  1.00  0.00    -0.014 C 
ATOM      6  C   UNL     1      -7.864   3.041  12.079  1.00  0.00     0.007 C 
ATOM      7  C   UNL     1      -6.966   0.685  12.076  1.00  0.00     0.007 C 
ENDBRANCH   2   5
ENDBRANCH   1   2
BRANCH   1   8
ATOM      8  C   UNL     1      -9.098  -1.037   9.228  1.00  0.00     0.004 C 
BRANCH   8   9
ATOM      9  C   UNL     1      -8.887  -2.372   9.990  1.00  0.00    -0.011 C 
ATOM     10  C   UNL     1      -9.125  -2.191  11.507  1.00  0.00     0.008 C 
BRANCH   9  11
ATOM     11  C   UNL     1      -7.545  -3.066   9.557  1.00  0.00    -0.002 C 
ATOM     12  C   UNL     1      -6.340  -2.791  10.499  1.00  0.00     0.005 C 
ATOM     13  C   UNL     1      -6.972  -2.916   8.108  1.00  0.00    -0.026 C 
ATOM     14  C   UNL     1      -5.070  -2.907   9.638  1.00  0.00     0.005 C 
ATOM     15  C   UNL     1      -5.569  -3.510   8.332  1.00  0.00    -0.001 C 
ATOM     16  C   UNL     1      -7.705  -3.773   7.019  1.00  0.00     0.007 C 
ATOM     17  C   UNL     1      -6.925  -1.416   7.696  1.00  0.00     0.012 C 
ATOM     18  C   UNL     1      -4.635  -3.582   7.087  1.00  0.00     0.004 C 
ATOM     19  C   UNL     1      -6.763  -4.477   5.997  1.00  0.00     0.005 C 
ATOM     20  C   UNL     1      -5.446  -3.689   5.756  1.00  0.00     0.003 C 
ATOM     21  C   UNL     1      -3.569  -2.491   6.972  1.00  0.00     0.085 C 
ATOM     22  C   UNL     1      -4.549  -4.191   4.565  1.00  0.00    -0.000 C 
ATOM     23  C   UNL     1      -2.703  -2.734   5.765  1.00  0.00     0.159 C 
ATOM     24  C   UNL     1      -3.254  -3.357   4.522  1.00  0.00     0.005 C 
ATOM     25  C   UNL     1      -5.318  -3.992   3.218  1.00  0.00     0.020 C 
ATOM     26  C   UNL     1      -4.181  -5.692   4.718  1.00  0.00     0.017 C 
ATOM     27  O   UNL     1      -1.506  -2.341   5.800  1.00  0.00    -0.295 OA
ATOM     28  C   UNL     1      -2.577  -3.205   3.367  1.00  0.00     0.055 C 
ATOM     29  C   UNL     1      -4.461  -4.308   1.982  1.00  0.00     0.081 C 
ATOM     30  C   UNL     1      -3.101  -3.691   2.082  1.00  0.00     0.156 C 
ATOM     31  O   UNL     1      -2.386  -3.601   1.050  1.00  0.00    -0.295 OA
ENDBRANCH   9  11
ENDBRANCH   8   9
ENDBRANCH   1   8
TORSDOF 6
ENDMDL
MODEL 4
REMARK VINA RESULT:    -2.533     14.522     16.708
REMARK INTER + INTRA:          -3.631
REMARK INTER:                  -3.157
REMARK INTRA:                  -0.474
REMARK UNBOUND:                -0.209
REMARK SMILES CC[C@@H](CC[C@H](C)[C@@H]1CC[C@@H]2[C@@H]3CC(=O)C4=CC(=O)CC[C@]4(C)[C@H]3CC[C@]21C)C(C)C
REMARK SMILES IDX 4 1 3 2 2 3 1 4 29 5 30 6 31 7 5 8 6 9 7 10 8 11 9 12 27 13
REMARK SMILES IDX 10 14 11 15 26 16 28 17 12 18 25 19 24 20 13 21 22 22 14 23
REMARK SMILES IDX 16 24 21 25 23 26 15 27 17 28 20 29 18 30 19 31
REMARK H PARENT
REMARK Flexibility Score: inf
ROOT
ATOM      1  C   UNL     1      -7.190   1.632  10.831  1.00  0.00     0.004 C 
ENDROOT
BRANCH   1   2
ATOM      2  C   UNL     1      -8.392   2.569  11.157  1.00  0.00    -0.009 C 
BRANCH   2   3
ATOM      3  C   UNL     1      -9.120   3.013   9.856  1.00  0.00     0.000 C 
ATOM      4  C   UNL     1      -8.199   3.647   8.811  1.00  0.00     0.004 C 
ENDBRANCH   2   3
BRANCH   2   5
ATOM      5  C   UNL     1      -7.972   3.774  12.067  1.00  0.00    -0.014 C 
ATOM      6  C   UNL     1      -8.943   4.968  12.011  1.00  0.00     0.007 C 
ATOM      7  C   UNL     1      -6.536   4.252  11.782  1.00  0.00     0.007 C 
ENDBRANCH   2   5
ENDBRANCH   1   2
BRANCH   1   8
ATOM      8  C   UNL     1      -7.052   0.370  11.713  1.00  0.00     0.004 C 
BRANCH   8   9
ATOM      9  C   UNL     1      -7.744  -0.905  11.163  1.00  0.00    -0.011 C 
ATOM     10  C   UNL     1      -7.228  -2.173  11.882  1.00  0.00     0.008 C 
BRANCH   9  11
ATOM     11  C   UNL     1      -7.731  -0.922   9.592  1.00  0.00    -0.002 C 
ATOM     12  C   UNL     1      -9.081  -0.529   8.928  1.00  0.00     0.005 C 
ATOM     13  C   UNL     1      -7.229  -2.168   8.788  1.00  0.00    -0.026 C 
ATOM     14  C   UNL     1      -9.125  -1.238   7.563  1.00  0.00     0.005 C 
ATOM     15  C   UNL     1      -7.708  -1.766   7.381  1.00  0.00    -0.001 C 
ATOM     16  C   UNL     1      -5.671  -2.342   8.749  1.00  0.00     0.007 C 
ATOM     17  C   UNL     1      -7.920  -3.462   9.305  1.00  0.00     0.012 C 
ATOM     18  C   UNL     1      -7.376  -2.753   6.222  1.00  0.00     0.004 C 
ATOM     19  C   UNL     1      -5.092  -2.750   7.362  1.00  0.00     0.005 C 
ATOM     20  C   UNL     1      -6.092  -3.590   6.521  1.00  0.00     0.003 C 
ATOM     21  C   UNL     1      -8.512  -3.670   5.763  1.00  0.00     0.085 C 
ATOM     22  C   UNL     1      -5.510  -4.252   5.217  1.00  0.00    -0.000 C 
ATOM     23  C   UNL     1      -8.063  -4.510   4.597  1.00  0.00     0.159 C 
ATOM     24  C   UNL     1      -6.647  -4.972   4.466  1.00  0.00     0.005 C 
ATOM     25  C   UNL     1      -4.424  -5.306   5.610  1.00  0.00     0.020 C 
ATOM     26  C   UNL     1      -4.870  -3.196   4.275  1.00  0.00     0.017 C 
ATOM     27  O   UNL     1      -8.929  -4.873   3.754  1.00  0.00    -0.295 OA
ATOM     28  C   UNL     1      -6.378  -6.011   3.651  1.00  0.00     0.055 C 
ATOM     29  C   UNL     1      -3.909  -6.118   4.412  1.00  0.00     0.081 C 
ATOM     30  C   UNL     1      -5.033  -6.597   3.547  1.00  0.00     0.156 C 
ATOM     31  O   UNL     1      -4.819  -7.506   2.704  1.00  0.00    -0.295 OA
ENDBRANCH   9  11
ENDBRANCH   8   9
ENDBRANCH   1   8
TORSDOF 6
ENDMDL
MODEL 5
REMARK VINA RESULT:    -1.475     14.987     18.287
REMARK INTER + INTRA:          -2.201
REMARK INTER:                  -2.218
REMARK INTRA:                   0.016
REMARK UNBOUND:                -0.209
REMARK SMILES CC[C@@H](CC[C@H](C)[C@@H]1CC[C@@H]2[C@@H]3CC(=O)C4=CC(=O)CC[C@]4(C)[C@H]3CC[C@]21C)C(C)C
REMARK SMILES IDX 4 1 3 2 2 3 1 4 29 5 30 6 31 7 5 8 6 9 7 10 8 11 9 12 27 13
REMARK SMILES IDX 10 14 11 15 26 16 28 17 12 18 25 19 24 20 13 21 22 22 14 23
REMARK SMILES IDX 16 24 21 25 23 26 15 27 17 28 20 29 18 30 19 31
REMARK H PARENT
REMARK Flexibility Score: inf
ROOT
ATOM      1  C   UNL     1      -8.965  -5.181   0.762  1.00  0.00     0.004 C 
ENDROOT
BRANCH   1   2
ATOM      2  C   UNL     1      -9.104  -5.219  -0.790  1.00  0.00    -0.009 C 
BRANCH   2   3
ATOM      3  C   UNL     1      -8.424  -6.488  -1.379  1.00  0.00     0.000 C 
ATOM      4  C   UNL     1      -7.639  -6.233  -2.668  1.00  0.00     0.004 C 
ENDBRANCH   2   3
BRANCH   2   5
ATOM      5  C   UNL     1      -8.610  -3.891  -1.461  1.00  0.00    -0.014 C 
ATOM      6  C   UNL     1      -8.932  -2.624  -0.649  1.00  0.00     0.007 C 
ATOM      7  C   UNL     1      -9.125  -3.736  -2.904  1.00  0.00     0.007 C 
ENDBRANCH   2   5
ENDBRANCH   1   2
BRANCH   1   8
ATOM      8  C   UNL     1      -8.326  -6.426   1.419  1.00  0.00     0.004 C 
BRANCH   8   9
ATOM      9  C   UNL     1      -6.790  -6.357   1.623  1.00  0.00    -0.011 C 
ATOM     10  C   UNL     1      -6.223  -7.728   2.060  1.00  0.00     0.008 C 
BRANCH   9  11
ATOM     11  C   UNL     1      -6.391  -5.111   2.494  1.00  0.00    -0.002 C 
ATOM     12  C   UNL     1      -4.893  -4.706   2.398  1.00  0.00     0.005 C 
ATOM     13  C   UNL     1      -6.739  -5.027   4.018  1.00  0.00    -0.026 C 
ATOM     14  C   UNL     1      -4.535  -4.019   3.727  1.00  0.00     0.005 C 
ATOM     15  C   UNL     1      -5.883  -3.806   4.402  1.00  0.00    -0.001 C 
ATOM     16  C   UNL     1      -8.239  -4.699   4.333  1.00  0.00     0.007 C 
ATOM     17  C   UNL     1      -6.288  -6.324   4.749  1.00  0.00     0.012 C 
ATOM     18  C   UNL     1      -5.959  -3.341   5.888  1.00  0.00     0.004 C 
ATOM     19  C   UNL     1      -8.457  -3.672   5.483  1.00  0.00     0.005 C 
ATOM     20  C   UNL     1      -7.325  -3.715   6.545  1.00  0.00     0.003 C 
ATOM     21  C   UNL     1      -4.800  -3.765   6.793  1.00  0.00     0.085 C 
ATOM     22  C   UNL     1      -7.583  -2.892   7.862  1.00  0.00    -0.000 C 
ATOM     23  C   UNL     1      -4.977  -3.184   8.170  1.00  0.00     0.159 C 
ATOM     24  C   UNL     1      -6.334  -2.976   8.762  1.00  0.00     0.005 C 
ATOM     25  C   UNL     1      -8.796  -3.511   8.630  1.00  0.00     0.020 C 
ATOM     26  C   UNL     1      -7.887  -1.401   7.556  1.00  0.00     0.017 C 
ATOM     27  O   UNL     1      -3.944  -2.929   8.848  1.00  0.00    -0.295 OA
ATOM     28  C   UNL     1      -6.443  -2.829  10.097  1.00  0.00     0.055 C 
ATOM     29  C   UNL     1      -9.026  -2.872  10.009  1.00  0.00     0.081 C 
ATOM     30  C   UNL     1      -7.746  -2.729  10.771  1.00  0.00     0.156 C 
ATOM     31  O   UNL     1      -7.785  -2.502  12.008  1.00  0.00    -0.295 OA
ENDBRANCH   9  11
ENDBRANCH   8   9
ENDBRANCH   1   8
TORSDOF 6
ENDMDL
MODEL 6
REMARK VINA RESULT:    -1.035     12.812     15.834
REMARK INTER + INTRA:          -1.608
REMARK INTER:                  -2.028
REMARK INTRA:                   0.421
REMARK UNBOUND:                -0.209
REMARK SMILES CC[C@@H](CC[C@H](C)[C@@H]1CC[C@@H]2[C@@H]3CC(=O)C4=CC(=O)CC[C@]4(C)[C@H]3CC[C@]21C)C(C)C
REMARK SMILES IDX 4 1 3 2 2 3 1 4 29 5 30 6 31 7 5 8 6 9 7 10 8 11 9 12 27 13
REMARK SMILES IDX 10 14 11 15 26 16 28 17 12 18 25 19 24 20 13 21 22 22 14 23
REMARK SMILES IDX 16 24 21 25 23 26 15 27 17 28 20 29 18 30 19 31
REMARK H PARENT
REMARK Flexibility Score: inf
ROOT
ATOM      1  C   UNL     1      -2.385  -3.415   1.308  1.00  0.00     0.004 C 
ENDROOT
BRANCH   1   2
ATOM      2  C   UNL     1      -3.756  -2.691   1.460  1.00  0.00    -0.009 C 
BRANCH   2   3
ATOM      3  C   UNL     1      -4.914  -3.570   0.907  1.00  0.00     0.000 C 
ATOM      4  C   UNL     1      -5.638  -4.393   1.975  1.00  0.00     0.004 C 
ENDBRANCH   2   3
BRANCH   2   5
ATOM      5  C   UNL     1      -3.735  -1.248   0.848  1.00  0.00    -0.014 C 
ATOM      6  C   UNL     1      -4.986  -0.902   0.019  1.00  0.00     0.007 C 
ATOM      7  C   UNL     1      -2.465  -0.982   0.018  1.00  0.00     0.007 C 
ENDBRANCH   2   5
ENDBRANCH   1   2
BRANCH   1   8
ATOM      8  C   UNL     1      -2.230  -4.748   2.074  1.00  0.00     0.004 C 
BRANCH   8   9
ATOM      9  C   UNL     1      -1.564  -4.640   3.471  1.00  0.00    -0.011 C 
ATOM     10  C   UNL     1      -0.233  -5.425   3.516  1.00  0.00     0.008 C 
BRANCH   9  11
ATOM     11  C   UNL     1      -2.600  -4.928   4.616  1.00  0.00    -0.002 C 
ATOM     12  C   UNL     1      -3.582  -6.097   4.324  1.00  0.00     0.005 C 
ATOM     13  C   UNL     1      -3.489  -3.792   5.226  1.00  0.00    -0.026 C 
ATOM     14  C   UNL     1      -4.867  -5.804   5.117  1.00  0.00     0.005 C 
ATOM     15  C   UNL     1      -4.475  -4.654   6.036  1.00  0.00    -0.001 C 
ATOM     16  C   UNL     1      -2.743  -2.832   6.215  1.00  0.00     0.007 C 
ATOM     17  C   UNL     1      -4.192  -2.988   4.094  1.00  0.00     0.012 C 
ATOM     18  C   UNL     1      -5.558  -3.892   6.856  1.00  0.00     0.004 C 
ATOM     19  C   UNL     1      -3.544  -2.462   7.498  1.00  0.00     0.005 C 
ATOM     20  C   UNL     1      -5.080  -2.462   7.265  1.00  0.00     0.003 C 
ATOM     21  C   UNL     1      -6.957  -3.826   6.238  1.00  0.00     0.085 C 
ATOM     22  C   UNL     1      -5.955  -1.865   8.428  1.00  0.00    -0.000 C 
ATOM     23  C   UNL     1      -7.906  -3.125   7.173  1.00  0.00     0.159 C 
ATOM     24  C   UNL     1      -7.446  -2.020   8.069  1.00  0.00     0.005 C 
ATOM     25  C   UNL     1      -5.635  -0.344   8.589  1.00  0.00     0.020 C 
ATOM     26  C   UNL     1      -5.681  -2.583   9.778  1.00  0.00     0.017 C 
ATOM     27  O   UNL     1      -9.124  -3.450   7.141  1.00  0.00    -0.295 OA
ATOM     28  C   UNL     1      -8.364  -1.181   8.586  1.00  0.00     0.055 C 
ATOM     29  C   UNL     1      -6.554   0.364   9.596  1.00  0.00     0.081 C 
ATOM     30  C   UNL     1      -7.989  -0.006   9.387  1.00  0.00     0.156 C 
ATOM     31  O   UNL     1      -8.891   0.692   9.919  1.00  0.00    -0.295 OA
ENDBRANCH   9  11
ENDBRANCH   8   9
ENDBRANCH   1   8
TORSDOF 6
ENDMDL
