MODEL 1
REMARK VINA RESULT:    -7.438      0.000      0.000
REMARK INTER + INTRA:         -14.229
REMARK INTER:                 -12.221
REMARK INTRA:                  -2.008
REMARK UNBOUND:                -2.008
REMARK SMILES C[C@H]1O[C@@H](OC[C@H]2O[C@@H](Oc3c(-c4ccc(O)c(O)c4)oc4cc(O)cc(O)c4c3=O)[C@@H](O)[C@@H](O)[C@@H]2O)[C@@H](O)[C@@H](O)[C@H]1O
REMARK SMILES IDX 7 1 36 2 34 3 32 4 9 5 8 6 6 7 5 8 4 9 1 10 2 11 42 12 3 13
REMARK SMILES IDX 40 14 38 15 43 16 41 18 39 20 37 22 35 24 10 26 11 27 12 28
REMARK SMILES IDX 30 29 21 30 29 31 31 32 22 33 27 34 23 35 26 36 24 37 13 38
REMARK SMILES IDX 20 39 14 40 18 41 15 42 16 43 19 44 17 46 28 48 25 50 33 52
REMARK H PARENT 43 17 41 19 39 21 37 23 35 25 19 45 17 47 28 49 25 51 33 53
REMARK Flexibility Score: inf
ROOT
ATOM      1  C   UNL     1      73.292  44.780   6.765  1.00  0.00     0.180 C 
ATOM      2  C   UNL     1      72.854  44.942   5.257  1.00  0.00     0.177 C 
ATOM      3  C   UNL     1      71.930  43.817   4.764  1.00  0.00     0.180 C 
ATOM      4  C   UNL     1      70.873  43.505   5.832  1.00  0.00     0.214 C 
ATOM      5  C   UNL     1      71.631  43.164   7.107  1.00  0.00     0.339 C 
ATOM      6  O   UNL     1      72.218  44.351   7.601  1.00  0.00    -0.332 OA
ENDROOT
BRANCH   1   7
ATOM      7  C   UNL     1      73.872  46.085   7.375  1.00  0.00     0.198 C 
BRANCH   7   8
ATOM      8  O   UNL     1      72.837  46.960   7.804  1.00  0.00    -0.347 OA
BRANCH   8   9
ATOM      9  C   UNL     1      72.773  48.158   7.036  1.00  0.00     0.281 C 
ATOM     10  C   UNL     1      72.729  48.677  10.125  1.00  0.00     0.041 C 
ATOM     11  C   UNL     1      72.514  49.612   8.915  1.00  0.00     0.150 C 
ATOM     12  C   UNL     1      71.015  49.883   8.572  1.00  0.00     0.174 C 
ATOM     13  O   UNL     1      73.297  49.246   7.779  1.00  0.00    -0.344 OA
ATOM     14  C   UNL     1      70.396  48.750   7.745  1.00  0.00     0.179 C 
ATOM     15  C   UNL     1      71.327  48.434   6.567  1.00  0.00     0.202 C 
BRANCH  12  16
ATOM     16  O   UNL     1      70.253  50.085   9.737  1.00  0.00    -0.388 OA
ATOM     17  H   UNL     1      70.296  49.241  10.267  1.00  0.00     0.211 HD
ENDBRANCH  12  16
BRANCH  14  18
ATOM     18  O   UNL     1      70.180  47.615   8.549  1.00  0.00    -0.387 OA
ATOM     19  H   UNL     1      69.645  46.972   8.014  1.00  0.00     0.211 HD
ENDBRANCH  14  18
BRANCH  15  20
ATOM     20  O   UNL     1      70.826  47.384   5.773  1.00  0.00    -0.385 OA
ATOM     21  H   UNL     1      70.680  46.602   6.367  1.00  0.00     0.211 HD
ENDBRANCH  15  20
ENDBRANCH   8   9
ENDBRANCH   7   8
ENDBRANCH   1   7
BRANCH   2  22
ATOM     22  O   UNL     1      73.958  45.081   4.410  1.00  0.00    -0.387 OA
ATOM     23  H   UNL     1      74.601  44.354   4.618  1.00  0.00     0.211 HD
ENDBRANCH   2  22
BRANCH   3  24
ATOM     24  O   UNL     1      71.312  44.204   3.570  1.00  0.00    -0.387 OA
ATOM     25  H   UNL     1      71.682  43.628   2.853  1.00  0.00     0.211 HD
ENDBRANCH   3  24
BRANCH   5  26
ATOM     26  O   UNL     1      70.793  42.552   8.090  1.00  0.00    -0.454 OA
BRANCH  26  27
ATOM     27  C   UNL     1      69.426  42.808   8.259  1.00  0.00     0.214 A 
ATOM     28  C   UNL     1      68.430  41.914   7.793  1.00  0.00     0.180 A 
ATOM     29  C   UNL     1      69.031  44.008   8.855  1.00  0.00     0.239 A 
ATOM     30  O   UNL     1      67.148  42.213   7.957  1.00  0.00    -0.452 OA
ATOM     31  C   UNL     1      67.657  44.293   9.005  1.00  0.00     0.111 A 
ATOM     32  O   UNL     1      69.909  44.833   9.232  1.00  0.00    -0.285 OA
ATOM     33  C   UNL     1      66.727  43.346   8.511  1.00  0.00     0.146 A 
ATOM     34  C   UNL     1      67.176  45.490   9.591  1.00  0.00     0.134 A 
ATOM     35  C   UNL     1      65.349  43.609   8.570  1.00  0.00     0.094 A 
ATOM     36  C   UNL     1      65.796  45.742   9.624  1.00  0.00     0.093 A 
ATOM     37  C   UNL     1      64.885  44.817   9.096  1.00  0.00     0.123 A 
BRANCH  28  38
ATOM     38  C   UNL     1      68.761  40.659   7.086  1.00  0.00     0.025 A 
ATOM     39  C   UNL     1      69.139  40.699   5.738  1.00  0.00     0.062 A 
ATOM     40  C   UNL     1      68.748  39.422   7.757  1.00  0.00     0.016 A 
ATOM     41  C   UNL     1      69.481  39.522   5.054  1.00  0.00     0.158 A 
ATOM     42  C   UNL     1      69.101  38.248   7.083  1.00  0.00     0.051 A 
ATOM     43  C   UNL     1      69.471  38.294   5.729  1.00  0.00     0.157 A 
BRANCH  41  44
ATOM     44  O   UNL     1      69.834  39.567   3.710  1.00  0.00    -0.504 OA
ATOM     45  H   UNL     1      69.145  39.471   2.966  1.00  0.00     0.293 HD
ENDBRANCH  41  44
BRANCH  43  46
ATOM     46  O   UNL     1      69.825  37.129   5.053  1.00  0.00    -0.504 OA
ATOM     47  H   UNL     1      70.780  36.784   5.067  1.00  0.00     0.293 HD
ENDBRANCH  43  46
ENDBRANCH  28  38
BRANCH  34  48
ATOM     48  O   UNL     1      68.062  46.428  10.125  1.00  0.00    -0.507 OA
ATOM     49  H   UNL     1      68.683  46.971   9.541  1.00  0.00     0.293 HD
ENDBRANCH  34  48
BRANCH  37  50
ATOM     50  O   UNL     1      63.518  45.101   9.069  1.00  0.00    -0.508 OA
ATOM     51  H   UNL     1      63.147  45.870   8.521  1.00  0.00     0.293 HD
ENDBRANCH  37  50
ENDBRANCH  26  27
ENDBRANCH   5  26
BRANCH   4  52
ATOM     52  O   UNL     1      70.039  44.632   6.068  1.00  0.00    -0.384 OA
ATOM     53  H   UNL     1      70.152  44.892   7.011  1.00  0.00     0.211 HD
ENDBRANCH   4  52
TORSDOF 16
ENDMDL
MODEL 2
REMARK VINA RESULT:    -7.369      1.920      7.206
REMARK INTER + INTRA:         -14.115
REMARK INTER:                 -11.692
REMARK INTRA:                  -2.423
REMARK UNBOUND:                -2.008
REMARK SMILES C[C@H]1O[C@@H](OC[C@H]2O[C@@H](Oc3c(-c4ccc(O)c(O)c4)oc4cc(O)cc(O)c4c3=O)[C@@H](O)[C@@H](O)[C@@H]2O)[C@@H](O)[C@@H](O)[C@H]1O
REMARK SMILES IDX 7 1 36 2 34 3 32 4 9 5 8 6 6 7 5 8 4 9 1 10 2 11 42 12 3 13
REMARK SMILES IDX 40 14 38 15 43 16 41 18 39 20 37 22 35 24 10 26 11 27 12 28
REMARK SMILES IDX 30 29 21 30 29 31 31 32 22 33 27 34 23 35 26 36 24 37 13 38
REMARK SMILES IDX 20 39 14 40 18 41 15 42 16 43 19 44 17 46 28 48 25 50 33 52
REMARK H PARENT 43 17 41 19 39 21 37 23 35 25 19 45 17 47 28 49 25 51 33 53
REMARK Flexibility Score: inf
ROOT
ATOM      1  C   UNL     1      67.878  47.084   8.304  1.00  0.00     0.180 C 
ATOM      2  C   UNL     1      68.273  48.571   8.654  1.00  0.00     0.177 C 
ATOM      3  C   UNL     1      69.562  48.683   9.483  1.00  0.00     0.180 C 
ATOM      4  C   UNL     1      70.625  47.727   8.926  1.00  0.00     0.214 C 
ATOM      5  C   UNL     1      70.006  46.336   8.935  1.00  0.00     0.339 C 
ATOM      6  O   UNL     1      69.007  46.293   7.936  1.00  0.00    -0.332 OA
ENDROOT
BRANCH   1   7
ATOM      7  C   UNL     1      66.837  46.984   7.155  1.00  0.00     0.198 C 
BRANCH   7   8
ATOM      8  O   UNL     1      65.672  46.285   7.574  1.00  0.00    -0.347 OA
BRANCH   8   9
ATOM      9  C   UNL     1      65.562  46.193   8.991  1.00  0.00     0.281 C 
ATOM     10  C   UNL     1      64.250  43.771   7.500  1.00  0.00     0.041 C 
ATOM     11  C   UNL     1      64.240  44.201   8.983  1.00  0.00     0.150 C 
ATOM     12  C   UNL     1      62.959  44.982   9.416  1.00  0.00     0.174 C 
ATOM     13  O   UNL     1      65.453  44.836   9.388  1.00  0.00    -0.344 OA
ATOM     14  C   UNL     1      63.027  46.465   9.036  1.00  0.00     0.179 C 
ATOM     15  C   UNL     1      64.373  47.033   9.507  1.00  0.00     0.202 C 
BRANCH  12  16
ATOM     16  O   UNL     1      61.800  44.406   8.863  1.00  0.00    -0.388 OA
ATOM     17  H   UNL     1      62.081  43.907   8.047  1.00  0.00     0.211 HD
ENDBRANCH  12  16
BRANCH  14  18
ATOM     18  O   UNL     1      62.858  46.625   7.648  1.00  0.00    -0.387 OA
ATOM     19  H   UNL     1      62.147  45.994   7.363  1.00  0.00     0.211 HD
ENDBRANCH  14  18
BRANCH  15  20
ATOM     20  O   UNL     1      64.510  48.394   9.170  1.00  0.00    -0.385 OA
ATOM     21  H   UNL     1      65.479  48.609   9.172  1.00  0.00     0.211 HD
ENDBRANCH  15  20
ENDBRANCH   8   9
ENDBRANCH   7   8
ENDBRANCH   1   7
BRANCH   2  22
ATOM     22  O   UNL     1      67.223  49.252   9.280  1.00  0.00    -0.387 OA
ATOM     23  H   UNL     1      67.488  50.202   9.382  1.00  0.00     0.211 HD
ENDBRANCH   2  22
BRANCH   3  24
ATOM     24  O   UNL     1      70.031  50.000   9.450  1.00  0.00    -0.387 OA
ATOM     25  H   UNL     1      69.291  50.562   9.106  1.00  0.00     0.211 HD
ENDBRANCH   3  24
BRANCH   5  26
ATOM     26  O   UNL     1      70.979  45.307   8.740  1.00  0.00    -0.454 OA
BRANCH  26  27
ATOM     27  C   UNL     1      70.822  44.196   7.900  1.00  0.00     0.214 A 
ATOM     28  C   UNL     1      71.407  44.141   6.610  1.00  0.00     0.180 A 
ATOM     29  C   UNL     1      70.020  43.135   8.324  1.00  0.00     0.239 A 
ATOM     30  O   UNL     1      71.210  43.076   5.844  1.00  0.00    -0.452 OA
ATOM     31  C   UNL     1      69.829  42.022   7.477  1.00  0.00     0.111 A 
ATOM     32  O   UNL     1      69.457  43.194   9.452  1.00  0.00    -0.285 OA
ATOM     33  C   UNL     1      70.448  42.047   6.204  1.00  0.00     0.146 A 
ATOM     34  C   UNL     1      69.025  40.911   7.831  1.00  0.00     0.134 A 
ATOM     35  C   UNL     1      70.236  41.000   5.292  1.00  0.00     0.094 A 
ATOM     36  C   UNL     1      68.811  39.883   6.899  1.00  0.00     0.093 A 
ATOM     37  C   UNL     1      69.395  39.937   5.626  1.00  0.00     0.123 A 
BRANCH  28  38
ATOM     38  C   UNL     1      72.207  45.252   6.055  1.00  0.00     0.025 A 
ATOM     39  C   UNL     1      71.750  45.942   4.925  1.00  0.00     0.062 A 
ATOM     40  C   UNL     1      73.404  45.663   6.671  1.00  0.00     0.016 A 
ATOM     41  C   UNL     1      72.483  47.017   4.397  1.00  0.00     0.158 A 
ATOM     42  C   UNL     1      74.131  46.742   6.155  1.00  0.00     0.051 A 
ATOM     43  C   UNL     1      73.671  47.424   5.017  1.00  0.00     0.157 A 
BRANCH  41  44
ATOM     44  O   UNL     1      72.033  47.683   3.262  1.00  0.00    -0.504 OA
ATOM     45  H   UNL     1      72.314  47.403   2.324  1.00  0.00     0.293 HD
ENDBRANCH  41  44
BRANCH  43  46
ATOM     46  O   UNL     1      74.389  48.500   4.500  1.00  0.00    -0.504 OA
ATOM     47  H   UNL     1      74.230  49.446   4.834  1.00  0.00     0.293 HD
ENDBRANCH  43  46
ENDBRANCH  28  38
BRANCH  34  48
ATOM     48  O   UNL     1      68.432  40.833   9.092  1.00  0.00    -0.507 OA
ATOM     49  H   UNL     1      68.022  39.977   9.440  1.00  0.00     0.293 HD
ENDBRANCH  34  48
BRANCH  37  50
ATOM     50  O   UNL     1      69.125  38.947   4.679  1.00  0.00    -0.508 OA
ATOM     51  H   UNL     1      69.765  38.176   4.519  1.00  0.00     0.293 HD
ENDBRANCH  37  50
ENDBRANCH  26  27
ENDBRANCH   5  26
BRANCH   4  52
ATOM     52  O   UNL     1      70.976  48.076   7.593  1.00  0.00    -0.384 OA
ATOM     53  H   UNL     1      71.676  48.766   7.641  1.00  0.00     0.211 HD
ENDBRANCH   4  52
TORSDOF 16
ENDMDL
MODEL 3
REMARK VINA RESULT:    -7.340      1.719      5.814
REMARK INTER + INTRA:         -14.067
REMARK INTER:                 -11.234
REMARK INTRA:                  -2.833
REMARK UNBOUND:                -2.008
REMARK SMILES C[C@H]1O[C@@H](OC[C@H]2O[C@@H](Oc3c(-c4ccc(O)c(O)c4)oc4cc(O)cc(O)c4c3=O)[C@@H](O)[C@@H](O)[C@@H]2O)[C@@H](O)[C@@H](O)[C@H]1O
REMARK SMILES IDX 7 1 36 2 34 3 32 4 9 5 8 6 6 7 5 8 4 9 1 10 2 11 42 12 3 13
REMARK SMILES IDX 40 14 38 15 43 16 41 18 39 20 37 22 35 24 10 26 11 27 12 28
REMARK SMILES IDX 30 29 21 30 29 31 31 32 22 33 27 34 23 35 26 36 24 37 13 38
REMARK SMILES IDX 20 39 14 40 18 41 15 42 16 43 19 44 17 46 28 48 25 50 33 52
REMARK H PARENT 43 17 41 19 39 21 37 23 35 25 19 45 17 47 28 49 25 51 33 53
REMARK Flexibility Score: inf
ROOT
ATOM      1  C   UNL     1      68.393  47.146   6.962  1.00  0.00     0.180 C 
ATOM      2  C   UNL     1      66.944  47.046   7.579  1.00  0.00     0.177 C 
ATOM      3  C   UNL     1      66.518  45.607   7.912  1.00  0.00     0.180 C 
ATOM      4  C   UNL     1      67.680  44.862   8.582  1.00  0.00     0.214 C 
ATOM      5  C   UNL     1      68.861  44.948   7.624  1.00  0.00     0.339 C 
ATOM      6  O   UNL     1      69.324  46.284   7.616  1.00  0.00    -0.332 OA
ENDROOT
BRANCH   1   7
ATOM      7  C   UNL     1      68.976  48.585   7.002  1.00  0.00     0.198 C 
BRANCH   7   8
ATOM      8  O   UNL     1      70.294  48.594   7.535  1.00  0.00    -0.347 OA
BRANCH   8   9
ATOM      9  C   UNL     1      70.425  49.444   8.670  1.00  0.00     0.281 C 
ATOM     10  C   UNL     1      73.177  48.694   7.375  1.00  0.00     0.041 C 
ATOM     11  C   UNL     1      72.816  49.427   8.685  1.00  0.00     0.150 C 
ATOM     12  C   UNL     1      72.858  48.524   9.958  1.00  0.00     0.174 C 
ATOM     13  O   UNL     1      71.621  50.202   8.580  1.00  0.00    -0.344 OA
ATOM     14  C   UNL     1      71.579  47.696  10.125  1.00  0.00     0.179 C 
ATOM     15  C   UNL     1      70.367  48.627   9.980  1.00  0.00     0.202 C 
BRANCH  12  16
ATOM     16  O   UNL     1      73.974  47.668   9.939  1.00  0.00    -0.388 OA
ATOM     17  H   UNL     1      74.768  48.212  10.199  1.00  0.00     0.211 HD
ENDBRANCH  12  16
BRANCH  14  18
ATOM     18  O   UNL     1      71.543  46.652   9.182  1.00  0.00    -0.387 OA
ATOM     19  H   UNL     1      72.446  46.590   8.776  1.00  0.00     0.211 HD
ENDBRANCH  14  18
BRANCH  15  20
ATOM     20  O   UNL     1      69.153  47.924  10.103  1.00  0.00    -0.385 OA
ATOM     21  H   UNL     1      68.502  48.523  10.554  1.00  0.00     0.211 HD
ENDBRANCH  15  20
ENDBRANCH   8   9
ENDBRANCH   7   8
ENDBRANCH   1   7
BRANCH   2  22
ATOM     22  O   UNL     1      65.991  47.666   6.763  1.00  0.00    -0.387 OA
ATOM     23  H   UNL     1      65.566  46.969   6.200  1.00  0.00     0.211 HD
ENDBRANCH   2  22
BRANCH   3  24
ATOM     24  O   UNL     1      65.406  45.629   8.759  1.00  0.00    -0.387 OA
ATOM     25  H   UNL     1      64.613  45.804   8.190  1.00  0.00     0.211 HD
ENDBRANCH   3  24
BRANCH   5  26
ATOM     26  O   UNL     1      69.908  44.039   7.970  1.00  0.00    -0.454 OA
BRANCH  26  27
ATOM     27  C   UNL     1      70.158  42.815   7.335  1.00  0.00     0.214 A 
ATOM     28  C   UNL     1      70.983  42.718   6.187  1.00  0.00     0.180 A 
ATOM     29  C   UNL     1      69.530  41.663   7.813  1.00  0.00     0.239 A 
ATOM     30  O   UNL     1      71.170  41.539   5.608  1.00  0.00    -0.452 OA
ATOM     31  C   UNL     1      69.748  40.429   7.165  1.00  0.00     0.111 A 
ATOM     32  O   UNL     1      68.755  41.745   8.807  1.00  0.00    -0.285 OA
ATOM     33  C   UNL     1      70.587  40.420   6.025  1.00  0.00     0.146 A 
ATOM     34  C   UNL     1      69.142  39.218   7.585  1.00  0.00     0.134 A 
ATOM     35  C   UNL     1      70.783  39.234   5.299  1.00  0.00     0.094 A 
ATOM     36  C   UNL     1      69.338  38.047   6.836  1.00  0.00     0.093 A 
ATOM     37  C   UNL     1      70.136  38.058   5.684  1.00  0.00     0.123 A 
BRANCH  28  38
ATOM     38  C   UNL     1      71.626  43.899   5.571  1.00  0.00     0.025 A 
ATOM     39  C   UNL     1      71.234  44.317   4.294  1.00  0.00     0.062 A 
ATOM     40  C   UNL     1      72.597  44.643   6.268  1.00  0.00     0.016 A 
ATOM     41  C   UNL     1      71.813  45.450   3.701  1.00  0.00     0.158 A 
ATOM     42  C   UNL     1      73.168  45.780   5.686  1.00  0.00     0.051 A 
ATOM     43  C   UNL     1      72.776  46.189   4.401  1.00  0.00     0.157 A 
BRANCH  41  44
ATOM     44  O   UNL     1      71.434  45.847   2.424  1.00  0.00    -0.504 OA
ATOM     45  H   UNL     1      71.774  45.375   1.588  1.00  0.00     0.293 HD
ENDBRANCH  41  44
BRANCH  43  46
ATOM     46  O   UNL     1      73.339  47.322   3.818  1.00  0.00    -0.504 OA
ATOM     47  H   UNL     1      72.766  47.993   3.315  1.00  0.00     0.293 HD
ENDBRANCH  43  46
ENDBRANCH  28  38
BRANCH  34  48
ATOM     48  O   UNL     1      68.342  39.181   8.728  1.00  0.00    -0.507 OA
ATOM     49  H   UNL     1      68.223  38.337   9.272  1.00  0.00     0.293 HD
ENDBRANCH  34  48
BRANCH  37  50
ATOM     50  O   UNL     1      70.273  36.908   4.904  1.00  0.00    -0.508 OA
ATOM     51  H   UNL     1      70.998  36.828   4.200  1.00  0.00     0.293 HD
ENDBRANCH  37  50
ENDBRANCH  26  27
ENDBRANCH   5  26
BRANCH   4  52
ATOM     52  O   UNL     1      68.032  45.471   9.818  1.00  0.00    -0.384 OA
ATOM     53  H   UNL     1      67.460  46.265   9.931  1.00  0.00     0.211 HD
ENDBRANCH   4  52
TORSDOF 16
ENDMDL
MODEL 4
REMARK VINA RESULT:    -7.248      1.730      6.186
REMARK INTER + INTRA:         -13.916
REMARK INTER:                 -10.284
REMARK INTRA:                  -3.632
REMARK UNBOUND:                -2.008
REMARK SMILES C[C@H]1O[C@@H](OC[C@H]2O[C@@H](Oc3c(-c4ccc(O)c(O)c4)oc4cc(O)cc(O)c4c3=O)[C@@H](O)[C@@H](O)[C@@H]2O)[C@@H](O)[C@@H](O)[C@H]1O
REMARK SMILES IDX 7 1 36 2 34 3 32 4 9 5 8 6 6 7 5 8 4 9 1 10 2 11 42 12 3 13
REMARK SMILES IDX 40 14 38 15 43 16 41 18 39 20 37 22 35 24 10 26 11 27 12 28
REMARK SMILES IDX 30 29 21 30 29 31 31 32 22 33 27 34 23 35 26 36 24 37 13 38
REMARK SMILES IDX 20 39 14 40 18 41 15 42 16 43 19 44 17 46 28 48 25 50 33 52
REMARK H PARENT 43 17 41 19 39 21 37 23 35 25 19 45 17 47 28 49 25 51 33 53
REMARK Flexibility Score: inf
ROOT
ATOM      1  C   UNL     1      70.769  48.387   7.343  1.00  0.00     0.180 C 
ATOM      2  C   UNL     1      71.933  49.132   8.106  1.00  0.00     0.177 C 
ATOM      3  C   UNL     1      72.010  48.779   9.600  1.00  0.00     0.180 C 
ATOM      4  C   UNL     1      71.825  47.268   9.788  1.00  0.00     0.214 C 
ATOM      5  C   UNL     1      70.495  46.908   9.139  1.00  0.00     0.339 C 
ATOM      6  O   UNL     1      70.646  47.021   7.738  1.00  0.00    -0.332 OA
ENDROOT
BRANCH   1   7
ATOM      7  C   UNL     1      70.933  48.419   5.799  1.00  0.00     0.198 C 
BRANCH   7   8
ATOM      8  O   UNL     1      71.361  47.158   5.300  1.00  0.00    -0.347 OA
BRANCH   8   9
ATOM      9  C   UNL     1      72.403  47.271   4.336  1.00  0.00     0.281 C 
ATOM     10  C   UNL     1      71.174  44.394   4.481  1.00  0.00     0.041 C 
ATOM     11  C   UNL     1      72.405  44.956   3.739  1.00  0.00     0.150 C 
ATOM     12  C   UNL     1      73.763  44.710   4.469  1.00  0.00     0.174 C 
ATOM     13  O   UNL     1      72.230  46.307   3.310  1.00  0.00    -0.344 OA
ATOM     14  C   UNL     1      74.021  45.738   5.576  1.00  0.00     0.179 C 
ATOM     15  C   UNL     1      73.789  47.145   5.006  1.00  0.00     0.202 C 
BRANCH  12  16
ATOM     16  O   UNL     1      73.824  43.413   5.009  1.00  0.00    -0.388 OA
ATOM     17  H   UNL     1      72.893  43.055   5.022  1.00  0.00     0.211 HD
ENDBRANCH  12  16
BRANCH  14  18
ATOM     18  O   UNL     1      73.188  45.489   6.683  1.00  0.00    -0.387 OA
ATOM     19  H   UNL     1      73.286  44.528   6.915  1.00  0.00     0.211 HD
ENDBRANCH  14  18
BRANCH  15  20
ATOM     20  O   UNL     1      73.991  48.141   5.981  1.00  0.00    -0.385 OA
ATOM     21  H   UNL     1      74.839  48.609   5.764  1.00  0.00     0.211 HD
ENDBRANCH  15  20
ENDBRANCH   8   9
ENDBRANCH   7   8
ENDBRANCH   1   7
BRANCH   2  22
ATOM     22  O   UNL     1      71.863  50.518   7.929  1.00  0.00    -0.387 OA
ATOM     23  H   UNL     1      72.062  50.718   6.978  1.00  0.00     0.211 HD
ENDBRANCH   2  22
BRANCH   3  24
ATOM     24  O   UNL     1      73.245  49.183  10.117  1.00  0.00    -0.387 OA
ATOM     25  H   UNL     1      73.782  49.519   9.354  1.00  0.00     0.211 HD
ENDBRANCH   3  24
BRANCH   5  26
ATOM     26  O   UNL     1      70.046  45.603   9.508  1.00  0.00    -0.454 OA
BRANCH  26  27
ATOM     27  C   UNL     1      69.838  44.539   8.620  1.00  0.00     0.214 A 
ATOM     28  C   UNL     1      68.577  44.293   8.022  1.00  0.00     0.180 A 
ATOM     29  C   UNL     1      70.891  43.658   8.361  1.00  0.00     0.239 A 
ATOM     30  O   UNL     1      68.426  43.258   7.206  1.00  0.00    -0.452 OA
ATOM     31  C   UNL     1      70.688  42.565   7.492  1.00  0.00     0.111 A 
ATOM     32  O   UNL     1      72.006  43.840   8.925  1.00  0.00    -0.285 OA
ATOM     33  C   UNL     1      69.398  42.392   6.937  1.00  0.00     0.146 A 
ATOM     34  C   UNL     1      71.703  41.624   7.185  1.00  0.00     0.134 A 
ATOM     35  C   UNL     1      69.120  41.282   6.123  1.00  0.00     0.094 A 
ATOM     36  C   UNL     1      71.400  40.513   6.383  1.00  0.00     0.093 A 
ATOM     37  C   UNL     1      70.109  40.328   5.872  1.00  0.00     0.123 A 
BRANCH  28  38
ATOM     38  C   UNL     1      67.392  45.131   8.301  1.00  0.00     0.025 A 
ATOM     39  C   UNL     1      66.967  46.072   7.355  1.00  0.00     0.062 A 
ATOM     40  C   UNL     1      66.650  44.967   9.485  1.00  0.00     0.016 A 
ATOM     41  C   UNL     1      65.829  46.860   7.589  1.00  0.00     0.158 A 
ATOM     42  C   UNL     1      65.508  45.742   9.718  1.00  0.00     0.051 A 
ATOM     43  C   UNL     1      65.092  46.690   8.769  1.00  0.00     0.157 A 
BRANCH  41  44
ATOM     44  O   UNL     1      65.425  47.808   6.655  1.00  0.00    -0.504 OA
ATOM     45  H   UNL     1      65.724  47.769   5.682  1.00  0.00     0.293 HD
ENDBRANCH  41  44
BRANCH  43  46
ATOM     46  O   UNL     1      63.955  47.462   8.993  1.00  0.00    -0.504 OA
ATOM     47  H   UNL     1      63.108  47.051   9.375  1.00  0.00     0.293 HD
ENDBRANCH  43  46
ENDBRANCH  28  38
BRANCH  34  48
ATOM     48  O   UNL     1      72.998  41.785   7.682  1.00  0.00    -0.507 OA
ATOM     49  H   UNL     1      73.747  42.156   7.115  1.00  0.00     0.293 HD
ENDBRANCH  34  48
BRANCH  37  50
ATOM     50  O   UNL     1      69.794  39.187   5.131  1.00  0.00    -0.508 OA
ATOM     51  H   UNL     1      70.307  38.942   4.291  1.00  0.00     0.293 HD
ENDBRANCH  37  50
ENDBRANCH  26  27
ENDBRANCH   5  26
BRANCH   4  52
ATOM     52  O   UNL     1      72.870  46.542   9.152  1.00  0.00    -0.384 OA
ATOM     53  H   UNL     1      72.680  46.535   8.186  1.00  0.00     0.211 HD
ENDBRANCH   4  52
TORSDOF 16
ENDMDL
MODEL 5
REMARK VINA RESULT:    -7.077      1.898      7.320
REMARK INTER + INTRA:         -13.635
REMARK INTER:                 -11.428
REMARK INTRA:                  -2.207
REMARK UNBOUND:                -2.008
REMARK SMILES C[C@H]1O[C@@H](OC[C@H]2O[C@@H](Oc3c(-c4ccc(O)c(O)c4)oc4cc(O)cc(O)c4c3=O)[C@@H](O)[C@@H](O)[C@@H]2O)[C@@H](O)[C@@H](O)[C@H]1O
REMARK SMILES IDX 7 1 36 2 34 3 32 4 9 5 8 6 6 7 5 8 4 9 1 10 2 11 42 12 3 13
REMARK SMILES IDX 40 14 38 15 43 16 41 18 39 20 37 22 35 24 10 26 11 27 12 28
REMARK SMILES IDX 30 29 21 30 29 31 31 32 22 33 27 34 23 35 26 36 24 37 13 38
REMARK SMILES IDX 20 39 14 40 18 41 15 42 16 43 19 44 17 46 28 48 25 50 33 52
REMARK H PARENT 43 17 41 19 39 21 37 23 35 25 19 45 17 47 28 49 25 51 33 53
REMARK Flexibility Score: inf
ROOT
ATOM      1  C   UNL     1      71.907  43.193   6.039  1.00  0.00     0.180 C 
ATOM      2  C   UNL     1      72.864  44.290   5.429  1.00  0.00     0.177 C 
ATOM      3  C   UNL     1      72.275  45.708   5.472  1.00  0.00     0.180 C 
ATOM      4  C   UNL     1      71.608  45.955   6.831  1.00  0.00     0.214 C 
ATOM      5  C   UNL     1      70.574  44.854   7.015  1.00  0.00     0.339 C 
ATOM      6  O   UNL     1      71.261  43.637   7.232  1.00  0.00    -0.332 OA
ENDROOT
BRANCH   1   7
ATOM      7  C   UNL     1      72.636  41.862   6.367  1.00  0.00     0.198 C 
BRANCH   7   8
ATOM      8  O   UNL     1      71.850  40.737   5.993  1.00  0.00    -0.347 OA
BRANCH   8   9
ATOM      9  C   UNL     1      71.077  40.220   7.071  1.00  0.00     0.281 C 
ATOM     10  C   UNL     1      72.427  37.980   5.348  1.00  0.00     0.041 C 
ATOM     11  C   UNL     1      71.385  37.923   6.485  1.00  0.00     0.150 C 
ATOM     12  C   UNL     1      69.907  37.791   5.997  1.00  0.00     0.174 C 
ATOM     13  O   UNL     1      71.568  38.948   7.462  1.00  0.00    -0.344 OA
ATOM     14  C   UNL     1      69.310  39.141   5.583  1.00  0.00     0.179 C 
ATOM     15  C   UNL     1      69.579  40.161   6.697  1.00  0.00     0.202 C 
BRANCH  12  16
ATOM     16  O   UNL     1      69.803  36.883   4.928  1.00  0.00    -0.388 OA
ATOM     17  H   UNL     1      70.725  36.732   4.579  1.00  0.00     0.211 HD
ENDBRANCH  12  16
BRANCH  14  18
ATOM     18  O   UNL     1      69.855  39.564   4.355  1.00  0.00    -0.387 OA
ATOM     19  H   UNL     1      69.298  40.318   4.031  1.00  0.00     0.211 HD
ENDBRANCH  14  18
BRANCH  15  20
ATOM     20  O   UNL     1      69.072  41.434   6.371  1.00  0.00    -0.385 OA
ATOM     21  H   UNL     1      68.912  41.453   5.392  1.00  0.00     0.211 HD
ENDBRANCH  15  20
ENDBRANCH   8   9
ENDBRANCH   7   8
ENDBRANCH   1   7
BRANCH   2  22
ATOM     22  O   UNL     1      73.266  43.961   4.130  1.00  0.00    -0.387 OA
ATOM     23  H   UNL     1      72.555  44.256   3.503  1.00  0.00     0.211 HD
ENDBRANCH   2  22
BRANCH   3  24
ATOM     24  O   UNL     1      73.288  46.647   5.253  1.00  0.00    -0.387 OA
ATOM     25  H   UNL     1      74.151  46.181   5.401  1.00  0.00     0.211 HD
ENDBRANCH   3  24
BRANCH   5  26
ATOM     26  O   UNL     1      69.665  45.133   8.082  1.00  0.00    -0.454 OA
BRANCH  26  27
ATOM     27  C   UNL     1      68.351  45.594   7.925  1.00  0.00     0.214 A 
ATOM     28  C   UNL     1      68.046  46.974   7.823  1.00  0.00     0.180 A 
ATOM     29  C   UNL     1      67.305  44.669   7.927  1.00  0.00     0.239 A 
ATOM     30  O   UNL     1      66.783  47.361   7.699  1.00  0.00    -0.452 OA
ATOM     31  C   UNL     1      65.974  45.121   7.800  1.00  0.00     0.111 A 
ATOM     32  O   UNL     1      67.562  43.441   8.065  1.00  0.00    -0.285 OA
ATOM     33  C   UNL     1      65.756  46.516   7.703  1.00  0.00     0.146 A 
ATOM     34  C   UNL     1      64.858  44.247   7.801  1.00  0.00     0.134 A 
ATOM     35  C   UNL     1      64.449  47.027   7.646  1.00  0.00     0.094 A 
ATOM     36  C   UNL     1      63.560  44.779   7.760  1.00  0.00     0.093 A 
ATOM     37  C   UNL     1      63.353  46.163   7.706  1.00  0.00     0.123 A 
BRANCH  28  38
ATOM     38  C   UNL     1      69.085  48.022   7.887  1.00  0.00     0.025 A 
ATOM     39  C   UNL     1      69.381  48.780   6.748  1.00  0.00     0.062 A 
ATOM     40  C   UNL     1      69.755  48.307   9.092  1.00  0.00     0.016 A 
ATOM     41  C   UNL     1      70.347  49.797   6.794  1.00  0.00     0.158 A 
ATOM     42  C   UNL     1      70.710  49.328   9.147  1.00  0.00     0.051 A 
ATOM     43  C   UNL     1      71.008  50.079   7.998  1.00  0.00     0.157 A 
BRANCH  41  44
ATOM     44  O   UNL     1      70.651  50.532   5.653  1.00  0.00    -0.504 OA
ATOM     45  H   UNL     1      71.103  50.110   4.844  1.00  0.00     0.293 HD
ENDBRANCH  41  44
BRANCH  43  46
ATOM     46  O   UNL     1      71.955  51.099   8.046  1.00  0.00    -0.504 OA
ATOM     47  H   UNL     1      72.673  51.115   8.765  1.00  0.00     0.293 HD
ENDBRANCH  43  46
ENDBRANCH  28  38
BRANCH  34  48
ATOM     48  O   UNL     1      65.037  42.864   7.854  1.00  0.00    -0.507 OA
ATOM     49  H   UNL     1      64.977  42.349   8.722  1.00  0.00     0.293 HD
ENDBRANCH  34  48
BRANCH  37  50
ATOM     50  O   UNL     1      62.060  46.690   7.735  1.00  0.00    -0.508 OA
ATOM     51  H   UNL     1      61.248  46.113   7.548  1.00  0.00     0.293 HD
ENDBRANCH  37  50
ENDBRANCH  26  27
ENDBRANCH   5  26
BRANCH   4  52
ATOM     52  O   UNL     1      72.560  45.886   7.886  1.00  0.00    -0.384 OA
ATOM     53  H   UNL     1      73.452  46.015   7.490  1.00  0.00     0.211 HD
ENDBRANCH   4  52
TORSDOF 16
ENDMDL
MODEL 6
REMARK VINA RESULT:    -6.999      2.844      6.505
REMARK INTER + INTRA:         -13.508
REMARK INTER:                 -11.578
REMARK INTRA:                  -1.930
REMARK UNBOUND:                -2.008
REMARK SMILES C[C@H]1O[C@@H](OC[C@H]2O[C@@H](Oc3c(-c4ccc(O)c(O)c4)oc4cc(O)cc(O)c4c3=O)[C@@H](O)[C@@H](O)[C@@H]2O)[C@@H](O)[C@@H](O)[C@H]1O
REMARK SMILES IDX 7 1 36 2 34 3 32 4 9 5 8 6 6 7 5 8 4 9 1 10 2 11 42 12 3 13
REMARK SMILES IDX 40 14 38 15 43 16 41 18 39 20 37 22 35 24 10 26 11 27 12 28
REMARK SMILES IDX 30 29 21 30 29 31 31 32 22 33 27 34 23 35 26 36 24 37 13 38
REMARK SMILES IDX 20 39 14 40 18 41 15 42 16 43 19 44 17 46 28 48 25 50 33 52
REMARK H PARENT 43 17 41 19 39 21 37 23 35 25 19 45 17 47 28 49 25 51 33 53
REMARK Flexibility Score: inf
ROOT
ATOM      1  C   UNL     1      70.110  44.188   9.194  1.00  0.00     0.180 C 
ATOM      2  C   UNL     1      71.205  43.215   9.780  1.00  0.00     0.177 C 
ATOM      3  C   UNL     1      72.573  43.347   9.091  1.00  0.00     0.180 C 
ATOM      4  C   UNL     1      72.910  44.828   8.880  1.00  0.00     0.214 C 
ATOM      5  C   UNL     1      71.759  45.427   8.083  1.00  0.00     0.339 C 
ATOM      6  O   UNL     1      70.626  45.491   8.927  1.00  0.00    -0.332 OA
ENDROOT
BRANCH   1   7
ATOM      7  C   UNL     1      68.878  44.351  10.125  1.00  0.00     0.198 C 
BRANCH   7   8
ATOM      8  O   UNL     1      67.977  45.330   9.623  1.00  0.00    -0.347 OA
BRANCH   8   9
ATOM      9  C   UNL     1      67.403  44.962   8.372  1.00  0.00     0.281 C 
ATOM     10  C   UNL     1      67.977  48.033   8.603  1.00  0.00     0.041 C 
ATOM     11  C   UNL     1      67.226  47.198   7.544  1.00  0.00     0.150 C 
ATOM     12  C   UNL     1      65.673  47.196   7.709  1.00  0.00     0.174 C 
ATOM     13  O   UNL     1      67.777  45.892   7.368  1.00  0.00    -0.344 OA
ATOM     14  C   UNL     1      65.203  46.190   8.765  1.00  0.00     0.179 C 
ATOM     15  C   UNL     1      65.868  44.835   8.485  1.00  0.00     0.202 C 
BRANCH  12  16
ATOM     16  O   UNL     1      65.194  48.479   8.034  1.00  0.00    -0.388 OA
ATOM     17  H   UNL     1      65.676  49.129   7.452  1.00  0.00     0.211 HD
ENDBRANCH  12  16
BRANCH  14  18
ATOM     18  O   UNL     1      65.508  46.656  10.058  1.00  0.00    -0.387 OA
ATOM     19  H   UNL     1      66.393  47.103  10.009  1.00  0.00     0.211 HD
ENDBRANCH  14  18
BRANCH  15  20
ATOM     20  O   UNL     1      65.493  43.865   9.435  1.00  0.00    -0.385 OA
ATOM     21  H   UNL     1      66.149  43.903  10.180  1.00  0.00     0.211 HD
ENDBRANCH  15  20
ENDBRANCH   8   9
ENDBRANCH   7   8
ENDBRANCH   1   7
BRANCH   2  22
ATOM     22  O   UNL     1      70.773  41.884   9.769  1.00  0.00    -0.387 OA
ATOM     23  H   UNL     1      70.991  41.482  10.649  1.00  0.00     0.211 HD
ENDBRANCH   2  22
BRANCH   3  24
ATOM     24  O   UNL     1      73.556  42.733   9.874  1.00  0.00    -0.387 OA
ATOM     25  H   UNL     1      73.793  43.373  10.593  1.00  0.00     0.211 HD
ENDBRANCH   3  24
BRANCH   5  26
ATOM     26  O   UNL     1      72.079  46.712   7.547  1.00  0.00    -0.454 OA
BRANCH  26  27
ATOM     27  C   UNL     1      71.791  47.139   6.244  1.00  0.00     0.214 A 
ATOM     28  C   UNL     1      72.197  46.403   5.104  1.00  0.00     0.180 A 
ATOM     29  C   UNL     1      71.132  48.357   6.061  1.00  0.00     0.239 A 
ATOM     30  O   UNL     1      71.919  46.861   3.890  1.00  0.00    -0.452 OA
ATOM     31  C   UNL     1      70.860  48.814   4.754  1.00  0.00     0.111 A 
ATOM     32  O   UNL     1      70.806  49.044   7.069  1.00  0.00    -0.285 OA
ATOM     33  C   UNL     1      71.301  48.018   3.670  1.00  0.00     0.146 A 
ATOM     34  C   UNL     1      70.203  50.040   4.485  1.00  0.00     0.134 A 
ATOM     35  C   UNL     1      71.122  48.457   2.348  1.00  0.00     0.094 A 
ATOM     36  C   UNL     1      70.049  50.470   3.158  1.00  0.00     0.093 A 
ATOM     37  C   UNL     1      70.526  49.694   2.093  1.00  0.00     0.123 A 
BRANCH  28  38
ATOM     38  C   UNL     1      72.964  45.143   5.206  1.00  0.00     0.025 A 
ATOM     39  C   UNL     1      72.321  43.918   4.994  1.00  0.00     0.062 A 
ATOM     40  C   UNL     1      74.347  45.155   5.469  1.00  0.00     0.016 A 
ATOM     41  C   UNL     1      73.037  42.712   5.062  1.00  0.00     0.158 A 
ATOM     42  C   UNL     1      75.067  43.956   5.525  1.00  0.00     0.051 A 
ATOM     43  C   UNL     1      74.414  42.730   5.320  1.00  0.00     0.157 A 
BRANCH  41  44
ATOM     44  O   UNL     1      72.387  41.497   4.872  1.00  0.00    -0.504 OA
ATOM     45  H   UNL     1      72.573  40.687   5.460  1.00  0.00     0.293 HD
ENDBRANCH  41  44
BRANCH  43  46
ATOM     46  O   UNL     1      75.125  41.534   5.372  1.00  0.00    -0.504 OA
ATOM     47  H   UNL     1      74.741  40.714   5.833  1.00  0.00     0.293 HD
ENDBRANCH  43  46
ENDBRANCH  28  38
BRANCH  34  48
ATOM     48  O   UNL     1      69.719  50.833   5.528  1.00  0.00    -0.507 OA
ATOM     49  H   UNL     1      69.623  51.835   5.440  1.00  0.00     0.293 HD
ENDBRANCH  34  48
BRANCH  37  50
ATOM     50  O   UNL     1      70.431  50.157   0.779  1.00  0.00    -0.508 OA
ATOM     51  H   UNL     1      71.145  49.947   0.090  1.00  0.00     0.293 HD
ENDBRANCH  37  50
ENDBRANCH  26  27
ENDBRANCH   5  26
BRANCH   4  52
ATOM     52  O   UNL     1      73.022  45.508  10.125  1.00  0.00    -0.384 OA
ATOM     53  H   UNL     1      72.165  45.963  10.293  1.00  0.00     0.211 HD
ENDBRANCH   4  52
TORSDOF 16
ENDMDL
MODEL 7
REMARK VINA RESULT:    -6.759      1.963      6.252
REMARK INTER + INTRA:         -13.114
REMARK INTER:                 -10.979
REMARK INTRA:                  -2.135
REMARK UNBOUND:                -2.008
REMARK SMILES C[C@H]1O[C@@H](OC[C@H]2O[C@@H](Oc3c(-c4ccc(O)c(O)c4)oc4cc(O)cc(O)c4c3=O)[C@@H](O)[C@@H](O)[C@@H]2O)[C@@H](O)[C@@H](O)[C@H]1O
REMARK SMILES IDX 7 1 36 2 34 3 32 4 9 5 8 6 6 7 5 8 4 9 1 10 2 11 42 12 3 13
REMARK SMILES IDX 40 14 38 15 43 16 41 18 39 20 37 22 35 24 10 26 11 27 12 28
REMARK SMILES IDX 30 29 21 30 29 31 31 32 22 33 27 34 23 35 26 36 24 37 13 38
REMARK SMILES IDX 20 39 14 40 18 41 15 42 16 43 19 44 17 46 28 48 25 50 33 52
REMARK H PARENT 43 17 41 19 39 21 37 23 35 25 19 45 17 47 28 49 25 51 33 53
REMARK Flexibility Score: inf
ROOT
ATOM      1  C   UNL     1      70.636  42.816   7.404  1.00  0.00     0.180 C 
ATOM      2  C   UNL     1      70.097  41.372   7.745  1.00  0.00     0.177 C 
ATOM      3  C   UNL     1      69.708  41.197   9.222  1.00  0.00     0.180 C 
ATOM      4  C   UNL     1      68.934  42.430   9.706  1.00  0.00     0.214 C 
ATOM      5  C   UNL     1      69.827  43.635   9.444  1.00  0.00     0.339 C 
ATOM      6  O   UNL     1      69.884  43.844   8.047  1.00  0.00    -0.332 OA
ENDROOT
BRANCH   1   7
ATOM      7  C   UNL     1      70.644  43.119   5.881  1.00  0.00     0.198 C 
BRANCH   7   8
ATOM      8  O   UNL     1      71.375  44.305   5.595  1.00  0.00    -0.347 OA
BRANCH   8   9
ATOM      9  C   UNL     1      72.394  44.104   4.620  1.00  0.00     0.281 C 
ATOM     10  C   UNL     1      73.354  45.813   7.064  1.00  0.00     0.041 C 
ATOM     11  C   UNL     1      74.018  45.478   5.711  1.00  0.00     0.150 C 
ATOM     12  C   UNL     1      73.879  46.598   4.632  1.00  0.00     0.174 C 
ATOM     13  O   UNL     1      73.674  44.180   5.226  1.00  0.00    -0.344 OA
ATOM     14  C   UNL     1      72.521  46.554   3.922  1.00  0.00     0.179 C 
ATOM     15  C   UNL     1      72.254  45.114   3.460  1.00  0.00     0.202 C 
BRANCH  12  16
ATOM     16  O   UNL     1      74.074  47.874   5.193  1.00  0.00    -0.388 OA
ATOM     17  H   UNL     1      74.839  47.801   5.829  1.00  0.00     0.211 HD
ENDBRANCH  12  16
BRANCH  14  18
ATOM     18  O   UNL     1      71.503  47.017   4.776  1.00  0.00    -0.387 OA
ATOM     19  H   UNL     1      71.558  48.008   4.789  1.00  0.00     0.211 HD
ENDBRANCH  14  18
BRANCH  15  20
ATOM     20  O   UNL     1      71.008  44.998   2.814  1.00  0.00    -0.385 OA
ATOM     21  H   UNL     1      71.127  44.395   2.034  1.00  0.00     0.211 HD
ENDBRANCH  15  20
ENDBRANCH   8   9
ENDBRANCH   7   8
ENDBRANCH   1   7
BRANCH   2  22
ATOM     22  O   UNL     1      70.998  40.377   7.351  1.00  0.00    -0.387 OA
ATOM     23  H   UNL     1      71.916  40.692   7.557  1.00  0.00     0.211 HD
ENDBRANCH   2  22
BRANCH   3  24
ATOM     24  O   UNL     1      68.927  40.046   9.371  1.00  0.00    -0.387 OA
ATOM     25  H   UNL     1      68.025  40.262   9.021  1.00  0.00     0.211 HD
ENDBRANCH   3  24
BRANCH   5  26
ATOM     26  O   UNL     1      69.373  44.807  10.125  1.00  0.00    -0.454 OA
BRANCH  26  27
ATOM     27  C   UNL     1      69.685  46.124   9.763  1.00  0.00     0.214 A 
ATOM     28  C   UNL     1      68.695  47.037   9.324  1.00  0.00     0.180 A 
ATOM     29  C   UNL     1      71.020  46.532   9.780  1.00  0.00     0.239 A 
ATOM     30  O   UNL     1      69.045  48.267   8.969  1.00  0.00    -0.452 OA
ATOM     31  C   UNL     1      71.353  47.847   9.389  1.00  0.00     0.111 A 
ATOM     32  O   UNL     1      71.917  45.713  10.125  1.00  0.00    -0.285 OA
ATOM     33  C   UNL     1      70.303  48.696   8.964  1.00  0.00     0.146 A 
ATOM     34  C   UNL     1      72.684  48.335   9.373  1.00  0.00     0.134 A 
ATOM     35  C   UNL     1      70.584  49.990   8.497  1.00  0.00     0.094 A 
ATOM     36  C   UNL     1      72.945  49.625   8.887  1.00  0.00     0.093 A 
ATOM     37  C   UNL     1      71.903  50.443   8.428  1.00  0.00     0.123 A 
BRANCH  28  38
ATOM     38  C   UNL     1      67.270  46.664   9.203  1.00  0.00     0.025 A 
ATOM     39  C   UNL     1      66.874  45.734   8.234  1.00  0.00     0.062 A 
ATOM     40  C   UNL     1      66.304  47.192  10.080  1.00  0.00     0.016 A 
ATOM     41  C   UNL     1      65.530  45.347   8.120  1.00  0.00     0.158 A 
ATOM     42  C   UNL     1      64.965  46.800   9.978  1.00  0.00     0.051 A 
ATOM     43  C   UNL     1      64.574  45.873   8.998  1.00  0.00     0.157 A 
BRANCH  41  44
ATOM     44  O   UNL     1      65.141  44.439   7.141  1.00  0.00    -0.504 OA
ATOM     45  H   UNL     1      65.811  44.003   6.510  1.00  0.00     0.293 HD
ENDBRANCH  41  44
BRANCH  43  46
ATOM     46  O   UNL     1      63.243  45.476   8.893  1.00  0.00    -0.504 OA
ATOM     47  H   UNL     1      62.971  44.707   8.288  1.00  0.00     0.293 HD
ENDBRANCH  43  46
ENDBRANCH  28  38
BRANCH  34  48
ATOM     48  O   UNL     1      73.740  47.540   9.823  1.00  0.00    -0.507 OA
ATOM     49  H   UNL     1      74.205  46.875   9.221  1.00  0.00     0.293 HD
ENDBRANCH  34  48
BRANCH  37  50
ATOM     50  O   UNL     1      72.174  51.699   7.882  1.00  0.00    -0.508 OA
ATOM     51  H   UNL     1      72.424  51.810   6.905  1.00  0.00     0.293 HD
ENDBRANCH  37  50
ENDBRANCH  26  27
ENDBRANCH   5  26
BRANCH   4  52
ATOM     52  O   UNL     1      67.716  42.582   8.988  1.00  0.00    -0.384 OA
ATOM     53  H   UNL     1      67.889  43.197   8.238  1.00  0.00     0.211 HD
ENDBRANCH   4  52
TORSDOF 16
ENDMDL
MODEL 8
REMARK VINA RESULT:    -6.718      2.483      7.288
REMARK INTER + INTRA:         -13.047
REMARK INTER:                 -10.644
REMARK INTRA:                  -2.403
REMARK UNBOUND:                -2.008
REMARK SMILES C[C@H]1O[C@@H](OC[C@H]2O[C@@H](Oc3c(-c4ccc(O)c(O)c4)oc4cc(O)cc(O)c4c3=O)[C@@H](O)[C@@H](O)[C@@H]2O)[C@@H](O)[C@@H](O)[C@H]1O
REMARK SMILES IDX 7 1 36 2 34 3 32 4 9 5 8 6 6 7 5 8 4 9 1 10 2 11 42 12 3 13
REMARK SMILES IDX 40 14 38 15 43 16 41 18 39 20 37 22 35 24 10 26 11 27 12 28
REMARK SMILES IDX 30 29 21 30 29 31 31 32 22 33 27 34 23 35 26 36 24 37 13 38
REMARK SMILES IDX 20 39 14 40 18 41 15 42 16 43 19 44 17 46 28 48 25 50 33 52
REMARK H PARENT 43 17 41 19 39 21 37 23 35 25 19 45 17 47 28 49 25 51 33 53
REMARK Flexibility Score: inf
ROOT
ATOM      1  C   UNL     1      70.121  42.850   9.452  1.00  0.00     0.180 C 
ATOM      2  C   UNL     1      68.974  42.236   8.560  1.00  0.00     0.177 C 
ATOM      3  C   UNL     1      67.817  43.212   8.293  1.00  0.00     0.180 C 
ATOM      4  C   UNL     1      68.374  44.602   7.960  1.00  0.00     0.214 C 
ATOM      5  C   UNL     1      69.262  45.005   9.129  1.00  0.00     0.339 C 
ATOM      6  O   UNL     1      70.423  44.199   9.098  1.00  0.00    -0.332 OA
ENDROOT
BRANCH   1   7
ATOM      7  C   UNL     1      71.444  42.039   9.389  1.00  0.00     0.198 C 
BRANCH   7   8
ATOM      8  O   UNL     1      72.356  42.610   8.459  1.00  0.00    -0.347 OA
BRANCH   8   9
ATOM      9  C   UNL     1      73.000  41.633   7.646  1.00  0.00     0.281 C 
ATOM     10  C   UNL     1      74.695  44.243   8.004  1.00  0.00     0.041 C 
ATOM     11  C   UNL     1      74.881  43.004   7.102  1.00  0.00     0.150 C 
ATOM     12  C   UNL     1      74.386  43.199   5.633  1.00  0.00     0.174 C 
ATOM     13  O   UNL     1      74.407  41.799   7.703  1.00  0.00    -0.344 OA
ATOM     14  C   UNL     1      72.871  43.007   5.502  1.00  0.00     0.179 C 
ATOM     15  C   UNL     1      72.478  41.695   6.194  1.00  0.00     0.202 C 
BRANCH  12  16
ATOM     16  O   UNL     1      74.745  44.466   5.138  1.00  0.00    -0.388 OA
ATOM     17  H   UNL     1      75.741  44.513   5.144  1.00  0.00     0.211 HD
ENDBRANCH  12  16
BRANCH  14  18
ATOM     18  O   UNL     1      72.187  44.106   6.056  1.00  0.00    -0.387 OA
ATOM     19  H   UNL     1      72.514  44.218   6.986  1.00  0.00     0.211 HD
ENDBRANCH  14  18
BRANCH  15  20
ATOM     20  O   UNL     1      71.090  41.466   6.127  1.00  0.00    -0.385 OA
ATOM     21  H   UNL     1      70.930  40.512   6.351  1.00  0.00     0.211 HD
ENDBRANCH  15  20
ENDBRANCH   8   9
ENDBRANCH   7   8
ENDBRANCH   1   7
BRANCH   2  22
ATOM     22  O   UNL     1      68.493  41.034   9.091  1.00  0.00    -0.387 OA
ATOM     23  H   UNL     1      68.445  40.369   8.356  1.00  0.00     0.211 HD
ENDBRANCH   2  22
BRANCH   3  24
ATOM     24  O   UNL     1      67.035  42.738   7.234  1.00  0.00    -0.387 OA
ATOM     25  H   UNL     1      66.145  42.516   7.609  1.00  0.00     0.211 HD
ENDBRANCH   3  24
BRANCH   5  26
ATOM     26  O   UNL     1      69.595  46.395   9.104  1.00  0.00    -0.454 OA
BRANCH  26  27
ATOM     27  C   UNL     1      69.733  47.172   7.947  1.00  0.00     0.214 A 
ATOM     28  C   UNL     1      68.691  48.009   7.475  1.00  0.00     0.180 A 
ATOM     29  C   UNL     1      70.911  47.077   7.203  1.00  0.00     0.239 A 
ATOM     30  O   UNL     1      68.862  48.708   6.360  1.00  0.00    -0.452 OA
ATOM     31  C   UNL     1      71.053  47.832   6.019  1.00  0.00     0.111 A 
ATOM     32  O   UNL     1      71.828  46.300   7.589  1.00  0.00    -0.285 OA
ATOM     33  C   UNL     1      69.963  48.643   5.618  1.00  0.00     0.146 A 
ATOM     34  C   UNL     1      72.213  47.785   5.207  1.00  0.00     0.134 A 
ATOM     35  C   UNL     1      70.021  49.360   4.412  1.00  0.00     0.094 A 
ATOM     36  C   UNL     1      72.243  48.495   3.997  1.00  0.00     0.093 A 
ATOM     37  C   UNL     1      71.144  49.262   3.588  1.00  0.00     0.123 A 
BRANCH  28  38
ATOM     38  C   UNL     1      67.385  48.110   8.159  1.00  0.00     0.025 A 
ATOM     39  C   UNL     1      66.257  47.499   7.598  1.00  0.00     0.062 A 
ATOM     40  C   UNL     1      67.262  48.774   9.395  1.00  0.00     0.016 A 
ATOM     41  C   UNL     1      65.012  47.562   8.245  1.00  0.00     0.158 A 
ATOM     42  C   UNL     1      66.026  48.828  10.048  1.00  0.00     0.051 A 
ATOM     43  C   UNL     1      64.897  48.220   9.476  1.00  0.00     0.157 A 
BRANCH  41  44
ATOM     44  O   UNL     1      63.892  46.971   7.671  1.00  0.00    -0.504 OA
ATOM     45  H   UNL     1      63.906  46.586   6.728  1.00  0.00     0.293 HD
ENDBRANCH  41  44
BRANCH  43  46
ATOM     46  O   UNL     1      63.664  48.268  10.123  1.00  0.00    -0.504 OA
ATOM     47  H   UNL     1      63.491  48.929  10.874  1.00  0.00     0.293 HD
ENDBRANCH  43  46
ENDBRANCH  28  38
BRANCH  34  48
ATOM     48  O   UNL     1      73.321  47.028   5.591  1.00  0.00    -0.507 OA
ATOM     49  H   UNL     1      74.262  47.279   5.318  1.00  0.00     0.293 HD
ENDBRANCH  34  48
BRANCH  37  50
ATOM     50  O   UNL     1      71.151  49.913   2.353  1.00  0.00    -0.508 OA
ATOM     51  H   UNL     1      71.207  50.923   2.285  1.00  0.00     0.293 HD
ENDBRANCH  37  50
ENDBRANCH  26  27
ENDBRANCH   5  26
BRANCH   4  52
ATOM     52  O   UNL     1      69.152  44.568   6.769  1.00  0.00    -0.384 OA
ATOM     53  H   UNL     1      68.990  43.700   6.334  1.00  0.00     0.211 HD
ENDBRANCH   4  52
TORSDOF 16
ENDMDL
MODEL 9
REMARK VINA RESULT:    -6.651      2.531      7.174
REMARK INTER + INTRA:         -12.936
REMARK INTER:                  -9.779
REMARK INTRA:                  -3.158
REMARK UNBOUND:                -2.008
REMARK SMILES C[C@H]1O[C@@H](OC[C@H]2O[C@@H](Oc3c(-c4ccc(O)c(O)c4)oc4cc(O)cc(O)c4c3=O)[C@@H](O)[C@@H](O)[C@@H]2O)[C@@H](O)[C@@H](O)[C@H]1O
REMARK SMILES IDX 7 1 36 2 34 3 32 4 9 5 8 6 6 7 5 8 4 9 1 10 2 11 42 12 3 13
REMARK SMILES IDX 40 14 38 15 43 16 41 18 39 20 37 22 35 24 10 26 11 27 12 28
REMARK SMILES IDX 30 29 21 30 29 31 31 32 22 33 27 34 23 35 26 36 24 37 13 38
REMARK SMILES IDX 20 39 14 40 18 41 15 42 16 43 19 44 17 46 28 48 25 50 33 52
REMARK H PARENT 43 17 41 19 39 21 37 23 35 25 19 45 17 47 28 49 25 51 33 53
REMARK Flexibility Score: inf
ROOT
ATOM      1  C   UNL     1      67.691  47.733   9.599  1.00  0.00     0.180 C 
ATOM      2  C   UNL     1      68.287  49.093   9.063  1.00  0.00     0.177 C 
ATOM      3  C   UNL     1      69.541  48.910   8.192  1.00  0.00     0.180 C 
ATOM      4  C   UNL     1      69.336  47.737   7.224  1.00  0.00     0.214 C 
ATOM      5  C   UNL     1      68.998  46.523   8.078  1.00  0.00     0.339 C 
ATOM      6  O   UNL     1      67.700  46.706   8.608  1.00  0.00    -0.332 OA
ENDROOT
BRANCH   1   7
ATOM      7  C   UNL     1      66.235  47.871  10.122  1.00  0.00     0.198 C 
BRANCH   7   8
ATOM      8  O   UNL     1      65.451  46.737   9.770  1.00  0.00    -0.347 OA
BRANCH   8   9
ATOM      9  C   UNL     1      64.228  47.089   9.130  1.00  0.00     0.281 C 
ATOM     10  C   UNL     1      64.282  44.119  10.125  1.00  0.00     0.041 C 
ATOM     11  C   UNL     1      63.278  44.898   9.248  1.00  0.00     0.150 C 
ATOM     12  C   UNL     1      63.458  44.676   7.713  1.00  0.00     0.174 C 
ATOM     13  O   UNL     1      63.171  46.275   9.611  1.00  0.00    -0.344 OA
ATOM     14  C   UNL     1      64.574  45.549   7.127  1.00  0.00     0.179 C 
ATOM     15  C   UNL     1      64.363  46.996   7.594  1.00  0.00     0.202 C 
BRANCH  12  16
ATOM     16  O   UNL     1      63.717  43.324   7.421  1.00  0.00    -0.388 OA
ATOM     17  H   UNL     1      64.694  43.176   7.553  1.00  0.00     0.211 HD
ENDBRANCH  12  16
BRANCH  14  18
ATOM     18  O   UNL     1      65.836  45.061   7.516  1.00  0.00    -0.387 OA
ATOM     19  H   UNL     1      66.344  45.826   7.891  1.00  0.00     0.211 HD
ENDBRANCH  14  18
BRANCH  15  20
ATOM     20  O   UNL     1      65.369  47.852   7.106  1.00  0.00    -0.385 OA
ATOM     21  H   UNL     1      65.378  48.664   7.678  1.00  0.00     0.211 HD
ENDBRANCH  15  20
ENDBRANCH   8   9
ENDBRANCH   7   8
ENDBRANCH   1   7
BRANCH   2  22
ATOM     22  O   UNL     1      68.536  49.994  10.103  1.00  0.00    -0.387 OA
ATOM     23  H   UNL     1      68.645  49.476  10.942  1.00  0.00     0.211 HD
ENDBRANCH   2  22
BRANCH   3  24
ATOM     24  O   UNL     1      69.796  50.086   7.480  1.00  0.00    -0.387 OA
ATOM     25  H   UNL     1      68.917  50.455   7.206  1.00  0.00     0.211 HD
ENDBRANCH   3  24
BRANCH   5  26
ATOM     26  O   UNL     1      69.089  45.300   7.344  1.00  0.00    -0.454 OA
BRANCH  26  27
ATOM     27  C   UNL     1      69.845  44.183   7.726  1.00  0.00     0.214 A 
ATOM     28  C   UNL     1      71.223  44.066   7.416  1.00  0.00     0.180 A 
ATOM     29  C   UNL     1      69.209  43.127   8.382  1.00  0.00     0.239 A 
ATOM     30  O   UNL     1      71.889  42.978   7.779  1.00  0.00    -0.452 OA
ATOM     31  C   UNL     1      69.950  41.983   8.746  1.00  0.00     0.111 A 
ATOM     32  O   UNL     1      67.971  43.200   8.622  1.00  0.00    -0.285 OA
ATOM     33  C   UNL     1      71.322  41.947   8.398  1.00  0.00     0.146 A 
ATOM     34  C   UNL     1      69.377  40.869   9.406  1.00  0.00     0.134 A 
ATOM     35  C   UNL     1      72.092  40.805   8.672  1.00  0.00     0.094 A 
ATOM     36  C   UNL     1      70.159  39.730   9.655  1.00  0.00     0.093 A 
ATOM     37  C   UNL     1      71.506  39.687   9.270  1.00  0.00     0.123 A 
BRANCH  28  38
ATOM     38  C   UNL     1      71.955  45.103   6.659  1.00  0.00     0.025 A 
ATOM     39  C   UNL     1      71.878  45.128   5.261  1.00  0.00     0.062 A 
ATOM     40  C   UNL     1      72.696  46.099   7.322  1.00  0.00     0.016 A 
ATOM     41  C   UNL     1      72.545  46.119   4.524  1.00  0.00     0.158 A 
ATOM     42  C   UNL     1      73.353  47.096   6.592  1.00  0.00     0.051 A 
ATOM     43  C   UNL     1      73.278  47.111   5.190  1.00  0.00     0.157 A 
BRANCH  41  44
ATOM     44  O   UNL     1      72.482  46.126   3.135  1.00  0.00    -0.504 OA
ATOM     45  H   UNL     1      72.069  46.899   2.616  1.00  0.00     0.293 HD
ENDBRANCH  41  44
BRANCH  43  46
ATOM     46  O   UNL     1      73.927  48.102   4.458  1.00  0.00    -0.504 OA
ATOM     47  H   UNL     1      74.918  48.035   4.247  1.00  0.00     0.293 HD
ENDBRANCH  43  46
ENDBRANCH  28  38
BRANCH  34  48
ATOM     48  O   UNL     1      68.038  40.885   9.800  1.00  0.00    -0.507 OA
ATOM     49  H   UNL     1      67.644  40.166  10.390  1.00  0.00     0.293 HD
ENDBRANCH  34  48
BRANCH  37  50
ATOM     50  O   UNL     1      72.262  38.529   9.458  1.00  0.00    -0.508 OA
ATOM     51  H   UNL     1      72.396  38.127  10.380  1.00  0.00     0.293 HD
ENDBRANCH  37  50
ENDBRANCH  26  27
ENDBRANCH   5  26
BRANCH   4  52
ATOM     52  O   UNL     1      68.262  47.996   6.329  1.00  0.00    -0.384 OA
ATOM     53  H   UNL     1      68.385  48.906   5.974  1.00  0.00     0.211 HD
ENDBRANCH   4  52
TORSDOF 16
ENDMDL
