MODEL 1
REMARK VINA RESULT:    -5.681      0.000      0.000
REMARK INTER + INTRA:          -9.001
REMARK INTER:                  -8.171
REMARK INTRA:                  -0.830
REMARK UNBOUND:                -0.830
REMARK SMILES CC(C)=CCCC(C)=CCCC(C)=CCO
REMARK SMILES IDX 10 1 9 2 7 3 8 4 6 5 5 6 4 7 1 8 2 9 3 10 11 11 12 12 14 13
REMARK SMILES IDX 13 14 15 15 16 16
REMARK H PARENT 16 17
REMARK Flexibility Score: inf
ROOT
ATOM      1  C   UNL     1       8.321  -0.152  17.651  1.00  0.00     0.032 C 
ENDROOT
BRANCH   1   2
ATOM      2  C   UNL     1       7.997  -0.995  18.862  1.00  0.00    -0.028 C 
ATOM      3  C   UNL     1       7.248  -2.121  18.837  1.00  0.00    -0.077 C 
ATOM      4  C   UNL     1       6.590  -2.615  17.570  1.00  0.00     0.039 C 
BRANCH   3   5
ATOM      5  C   UNL     1       7.047  -2.896  20.121  1.00  0.00     0.034 C 
BRANCH   5   6
ATOM      6  C   UNL     1       7.806  -2.240  21.279  1.00  0.00     0.032 C 
BRANCH   6   7
ATOM      7  C   UNL     1       6.847  -1.651  22.282  1.00  0.00    -0.028 C 
ATOM      8  C   UNL     1       5.895   0.061  23.767  1.00  0.00     0.039 C 
ATOM      9  C   UNL     1       6.954  -0.408  22.803  1.00  0.00    -0.080 C 
ATOM     10  C   UNL     1       8.107   0.507  22.461  1.00  0.00     0.039 C 
ENDBRANCH   6   7
ENDBRANCH   5   6
ENDBRANCH   3   5
ENDBRANCH   1   2
BRANCH   1  11
ATOM     11  C   UNL     1       7.366   1.042  17.516  1.00  0.00     0.034 C 
BRANCH  11  12
ATOM     12  C   UNL     1       7.841   2.030  16.471  1.00  0.00    -0.075 C 
ATOM     13  C   UNL     1       7.026   3.039  16.095  1.00  0.00    -0.000 C 
ATOM     14  C   UNL     1       9.219   1.867  15.873  1.00  0.00     0.039 C 
BRANCH  13  15
ATOM     15  C   UNL     1       7.413   4.074  15.069  1.00  0.00     0.183 C 
BRANCH  15  16
ATOM     16  O   UNL     1       8.062   5.152  15.688  1.00  0.00    -0.392 OA
ATOM     17  H   UNL     1       8.850   4.775  16.162  1.00  0.00     0.210 HD
ENDBRANCH  15  16
ENDBRANCH  13  15
ENDBRANCH  11  12
ENDBRANCH   1  11
TORSDOF 8
ENDMDL
MODEL 2
REMARK VINA RESULT:    -5.465      3.053      7.550
REMARK INTER + INTRA:          -8.692
REMARK INTER:                  -8.015
REMARK INTRA:                  -0.677
REMARK UNBOUND:                -0.830
REMARK SMILES CC(C)=CCCC(C)=CCCC(C)=CCO
REMARK SMILES IDX 10 1 9 2 7 3 8 4 6 5 5 6 4 7 1 8 2 9 3 10 11 11 12 12 14 13
REMARK SMILES IDX 13 14 15 15 16 16
REMARK H PARENT 16 17
REMARK Flexibility Score: inf
ROOT
ATOM      1  C   UNL     1       7.995   0.227  17.986  1.00  0.00     0.032 C 
ENDROOT
BRANCH   1   2
ATOM      2  C   UNL     1       7.183   1.356  17.399  1.00  0.00    -0.028 C 
ATOM      3  C   UNL     1       7.615   2.189  16.425  1.00  0.00    -0.077 C 
ATOM      4  C   UNL     1       9.017   2.107  15.867  1.00  0.00     0.039 C 
BRANCH   3   5
ATOM      5  C   UNL     1       6.673   3.247  15.893  1.00  0.00     0.034 C 
BRANCH   5   6
ATOM      6  C   UNL     1       7.270   3.942  14.665  1.00  0.00     0.032 C 
BRANCH   6   7
ATOM      7  C   UNL     1       7.290   5.437  14.853  1.00  0.00    -0.028 C 
ATOM      8  C   UNL     1       8.280   7.674  15.101  1.00  0.00     0.039 C 
ATOM      9  C   UNL     1       8.415   6.180  14.956  1.00  0.00    -0.080 C 
ATOM     10  C   UNL     1       9.791   5.555  14.949  1.00  0.00     0.039 C 
ENDBRANCH   6   7
ENDBRANCH   5   6
ENDBRANCH   3   5
ENDBRANCH   1   2
BRANCH   1  11
ATOM     11  C   UNL     1       8.056   0.306  19.518  1.00  0.00     0.034 C 
BRANCH  11  12
ATOM     12  C   UNL     1       8.886  -0.816  20.109  1.00  0.00    -0.075 C 
ATOM     13  C   UNL     1      10.219  -0.652  20.246  1.00  0.00    -0.000 C 
ATOM     14  C   UNL     1       8.201  -2.094  20.535  1.00  0.00     0.039 C 
BRANCH  13  15
ATOM     15  C   UNL     1      11.124  -1.707  20.829  1.00  0.00     0.183 C 
BRANCH  15  16
ATOM     16  O   UNL     1      12.468  -1.376  20.597  1.00  0.00    -0.392 OA
ATOM     17  H   UNL     1      12.865  -1.164  21.483  1.00  0.00     0.210 HD
ENDBRANCH  15  16
ENDBRANCH  13  15
ENDBRANCH  11  12
ENDBRANCH   1  11
TORSDOF 8
ENDMDL
MODEL 3
REMARK VINA RESULT:    -5.379      3.219      7.972
REMARK INTER + INTRA:          -8.568
REMARK INTER:                  -7.996
REMARK INTRA:                  -0.571
REMARK UNBOUND:                -0.830
REMARK SMILES CC(C)=CCCC(C)=CCCC(C)=CCO
REMARK SMILES IDX 10 1 9 2 7 3 8 4 6 5 5 6 4 7 1 8 2 9 3 10 11 11 12 12 14 13
REMARK SMILES IDX 13 14 15 15 16 16
REMARK H PARENT 16 17
REMARK Flexibility Score: inf
ROOT
ATOM      1  C   UNL     1       7.161   1.480  17.133  1.00  0.00     0.032 C 
ENDROOT
BRANCH   1   2
ATOM      2  C   UNL     1       7.540   2.538  16.124  1.00  0.00    -0.028 C 
ATOM      3  C   UNL     1       6.724   3.533  15.710  1.00  0.00    -0.077 C 
ATOM      4  C   UNL     1       5.293   3.641  16.181  1.00  0.00     0.039 C 
BRANCH   3   5
ATOM      5  C   UNL     1       7.255   4.557  14.730  1.00  0.00     0.034 C 
BRANCH   5   6
ATOM      6  C   UNL     1       8.775   4.702  14.862  1.00  0.00     0.032 C 
BRANCH   6   7
ATOM      7  C   UNL     1       9.141   6.082  15.347  1.00  0.00    -0.028 C 
ATOM      8  C   UNL     1      10.152   8.320  15.248  1.00  0.00     0.039 C 
ATOM      9  C   UNL     1       9.902   6.958  14.654  1.00  0.00    -0.080 C 
ATOM     10  C   UNL     1      10.518   6.604  13.320  1.00  0.00     0.039 C 
ENDBRANCH   6   7
ENDBRANCH   5   6
ENDBRANCH   3   5
ENDBRANCH   1   2
BRANCH   1  11
ATOM     11  C   UNL     1       8.360   0.599  17.511  1.00  0.00     0.034 C 
BRANCH  11  12
ATOM     12  C   UNL     1       7.936  -0.621  18.304  1.00  0.00    -0.075 C 
ATOM     13  C   UNL     1       7.158  -1.556  17.717  1.00  0.00    -0.000 C 
ATOM     14  C   UNL     1       8.396  -0.766  19.736  1.00  0.00     0.039 C 
BRANCH  13  15
ATOM     15  C   UNL     1       6.693  -2.804  18.422  1.00  0.00     0.183 C 
BRANCH  15  16
ATOM     16  O   UNL     1       7.529  -3.883  18.102  1.00  0.00    -0.392 OA
ATOM     17  H   UNL     1       7.370  -4.091  17.143  1.00  0.00     0.210 HD
ENDBRANCH  15  16
ENDBRANCH  13  15
ENDBRANCH  11  12
ENDBRANCH   1  11
TORSDOF 8
ENDMDL
MODEL 4
REMARK VINA RESULT:    -5.238      2.533      4.894
REMARK INTER + INTRA:          -8.365
REMARK INTER:                  -7.542
REMARK INTRA:                  -0.823
REMARK UNBOUND:                -0.830
REMARK SMILES CC(C)=CCCC(C)=CCCC(C)=CCO
REMARK SMILES IDX 10 1 9 2 7 3 8 4 6 5 5 6 4 7 1 8 2 9 3 10 11 11 12 12 14 13
REMARK SMILES IDX 13 14 15 15 16 16
REMARK H PARENT 16 17
REMARK Flexibility Score: inf
ROOT
ATOM      1  C   UNL     1       6.786  -2.331  21.844  1.00  0.00     0.032 C 
ENDROOT
BRANCH   1   2
ATOM      2  C   UNL     1       7.273  -1.103  22.577  1.00  0.00    -0.028 C 
ATOM      3  C   UNL     1       6.481  -0.259  23.275  1.00  0.00    -0.077 C 
ATOM      4  C   UNL     1       4.981  -0.432  23.330  1.00  0.00     0.039 C 
BRANCH   3   5
ATOM      5  C   UNL     1       7.113   0.905  24.005  1.00  0.00     0.034 C 
BRANCH   5   6
ATOM      6  C   UNL     1       8.148   1.608  23.120  1.00  0.00     0.032 C 
BRANCH   6   7
ATOM      7  C   UNL     1       7.593   1.852  21.739  1.00  0.00    -0.028 C 
ATOM      8  C   UNL     1       6.521   3.113  19.922  1.00  0.00     0.039 C 
ATOM      9  C   UNL     1       6.991   2.998  21.349  1.00  0.00    -0.080 C 
ATOM     10  C   UNL     1       6.763   4.147  22.303  1.00  0.00     0.039 C 
ENDBRANCH   6   7
ENDBRANCH   5   6
ENDBRANCH   3   5
ENDBRANCH   1   2
BRANCH   1  11
ATOM     11  C   UNL     1       7.777  -2.778  20.761  1.00  0.00     0.034 C 
BRANCH  11  12
ATOM     12  C   UNL     1       8.358  -1.600  20.006  1.00  0.00    -0.075 C 
ATOM     13  C   UNL     1       7.701  -1.114  18.931  1.00  0.00    -0.000 C 
ATOM     14  C   UNL     1       9.660  -0.993  20.474  1.00  0.00     0.039 C 
BRANCH  13  15
ATOM     15  C   UNL     1       8.196   0.058  18.122  1.00  0.00     0.183 C 
BRANCH  15  16
ATOM     16  O   UNL     1       8.870  -0.393  16.977  1.00  0.00    -0.392 OA
ATOM     17  H   UNL     1       9.169   0.418  16.486  1.00  0.00     0.210 HD
ENDBRANCH  15  16
ENDBRANCH  13  15
ENDBRANCH  11  12
ENDBRANCH   1  11
TORSDOF 8
ENDMDL
MODEL 5
REMARK VINA RESULT:    -5.208      2.986      7.786
REMARK INTER + INTRA:          -8.321
REMARK INTER:                  -7.751
REMARK INTRA:                  -0.570
REMARK UNBOUND:                -0.830
REMARK SMILES CC(C)=CCCC(C)=CCCC(C)=CCO
REMARK SMILES IDX 10 1 9 2 7 3 8 4 6 5 5 6 4 7 1 8 2 9 3 10 11 11 12 12 14 13
REMARK SMILES IDX 13 14 15 15 16 16
REMARK H PARENT 16 17
REMARK Flexibility Score: inf
ROOT
ATOM      1  C   UNL     1       7.898  -0.485  18.288  1.00  0.00     0.032 C 
ENDROOT
BRANCH   1   2
ATOM      2  C   UNL     1       8.360   0.388  17.145  1.00  0.00    -0.028 C 
ATOM      3  C   UNL     1       7.857   1.610  16.859  1.00  0.00    -0.077 C 
ATOM      4  C   UNL     1       6.705   2.203  17.638  1.00  0.00     0.039 C 
BRANCH   3   5
ATOM      5  C   UNL     1       8.452   2.399  15.713  1.00  0.00     0.034 C 
BRANCH   5   6
ATOM      6  C   UNL     1       7.832   3.797  15.633  1.00  0.00     0.032 C 
BRANCH   6   7
ATOM      7  C   UNL     1       8.852   4.810  15.176  1.00  0.00    -0.028 C 
ATOM      8  C   UNL     1       9.760   6.659  13.835  1.00  0.00     0.039 C 
ATOM      9  C   UNL     1       8.664   5.674  14.153  1.00  0.00    -0.080 C 
ATOM     10  C   UNL     1       7.406   5.666  13.318  1.00  0.00     0.039 C 
ENDBRANCH   6   7
ENDBRANCH   5   6
ENDBRANCH   3   5
ENDBRANCH   1   2
BRANCH   1  11
ATOM     11  C   UNL     1       8.858  -0.412  19.484  1.00  0.00     0.034 C 
BRANCH  11  12
ATOM     12  C   UNL     1       8.188  -0.844  20.773  1.00  0.00    -0.075 C 
ATOM     13  C   UNL     1       7.732  -2.109  20.889  1.00  0.00    -0.000 C 
ATOM     14  C   UNL     1       8.048   0.151  21.901  1.00  0.00     0.039 C 
BRANCH  13  15
ATOM     15  C   UNL     1       7.060  -2.633  22.133  1.00  0.00     0.183 C 
BRANCH  15  16
ATOM     16  O   UNL     1       5.666  -2.605  21.980  1.00  0.00    -0.392 OA
ATOM     17  H   UNL     1       5.278  -2.718  22.888  1.00  0.00     0.210 HD
ENDBRANCH  15  16
ENDBRANCH  13  15
ENDBRANCH  11  12
ENDBRANCH   1  11
TORSDOF 8
ENDMDL
MODEL 6
REMARK VINA RESULT:    -5.207      2.944      6.568
REMARK INTER + INTRA:          -8.321
REMARK INTER:                  -7.264
REMARK INTRA:                  -1.057
REMARK UNBOUND:                -0.830
REMARK SMILES CC(C)=CCCC(C)=CCCC(C)=CCO
REMARK SMILES IDX 10 1 9 2 7 3 8 4 6 5 5 6 4 7 1 8 2 9 3 10 11 11 12 12 14 13
REMARK SMILES IDX 13 14 15 15 16 16
REMARK H PARENT 16 17
REMARK Flexibility Score: inf
ROOT
ATOM      1  C   UNL     1       8.137   0.585  21.985  1.00  0.00     0.032 C 
ENDROOT
BRANCH   1   2
ATOM      2  C   UNL     1       7.824   1.691  21.005  1.00  0.00    -0.028 C 
ATOM      3  C   UNL     1       6.815   2.580  21.145  1.00  0.00    -0.077 C 
ATOM      4  C   UNL     1       5.837   2.504  22.294  1.00  0.00     0.039 C 
BRANCH   3   5
ATOM      5  C   UNL     1       6.650   3.671  20.109  1.00  0.00     0.034 C 
BRANCH   5   6
ATOM      6  C   UNL     1       5.704   3.222  18.991  1.00  0.00     0.032 C 
BRANCH   6   7
ATOM      7  C   UNL     1       6.325   3.460  17.637  1.00  0.00    -0.028 C 
ATOM      8  C   UNL     1       7.539   2.900  15.575  1.00  0.00     0.039 C 
ATOM      9  C   UNL     1       7.009   2.528  16.936  1.00  0.00    -0.080 C 
ATOM     10  C   UNL     1       7.269   1.145  17.484  1.00  0.00     0.039 C 
ENDBRANCH   6   7
ENDBRANCH   5   6
ENDBRANCH   3   5
ENDBRANCH   1   2
BRANCH   1  11
ATOM     11  C   UNL     1       8.864  -0.586  21.309  1.00  0.00     0.034 C 
BRANCH  11  12
ATOM     12  C   UNL     1       7.907  -1.689  20.907  1.00  0.00    -0.075 C 
ATOM     13  C   UNL     1       7.843  -2.072  19.614  1.00  0.00    -0.000 C 
ATOM     14  C   UNL     1       7.045  -2.340  21.964  1.00  0.00     0.039 C 
BRANCH  13  15
ATOM     15  C   UNL     1       6.928  -3.163  19.120  1.00  0.00     0.183 C 
BRANCH  15  16
ATOM     16  O   UNL     1       7.438  -3.729  17.943  1.00  0.00    -0.392 OA
ATOM     17  H   UNL     1       6.744  -3.603  17.243  1.00  0.00     0.210 HD
ENDBRANCH  15  16
ENDBRANCH  13  15
ENDBRANCH  11  12
ENDBRANCH   1  11
TORSDOF 8
ENDMDL
MODEL 7
REMARK VINA RESULT:    -5.157      4.390      7.057
REMARK INTER + INTRA:          -8.248
REMARK INTER:                  -7.104
REMARK INTRA:                  -1.144
REMARK UNBOUND:                -0.830
REMARK SMILES CC(C)=CCCC(C)=CCCC(C)=CCO
REMARK SMILES IDX 10 1 9 2 7 3 8 4 6 5 5 6 4 7 1 8 2 9 3 10 11 11 12 12 14 13
REMARK SMILES IDX 13 14 15 15 16 16
REMARK H PARENT 16 17
REMARK Flexibility Score: inf
ROOT
ATOM      1  C   UNL     1       5.328   0.762  23.796  1.00  0.00     0.032 C 
ENDROOT
BRANCH   1   2
ATOM      2  C   UNL     1       6.275   0.683  22.622  1.00  0.00    -0.028 C 
ATOM      3  C   UNL     1       7.497   1.260  22.579  1.00  0.00    -0.077 C 
ATOM      4  C   UNL     1       8.014   2.120  23.709  1.00  0.00     0.039 C 
BRANCH   3   5
ATOM      5  C   UNL     1       8.363   1.054  21.356  1.00  0.00     0.034 C 
BRANCH   5   6
ATOM      6  C   UNL     1       9.028  -0.326  21.385  1.00  0.00     0.032 C 
BRANCH   6   7
ATOM      7  C   UNL     1       8.450  -1.222  20.319  1.00  0.00    -0.028 C 
ATOM      8  C   UNL     1       7.085  -3.041  19.388  1.00  0.00     0.039 C 
ATOM      9  C   UNL     1       7.615  -2.258  20.561  1.00  0.00    -0.080 C 
ATOM     10  C   UNL     1       7.221  -2.657  21.963  1.00  0.00     0.039 C 
ENDBRANCH   6   7
ENDBRANCH   5   6
ENDBRANCH   3   5
ENDBRANCH   1   2
BRANCH   1  11
ATOM     11  C   UNL     1       4.672  -0.594  24.091  1.00  0.00     0.034 C 
BRANCH  11  12
ATOM     12  C   UNL     1       3.426  -0.812  23.256  1.00  0.00    -0.075 C 
ATOM     13  C   UNL     1       3.231  -2.007  22.658  1.00  0.00    -0.000 C 
ATOM     14  C   UNL     1       2.427   0.312  23.114  1.00  0.00     0.039 C 
BRANCH  13  15
ATOM     15  C   UNL     1       2.021  -2.320  21.815  1.00  0.00     0.183 C 
BRANCH  15  16
ATOM     16  O   UNL     1       2.282  -3.415  20.979  1.00  0.00    -0.392 OA
ATOM     17  H   UNL     1       1.706  -4.159  21.297  1.00  0.00     0.210 HD
ENDBRANCH  15  16
ENDBRANCH  13  15
ENDBRANCH  11  12
ENDBRANCH   1  11
TORSDOF 8
ENDMDL
MODEL 8
REMARK VINA RESULT:    -5.098      4.050      9.381
REMARK INTER + INTRA:          -8.163
REMARK INTER:                  -7.235
REMARK INTRA:                  -0.929
REMARK UNBOUND:                -0.830
REMARK SMILES CC(C)=CCCC(C)=CCCC(C)=CCO
REMARK SMILES IDX 10 1 9 2 7 3 8 4 6 5 5 6 4 7 1 8 2 9 3 10 11 11 12 12 14 13
REMARK SMILES IDX 13 14 15 15 16 16
REMARK H PARENT 16 17
REMARK Flexibility Score: inf
ROOT
ATOM      1  C   UNL     1       7.167   3.935  14.798  1.00  0.00     0.032 C 
ENDROOT
BRANCH   1   2
ATOM      2  C   UNL     1       7.321   5.413  15.069  1.00  0.00    -0.028 C 
ATOM      3  C   UNL     1       8.503   6.070  15.098  1.00  0.00    -0.077 C 
ATOM      4  C   UNL     1       9.821   5.352  14.925  1.00  0.00     0.039 C 
BRANCH   3   5
ATOM      5  C   UNL     1       8.505   7.565  15.330  1.00  0.00     0.034 C 
BRANCH   5   6
ATOM      6  C   UNL     1       9.935   8.088  15.500  1.00  0.00     0.032 C 
BRANCH   6   7
ATOM      7  C   UNL     1      10.148   9.339  14.685  1.00  0.00    -0.028 C 
ATOM      8  C   UNL     1      10.719  10.680  12.706  1.00  0.00     0.039 C 
ATOM      9  C   UNL     1      10.593   9.353  13.409  1.00  0.00    -0.080 C 
ATOM     10  C   UNL     1      10.981   8.086  12.682  1.00  0.00     0.039 C 
ENDBRANCH   6   7
ENDBRANCH   5   6
ENDBRANCH   3   5
ENDBRANCH   1   2
BRANCH   1  11
ATOM     11  C   UNL     1       6.649   3.182  16.032  1.00  0.00     0.034 C 
BRANCH  11  12
ATOM     12  C   UNL     1       7.606   2.091  16.470  1.00  0.00    -0.075 C 
ATOM     13  C   UNL     1       7.205   1.191  17.393  1.00  0.00    -0.000 C 
ATOM     14  C   UNL     1       8.988   2.034  15.862  1.00  0.00     0.039 C 
BRANCH  13  15
ATOM     15  C   UNL     1       8.082   0.068  17.885  1.00  0.00     0.183 C 
BRANCH  15  16
ATOM     16  O   UNL     1       7.937  -1.058  17.062  1.00  0.00    -0.392 OA
ATOM     17  H   UNL     1       7.220  -1.615  17.466  1.00  0.00     0.210 HD
ENDBRANCH  15  16
ENDBRANCH  13  15
ENDBRANCH  11  12
ENDBRANCH   1  11
TORSDOF 8
ENDMDL
MODEL 9
REMARK VINA RESULT:    -5.056      4.400      9.228
REMARK INTER + INTRA:          -8.103
REMARK INTER:                  -7.120
REMARK INTRA:                  -0.983
REMARK UNBOUND:                -0.830
REMARK SMILES CC(C)=CCCC(C)=CCCC(C)=CCO
REMARK SMILES IDX 10 1 9 2 7 3 8 4 6 5 5 6 4 7 1 8 2 9 3 10 11 11 12 12 14 13
REMARK SMILES IDX 13 14 15 15 16 16
REMARK H PARENT 16 17
REMARK Flexibility Score: inf
ROOT
ATOM      1  C   UNL     1       8.800   5.077  14.787  1.00  0.00     0.032 C 
ENDROOT
BRANCH   1   2
ATOM      2  C   UNL     1       8.709   6.578  14.647  1.00  0.00    -0.028 C 
ATOM      3  C   UNL     1       9.563   7.336  13.922  1.00  0.00    -0.077 C 
ATOM      4  C   UNL     1      10.763   6.741  13.222  1.00  0.00     0.039 C 
BRANCH   3   5
ATOM      5  C   UNL     1       9.320   8.826  13.826  1.00  0.00     0.034 C 
BRANCH   5   6
ATOM      6  C   UNL     1       9.067   9.428  15.212  1.00  0.00     0.032 C 
BRANCH   6   7
ATOM      7  C   UNL     1      10.368   9.781  15.888  1.00  0.00    -0.028 C 
ATOM      8  C   UNL     1      12.186   9.596  17.532  1.00  0.00     0.039 C 
ATOM      9  C   UNL     1      10.849   9.162  16.990  1.00  0.00    -0.080 C 
ATOM     10  C   UNL     1      10.079   8.071  17.696  1.00  0.00     0.039 C 
ENDBRANCH   6   7
ENDBRANCH   5   6
ENDBRANCH   3   5
ENDBRANCH   1   2
BRANCH   1  11
ATOM     11  C   UNL     1       7.435   4.403  14.590  1.00  0.00     0.034 C 
BRANCH  11  12
ATOM     12  C   UNL     1       7.199   3.299  15.601  1.00  0.00    -0.075 C 
ATOM     13  C   UNL     1       8.206   2.450  15.901  1.00  0.00    -0.000 C 
ATOM     14  C   UNL     1       5.842   3.172  16.253  1.00  0.00     0.039 C 
BRANCH  13  15
ATOM     15  C   UNL     1       8.069   1.327  16.896  1.00  0.00     0.183 C 
BRANCH  15  16
ATOM     16  O   UNL     1       9.071   0.368  16.687  1.00  0.00    -0.392 OA
ATOM     17  H   UNL     1       8.896  -0.036  15.796  1.00  0.00     0.210 HD
ENDBRANCH  15  16
ENDBRANCH  13  15
ENDBRANCH  11  12
ENDBRANCH   1  11
TORSDOF 8
ENDMDL
