MODEL 1
REMARK VINA RESULT:    -2.930      0.000      0.000
REMARK INTER + INTRA:         -12.516
REMARK INTER:                  -7.385
REMARK INTRA:                  -5.131
REMARK UNBOUND:                -5.131
REMARK SMILES CCCCCCCCCCCCCCCCCCCCCCCCCCCC(=O)[O-]
REMARK SMILES IDX 15 1 16 2 17 3 18 4 19 5 20 6 21 7 22 8 23 9 24 10 25 11
REMARK SMILES IDX 26 12 27 13 28 14 29 15 30 16 14 17 13 18 12 19 11 20 10 21
REMARK SMILES IDX 9 22 8 23 7 24 6 25 5 26 4 27 3 28 2 29 1 30
REMARK H PARENT
REMARK Flexibility Score: inf
ROOT
ATOM      1  C   UNL     1     -16.259 -14.194  26.755  1.00  0.00     0.000 C 
ENDROOT
BRANCH   1   2
ATOM      2  C   UNL     1     -15.360 -15.418  27.018  1.00  0.00     0.000 C 
BRANCH   2   3
ATOM      3  C   UNL     1     -16.100 -16.762  27.120  1.00  0.00     0.000 C 
BRANCH   3   4
ATOM      4  C   UNL     1     -16.104 -17.331  28.550  1.00  0.00     0.000 C 
BRANCH   4   5
ATOM      5  C   UNL     1     -14.811 -17.011  29.323  1.00  0.00     0.000 C 
BRANCH   5   6
ATOM      6  C   UNL     1     -15.017 -16.552  30.779  1.00  0.00     0.000 C 
BRANCH   6   7
ATOM      7  C   UNL     1     -15.847 -15.260  30.887  1.00  0.00     0.000 C 
BRANCH   7   8
ATOM      8  C   UNL     1     -14.979 -14.015  31.134  1.00  0.00     0.000 C 
BRANCH   8   9
ATOM      9  C   UNL     1     -14.795 -13.163  29.865  1.00  0.00     0.000 C 
BRANCH   9  10
ATOM     10  C   UNL     1     -13.317 -12.846  29.579  1.00  0.00     0.000 C 
BRANCH  10  11
ATOM     11  C   UNL     1     -12.359 -13.852  30.242  1.00  0.00     0.000 C 
BRANCH  11  12
ATOM     12  C   UNL     1     -11.817 -14.897  29.252  1.00  0.00     0.006 C 
BRANCH  12  13
ATOM     13  C   UNL     1     -10.735 -15.817  29.839  1.00  0.00     0.053 C 
BRANCH  13  14
ATOM     14  C   UNL     1     -11.324 -17.009  30.528  1.00  0.00     0.041 C 
ATOM     15  O   UNL     1     -11.577 -16.967  31.761  1.00  0.00    -0.550 OA
ATOM     16  O   UNL     1     -11.615 -18.159  29.804  1.00  0.00    -0.550 OA
ENDBRANCH  13  14
ENDBRANCH  12  13
ENDBRANCH  11  12
ENDBRANCH  10  11
ENDBRANCH   9  10
ENDBRANCH   8   9
ENDBRANCH   7   8
ENDBRANCH   6   7
ENDBRANCH   5   6
ENDBRANCH   4   5
ENDBRANCH   3   4
ENDBRANCH   2   3
ENDBRANCH   1   2
BRANCH   1  17
ATOM     17  C   UNL     1     -16.810 -14.122  25.313  1.00  0.00     0.000 C 
BRANCH  17  18
ATOM     18  C   UNL     1     -18.175 -13.415  25.245  1.00  0.00     0.000 C 
BRANCH  18  19
ATOM     19  C   UNL     1     -18.520 -12.926  23.826  1.00  0.00     0.000 C 
BRANCH  19  20
ATOM     20  C   UNL     1     -17.611 -13.502  22.723  1.00  0.00     0.000 C 
BRANCH  20  21
ATOM     21  C   UNL     1     -18.348 -13.674  21.383  1.00  0.00     0.000 C 
BRANCH  21  22
ATOM     22  C   UNL     1     -19.796 -14.160  21.561  1.00  0.00    -0.000 C 
BRANCH  22  23
ATOM     23  C   UNL     1     -19.986 -15.684  21.445  1.00  0.00    -0.000 C 
BRANCH  23  24
ATOM     24  C   UNL     1     -20.125 -16.397  22.807  1.00  0.00    -0.000 C 
BRANCH  24  25
ATOM     25  C   UNL     1     -18.782 -16.953  23.311  1.00  0.00    -0.000 C 
BRANCH  25  26
ATOM     26  C   UNL     1     -18.758 -17.163  24.833  1.00  0.00    -0.000 C 
BRANCH  26  27
ATOM     27  C   UNL     1     -19.966 -16.529  25.541  1.00  0.00    -0.000 C 
BRANCH  27  28
ATOM     28  C   UNL     1     -19.789 -16.562  27.066  1.00  0.00    -0.000 C 
BRANCH  28  29
ATOM     29  C   UNL     1     -19.988 -15.181  27.711  1.00  0.00    -0.003 C 
ATOM     30  C   UNL     1     -19.076 -14.956  28.916  1.00  0.00     0.004 C 
ENDBRANCH  28  29
ENDBRANCH  27  28
ENDBRANCH  26  27
ENDBRANCH  25  26
ENDBRANCH  24  25
ENDBRANCH  23  24
ENDBRANCH  22  23
ENDBRANCH  21  22
ENDBRANCH  20  21
ENDBRANCH  19  20
ENDBRANCH  18  19
ENDBRANCH  17  18
ENDBRANCH   1  17
TORSDOF 26
ENDMDL
MODEL 2
REMARK VINA RESULT:    -2.924      3.743     10.257
REMARK INTER + INTRA:         -12.501
REMARK INTER:                  -8.757
REMARK INTRA:                  -3.744
REMARK UNBOUND:                -5.131
REMARK SMILES CCCCCCCCCCCCCCCCCCCCCCCCCCCC(=O)[O-]
REMARK SMILES IDX 15 1 16 2 17 3 18 4 19 5 20 6 21 7 22 8 23 9 24 10 25 11
REMARK SMILES IDX 26 12 27 13 28 14 29 15 30 16 14 17 13 18 12 19 11 20 10 21
REMARK SMILES IDX 9 22 8 23 7 24 6 25 5 26 4 27 3 28 2 29 1 30
REMARK H PARENT
REMARK Flexibility Score: inf
ROOT
ATOM      1  C   UNL     1     -13.202 -17.039  29.353  1.00  0.00     0.000 C 
ENDROOT
BRANCH   1   2
ATOM      2  C   UNL     1     -14.646 -16.888  28.835  1.00  0.00     0.000 C 
BRANCH   2   3
ATOM      3  C   UNL     1     -14.975 -15.524  28.207  1.00  0.00     0.000 C 
BRANCH   3   4
ATOM      4  C   UNL     1     -15.527 -15.646  26.775  1.00  0.00     0.000 C 
BRANCH   4   5
ATOM      5  C   UNL     1     -16.583 -16.759  26.637  1.00  0.00     0.000 C 
BRANCH   5   6
ATOM      6  C   UNL     1     -18.037 -16.267  26.504  1.00  0.00     0.000 C 
BRANCH   6   7
ATOM      7  C   UNL     1     -18.662 -16.612  25.140  1.00  0.00     0.000 C 
BRANCH   7   8
ATOM      8  C   UNL     1     -17.880 -16.016  23.959  1.00  0.00     0.000 C 
BRANCH   8   9
ATOM      9  C   UNL     1     -18.646 -14.879  23.257  1.00  0.00     0.000 C 
BRANCH   9  10
ATOM     10  C   UNL     1     -17.853 -13.562  23.235  1.00  0.00     0.000 C 
BRANCH  10  11
ATOM     11  C   UNL     1     -17.082 -13.315  24.545  1.00  0.00     0.000 C 
BRANCH  11  12
ATOM     12  C   UNL     1     -17.983 -12.779  25.672  1.00  0.00     0.006 C 
BRANCH  12  13
ATOM     13  C   UNL     1     -17.214 -12.193  26.866  1.00  0.00     0.053 C 
BRANCH  13  14
ATOM     14  C   UNL     1     -17.305 -10.699  26.914  1.00  0.00     0.041 C 
ATOM     15  O   UNL     1     -16.270 -10.007  27.106  1.00  0.00    -0.550 OA
ATOM     16  O   UNL     1     -18.528 -10.069  26.724  1.00  0.00    -0.550 OA
ENDBRANCH  13  14
ENDBRANCH  12  13
ENDBRANCH  11  12
ENDBRANCH  10  11
ENDBRANCH   9  10
ENDBRANCH   8   9
ENDBRANCH   7   8
ENDBRANCH   6   7
ENDBRANCH   5   6
ENDBRANCH   4   5
ENDBRANCH   3   4
ENDBRANCH   2   3
ENDBRANCH   1   2
BRANCH   1  17
ATOM     17  C   UNL     1     -12.281 -15.853  28.992  1.00  0.00     0.000 C 
BRANCH  17  18
ATOM     18  C   UNL     1     -10.876 -15.998  29.604  1.00  0.00     0.000 C 
BRANCH  18  19
ATOM     19  C   UNL     1     -10.805 -17.107  30.670  1.00  0.00     0.000 C 
BRANCH  19  20
ATOM     20  C   UNL     1     -10.405 -16.608  32.072  1.00  0.00     0.000 C 
BRANCH  20  21
ATOM     21  C   UNL     1     -10.630 -15.095  32.244  1.00  0.00     0.000 C 
BRANCH  21  22
ATOM     22  C   UNL     1      -9.315 -14.311  32.384  1.00  0.00    -0.000 C 
BRANCH  22  23
ATOM     23  C   UNL     1      -9.104 -13.209  31.329  1.00  0.00    -0.000 C 
BRANCH  23  24
ATOM     24  C   UNL     1      -8.134 -13.610  30.197  1.00  0.00    -0.000 C 
BRANCH  24  25
ATOM     25  C   UNL     1      -7.135 -14.691  30.645  1.00  0.00    -0.000 C 
BRANCH  25  26
ATOM     26  C   UNL     1      -7.133 -15.919  29.721  1.00  0.00    -0.000 C 
BRANCH  26  27
ATOM     27  C   UNL     1      -7.077 -17.246  30.495  1.00  0.00    -0.000 C 
BRANCH  27  28
ATOM     28  C   UNL     1      -6.744 -17.005  31.974  1.00  0.00    -0.000 C 
BRANCH  28  29
ATOM     29  C   UNL     1      -7.117 -18.202  32.863  1.00  0.00    -0.003 C 
ATOM     30  C   UNL     1      -6.026 -19.271  32.900  1.00  0.00     0.004 C 
ENDBRANCH  28  29
ENDBRANCH  27  28
ENDBRANCH  26  27
ENDBRANCH  25  26
ENDBRANCH  24  25
ENDBRANCH  23  24
ENDBRANCH  22  23
ENDBRANCH  21  22
ENDBRANCH  20  21
ENDBRANCH  19  20
ENDBRANCH  18  19
ENDBRANCH  17  18
ENDBRANCH   1  17
TORSDOF 26
ENDMDL
MODEL 3
REMARK VINA RESULT:    -2.888      9.035     11.481
REMARK INTER + INTRA:         -12.409
REMARK INTER:                  -7.350
REMARK INTRA:                  -5.059
REMARK UNBOUND:                -5.131
REMARK SMILES CCCCCCCCCCCCCCCCCCCCCCCCCCCC(=O)[O-]
REMARK SMILES IDX 15 1 16 2 17 3 18 4 19 5 20 6 21 7 22 8 23 9 24 10 25 11
REMARK SMILES IDX 26 12 27 13 28 14 29 15 30 16 14 17 13 18 12 19 11 20 10 21
REMARK SMILES IDX 9 22 8 23 7 24 6 25 5 26 4 27 3 28 2 29 1 30
REMARK H PARENT
REMARK Flexibility Score: inf
ROOT
ATOM      1  C   UNL     1     -11.461 -21.920  19.971  1.00  0.00     0.000 C 
ENDROOT
BRANCH   1   2
ATOM      2  C   UNL     1     -10.411 -20.871  20.385  1.00  0.00     0.000 C 
BRANCH   2   3
ATOM      3  C   UNL     1     -10.948 -19.441  20.559  1.00  0.00     0.000 C 
BRANCH   3   4
ATOM      4  C   UNL     1     -12.443 -19.322  20.211  1.00  0.00     0.000 C 
BRANCH   4   5
ATOM      5  C   UNL     1     -12.726 -18.226  19.167  1.00  0.00     0.000 C 
BRANCH   5   6
ATOM      6  C   UNL     1     -11.827 -18.267  17.916  1.00  0.00     0.000 C 
BRANCH   6   7
ATOM      7  C   UNL     1     -12.031 -19.539  17.075  1.00  0.00     0.000 C 
BRANCH   7   8
ATOM      8  C   UNL     1     -10.707 -20.222  16.698  1.00  0.00     0.000 C 
BRANCH   8   9
ATOM      9  C   UNL     1      -9.478 -19.362  17.047  1.00  0.00     0.000 C 
BRANCH   9  10
ATOM     10  C   UNL     1      -8.177 -20.181  17.081  1.00  0.00     0.000 C 
BRANCH  10  11
ATOM     11  C   UNL     1      -7.617 -20.339  18.506  1.00  0.00     0.000 C 
BRANCH  11  12
ATOM     12  C   UNL     1      -6.910 -19.069  19.011  1.00  0.00     0.006 C 
BRANCH  12  13
ATOM     13  C   UNL     1      -7.259 -18.689  20.458  1.00  0.00     0.053 C 
BRANCH  13  14
ATOM     14  C   UNL     1      -6.069 -18.771  21.363  1.00  0.00     0.041 C 
ATOM     15  O   UNL     1      -5.222 -19.691  21.214  1.00  0.00    -0.550 OA
ATOM     16  O   UNL     1      -5.883 -17.819  22.357  1.00  0.00    -0.550 OA
ENDBRANCH  13  14
ENDBRANCH  12  13
ENDBRANCH  11  12
ENDBRANCH  10  11
ENDBRANCH   9  10
ENDBRANCH   8   9
ENDBRANCH   7   8
ENDBRANCH   6   7
ENDBRANCH   5   6
ENDBRANCH   4   5
ENDBRANCH   3   4
ENDBRANCH   2   3
ENDBRANCH   1   2
BRANCH   1  17
ATOM     17  C   UNL     1     -11.214 -23.322  20.569  1.00  0.00     0.000 C 
BRANCH  17  18
ATOM     18  C   UNL     1     -12.292 -23.717  21.595  1.00  0.00     0.000 C 
BRANCH  18  19
ATOM     19  C   UNL     1     -11.803 -23.585  23.049  1.00  0.00     0.000 C 
BRANCH  19  20
ATOM     20  C   UNL     1     -12.665 -22.652  23.921  1.00  0.00     0.000 C 
BRANCH  20  21
ATOM     21  C   UNL     1     -12.682 -21.205  23.395  1.00  0.00     0.000 C 
BRANCH  21  22
ATOM     22  C   UNL     1     -14.087 -20.742  22.976  1.00  0.00    -0.000 C 
BRANCH  22  23
ATOM     23  C   UNL     1     -15.186 -21.814  23.102  1.00  0.00    -0.000 C 
BRANCH  23  24
ATOM     24  C   UNL     1     -15.974 -22.050  21.796  1.00  0.00    -0.000 C 
BRANCH  24  25
ATOM     25  C   UNL     1     -15.090 -21.896  20.547  1.00  0.00    -0.000 C 
BRANCH  25  26
ATOM     26  C   UNL     1     -15.906 -21.766  19.252  1.00  0.00    -0.000 C 
BRANCH  26  27
ATOM     27  C   UNL     1     -15.173 -20.963  18.165  1.00  0.00    -0.000 C 
BRANCH  27  28
ATOM     28  C   UNL     1     -16.163 -20.132  17.334  1.00  0.00    -0.000 C 
BRANCH  28  29
ATOM     29  C   UNL     1     -15.677 -18.691  17.111  1.00  0.00    -0.003 C 
ATOM     30  C   UNL     1     -16.288 -18.050  15.866  1.00  0.00     0.004 C 
ENDBRANCH  28  29
ENDBRANCH  27  28
ENDBRANCH  26  27
ENDBRANCH  25  26
ENDBRANCH  24  25
ENDBRANCH  23  24
ENDBRANCH  22  23
ENDBRANCH  21  22
ENDBRANCH  20  21
ENDBRANCH  19  20
ENDBRANCH  18  19
ENDBRANCH  17  18
ENDBRANCH   1  17
TORSDOF 26
ENDMDL
MODEL 4
REMARK VINA RESULT:    -2.884      3.627      9.866
REMARK INTER + INTRA:         -12.399
REMARK INTER:                  -7.843
REMARK INTRA:                  -4.556
REMARK UNBOUND:                -5.131
REMARK SMILES CCCCCCCCCCCCCCCCCCCCCCCCCCCC(=O)[O-]
REMARK SMILES IDX 15 1 16 2 17 3 18 4 19 5 20 6 21 7 22 8 23 9 24 10 25 11
REMARK SMILES IDX 26 12 27 13 28 14 29 15 30 16 14 17 13 18 12 19 11 20 10 21
REMARK SMILES IDX 9 22 8 23 7 24 6 25 5 26 4 27 3 28 2 29 1 30
REMARK H PARENT
REMARK Flexibility Score: inf
ROOT
ATOM      1  C   UNL     1     -12.682 -14.061  29.185  1.00  0.00     0.000 C 
ENDROOT
BRANCH   1   2
ATOM      2  C   UNL     1     -12.660 -13.811  30.706  1.00  0.00     0.000 C 
BRANCH   2   3
ATOM      3  C   UNL     1     -13.824 -14.439  31.489  1.00  0.00     0.000 C 
BRANCH   3   4
ATOM      4  C   UNL     1     -15.164 -14.349  30.735  1.00  0.00     0.000 C 
BRANCH   4   5
ATOM      5  C   UNL     1     -15.924 -15.688  30.709  1.00  0.00     0.000 C 
BRANCH   5   6
ATOM      6  C   UNL     1     -15.034 -16.945  30.665  1.00  0.00     0.000 C 
BRANCH   6   7
ATOM      7  C   UNL     1     -14.767 -17.437  29.231  1.00  0.00     0.000 C 
BRANCH   7   8
ATOM      8  C   UNL     1     -15.797 -16.909  28.220  1.00  0.00     0.000 C 
BRANCH   8   9
ATOM      9  C   UNL     1     -15.142 -16.382  26.930  1.00  0.00     0.000 C 
BRANCH   9  10
ATOM     10  C   UNL     1     -15.896 -15.181  26.335  1.00  0.00     0.000 C 
BRANCH  10  11
ATOM     11  C   UNL     1     -15.991 -13.999  27.317  1.00  0.00     0.000 C 
BRANCH  11  12
ATOM     12  C   UNL     1     -17.324 -13.238  27.203  1.00  0.00     0.006 C 
BRANCH  12  13
ATOM     13  C   UNL     1     -17.421 -12.322  25.973  1.00  0.00     0.053 C 
BRANCH  13  14
ATOM     14  C   UNL     1     -18.203 -12.953  24.863  1.00  0.00     0.041 C 
ATOM     15  O   UNL     1     -19.356 -13.410  25.079  1.00  0.00    -0.550 OA
ATOM     16  O   UNL     1     -17.667 -13.017  23.583  1.00  0.00    -0.550 OA
ENDBRANCH  13  14
ENDBRANCH  12  13
ENDBRANCH  11  12
ENDBRANCH  10  11
ENDBRANCH   9  10
ENDBRANCH   8   9
ENDBRANCH   7   8
ENDBRANCH   6   7
ENDBRANCH   5   6
ENDBRANCH   4   5
ENDBRANCH   3   4
ENDBRANCH   2   3
ENDBRANCH   1   2
BRANCH   1  17
ATOM     17  C   UNL     1     -12.107 -15.433  28.768  1.00  0.00     0.000 C 
BRANCH  17  18
ATOM     18  C   UNL     1     -10.898 -15.844  29.626  1.00  0.00     0.000 C 
BRANCH  18  19
ATOM     19  C   UNL     1     -11.191 -17.064  30.520  1.00  0.00     0.000 C 
BRANCH  19  20
ATOM     20  C   UNL     1     -10.915 -16.829  32.017  1.00  0.00     0.000 C 
BRANCH  20  21
ATOM     21  C   UNL     1      -9.494 -16.297  32.276  1.00  0.00     0.000 C 
BRANCH  21  22
ATOM     22  C   UNL     1      -8.500 -17.413  32.639  1.00  0.00    -0.000 C 
BRANCH  22  23
ATOM     23  C   UNL     1      -7.243 -17.474  31.751  1.00  0.00    -0.000 C 
BRANCH  23  24
ATOM     24  C   UNL     1      -7.399 -16.736  30.404  1.00  0.00    -0.000 C 
BRANCH  24  25
ATOM     25  C   UNL     1      -6.343 -15.632  30.221  1.00  0.00    -0.000 C 
BRANCH  25  26
ATOM     26  C   UNL     1      -6.821 -14.262  30.728  1.00  0.00    -0.000 C 
BRANCH  26  27
ATOM     27  C   UNL     1      -7.984 -13.694  29.900  1.00  0.00    -0.000 C 
BRANCH  27  28
ATOM     28  C   UNL     1      -8.981 -12.944  30.796  1.00  0.00    -0.000 C 
BRANCH  28  29
ATOM     29  C   UNL     1      -9.127 -11.465  30.402  1.00  0.00    -0.003 C 
ATOM     30  C   UNL     1      -7.859 -10.896  29.768  1.00  0.00     0.004 C 
ENDBRANCH  28  29
ENDBRANCH  27  28
ENDBRANCH  26  27
ENDBRANCH  25  26
ENDBRANCH  24  25
ENDBRANCH  23  24
ENDBRANCH  22  23
ENDBRANCH  21  22
ENDBRANCH  20  21
ENDBRANCH  19  20
ENDBRANCH  18  19
ENDBRANCH  17  18
ENDBRANCH   1  17
TORSDOF 26
ENDMDL
MODEL 5
REMARK VINA RESULT:    -2.845      9.686     12.493
REMARK INTER + INTRA:         -12.301
REMARK INTER:                  -7.327
REMARK INTRA:                  -4.974
REMARK UNBOUND:                -5.131
REMARK SMILES CCCCCCCCCCCCCCCCCCCCCCCCCCCC(=O)[O-]
REMARK SMILES IDX 15 1 16 2 17 3 18 4 19 5 20 6 21 7 22 8 23 9 24 10 25 11
REMARK SMILES IDX 26 12 27 13 28 14 29 15 30 16 14 17 13 18 12 19 11 20 10 21
REMARK SMILES IDX 9 22 8 23 7 24 6 25 5 26 4 27 3 28 2 29 1 30
REMARK H PARENT
REMARK Flexibility Score: inf
ROOT
ATOM      1  C   UNL     1     -11.220 -21.497  16.944  1.00  0.00     0.000 C 
ENDROOT
BRANCH   1   2
ATOM      2  C   UNL     1     -11.346 -22.584  18.029  1.00  0.00     0.000 C 
BRANCH   2   3
ATOM      3  C   UNL     1     -10.032 -22.960  18.733  1.00  0.00     0.000 C 
BRANCH   3   4
ATOM      4  C   UNL     1     -10.254 -23.841  19.975  1.00  0.00     0.000 C 
BRANCH   4   5
ATOM      5  C   UNL     1     -11.745 -24.071  20.284  1.00  0.00     0.000 C 
BRANCH   5   6
ATOM      6  C   UNL     1     -12.102 -24.121  21.782  1.00  0.00     0.000 C 
BRANCH   6   7
ATOM      7  C   UNL     1     -11.783 -22.807  22.516  1.00  0.00     0.000 C 
BRANCH   7   8
ATOM      8  C   UNL     1     -12.830 -22.452  23.584  1.00  0.00     0.000 C 
BRANCH   8   9
ATOM      9  C   UNL     1     -13.436 -21.051  23.375  1.00  0.00     0.000 C 
BRANCH   9  10
ATOM     10  C   UNL     1     -14.282 -20.962  22.094  1.00  0.00     0.000 C 
BRANCH  10  11
ATOM     11  C   UNL     1     -15.400 -22.020  22.050  1.00  0.00     0.000 C 
BRANCH  11  12
ATOM     12  C   UNL     1     -15.355 -22.879  20.774  1.00  0.00     0.006 C 
BRANCH  12  13
ATOM     13  C   UNL     1     -14.756 -22.162  19.555  1.00  0.00     0.053 C 
BRANCH  13  14
ATOM     14  C   UNL     1     -15.102 -22.853  18.272  1.00  0.00     0.041 C 
ATOM     15  O   UNL     1     -15.612 -22.205  17.320  1.00  0.00    -0.550 OA
ATOM     16  O   UNL     1     -14.840 -24.209  18.118  1.00  0.00    -0.550 OA
ENDBRANCH  13  14
ENDBRANCH  12  13
ENDBRANCH  11  12
ENDBRANCH  10  11
ENDBRANCH   9  10
ENDBRANCH   8   9
ENDBRANCH   7   8
ENDBRANCH   6   7
ENDBRANCH   5   6
ENDBRANCH   4   5
ENDBRANCH   3   4
ENDBRANCH   2   3
ENDBRANCH   1   2
BRANCH   1  17
ATOM     17  C   UNL     1     -12.472 -20.601  16.809  1.00  0.00     0.000 C 
BRANCH  17  18
ATOM     18  C   UNL     1     -12.109 -19.125  16.568  1.00  0.00     0.000 C 
BRANCH  18  19
ATOM     19  C   UNL     1     -12.762 -18.179  17.594  1.00  0.00     0.000 C 
BRANCH  19  20
ATOM     20  C   UNL     1     -13.217 -18.874  18.891  1.00  0.00     0.000 C 
BRANCH  20  21
ATOM     21  C   UNL     1     -12.248 -18.627  20.061  1.00  0.00     0.000 C 
BRANCH  21  22
ATOM     22  C   UNL     1     -11.424 -19.874  20.424  1.00  0.00    -0.000 C 
BRANCH  22  23
ATOM     23  C   UNL     1      -9.898 -19.666  20.416  1.00  0.00    -0.000 C 
BRANCH  23  24
ATOM     24  C   UNL     1      -9.349 -19.154  19.068  1.00  0.00    -0.000 C 
BRANCH  24  25
ATOM     25  C   UNL     1      -7.816 -19.015  19.079  1.00  0.00    -0.000 C 
BRANCH  25  26
ATOM     26  C   UNL     1      -7.221 -19.108  20.493  1.00  0.00    -0.000 C 
BRANCH  26  27
ATOM     27  C   UNL     1      -6.355 -17.890  20.855  1.00  0.00    -0.000 C 
BRANCH  27  28
ATOM     28  C   UNL     1      -5.493 -18.179  22.093  1.00  0.00    -0.000 C 
BRANCH  28  29
ATOM     29  C   UNL     1      -4.996 -19.633  22.137  1.00  0.00    -0.003 C 
ATOM     30  C   UNL     1      -3.548 -19.747  22.611  1.00  0.00     0.004 C 
ENDBRANCH  28  29
ENDBRANCH  27  28
ENDBRANCH  26  27
ENDBRANCH  25  26
ENDBRANCH  24  25
ENDBRANCH  23  24
ENDBRANCH  22  23
ENDBRANCH  21  22
ENDBRANCH  20  21
ENDBRANCH  19  20
ENDBRANCH  18  19
ENDBRANCH  17  18
ENDBRANCH   1  17
TORSDOF 26
ENDMDL
MODEL 6
REMARK VINA RESULT:    -2.839      9.043     10.964
REMARK INTER + INTRA:         -12.285
REMARK INTER:                  -7.585
REMARK INTRA:                  -4.700
REMARK UNBOUND:                -5.131
REMARK SMILES CCCCCCCCCCCCCCCCCCCCCCCCCCCC(=O)[O-]
REMARK SMILES IDX 15 1 16 2 17 3 18 4 19 5 20 6 21 7 22 8 23 9 24 10 25 11
REMARK SMILES IDX 26 12 27 13 28 14 29 15 30 16 14 17 13 18 12 19 11 20 10 21
REMARK SMILES IDX 9 22 8 23 7 24 6 25 5 26 4 27 3 28 2 29 1 30
REMARK H PARENT
REMARK Flexibility Score: inf
ROOT
ATOM      1  C   UNL     1     -12.692 -22.597  18.901  1.00  0.00     0.000 C 
ENDROOT
BRANCH   1   2
ATOM      2  C   UNL     1     -12.631 -21.651  17.686  1.00  0.00     0.000 C 
BRANCH   2   3
ATOM      3  C   UNL     1     -12.760 -20.154  18.017  1.00  0.00     0.000 C 
BRANCH   3   4
ATOM      4  C   UNL     1     -13.068 -19.899  19.503  1.00  0.00     0.000 C 
BRANCH   4   5
ATOM      5  C   UNL     1     -12.029 -18.984  20.178  1.00  0.00     0.000 C 
BRANCH   5   6
ATOM      6  C   UNL     1     -10.901 -19.717  20.928  1.00  0.00     0.000 C 
BRANCH   6   7
ATOM      7  C   UNL     1      -9.789 -20.219  19.990  1.00  0.00     0.000 C 
BRANCH   7   8
ATOM      8  C   UNL     1      -9.038 -19.073  19.291  1.00  0.00     0.000 C 
BRANCH   8   9
ATOM      9  C   UNL     1      -7.675 -19.516  18.729  1.00  0.00     0.000 C 
BRANCH   9  10
ATOM     10  C   UNL     1      -6.574 -19.531  19.802  1.00  0.00     0.000 C 
BRANCH  10  11
ATOM     11  C   UNL     1      -6.861 -18.553  20.956  1.00  0.00     0.000 C 
BRANCH  11  12
ATOM     12  C   UNL     1      -6.238 -17.165  20.727  1.00  0.00     0.006 C 
BRANCH  12  13
ATOM     13  C   UNL     1      -5.489 -16.603  21.945  1.00  0.00     0.053 C 
BRANCH  13  14
ATOM     14  C   UNL     1      -5.905 -15.200  22.262  1.00  0.00     0.041 C 
ATOM     15  O   UNL     1      -5.643 -14.264  21.461  1.00  0.00    -0.550 OA
ATOM     16  O   UNL     1      -6.604 -14.928  23.432  1.00  0.00    -0.550 OA
ENDBRANCH  13  14
ENDBRANCH  12  13
ENDBRANCH  11  12
ENDBRANCH  10  11
ENDBRANCH   9  10
ENDBRANCH   8   9
ENDBRANCH   7   8
ENDBRANCH   6   7
ENDBRANCH   5   6
ENDBRANCH   4   5
ENDBRANCH   3   4
ENDBRANCH   2   3
ENDBRANCH   1   2
BRANCH   1  17
ATOM     17  C   UNL     1     -11.353 -23.302  19.213  1.00  0.00     0.000 C 
BRANCH  17  18
ATOM     18  C   UNL     1     -11.160 -23.547  20.720  1.00  0.00     0.000 C 
BRANCH  18  19
ATOM     19  C   UNL     1     -12.351 -23.049  21.560  1.00  0.00     0.000 C 
BRANCH  19  20
ATOM     20  C   UNL     1     -11.959 -22.505  22.946  1.00  0.00     0.000 C 
BRANCH  20  21
ATOM     21  C   UNL     1     -13.168 -21.955  23.725  1.00  0.00     0.000 C 
BRANCH  21  22
ATOM     22  C   UNL     1     -14.026 -20.993  22.887  1.00  0.00    -0.000 C 
BRANCH  22  23
ATOM     23  C   UNL     1     -15.458 -21.485  22.602  1.00  0.00    -0.000 C 
BRANCH  23  24
ATOM     24  C   UNL     1     -15.688 -21.908  21.136  1.00  0.00    -0.000 C 
BRANCH  24  25
ATOM     25  C   UNL     1     -16.074 -23.392  21.013  1.00  0.00    -0.000 C 
BRANCH  25  26
ATOM     26  C   UNL     1     -16.028 -24.133  22.359  1.00  0.00    -0.000 C 
BRANCH  26  27
ATOM     27  C   UNL     1     -14.968 -25.245  22.390  1.00  0.00    -0.000 C 
BRANCH  27  28
ATOM     28  C   UNL     1     -14.552 -25.568  23.833  1.00  0.00    -0.000 C 
BRANCH  28  29
ATOM     29  C   UNL     1     -15.293 -24.701  24.865  1.00  0.00    -0.003 C 
ATOM     30  C   UNL     1     -14.489 -24.497  26.148  1.00  0.00     0.004 C 
ENDBRANCH  28  29
ENDBRANCH  27  28
ENDBRANCH  26  27
ENDBRANCH  25  26
ENDBRANCH  24  25
ENDBRANCH  23  24
ENDBRANCH  22  23
ENDBRANCH  21  22
ENDBRANCH  20  21
ENDBRANCH  19  20
ENDBRANCH  18  19
ENDBRANCH  17  18
ENDBRANCH   1  17
TORSDOF 26
ENDMDL
MODEL 7
REMARK VINA RESULT:    -2.837      3.537      9.891
REMARK INTER + INTRA:         -12.281
REMARK INTER:                  -7.905
REMARK INTRA:                  -4.376
REMARK UNBOUND:                -5.131
REMARK SMILES CCCCCCCCCCCCCCCCCCCCCCCCCCCC(=O)[O-]
REMARK SMILES IDX 15 1 16 2 17 3 18 4 19 5 20 6 21 7 22 8 23 9 24 10 25 11
REMARK SMILES IDX 26 12 27 13 28 14 29 15 30 16 14 17 13 18 12 19 11 20 10 21
REMARK SMILES IDX 9 22 8 23 7 24 6 25 5 26 4 27 3 28 2 29 1 30
REMARK H PARENT
REMARK Flexibility Score: inf
ROOT
ATOM      1  C   UNL     1     -10.386 -15.812  29.846  1.00  0.00     0.000 C 
ENDROOT
BRANCH   1   2
ATOM      2  C   UNL     1     -11.516 -15.060  29.116  1.00  0.00     0.000 C 
BRANCH   2   3
ATOM      3  C   UNL     1     -12.422 -14.206  30.017  1.00  0.00     0.000 C 
BRANCH   3   4
ATOM      4  C   UNL     1     -13.887 -14.193  29.546  1.00  0.00     0.000 C 
BRANCH   4   5
ATOM      5  C   UNL     1     -14.834 -14.911  30.525  1.00  0.00     0.000 C 
BRANCH   5   6
ATOM      6  C   UNL     1     -14.537 -16.407  30.744  1.00  0.00     0.000 C 
BRANCH   6   7
ATOM      7  C   UNL     1     -14.451 -17.198  29.427  1.00  0.00     0.000 C 
BRANCH   7   8
ATOM      8  C   UNL     1     -15.790 -17.843  29.032  1.00  0.00     0.000 C 
BRANCH   8   9
ATOM      9  C   UNL     1     -16.516 -17.062  27.921  1.00  0.00     0.000 C 
BRANCH   9  10
ATOM     10  C   UNL     1     -15.549 -16.250  27.044  1.00  0.00     0.000 C 
BRANCH  10  11
ATOM     11  C   UNL     1     -16.244 -15.078  26.328  1.00  0.00     0.000 C 
BRANCH  11  12
ATOM     12  C   UNL     1     -17.122 -15.539  25.151  1.00  0.00     0.006 C 
BRANCH  12  13
ATOM     13  C   UNL     1     -18.632 -15.427  25.412  1.00  0.00     0.053 C 
BRANCH  13  14
ATOM     14  C   UNL     1     -19.043 -14.027  25.748  1.00  0.00     0.041 C 
ATOM     15  O   UNL     1     -19.479 -13.752  26.896  1.00  0.00    -0.550 OA
ATOM     16  O   UNL     1     -18.922 -13.019  24.798  1.00  0.00    -0.550 OA
ENDBRANCH  13  14
ENDBRANCH  12  13
ENDBRANCH  11  12
ENDBRANCH  10  11
ENDBRANCH   9  10
ENDBRANCH   8   9
ENDBRANCH   7   8
ENDBRANCH   6   7
ENDBRANCH   5   6
ENDBRANCH   4   5
ENDBRANCH   3   4
ENDBRANCH   2   3
ENDBRANCH   1   2
BRANCH   1  17
ATOM     17  C   UNL     1     -10.877 -17.007  30.694  1.00  0.00     0.000 C 
BRANCH  17  18
ATOM     18  C   UNL     1     -10.627 -16.798  32.198  1.00  0.00     0.000 C 
BRANCH  18  19
ATOM     19  C   UNL     1      -9.177 -16.380  32.505  1.00  0.00     0.000 C 
BRANCH  19  20
ATOM     20  C   UNL     1      -8.151 -17.521  32.371  1.00  0.00     0.000 C 
BRANCH  20  21
ATOM     21  C   UNL     1      -7.199 -17.319  31.178  1.00  0.00     0.000 C 
BRANCH  21  22
ATOM     22  C   UNL     1      -6.727 -15.862  31.035  1.00  0.00    -0.000 C 
BRANCH  22  23
ATOM     23  C   UNL     1      -6.762 -15.309  29.598  1.00  0.00    -0.000 C 
BRANCH  23  24
ATOM     24  C   UNL     1      -7.123 -13.811  29.518  1.00  0.00    -0.000 C 
BRANCH  24  25
ATOM     25  C   UNL     1      -7.903 -13.335  30.756  1.00  0.00    -0.000 C 
BRANCH  25  26
ATOM     26  C   UNL     1      -9.013 -12.330  30.410  1.00  0.00    -0.000 C 
BRANCH  26  27
ATOM     27  C   UNL     1      -8.979 -11.889  28.938  1.00  0.00    -0.000 C 
BRANCH  27  28
ATOM     28  C   UNL     1     -10.389 -11.543  28.437  1.00  0.00    -0.000 C 
BRANCH  28  29
ATOM     29  C   UNL     1     -11.046 -10.423  29.260  1.00  0.00    -0.003 C 
ATOM     30  C   UNL     1     -12.557 -10.601  29.396  1.00  0.00     0.004 C 
ENDBRANCH  28  29
ENDBRANCH  27  28
ENDBRANCH  26  27
ENDBRANCH  25  26
ENDBRANCH  24  25
ENDBRANCH  23  24
ENDBRANCH  22  23
ENDBRANCH  21  22
ENDBRANCH  20  21
ENDBRANCH  19  20
ENDBRANCH  18  19
ENDBRANCH  17  18
ENDBRANCH   1  17
TORSDOF 26
ENDMDL
MODEL 8
REMARK VINA RESULT:    -2.836      9.950     12.072
REMARK INTER + INTRA:         -12.278
REMARK INTER:                  -7.308
REMARK INTRA:                  -4.970
REMARK UNBOUND:                -5.131
REMARK SMILES CCCCCCCCCCCCCCCCCCCCCCCCCCCC(=O)[O-]
REMARK SMILES IDX 15 1 16 2 17 3 18 4 19 5 20 6 21 7 22 8 23 9 24 10 25 11
REMARK SMILES IDX 26 12 27 13 28 14 29 15 30 16 14 17 13 18 12 19 11 20 10 21
REMARK SMILES IDX 9 22 8 23 7 24 6 25 5 26 4 27 3 28 2 29 1 30
REMARK H PARENT
REMARK Flexibility Score: inf
ROOT
ATOM      1  C   UNL     1     -12.321 -19.278  20.390  1.00  0.00     0.000 C 
ENDROOT
BRANCH   1   2
ATOM      2  C   UNL     1     -12.435 -18.233  19.264  1.00  0.00     0.000 C 
BRANCH   2   3
ATOM      3  C   UNL     1     -13.638 -18.414  18.324  1.00  0.00     0.000 C 
BRANCH   3   4
ATOM      4  C   UNL     1     -13.227 -18.513  16.845  1.00  0.00     0.000 C 
BRANCH   4   5
ATOM      5  C   UNL     1     -12.063 -19.496  16.615  1.00  0.00     0.000 C 
BRANCH   5   6
ATOM      6  C   UNL     1     -10.739 -18.847  16.165  1.00  0.00     0.000 C 
BRANCH   6   7
ATOM      7  C   UNL     1      -9.541 -19.275  17.031  1.00  0.00     0.000 C 
BRANCH   7   8
ATOM      8  C   UNL     1      -9.440 -20.800  17.197  1.00  0.00     0.000 C 
BRANCH   8   9
ATOM      9  C   UNL     1      -8.141 -21.233  17.901  1.00  0.00     0.000 C 
BRANCH   9  10
ATOM     10  C   UNL     1      -6.921 -20.422  17.433  1.00  0.00     0.000 C 
BRANCH  10  11
ATOM     11  C   UNL     1      -6.205 -19.711  18.595  1.00  0.00     0.000 C 
BRANCH  11  12
ATOM     12  C   UNL     1      -7.126 -19.473  19.804  1.00  0.00     0.006 C 
BRANCH  12  13
ATOM     13  C   UNL     1      -6.942 -18.103  20.476  1.00  0.00     0.053 C 
BRANCH  13  14
ATOM     14  C   UNL     1      -6.065 -18.185  21.686  1.00  0.00     0.041 C 
ATOM     15  O   UNL     1      -5.749 -17.139  22.312  1.00  0.00    -0.550 OA
ATOM     16  O   UNL     1      -5.613 -19.419  22.137  1.00  0.00    -0.550 OA
ENDBRANCH  13  14
ENDBRANCH  12  13
ENDBRANCH  11  12
ENDBRANCH  10  11
ENDBRANCH   9  10
ENDBRANCH   8   9
ENDBRANCH   7   8
ENDBRANCH   6   7
ENDBRANCH   5   6
ENDBRANCH   4   5
ENDBRANCH   3   4
ENDBRANCH   2   3
ENDBRANCH   1   2
BRANCH   1  17
ATOM     17  C   UNL     1     -10.875 -19.753  20.658  1.00  0.00     0.000 C 
BRANCH  17  18
ATOM     18  C   UNL     1     -10.727 -21.279  20.520  1.00  0.00     0.000 C 
BRANCH  18  19
ATOM     19  C   UNL     1     -11.942 -21.934  19.838  1.00  0.00     0.000 C 
BRANCH  19  20
ATOM     20  C   UNL     1     -11.643 -23.303  19.198  1.00  0.00     0.000 C 
BRANCH  20  21
ATOM     21  C   UNL     1     -10.203 -23.776  19.466  1.00  0.00     0.000 C 
BRANCH  21  22
ATOM     22  C   UNL     1     -10.142 -24.984  20.414  1.00  0.00    -0.000 C 
BRANCH  22  23
ATOM     23  C   UNL     1     -11.512 -25.535  20.850  1.00  0.00    -0.000 C 
BRANCH  23  24
ATOM     24  C   UNL     1     -11.669 -25.670  22.379  1.00  0.00    -0.000 C 
BRANCH  24  25
ATOM     25  C   UNL     1     -12.609 -24.602  22.963  1.00  0.00    -0.000 C 
BRANCH  25  26
ATOM     26  C   UNL     1     -11.871 -23.318  23.372  1.00  0.00    -0.000 C 
BRANCH  26  27
ATOM     27  C   UNL     1     -12.762 -22.344  24.160  1.00  0.00    -0.000 C 
BRANCH  27  28
ATOM     28  C   UNL     1     -13.338 -21.259  23.238  1.00  0.00    -0.000 C 
BRANCH  28  29
ATOM     29  C   UNL     1     -14.836 -21.461  22.956  1.00  0.00    -0.003 C 
ATOM     30  C   UNL     1     -15.147 -21.558  21.464  1.00  0.00     0.004 C 
ENDBRANCH  28  29
ENDBRANCH  27  28
ENDBRANCH  26  27
ENDBRANCH  25  26
ENDBRANCH  24  25
ENDBRANCH  23  24
ENDBRANCH  22  23
ENDBRANCH  21  22
ENDBRANCH  20  21
ENDBRANCH  19  20
ENDBRANCH  18  19
ENDBRANCH  17  18
ENDBRANCH   1  17
TORSDOF 26
ENDMDL
MODEL 9
REMARK VINA RESULT:    -2.829      1.892      4.684
REMARK INTER + INTRA:         -12.261
REMARK INTER:                  -7.310
REMARK INTRA:                  -4.951
REMARK UNBOUND:                -5.131
REMARK SMILES CCCCCCCCCCCCCCCCCCCCCCCCCCCC(=O)[O-]
REMARK SMILES IDX 15 1 16 2 17 3 18 4 19 5 20 6 21 7 22 8 23 9 24 10 25 11
REMARK SMILES IDX 26 12 27 13 28 14 29 15 30 16 14 17 13 18 12 19 11 20 10 21
REMARK SMILES IDX 9 22 8 23 7 24 6 25 5 26 4 27 3 28 2 29 1 30
REMARK H PARENT
REMARK Flexibility Score: inf
ROOT
ATOM      1  C   UNL     1     -16.648 -16.504  25.653  1.00  0.00     0.000 C 
ENDROOT
BRANCH   1   2
ATOM      2  C   UNL     1     -15.478 -16.336  26.643  1.00  0.00     0.000 C 
BRANCH   2   3
ATOM      3  C   UNL     1     -15.735 -16.885  28.056  1.00  0.00     0.000 C 
BRANCH   3   4
ATOM      4  C   UNL     1     -14.715 -16.370  29.087  1.00  0.00     0.000 C 
BRANCH   4   5
ATOM      5  C   UNL     1     -13.342 -16.057  28.464  1.00  0.00     0.000 C 
BRANCH   5   6
ATOM      6  C   UNL     1     -12.665 -14.774  28.983  1.00  0.00     0.000 C 
BRANCH   6   7
ATOM      7  C   UNL     1     -13.588 -13.936  29.885  1.00  0.00     0.000 C 
BRANCH   7   8
ATOM      8  C   UNL     1     -13.049 -13.792  31.317  1.00  0.00     0.000 C 
BRANCH   8   9
ATOM      9  C   UNL     1     -13.165 -15.097  32.126  1.00  0.00     0.000 C 
BRANCH   9  10
ATOM     10  C   UNL     1     -11.801 -15.607  32.619  1.00  0.00     0.000 C 
BRANCH  10  11
ATOM     11  C   UNL     1     -11.255 -16.758  31.756  1.00  0.00     0.000 C 
BRANCH  11  12
ATOM     12  C   UNL     1      -9.746 -16.630  31.480  1.00  0.00     0.006 C 
BRANCH  12  13
ATOM     13  C   UNL     1      -9.406 -15.933  30.154  1.00  0.00     0.053 C 
BRANCH  13  14
ATOM     14  C   UNL     1      -8.833 -14.566  30.370  1.00  0.00     0.041 C 
ATOM     15  O   UNL     1      -9.589 -13.559  30.398  1.00  0.00    -0.550 OA
ATOM     16  O   UNL     1      -7.466 -14.406  30.562  1.00  0.00    -0.550 OA
ENDBRANCH  13  14
ENDBRANCH  12  13
ENDBRANCH  11  12
ENDBRANCH  10  11
ENDBRANCH   9  10
ENDBRANCH   8   9
ENDBRANCH   7   8
ENDBRANCH   6   7
ENDBRANCH   5   6
ENDBRANCH   4   5
ENDBRANCH   3   4
ENDBRANCH   2   3
ENDBRANCH   1   2
BRANCH   1  17
ATOM     17  C   UNL     1     -17.998 -16.826  26.329  1.00  0.00     0.000 C 
BRANCH  17  18
ATOM     18  C   UNL     1     -19.114 -15.859  25.895  1.00  0.00     0.000 C 
BRANCH  18  19
ATOM     19  C   UNL     1     -19.601 -14.960  27.046  1.00  0.00     0.000 C 
BRANCH  19  20
ATOM     20  C   UNL     1     -19.147 -15.423  28.443  1.00  0.00     0.000 C 
BRANCH  20  21
ATOM     21  C   UNL     1     -18.239 -14.392  29.139  1.00  0.00     0.000 C 
BRANCH  21  22
ATOM     22  C   UNL     1     -18.065 -13.104  28.317  1.00  0.00    -0.000 C 
BRANCH  22  23
ATOM     23  C   UNL     1     -16.663 -12.907  27.712  1.00  0.00    -0.000 C 
BRANCH  23  24
ATOM     24  C   UNL     1     -16.652 -12.874  26.169  1.00  0.00    -0.000 C 
BRANCH  24  25
ATOM     25  C   UNL     1     -17.773 -11.989  25.599  1.00  0.00    -0.000 C 
BRANCH  25  26
ATOM     26  C   UNL     1     -18.338 -12.523  24.273  1.00  0.00    -0.000 C 
BRANCH  26  27
ATOM     27  C   UNL     1     -17.396 -13.526  23.587  1.00  0.00    -0.000 C 
BRANCH  27  28
ATOM     28  C   UNL     1     -18.113 -14.257  22.442  1.00  0.00    -0.000 C 
BRANCH  28  29
ATOM     29  C   UNL     1     -18.805 -13.289  21.469  1.00  0.00    -0.003 C 
ATOM     30  C   UNL     1     -19.009 -13.895  20.081  1.00  0.00     0.004 C 
ENDBRANCH  28  29
ENDBRANCH  27  28
ENDBRANCH  26  27
ENDBRANCH  25  26
ENDBRANCH  24  25
ENDBRANCH  23  24
ENDBRANCH  22  23
ENDBRANCH  21  22
ENDBRANCH  20  21
ENDBRANCH  19  20
ENDBRANCH  18  19
ENDBRANCH  17  18
ENDBRANCH   1  17
TORSDOF 26
ENDMDL
