MODEL 1
REMARK VINA RESULT:    -3.914      0.000      0.000
REMARK INTER + INTRA:          -5.448
REMARK INTER:                  -5.287
REMARK INTRA:                  -0.161
REMARK UNBOUND:                -0.161
REMARK SMILES [NH3+]CCCC[C@@H]([NH3+])C(=O)[O-]
REMARK SMILES IDX 4 1 3 2 2 3 1 4 5 8 6 9 7 10 8 14 9 15 10 16
REMARK H PARENT 1 5 1 6 1 7 7 11 7 12 7 13
REMARK Flexibility Score: inf
ROOT
ATOM      1  C   UNL     1      73.021  -7.860 -25.084  1.00  0.00     0.012 C 
ENDROOT
BRANCH   1   2
ATOM      2  C   UNL     1      72.821  -7.927 -23.566  1.00  0.00     0.061 C 
BRANCH   2   3
ATOM      3  C   UNL     1      73.537  -9.145 -22.967  1.00  0.00     0.258 C 
BRANCH   3   4
ATOM      4  N   UNL     1      72.796  -9.677 -21.824  1.00  0.00    -0.358 N 
ATOM      5  H   UNL     1      71.812  -9.328 -21.862  1.00  0.00     0.344 HD
ATOM      6  H   UNL     1      72.787 -10.723 -21.857  1.00  0.00     0.344 HD
ATOM      7  H   UNL     1      73.236  -9.355 -20.930  1.00  0.00     0.344 HD
ENDBRANCH   3   4
ENDBRANCH   2   3
ENDBRANCH   1   2
BRANCH   1   8
ATOM      8  C   UNL     1      73.957  -8.977 -25.568  1.00  0.00     0.072 C 
BRANCH   8   9
ATOM      9  C   UNL     1      75.122  -8.436 -26.424  1.00  0.00     0.227 C 
BRANCH   9  10
ATOM     10  N   UNL     1      76.375  -8.467 -25.662  1.00  0.00    -0.350 N 
ATOM     11  H   UNL     1      76.299  -9.157 -24.880  1.00  0.00     0.345 HD
ATOM     12  H   UNL     1      77.177  -8.738 -26.278  1.00  0.00     0.345 HD
ATOM     13  H   UNL     1      76.563  -7.524 -25.248  1.00  0.00     0.345 HD
ENDBRANCH   9  10
BRANCH   9  14
ATOM     14  C   UNL     1      75.274  -9.231 -27.696  1.00  0.00     0.099 C 
ATOM     15  O   UNL     1      75.880  -8.736 -28.682  1.00  0.00    -0.544 OA
ATOM     16  O   UNL     1      74.743 -10.512 -27.790  1.00  0.00    -0.544 OA
ENDBRANCH   9  14
ENDBRANCH   8   9
ENDBRANCH   1   8
TORSDOF 7
ENDMDL
MODEL 2
REMARK VINA RESULT:    -3.726      1.662      1.746
REMARK INTER + INTRA:          -5.193
REMARK INTER:                  -5.110
REMARK INTRA:                  -0.083
REMARK UNBOUND:                -0.161
REMARK SMILES [NH3+]CCCC[C@@H]([NH3+])C(=O)[O-]
REMARK SMILES IDX 4 1 3 2 2 3 1 4 5 8 6 9 7 10 8 14 9 15 10 16
REMARK H PARENT 1 5 1 6 1 7 7 11 7 12 7 13
REMARK Flexibility Score: inf
ROOT
ATOM      1  C   UNL     1      72.846  -8.853 -24.898  1.00  0.00     0.012 C 
ENDROOT
BRANCH   1   2
ATOM      2  C   UNL     1      73.057  -8.226 -23.515  1.00  0.00     0.061 C 
BRANCH   2   3
ATOM      3  C   UNL     1      73.595  -9.259 -22.516  1.00  0.00     0.258 C 
BRANCH   3   4
ATOM      4  N   UNL     1      72.578  -9.607 -21.525  1.00  0.00    -0.358 N 
ATOM      5  H   UNL     1      72.637  -8.938 -20.725  1.00  0.00     0.344 HD
ATOM      6  H   UNL     1      71.625  -9.544 -21.951  1.00  0.00     0.344 HD
ATOM      7  H   UNL     1      72.742 -10.577 -21.168  1.00  0.00     0.344 HD
ENDBRANCH   3   4
ENDBRANCH   2   3
ENDBRANCH   1   2
BRANCH   1   8
ATOM      8  C   UNL     1      73.760  -8.201 -25.946  1.00  0.00     0.072 C 
BRANCH   8   9
ATOM      9  C   UNL     1      74.844  -9.171 -26.463  1.00  0.00     0.227 C 
BRANCH   9  10
ATOM     10  N   UNL     1      74.380  -9.859 -27.672  1.00  0.00    -0.350 N 
ATOM     11  H   UNL     1      74.946  -9.551 -28.496  1.00  0.00     0.345 HD
ATOM     12  H   UNL     1      74.470 -10.896 -27.565  1.00  0.00     0.345 HD
ATOM     13  H   UNL     1      73.378  -9.618 -27.857  1.00  0.00     0.345 HD
ENDBRANCH   9  10
BRANCH   9  14
ATOM     14  C   UNL     1      76.132  -8.442 -26.747  1.00  0.00     0.099 C 
ATOM     15  O   UNL     1      76.188  -7.598 -27.679  1.00  0.00    -0.544 OA
ATOM     16  O   UNL     1      77.266  -8.700 -25.986  1.00  0.00    -0.544 OA
ENDBRANCH   9  14
ENDBRANCH   8   9
ENDBRANCH   1   8
TORSDOF 7
ENDMDL
MODEL 3
REMARK VINA RESULT:    -3.499      1.970      2.352
REMARK INTER + INTRA:          -4.888
REMARK INTER:                  -4.767
REMARK INTRA:                  -0.121
REMARK UNBOUND:                -0.161
REMARK SMILES [NH3+]CCCC[C@@H]([NH3+])C(=O)[O-]
REMARK SMILES IDX 4 1 3 2 2 3 1 4 5 8 6 9 7 10 8 14 9 15 10 16
REMARK H PARENT 1 5 1 6 1 7 7 11 7 12 7 13
REMARK Flexibility Score: inf
ROOT
ATOM      1  C   UNL     1      74.741  -8.506 -25.469  1.00  0.00     0.012 C 
ENDROOT
BRANCH   1   2
ATOM      2  C   UNL     1      73.252  -8.268 -25.198  1.00  0.00     0.061 C 
BRANCH   2   3
ATOM      3  C   UNL     1      72.840  -8.834 -23.833  1.00  0.00     0.258 C 
BRANCH   3   4
ATOM      4  N   UNL     1      73.965  -8.812 -22.897  1.00  0.00    -0.358 N 
ATOM      5  H   UNL     1      74.166  -9.788 -22.582  1.00  0.00     0.344 HD
ATOM      6  H   UNL     1      74.815  -8.424 -23.367  1.00  0.00     0.344 HD
ATOM      7  H   UNL     1      73.724  -8.229 -22.062  1.00  0.00     0.344 HD
ENDBRANCH   3   4
ENDBRANCH   2   3
ENDBRANCH   1   2
BRANCH   1   8
ATOM      8  C   UNL     1      75.012  -8.659 -26.974  1.00  0.00     0.072 C 
BRANCH   8   9
ATOM      9  C   UNL     1      75.038 -10.137 -27.418  1.00  0.00     0.227 C 
BRANCH   9  10
ATOM     10  N   UNL     1      74.213 -10.327 -28.615  1.00  0.00    -0.350 N 
ATOM     11  H   UNL     1      73.447 -11.009 -28.414  1.00  0.00     0.345 HD
ATOM     12  H   UNL     1      73.790  -9.419 -28.921  1.00  0.00     0.345 HD
ATOM     13  H   UNL     1      74.798 -10.713 -29.393  1.00  0.00     0.345 HD
ENDBRANCH   9  10
BRANCH   9  14
ATOM     14  C   UNL     1      76.448 -10.596 -27.687  1.00  0.00     0.099 C 
ATOM     15  O   UNL     1      76.664 -11.539 -28.492  1.00  0.00    -0.544 OA
ATOM     16  O   UNL     1      77.519  -9.985 -27.045  1.00  0.00    -0.544 OA
ENDBRANCH   9  14
ENDBRANCH   8   9
ENDBRANCH   1   8
TORSDOF 7
ENDMDL
MODEL 4
REMARK VINA RESULT:    -3.276      3.293      4.989
REMARK INTER + INTRA:          -4.586
REMARK INTER:                  -4.496
REMARK INTRA:                  -0.090
REMARK UNBOUND:                -0.161
REMARK SMILES [NH3+]CCCC[C@@H]([NH3+])C(=O)[O-]
REMARK SMILES IDX 4 1 3 2 2 3 1 4 5 8 6 9 7 10 8 14 9 15 10 16
REMARK H PARENT 1 5 1 6 1 7 7 11 7 12 7 13
REMARK Flexibility Score: inf
ROOT
ATOM      1  C   UNL     1      74.223 -10.606 -29.239  1.00  0.00     0.012 C 
ENDROOT
BRANCH   1   2
ATOM      2  C   UNL     1      74.536 -11.973 -29.858  1.00  0.00     0.061 C 
BRANCH   2   3
ATOM      3  C   UNL     1      74.485 -13.084 -28.801  1.00  0.00     0.258 C 
BRANCH   3   4
ATOM      4  N   UNL     1      73.477 -14.087 -29.145  1.00  0.00    -0.358 N 
ATOM      5  H   UNL     1      73.072 -14.479 -28.265  1.00  0.00     0.344 HD
ATOM      6  H   UNL     1      72.711 -13.649 -29.705  1.00  0.00     0.344 HD
ATOM      7  H   UNL     1      73.916 -14.864 -29.691  1.00  0.00     0.344 HD
ENDBRANCH   3   4
ENDBRANCH   2   3
ENDBRANCH   1   2
BRANCH   1   8
ATOM      8  C   UNL     1      74.932 -10.436 -27.887  1.00  0.00     0.072 C 
BRANCH   8   9
ATOM      9  C   UNL     1      74.740  -9.022 -27.299  1.00  0.00     0.227 C 
BRANCH   9  10
ATOM     10  N   UNL     1      73.883  -9.074 -26.110  1.00  0.00    -0.350 N 
ATOM     11  H   UNL     1      74.448  -9.352 -25.276  1.00  0.00     0.345 HD
ATOM     12  H   UNL     1      73.444  -8.141 -25.929  1.00  0.00     0.345 HD
ATOM     13  H   UNL     1      73.129  -9.788 -26.246  1.00  0.00     0.345 HD
ENDBRANCH   9  10
BRANCH   9  14
ATOM     14  C   UNL     1      76.066  -8.396 -26.950  1.00  0.00     0.099 C 
ATOM     15  O   UNL     1      76.684  -8.760 -25.915  1.00  0.00    -0.544 OA
ATOM     16  O   UNL     1      76.613  -7.412 -27.764  1.00  0.00    -0.544 OA
ENDBRANCH   9  14
ENDBRANCH   8   9
ENDBRANCH   1   8
TORSDOF 7
ENDMDL
MODEL 5
REMARK VINA RESULT:    -3.267     10.677     11.214
REMARK INTER + INTRA:          -4.574
REMARK INTER:                  -4.500
REMARK INTRA:                  -0.074
REMARK UNBOUND:                -0.161
REMARK SMILES [NH3+]CCCC[C@@H]([NH3+])C(=O)[O-]
REMARK SMILES IDX 4 1 3 2 2 3 1 4 5 8 6 9 7 10 8 14 9 15 10 16
REMARK H PARENT 1 5 1 6 1 7 7 11 7 12 7 13
REMARK Flexibility Score: inf
ROOT
ATOM      1  C   UNL     1      77.664 -19.720 -22.349  1.00  0.00     0.012 C 
ENDROOT
BRANCH   1   2
ATOM      2  C   UNL     1      76.850 -19.858 -21.057  1.00  0.00     0.061 C 
BRANCH   2   3
ATOM      3  C   UNL     1      77.315 -21.068 -20.237  1.00  0.00     0.258 C 
BRANCH   3   4
ATOM      4  N   UNL     1      76.246 -22.060 -20.115  1.00  0.00    -0.358 N 
ATOM      5  H   UNL     1      76.494 -22.737 -19.360  1.00  0.00     0.344 HD
ATOM      6  H   UNL     1      75.346 -21.588 -19.868  1.00  0.00     0.344 HD
ATOM      7  H   UNL     1      76.137 -22.581 -21.016  1.00  0.00     0.344 HD
ENDBRANCH   3   4
ENDBRANCH   2   3
ENDBRANCH   1   2
BRANCH   1   8
ATOM      8  C   UNL     1      76.812 -19.119 -23.477  1.00  0.00     0.072 C 
BRANCH   8   9
ATOM      9  C   UNL     1      77.583 -19.032 -24.811  1.00  0.00     0.227 C 
BRANCH   9  10
ATOM     10  N   UNL     1      77.253 -20.175 -25.669  1.00  0.00    -0.350 N 
ATOM     11  H   UNL     1      78.084 -20.802 -25.763  1.00  0.00     0.345 HD
ATOM     12  H   UNL     1      76.457 -20.722 -25.267  1.00  0.00     0.345 HD
ATOM     13  H   UNL     1      76.990 -19.838 -26.625  1.00  0.00     0.345 HD
ENDBRANCH   9  10
BRANCH   9  14
ATOM     14  C   UNL     1      77.278 -17.744 -25.530  1.00  0.00     0.099 C 
ATOM     15  O   UNL     1      77.700 -17.558 -26.701  1.00  0.00    -0.544 OA
ATOM     16  O   UNL     1      76.533 -16.751 -24.904  1.00  0.00    -0.544 OA
ENDBRANCH   9  14
ENDBRANCH   8   9
ENDBRANCH   1   8
TORSDOF 7
ENDMDL
MODEL 6
REMARK VINA RESULT:    -3.250      3.112      4.878
REMARK INTER + INTRA:          -4.551
REMARK INTER:                  -4.461
REMARK INTRA:                  -0.090
REMARK UNBOUND:                -0.161
REMARK SMILES [NH3+]CCCC[C@@H]([NH3+])C(=O)[O-]
REMARK SMILES IDX 4 1 3 2 2 3 1 4 5 8 6 9 7 10 8 14 9 15 10 16
REMARK H PARENT 1 5 1 6 1 7 7 11 7 12 7 13
REMARK Flexibility Score: inf
ROOT
ATOM      1  C   UNL     1      74.894 -10.551 -27.954  1.00  0.00     0.012 C 
ENDROOT
BRANCH   1   2
ATOM      2  C   UNL     1      74.189 -10.632 -29.313  1.00  0.00     0.061 C 
BRANCH   2   3
ATOM      3  C   UNL     1      74.426 -11.994 -29.978  1.00  0.00     0.258 C 
BRANCH   3   4
ATOM      4  N   UNL     1      73.993 -13.085 -29.104  1.00  0.00    -0.358 N 
ATOM      5  H   UNL     1      72.981 -12.957 -28.876  1.00  0.00     0.344 HD
ATOM      6  H   UNL     1      74.119 -14.003 -29.588  1.00  0.00     0.344 HD
ATOM      7  H   UNL     1      74.545 -13.073 -28.216  1.00  0.00     0.344 HD
ENDBRANCH   3   4
ENDBRANCH   2   3
ENDBRANCH   1   2
BRANCH   1   8
ATOM      8  C   UNL     1      74.837  -9.124 -27.386  1.00  0.00     0.072 C 
BRANCH   8   9
ATOM      9  C   UNL     1      75.237  -9.071 -25.896  1.00  0.00     0.227 C 
BRANCH   9  10
ATOM     10  N   UNL     1      76.469  -8.293 -25.724  1.00  0.00    -0.350 N 
ATOM     11  H   UNL     1      77.171  -8.852 -25.188  1.00  0.00     0.345 HD
ATOM     12  H   UNL     1      76.875  -8.034 -26.653  1.00  0.00     0.345 HD
ATOM     13  H   UNL     1      76.265  -7.420 -25.183  1.00  0.00     0.345 HD
ENDBRANCH   9  10
BRANCH   9  14
ATOM     14  C   UNL     1      74.132  -8.477 -25.060  1.00  0.00     0.099 C 
ATOM     15  O   UNL     1      73.117  -7.980 -25.614  1.00  0.00    -0.544 OA
ATOM     16  O   UNL     1      74.229  -8.470 -23.674  1.00  0.00    -0.544 OA
ENDBRANCH   9  14
ENDBRANCH   8   9
ENDBRANCH   1   8
TORSDOF 7
ENDMDL
MODEL 7
REMARK VINA RESULT:    -3.190      4.905      5.866
REMARK INTER + INTRA:          -4.470
REMARK INTER:                  -4.377
REMARK INTRA:                  -0.093
REMARK UNBOUND:                -0.161
REMARK SMILES [NH3+]CCCC[C@@H]([NH3+])C(=O)[O-]
REMARK SMILES IDX 4 1 3 2 2 3 1 4 5 8 6 9 7 10 8 14 9 15 10 16
REMARK H PARENT 1 5 1 6 1 7 7 11 7 12 7 13
REMARK Flexibility Score: inf
ROOT
ATOM      1  C   UNL     1      75.986 -14.058 -27.074  1.00  0.00     0.012 C 
ENDROOT
BRANCH   1   2
ATOM      2  C   UNL     1      77.228 -14.446 -26.263  1.00  0.00     0.061 C 
BRANCH   2   3
ATOM      3  C   UNL     1      77.113 -15.880 -25.727  1.00  0.00     0.258 C 
BRANCH   3   4
ATOM      4  N   UNL     1      75.973 -16.009 -24.820  1.00  0.00    -0.358 N 
ATOM      5  H   UNL     1      76.211 -16.695 -24.068  1.00  0.00     0.344 HD
ATOM      6  H   UNL     1      75.758 -15.085 -24.380  1.00  0.00     0.344 HD
ATOM      7  H   UNL     1      75.136 -16.356 -25.343  1.00  0.00     0.344 HD
ENDBRANCH   3   4
ENDBRANCH   2   3
ENDBRANCH   1   2
BRANCH   1   8
ATOM      8  C   UNL     1      76.178 -12.697 -27.760  1.00  0.00     0.072 C 
BRANCH   8   9
ATOM      9  C   UNL     1      75.130 -12.446 -28.865  1.00  0.00     0.227 C 
BRANCH   9  10
ATOM     10  N   UNL     1      74.045 -13.429 -28.776  1.00  0.00    -0.350 N 
ATOM     11  H   UNL     1      73.122 -12.940 -28.754  1.00  0.00     0.345 HD
ATOM     12  H   UNL     1      74.067 -14.079 -29.596  1.00  0.00     0.345 HD
ATOM     13  H   UNL     1      74.141 -13.985 -27.894  1.00  0.00     0.345 HD
ENDBRANCH   9  10
BRANCH   9  14
ATOM     14  C   UNL     1      74.568 -11.050 -28.771  1.00  0.00     0.099 C 
ATOM     15  O   UNL     1      73.895 -10.574 -29.722  1.00  0.00    -0.544 OA
ATOM     16  O   UNL     1      74.793 -10.279 -27.637  1.00  0.00    -0.544 OA
ENDBRANCH   9  14
ENDBRANCH   8   9
ENDBRANCH   1   8
TORSDOF 7
ENDMDL
MODEL 8
REMARK VINA RESULT:    -3.133      6.920      8.058
REMARK INTER + INTRA:          -4.393
REMARK INTER:                  -4.252
REMARK INTRA:                  -0.140
REMARK UNBOUND:                -0.161
REMARK SMILES [NH3+]CCCC[C@@H]([NH3+])C(=O)[O-]
REMARK SMILES IDX 4 1 3 2 2 3 1 4 5 8 6 9 7 10 8 14 9 15 10 16
REMARK H PARENT 1 5 1 6 1 7 7 11 7 12 7 13
REMARK Flexibility Score: inf
ROOT
ATOM      1  C   UNL     1      76.209 -14.168 -26.882  1.00  0.00     0.012 C 
ENDROOT
BRANCH   1   2
ATOM      2  C   UNL     1      75.956 -14.110 -28.392  1.00  0.00     0.061 C 
BRANCH   2   3
ATOM      3  C   UNL     1      74.725 -13.252 -28.714  1.00  0.00     0.258 C 
BRANCH   3   4
ATOM      4  N   UNL     1      73.546 -14.090 -28.936  1.00  0.00    -0.358 N 
ATOM      5  H   UNL     1      72.691 -13.491 -28.904  1.00  0.00     0.344 HD
ATOM      6  H   UNL     1      73.604 -14.550 -29.873  1.00  0.00     0.344 HD
ATOM      7  H   UNL     1      73.478 -14.818 -28.187  1.00  0.00     0.344 HD
ENDBRANCH   3   4
ENDBRANCH   2   3
ENDBRANCH   1   2
BRANCH   1   8
ATOM      8  C   UNL     1      77.512 -14.918 -26.568  1.00  0.00     0.072 C 
BRANCH   8   9
ATOM      9  C   UNL     1      77.320 -15.998 -25.482  1.00  0.00     0.227 C 
BRANCH   9  10
ATOM     10  N   UNL     1      75.977 -15.905 -24.899  1.00  0.00    -0.350 N 
ATOM     11  H   UNL     1      76.008 -15.335 -24.023  1.00  0.00     0.345 HD
ATOM     12  H   UNL     1      75.312 -15.460 -25.573  1.00  0.00     0.345 HD
ATOM     13  H   UNL     1      75.629 -16.862 -24.654  1.00  0.00     0.345 HD
ENDBRANCH   9  10
BRANCH   9  14
ATOM     14  C   UNL     1      77.542 -17.378 -26.045  1.00  0.00     0.099 C 
ATOM     15  O   UNL     1      77.789 -17.528 -27.270  1.00  0.00    -0.544 OA
ATOM     16  O   UNL     1      77.472 -18.493 -25.218  1.00  0.00    -0.544 OA
ENDBRANCH   9  14
ENDBRANCH   8   9
ENDBRANCH   1   8
TORSDOF 7
ENDMDL
MODEL 9
REMARK VINA RESULT:    -3.112     11.334     12.358
REMARK INTER + INTRA:          -4.365
REMARK INTER:                  -4.268
REMARK INTRA:                  -0.097
REMARK UNBOUND:                -0.161
REMARK SMILES [NH3+]CCCC[C@@H]([NH3+])C(=O)[O-]
REMARK SMILES IDX 4 1 3 2 2 3 1 4 5 8 6 9 7 10 8 14 9 15 10 16
REMARK H PARENT 1 5 1 6 1 7 7 11 7 12 7 13
REMARK Flexibility Score: inf
ROOT
ATOM      1  C   UNL     1      76.844 -19.071 -23.647  1.00  0.00     0.012 C 
ENDROOT
BRANCH   1   2
ATOM      2  C   UNL     1      77.465 -18.867 -25.034  1.00  0.00     0.061 C 
BRANCH   2   3
ATOM      3  C   UNL     1      77.383 -17.397 -25.466  1.00  0.00     0.258 C 
BRANCH   3   4
ATOM      4  N   UNL     1      76.245 -16.729 -24.834  1.00  0.00    -0.358 N 
ATOM      5  H   UNL     1      75.996 -15.880 -25.390  1.00  0.00     0.344 HD
ATOM      6  H   UNL     1      75.421 -17.372 -24.808  1.00  0.00     0.344 HD
ATOM      7  H   UNL     1      76.497 -16.436 -23.861  1.00  0.00     0.344 HD
ENDBRANCH   3   4
ENDBRANCH   2   3
ENDBRANCH   1   2
BRANCH   1   8
ATOM      8  C   UNL     1      77.795 -19.850 -22.725  1.00  0.00     0.072 C 
BRANCH   8   9
ATOM      9  C   UNL     1      77.348 -19.803 -21.248  1.00  0.00     0.227 C 
BRANCH   9  10
ATOM     10  N   UNL     1      75.887 -19.717 -21.158  1.00  0.00    -0.350 N 
ATOM     11  H   UNL     1      75.602 -18.737 -20.933  1.00  0.00     0.345 HD
ATOM     12  H   UNL     1      75.443 -20.003 -22.061  1.00  0.00     0.345 HD
ATOM     13  H   UNL     1      75.541 -20.341 -20.391  1.00  0.00     0.345 HD
ENDBRANCH   9  10
BRANCH   9  14
ATOM     14  C   UNL     1      77.840 -21.013 -20.496  1.00  0.00     0.099 C 
ATOM     15  O   UNL     1      78.125 -22.071 -21.116  1.00  0.00    -0.544 OA
ATOM     16  O   UNL     1      77.978 -20.970 -19.113  1.00  0.00    -0.544 OA
ENDBRANCH   9  14
ENDBRANCH   8   9
ENDBRANCH   1   8
TORSDOF 7
ENDMDL
