MODEL 1
REMARK VINA RESULT:    -4.224      0.000      0.000
REMARK INTER + INTRA:          -4.224
REMARK INTER:                  -4.224
REMARK INTRA:                   0.000
REMARK UNBOUND:                 0.000
REMARK SMILES CC(C)=C1CC[C@H](C)CC1=O
REMARK SMILES IDX 8 1 7 2 6 3 5 4 4 5 2 6 1 7 3 8 10 9 11 10 9 11
REMARK H PARENT
REMARK Flexibility Score: inf
ROOT
ATOM      1  C   UNL     1      27.843  28.057  25.213  1.00  0.00     0.008 C 
ATOM      2  C   UNL     1      28.510  29.304  24.622  1.00  0.00    -0.006 C 
ATOM      3  C   UNL     1      28.357  29.326  23.093  1.00  0.00     0.008 C 
ATOM      4  C   UNL     1      29.106  30.514  22.474  1.00  0.00     0.039 C 
ATOM      5  C   UNL     1      28.731  31.841  23.117  1.00  0.00    -0.006 C 
ATOM      6  C   UNL     1      28.729  33.003  22.400  1.00  0.00    -0.070 C 
ATOM      7  C   UNL     1      28.303  34.317  23.014  1.00  0.00     0.039 C 
ATOM      8  C   UNL     1      29.120  33.023  20.940  1.00  0.00     0.039 C 
ATOM      9  C   UNL     1      28.481  31.808  24.590  1.00  0.00     0.159 C 
ATOM     10  O   UNL     1      28.752  32.797  25.322  1.00  0.00    -0.295 OA
ATOM     11  C   UNL     1      27.902  30.578  25.228  1.00  0.00     0.084 C 
ENDROOT
TORSDOF 0
ENDMDL
MODEL 2
REMARK VINA RESULT:    -3.946      7.785     10.063
REMARK INTER + INTRA:          -3.946
REMARK INTER:                  -3.946
REMARK INTRA:                   0.000
REMARK UNBOUND:                 0.000
REMARK SMILES CC(C)=C1CC[C@H](C)CC1=O
REMARK SMILES IDX 8 1 7 2 6 3 5 4 4 5 2 6 1 7 3 8 10 9 11 10 9 11
REMARK H PARENT
REMARK Flexibility Score: inf
ROOT
ATOM      1  C   UNL     1      25.733  36.857  20.010  1.00  0.00     0.008 C 
ATOM      2  C   UNL     1      26.520  38.172  20.032  1.00  0.00    -0.006 C 
ATOM      3  C   UNL     1      26.942  38.574  18.609  1.00  0.00     0.008 C 
ATOM      4  C   UNL     1      27.817  39.834  18.622  1.00  0.00     0.039 C 
ATOM      5  C   UNL     1      27.176  40.983  19.387  1.00  0.00    -0.006 C 
ATOM      6  C   UNL     1      27.392  42.283  19.029  1.00  0.00    -0.070 C 
ATOM      7  C   UNL     1      26.716  43.429  19.746  1.00  0.00     0.039 C 
ATOM      8  C   UNL     1      28.293  42.636  17.868  1.00  0.00     0.039 C 
ATOM      9  C   UNL     1      26.401  40.606  20.608  1.00  0.00     0.159 C 
ATOM     10  O   UNL     1      26.342  41.371  21.608  1.00  0.00    -0.295 OA
ATOM     11  C   UNL     1      25.680  39.291  20.665  1.00  0.00     0.084 C 
ENDROOT
TORSDOF 0
ENDMDL
MODEL 3
REMARK VINA RESULT:    -3.722      7.008      9.877
REMARK INTER + INTRA:          -3.722
REMARK INTER:                  -3.722
REMARK INTRA:                   0.000
REMARK UNBOUND:                 0.000
REMARK SMILES CC(C)=C1CC[C@H](C)CC1=O
REMARK SMILES IDX 8 1 7 2 6 3 5 4 4 5 2 6 1 7 3 8 10 9 11 10 9 11
REMARK H PARENT
REMARK Flexibility Score: inf
ROOT
ATOM      1  C   UNL     1      28.041  42.671  18.895  1.00  0.00     0.008 C 
ATOM      2  C   UNL     1      27.264  41.355  19.012  1.00  0.00    -0.006 C 
ATOM      3  C   UNL     1      28.101  40.182  18.478  1.00  0.00     0.008 C 
ATOM      4  C   UNL     1      27.302  38.872  18.494  1.00  0.00     0.039 C 
ATOM      5  C   UNL     1      26.689  38.579  19.855  1.00  0.00    -0.006 C 
ATOM      6  C   UNL     1      26.516  37.297  20.295  1.00  0.00    -0.070 C 
ATOM      7  C   UNL     1      25.961  36.995  21.668  1.00  0.00     0.039 C 
ATOM      8  C   UNL     1      26.909  36.116  19.439  1.00  0.00     0.039 C 
ATOM      9  C   UNL     1      26.188  39.762  20.618  1.00  0.00     0.159 C 
ATOM     10  O   UNL     1      25.193  39.673  21.386  1.00  0.00    -0.295 OA
ATOM     11  C   UNL     1      26.868  41.093  20.474  1.00  0.00     0.084 C 
ENDROOT
TORSDOF 0
ENDMDL
MODEL 4
REMARK VINA RESULT:    -3.604      2.784      4.550
REMARK INTER + INTRA:          -3.604
REMARK INTER:                  -3.604
REMARK INTRA:                   0.000
REMARK UNBOUND:                 0.000
REMARK SMILES CC(C)=C1CC[C@H](C)CC1=O
REMARK SMILES IDX 8 1 7 2 6 3 5 4 4 5 2 6 1 7 3 8 10 9 11 10 9 11
REMARK H PARENT
REMARK Flexibility Score: inf
ROOT
ATOM      1  C   UNL     1      28.651  32.349  24.684  1.00  0.00     0.008 C 
ATOM      2  C   UNL     1      28.101  33.184  23.522  1.00  0.00    -0.006 C 
ATOM      3  C   UNL     1      27.901  34.645  23.953  1.00  0.00     0.008 C 
ATOM      4  C   UNL     1      27.256  35.474  22.834  1.00  0.00     0.039 C 
ATOM      5  C   UNL     1      28.002  35.352  21.513  1.00  0.00    -0.006 C 
ATOM      6  C   UNL     1      28.047  36.389  20.625  1.00  0.00    -0.070 C 
ATOM      7  C   UNL     1      28.832  36.299  19.336  1.00  0.00     0.039 C 
ATOM      8  C   UNL     1      27.342  37.695  20.909  1.00  0.00     0.039 C 
ATOM      9  C   UNL     1      28.573  34.006  21.204  1.00  0.00     0.159 C 
ATOM     10  O   UNL     1      28.660  33.589  20.018  1.00  0.00    -0.295 OA
ATOM     11  C   UNL     1      29.051  33.119  22.316  1.00  0.00     0.084 C 
ENDROOT
TORSDOF 0
ENDMDL
MODEL 5
REMARK VINA RESULT:    -3.601      3.272      6.089
REMARK INTER + INTRA:          -3.601
REMARK INTER:                  -3.601
REMARK INTRA:                   0.000
REMARK UNBOUND:                 0.000
REMARK SMILES CC(C)=C1CC[C@H](C)CC1=O
REMARK SMILES IDX 8 1 7 2 6 3 5 4 4 5 2 6 1 7 3 8 10 9 11 10 9 11
REMARK H PARENT
REMARK Flexibility Score: inf
ROOT
ATOM      1  C   UNL     1      28.886  31.063  25.511  1.00  0.00     0.008 C 
ATOM      2  C   UNL     1      28.138  29.729  25.413  1.00  0.00    -0.006 C 
ATOM      3  C   UNL     1      29.124  28.569  25.208  1.00  0.00     0.008 C 
ATOM      4  C   UNL     1      28.388  27.238  25.005  1.00  0.00     0.039 C 
ATOM      5  C   UNL     1      27.377  26.957  26.107  1.00  0.00    -0.006 C 
ATOM      6  C   UNL     1      27.098  25.680  26.506  1.00  0.00    -0.070 C 
ATOM      7  C   UNL     1      26.139  25.392  27.637  1.00  0.00     0.039 C 
ATOM      8  C   UNL     1      27.768  24.492  25.854  1.00  0.00     0.039 C 
ATOM      9  C   UNL     1      26.636  28.141  26.636  1.00  0.00     0.159 C 
ATOM     10  O   UNL     1      25.449  28.040  27.048  1.00  0.00    -0.295 OA
ATOM     11  C   UNL     1      27.300  29.487  26.678  1.00  0.00     0.084 C 
ENDROOT
TORSDOF 0
ENDMDL
MODEL 6
REMARK VINA RESULT:    -3.580      7.770     10.235
REMARK INTER + INTRA:          -3.580
REMARK INTER:                  -3.580
REMARK INTRA:                   0.000
REMARK UNBOUND:                 0.000
REMARK SMILES CC(C)=C1CC[C@H](C)CC1=O
REMARK SMILES IDX 8 1 7 2 6 3 5 4 4 5 2 6 1 7 3 8 10 9 11 10 9 11
REMARK H PARENT
REMARK Flexibility Score: inf
ROOT
ATOM      1  C   UNL     1      27.674  36.746  20.458  1.00  0.00     0.008 C 
ATOM      2  C   UNL     1      27.441  38.010  19.623  1.00  0.00    -0.006 C 
ATOM      3  C   UNL     1      26.895  39.146  20.501  1.00  0.00     0.008 C 
ATOM      4  C   UNL     1      26.559  40.388  19.663  1.00  0.00     0.039 C 
ATOM      5  C   UNL     1      27.722  40.833  18.789  1.00  0.00    -0.006 C 
ATOM      6  C   UNL     1      27.918  42.151  18.485  1.00  0.00    -0.070 C 
ATOM      7  C   UNL     1      29.101  42.610  17.665  1.00  0.00     0.039 C 
ATOM      8  C   UNL     1      26.976  43.219  18.990  1.00  0.00     0.039 C 
ATOM      9  C   UNL     1      28.553  39.742  18.197  1.00  0.00     0.159 C 
ATOM     10  O   UNL     1      29.101  39.875  17.069  1.00  0.00    -0.295 OA
ATOM     11  C   UNL     1      28.745  38.454  18.943  1.00  0.00     0.084 C 
ENDROOT
TORSDOF 0
ENDMDL
MODEL 7
REMARK VINA RESULT:    -3.566      7.356      9.592
REMARK INTER + INTRA:          -3.566
REMARK INTER:                  -3.566
REMARK INTRA:                   0.000
REMARK UNBOUND:                 0.000
REMARK SMILES CC(C)=C1CC[C@H](C)CC1=O
REMARK SMILES IDX 8 1 7 2 6 3 5 4 4 5 2 6 1 7 3 8 10 9 11 10 9 11
REMARK H PARENT
REMARK Flexibility Score: inf
ROOT
ATOM      1  C   UNL     1      26.852  36.018  19.373  1.00  0.00     0.008 C 
ATOM      2  C   UNL     1      26.550  37.520  19.414  1.00  0.00    -0.006 C 
ATOM      3  C   UNL     1      26.089  37.942  20.818  1.00  0.00     0.008 C 
ATOM      4  C   UNL     1      25.685  39.422  20.852  1.00  0.00     0.039 C 
ATOM      5  C   UNL     1      26.766  40.336  20.294  1.00  0.00    -0.006 C 
ATOM      6  C   UNL     1      26.940  41.604  20.770  1.00  0.00    -0.070 C 
ATOM      7  C   UNL     1      28.046  42.500  20.262  1.00  0.00     0.039 C 
ATOM      8  C   UNL     1      26.052  42.161  21.858  1.00  0.00     0.039 C 
ATOM      9  C   UNL     1      27.537  39.804  19.129  1.00  0.00     0.159 C 
ATOM     10  O   UNL     1      27.982  40.572  18.234  1.00  0.00    -0.295 OA
ATOM     11  C   UNL     1      27.790  38.330  19.004  1.00  0.00     0.084 C 
ENDROOT
TORSDOF 0
ENDMDL
MODEL 8
REMARK VINA RESULT:    -2.459      6.614      8.271
REMARK INTER + INTRA:          -2.459
REMARK INTER:                  -2.459
REMARK INTRA:                   0.000
REMARK UNBOUND:                 0.000
REMARK SMILES CC(C)=C1CC[C@H](C)CC1=O
REMARK SMILES IDX 8 1 7 2 6 3 5 4 4 5 2 6 1 7 3 8 10 9 11 10 9 11
REMARK H PARENT
REMARK Flexibility Score: inf
ROOT
ATOM      1  C   UNL     1      23.125  38.874  22.000  1.00  0.00     0.008 C 
ATOM      2  C   UNL     1      24.185  38.517  20.953  1.00  0.00    -0.006 C 
ATOM      3  C   UNL     1      25.557  39.079  21.357  1.00  0.00     0.008 C 
ATOM      4  C   UNL     1      26.609  38.818  20.271  1.00  0.00     0.039 C 
ATOM      5  C   UNL     1      26.675  37.355  19.861  1.00  0.00    -0.006 C 
ATOM      6  C   UNL     1      27.848  36.783  19.455  1.00  0.00    -0.070 C 
ATOM      7  C   UNL     1      27.938  35.317  19.100  1.00  0.00     0.039 C 
ATOM      8  C   UNL     1      29.125  37.587  19.377  1.00  0.00     0.039 C 
ATOM      9  C   UNL     1      25.372  36.625  19.821  1.00  0.00     0.159 C 
ATOM     10  O   UNL     1      25.166  35.699  18.991  1.00  0.00    -0.295 OA
ATOM     11  C   UNL     1      24.274  36.993  20.775  1.00  0.00     0.084 C 
ENDROOT
TORSDOF 0
ENDMDL
