MODEL 1
REMARK VINA RESULT:     0.000      0.000      0.000
REMARK INTER + INTRA:           0.000
REMARK INTER:                   0.000
REMARK INTRA:                   0.000
REMARK UNBOUND:                 0.000
REMARK SMILES C=C1CCC[C@@]2(C)C=C3OC(=O)C(C)=C3C[C@H]12
REMARK SMILES IDX 14 1 13 2 15 3 16 4 17 5 2 6 1 7 3 8 4 9 5 10 6 11 8 12 9 13
REMARK SMILES IDX 10 14 11 15 12 16 7 17
REMARK H PARENT
REMARK Flexibility Score: inf
ROOT
ATOM      1  C   UNL     1     123.266 127.419 133.462  1.00  0.00     0.053 C 
ATOM      2  C   UNL     1     123.140 128.515 132.451  1.00  0.00     0.041 C 
ATOM      3  C   UNL     1     123.811 128.617 131.309  1.00  0.00     0.005 C 
ATOM      4  C   UNL     1     124.896 127.738 130.761  1.00  0.00     0.049 C 
ATOM      5  C   UNL     1     124.984 127.956 129.224  1.00  0.00     0.029 C 
ATOM      6  C   UNL     1     126.094 127.201 128.503  1.00  0.00    -0.073 C 
ATOM      7  C   UNL     1     126.968 126.386 129.121  1.00  0.00     0.008 C 
ATOM      8  C   UNL     1     126.126 127.347 126.999  1.00  0.00     0.031 C 
ATOM      9  C   UNL     1     126.103 128.826 126.590  1.00  0.00     0.005 C 
ATOM     10  C   UNL     1     124.974 129.607 127.289  1.00  0.00     0.012 C 
ATOM     11  C   UNL     1     125.023 129.481 128.837  1.00  0.00    -0.004 C 
ATOM     12  C   UNL     1     123.816 130.197 129.431  1.00  0.00     0.027 C 
ATOM     13  C   UNL     1     123.325 129.794 130.603  1.00  0.00     0.131 C 
ATOM     14  O   UNL     1     122.301 130.395 131.320  1.00  0.00    -0.423 OA
ATOM     15  C   UNL     1     122.171 129.614 132.463  1.00  0.00     0.339 C 
ATOM     16  O   UNL     1     121.327 129.837 133.370  1.00  0.00    -0.246 OA
ATOM     17  C   UNL     1     126.294 130.174 129.389  1.00  0.00     0.016 C 
ENDROOT
TORSDOF 0
ENDMDL
MODEL 2
REMARK VINA RESULT:     0.000      2.191      2.508
REMARK INTER + INTRA:           0.000
REMARK INTER:                   0.000
REMARK INTRA:                   0.000
REMARK UNBOUND:                 0.000
REMARK SMILES C=C1CCC[C@@]2(C)C=C3OC(=O)C(C)=C3C[C@H]12
REMARK SMILES IDX 14 1 13 2 15 3 16 4 17 5 2 6 1 7 3 8 4 9 5 10 6 11 8 12 9 13
REMARK SMILES IDX 10 14 11 15 12 16 7 17
REMARK H PARENT
REMARK Flexibility Score: inf
ROOT
ATOM      1  C   UNL     1     124.872 128.669 134.208  1.00  0.00     0.053 C 
ATOM      2  C   UNL     1     124.232 129.790 133.452  1.00  0.00     0.041 C 
ATOM      3  C   UNL     1     124.618 130.271 132.274  1.00  0.00     0.005 C 
ATOM      4  C   UNL     1     125.801 129.892 131.434  1.00  0.00     0.049 C 
ATOM      5  C   UNL     1     125.535 130.341 129.969  1.00  0.00     0.029 C 
ATOM      6  C   UNL     1     126.672 130.110 128.981  1.00  0.00    -0.073 C 
ATOM      7  C   UNL     1     127.852 129.557 129.314  1.00  0.00     0.008 C 
ATOM      8  C   UNL     1     126.381 130.468 127.542  1.00  0.00     0.031 C 
ATOM      9  C   UNL     1     125.829 131.896 127.432  1.00  0.00     0.005 C 
ATOM     10  C   UNL     1     124.663 132.148 128.406  1.00  0.00     0.012 C 
ATOM     11  C   UNL     1     125.031 131.829 129.881  1.00  0.00    -0.004 C 
ATOM     12  C   UNL     1     123.793 132.008 130.751  1.00  0.00     0.027 C 
ATOM     13  C   UNL     1     123.673 131.303 131.876  1.00  0.00     0.131 C 
ATOM     14  O   UNL     1     122.663 131.420 132.820  1.00  0.00    -0.423 OA
ATOM     15  C   UNL     1     122.991 130.488 133.798  1.00  0.00     0.339 C 
ATOM     16  O   UNL     1     122.300 130.285 134.831  1.00  0.00    -0.246 OA
ATOM     17  C   UNL     1     126.105 132.823 130.390  1.00  0.00     0.016 C 
ENDROOT
TORSDOF 0
ENDMDL
MODEL 3
REMARK VINA RESULT:     0.000      4.264      5.223
REMARK INTER + INTRA:           0.000
REMARK INTER:                   0.000
REMARK INTRA:                   0.000
REMARK UNBOUND:                 0.000
REMARK SMILES C=C1CCC[C@@]2(C)C=C3OC(=O)C(C)=C3C[C@H]12
REMARK SMILES IDX 14 1 13 2 15 3 16 4 17 5 2 6 1 7 3 8 4 9 5 10 6 11 8 12 9 13
REMARK SMILES IDX 10 14 11 15 12 16 7 17
REMARK H PARENT
REMARK Flexibility Score: inf
ROOT
ATOM      1  C   UNL     1     125.680 131.059 132.925  1.00  0.00     0.053 C 
ATOM      2  C   UNL     1     125.126 132.370 132.465  1.00  0.00     0.041 C 
ATOM      3  C   UNL     1     125.403 132.989 131.323  1.00  0.00     0.005 C 
ATOM      4  C   UNL     1     126.369 132.602 130.242  1.00  0.00     0.049 C 
ATOM      5  C   UNL     1     125.962 133.329 128.929  1.00  0.00     0.029 C 
ATOM      6  C   UNL     1     126.884 133.118 127.734  1.00  0.00    -0.073 C 
ATOM      7  C   UNL     1     127.995 132.359 127.770  1.00  0.00     0.008 C 
ATOM      8  C   UNL     1     126.443 133.755 126.436  1.00  0.00     0.031 C 
ATOM      9  C   UNL     1     126.122 135.243 126.636  1.00  0.00     0.005 C 
ATOM     10  C   UNL     1     125.172 135.480 127.825  1.00  0.00     0.012 C 
ATOM     11  C   UNL     1     125.701 134.864 129.150  1.00  0.00    -0.004 C 
ATOM     12  C   UNL     1     124.653 135.059 130.240  1.00  0.00     0.027 C 
ATOM     13  C   UNL     1     124.590 134.194 131.252  1.00  0.00     0.131 C 
ATOM     14  O   UNL     1     123.767 134.283 132.364  1.00  0.00    -0.423 OA
ATOM     15  C   UNL     1     124.081 133.161 133.122  1.00  0.00     0.339 C 
ATOM     16  O   UNL     1     123.530 132.880 134.219  1.00  0.00    -0.246 OA
ATOM     17  C   UNL     1     126.987 135.599 129.605  1.00  0.00     0.016 C 
ENDROOT
TORSDOF 0
ENDMDL
MODEL 4
REMARK VINA RESULT:     0.000      4.009      4.811
REMARK INTER + INTRA:           0.000
REMARK INTER:                   0.000
REMARK INTRA:                   0.000
REMARK UNBOUND:                 0.000
REMARK SMILES C=C1CCC[C@@]2(C)C=C3OC(=O)C(C)=C3C[C@H]12
REMARK SMILES IDX 14 1 13 2 15 3 16 4 17 5 2 6 1 7 3 8 4 9 5 10 6 11 8 12 9 13
REMARK SMILES IDX 10 14 11 15 12 16 7 17
REMARK H PARENT
REMARK Flexibility Score: inf
ROOT
ATOM      1  C   UNL     1     124.498 130.701 133.820  1.00  0.00     0.053 C 
ATOM      2  C   UNL     1     124.648 132.074 133.244  1.00  0.00     0.041 C 
ATOM      3  C   UNL     1     125.526 132.452 132.319  1.00  0.00     0.005 C 
ATOM      4  C   UNL     1     126.621 131.660 131.668  1.00  0.00     0.049 C 
ATOM      5  C   UNL     1     127.009 132.355 130.332  1.00  0.00     0.029 C 
ATOM      6  C   UNL     1     128.170 131.732 129.567  1.00  0.00    -0.073 C 
ATOM      7  C   UNL     1     128.848 130.648 129.986  1.00  0.00     0.008 C 
ATOM      8  C   UNL     1     128.492 132.356 128.228  1.00  0.00     0.031 C 
ATOM      9  C   UNL     1     128.662 133.876 128.358  1.00  0.00     0.005 C 
ATOM     10  C   UNL     1     127.489 134.533 129.109  1.00  0.00     0.012 C 
ATOM     11  C   UNL     1     127.240 133.901 130.507  1.00  0.00    -0.004 C 
ATOM     12  C   UNL     1     126.004 134.542 131.127  1.00  0.00     0.027 C 
ATOM     13  C   UNL     1     125.273 133.849 132.001  1.00  0.00     0.131 C 
ATOM     14  O   UNL     1     124.185 134.317 132.722  1.00  0.00    -0.423 OA
ATOM     15  C   UNL     1     123.783 133.231 133.491  1.00  0.00     0.339 C 
ATOM     16  O   UNL     1     122.806 133.258 134.284  1.00  0.00    -0.246 OA
ATOM     17  C   UNL     1     128.437 134.195 131.446  1.00  0.00     0.016 C 
ENDROOT
TORSDOF 0
ENDMDL
MODEL 5
REMARK VINA RESULT:     0.000      6.987      9.073
REMARK INTER + INTRA:           0.000
REMARK INTER:                   0.000
REMARK INTRA:                   0.000
REMARK UNBOUND:                 0.000
REMARK SMILES C=C1CCC[C@@]2(C)C=C3OC(=O)C(C)=C3C[C@H]12
REMARK SMILES IDX 14 1 13 2 15 3 16 4 17 5 2 6 1 7 3 8 4 9 5 10 6 11 8 12 9 13
REMARK SMILES IDX 10 14 11 15 12 16 7 17
REMARK H PARENT
REMARK Flexibility Score: inf
ROOT
ATOM      1  C   UNL     1     126.176 132.823 124.906  1.00  0.00     0.053 C 
ATOM      2  C   UNL     1     125.527 133.906 125.708  1.00  0.00     0.041 C 
ATOM      3  C   UNL     1     124.348 134.470 125.467  1.00  0.00     0.005 C 
ATOM      4  C   UNL     1     123.399 134.241 124.328  1.00  0.00     0.049 C 
ATOM      5  C   UNL     1     121.983 134.721 124.756  1.00  0.00     0.029 C 
ATOM      6  C   UNL     1     120.899 134.641 123.689  1.00  0.00    -0.073 C 
ATOM      7  C   UNL     1     121.110 134.190 122.438  1.00  0.00     0.008 C 
ATOM      8  C   UNL     1     119.505 135.027 124.129  1.00  0.00     0.031 C 
ATOM      9  C   UNL     1     119.508 136.398 124.818  1.00  0.00     0.005 C 
ATOM     10  C   UNL     1     120.582 136.497 125.918  1.00  0.00     0.012 C 
ATOM     11  C   UNL     1     122.007 136.156 125.400  1.00  0.00    -0.004 C 
ATOM     12  C   UNL     1     122.979 136.180 126.574  1.00  0.00     0.027 C 
ATOM     13  C   UNL     1     124.075 135.422 126.534  1.00  0.00     0.131 C 
ATOM     14  O   UNL     1     125.100 135.402 127.468  1.00  0.00    -0.423 OA
ATOM     15  C   UNL     1     126.004 134.467 126.976  1.00  0.00     0.339 C 
ATOM     16  O   UNL     1     127.077 134.157 127.556  1.00  0.00    -0.246 OA
ATOM     17  C   UNL     1     122.477 137.227 124.385  1.00  0.00     0.016 C 
ENDROOT
TORSDOF 0
ENDMDL
MODEL 6
REMARK VINA RESULT:     0.000      7.939     10.521
REMARK INTER + INTRA:           0.000
REMARK INTER:                   0.000
REMARK INTRA:                   0.000
REMARK UNBOUND:                 0.000
REMARK SMILES C=C1CCC[C@@]2(C)C=C3OC(=O)C(C)=C3C[C@H]12
REMARK SMILES IDX 14 1 13 2 15 3 16 4 17 5 2 6 1 7 3 8 4 9 5 10 6 11 8 12 9 13
REMARK SMILES IDX 10 14 11 15 12 16 7 17
REMARK H PARENT
REMARK Flexibility Score: inf
ROOT
ATOM      1  C   UNL     1     126.543 133.811 122.376  1.00  0.00     0.053 C 
ATOM      2  C   UNL     1     127.552 133.109 123.228  1.00  0.00     0.041 C 
ATOM      3  C   UNL     1     128.742 133.577 123.593  1.00  0.00     0.005 C 
ATOM      4  C   UNL     1     129.417 134.861 123.211  1.00  0.00     0.049 C 
ATOM      5  C   UNL     1     130.512 135.181 124.267  1.00  0.00     0.029 C 
ATOM      6  C   UNL     1     131.362 136.415 123.996  1.00  0.00    -0.073 C 
ATOM      7  C   UNL     1     131.210 137.208 122.920  1.00  0.00     0.008 C 
ATOM      8  C   UNL     1     132.370 136.774 125.065  1.00  0.00     0.031 C 
ATOM      9  C   UNL     1     133.243 135.564 125.424  1.00  0.00     0.005 C 
ATOM     10  C   UNL     1     132.404 134.307 125.725  1.00  0.00     0.012 C 
ATOM     11  C   UNL     1     131.433 133.941 124.568  1.00  0.00    -0.004 C 
ATOM     12  C   UNL     1     130.578 132.754 124.997  1.00  0.00     0.027 C 
ATOM     13  C   UNL     1     129.361 132.600 124.476  1.00  0.00     0.131 C 
ATOM     14  O   UNL     1     128.503 131.530 124.686  1.00  0.00    -0.423 OA
ATOM     15  C   UNL     1     127.378 131.831 123.925  1.00  0.00     0.339 C 
ATOM     16  O   UNL     1     126.359 131.095 123.861  1.00  0.00    -0.246 OA
ATOM     17  C   UNL     1     132.233 133.510 123.314  1.00  0.00     0.016 C 
ENDROOT
TORSDOF 0
ENDMDL
MODEL 7
REMARK VINA RESULT:     0.000      2.951      5.040
REMARK INTER + INTRA:           0.000
REMARK INTER:                   0.000
REMARK INTRA:                   0.000
REMARK UNBOUND:                 0.000
REMARK SMILES C=C1CCC[C@@]2(C)C=C3OC(=O)C(C)=C3C[C@H]12
REMARK SMILES IDX 14 1 13 2 15 3 16 4 17 5 2 6 1 7 3 8 4 9 5 10 6 11 8 12 9 13
REMARK SMILES IDX 10 14 11 15 12 16 7 17
REMARK H PARENT
REMARK Flexibility Score: inf
ROOT
ATOM      1  C   UNL     1     125.637 130.756 126.127  1.00  0.00     0.053 C 
ATOM      2  C   UNL     1     125.413 130.383 127.559  1.00  0.00     0.041 C 
ATOM      3  C   UNL     1     124.524 129.509 128.019  1.00  0.00     0.005 C 
ATOM      4  C   UNL     1     123.482 128.730 127.272  1.00  0.00     0.049 C 
ATOM      5  C   UNL     1     123.066 127.504 128.133  1.00  0.00     0.029 C 
ATOM      6  C   UNL     1     121.950 126.636 127.566  1.00  0.00    -0.073 C 
ATOM      7  C   UNL     1     121.331 126.881 126.396  1.00  0.00     0.008 C 
ATOM      8  C   UNL     1     121.604 125.397 128.361  1.00  0.00     0.031 C 
ATOM      9  C   UNL     1     121.347 125.745 129.834  1.00  0.00     0.005 C 
ATOM     10  C   UNL     1     122.475 126.604 130.437  1.00  0.00     0.012 C 
ATOM     11  C   UNL     1     122.746 127.898 129.622  1.00  0.00    -0.004 C 
ATOM     12  C   UNL     1     123.939 128.626 130.232  1.00  0.00     0.027 C 
ATOM     13  C   UNL     1     124.699 129.402 129.460  1.00  0.00     0.131 C 
ATOM     14  O   UNL     1     125.753 130.202 129.876  1.00  0.00    -0.423 OA
ATOM     15  C   UNL     1     126.209 130.812 128.713  1.00  0.00     0.339 C 
ATOM     16  O   UNL     1     127.176 131.617 128.677  1.00  0.00    -0.246 OA
ATOM     17  C   UNL     1     121.527 128.850 129.708  1.00  0.00     0.016 C 
ENDROOT
TORSDOF 0
ENDMDL
MODEL 8
REMARK VINA RESULT:     0.000      3.717      5.521
REMARK INTER + INTRA:           0.000
REMARK INTER:                   0.000
REMARK INTRA:                   0.000
REMARK UNBOUND:                 0.000
REMARK SMILES C=C1CCC[C@@]2(C)C=C3OC(=O)C(C)=C3C[C@H]12
REMARK SMILES IDX 14 1 13 2 15 3 16 4 17 5 2 6 1 7 3 8 4 9 5 10 6 11 8 12 9 13
REMARK SMILES IDX 10 14 11 15 12 16 7 17
REMARK H PARENT
REMARK Flexibility Score: inf
ROOT
ATOM      1  C   UNL     1     125.863 131.039 126.924  1.00  0.00     0.053 C 
ATOM      2  C   UNL     1     124.842 130.371 127.790  1.00  0.00     0.041 C 
ATOM      3  C   UNL     1     123.683 129.855 127.393  1.00  0.00     0.005 C 
ATOM      4  C   UNL     1     123.058 129.859 126.029  1.00  0.00     0.049 C 
ATOM      5  C   UNL     1     122.003 128.720 125.963  1.00  0.00     0.029 C 
ATOM      6  C   UNL     1     121.202 128.624 124.670  1.00  0.00    -0.073 C 
ATOM      7  C   UNL     1     121.365 129.455 123.624  1.00  0.00     0.008 C 
ATOM      8  C   UNL     1     120.237 127.465 124.572  1.00  0.00     0.031 C 
ATOM      9  C   UNL     1     119.318 127.411 125.801  1.00  0.00     0.005 C 
ATOM     10  C   UNL     1     120.107 127.483 127.123  1.00  0.00     0.012 C 
ATOM     11  C   UNL     1     121.034 128.727 127.203  1.00  0.00    -0.004 C 
ATOM     12  C   UNL     1     121.844 128.659 128.492  1.00  0.00     0.027 C 
ATOM     13  C   UNL     1     123.042 129.242 128.546  1.00  0.00     0.131 C 
ATOM     14  O   UNL     1     123.856 129.354 129.664  1.00  0.00    -0.423 OA
ATOM     15  C   UNL     1     124.975 130.044 129.213  1.00  0.00     0.339 C 
ATOM     16  O   UNL     1     125.959 130.336 129.943  1.00  0.00    -0.246 OA
ATOM     17  C   UNL     1     120.187 130.023 127.254  1.00  0.00     0.016 C 
ENDROOT
TORSDOF 0
ENDMDL
MODEL 9
REMARK VINA RESULT:     0.000      7.037      8.609
REMARK INTER + INTRA:           0.000
REMARK INTER:                   0.000
REMARK INTRA:                   0.000
REMARK UNBOUND:                 0.000
REMARK SMILES C=C1CCC[C@@]2(C)C=C3OC(=O)C(C)=C3C[C@H]12
REMARK SMILES IDX 14 1 13 2 15 3 16 4 17 5 2 6 1 7 3 8 4 9 5 10 6 11 8 12 9 13
REMARK SMILES IDX 10 14 11 15 12 16 7 17
REMARK H PARENT
REMARK Flexibility Score: inf
ROOT
ATOM      1  C   UNL     1     117.633 127.691 131.226  1.00  0.00     0.053 C 
ATOM      2  C   UNL     1     118.115 127.928 132.622  1.00  0.00     0.041 C 
ATOM      3  C   UNL     1     118.329 129.108 133.196  1.00  0.00     0.005 C 
ATOM      4  C   UNL     1     118.222 130.484 132.608  1.00  0.00     0.049 C 
ATOM      5  C   UNL     1     118.058 131.508 133.767  1.00  0.00     0.029 C 
ATOM      6  C   UNL     1     118.015 132.976 133.361  1.00  0.00    -0.073 C 
ATOM      7  C   UNL     1     118.111 133.405 132.089  1.00  0.00     0.008 C 
ATOM      8  C   UNL     1     117.772 133.965 134.478  1.00  0.00     0.031 C 
ATOM      9  C   UNL     1     118.751 133.736 135.637  1.00  0.00     0.005 C 
ATOM     10  C   UNL     1     118.796 132.261 136.081  1.00  0.00     0.012 C 
ATOM     11  C   UNL     1     119.116 131.290 134.911  1.00  0.00    -0.004 C 
ATOM     12  C   UNL     1     119.037 129.857 135.422  1.00  0.00     0.027 C 
ATOM     13  C   UNL     1     118.721 128.875 134.578  1.00  0.00     0.131 C 
ATOM     14  O   UNL     1     118.703 127.517 134.860  1.00  0.00    -0.423 OA
ATOM     15  C   UNL     1     118.326 126.917 133.664  1.00  0.00     0.339 C 
ATOM     16  O   UNL     1     118.186 125.675 133.516  1.00  0.00    -0.246 OA
ATOM     17  C   UNL     1     120.560 131.524 134.402  1.00  0.00     0.016 C 
ENDROOT
TORSDOF 0
ENDMDL
