MODEL 1
REMARK VINA RESULT:    -3.741      0.000      0.000
REMARK INTER + INTRA:         -14.941
REMARK INTER:                  -9.428
REMARK INTRA:                  -5.513
REMARK UNBOUND:                -5.513
REMARK SMILES CCCCCCCCCCCCCCCCCCCCCCCCCCCC(=O)[O-]
REMARK SMILES IDX 15 1 16 2 17 3 18 4 19 5 20 6 21 7 22 8 23 9 24 10 25 11
REMARK SMILES IDX 26 12 27 13 28 14 29 15 30 16 14 17 13 18 12 19 11 20 10 21
REMARK SMILES IDX 9 22 8 23 7 24 6 25 5 26 4 27 3 28 2 29 1 30
REMARK H PARENT
REMARK Flexibility Score: inf
ROOT
ATOM      1  C   UNL     1     -24.004  28.524 -41.842  1.00  0.00     0.000 C 
ENDROOT
BRANCH   1   2
ATOM      2  C   UNL     1     -23.461  29.956 -41.997  1.00  0.00     0.000 C 
BRANCH   2   3
ATOM      3  C   UNL     1     -22.061  29.993 -42.630  1.00  0.00     0.000 C 
BRANCH   3   4
ATOM      4  C   UNL     1     -21.097  30.926 -41.876  1.00  0.00     0.000 C 
BRANCH   4   5
ATOM      5  C   UNL     1     -19.838  30.202 -41.371  1.00  0.00     0.000 C 
BRANCH   5   6
ATOM      6  C   UNL     1     -19.915  29.840 -39.878  1.00  0.00     0.000 C 
BRANCH   6   7
ATOM      7  C   UNL     1     -20.552  28.459 -39.626  1.00  0.00     0.000 C 
BRANCH   7   8
ATOM      8  C   UNL     1     -21.837  28.466 -38.778  1.00  0.00     0.000 C 
BRANCH   8   9
ATOM      9  C   UNL     1     -22.286  29.881 -38.378  1.00  0.00     0.000 C 
BRANCH   9  10
ATOM     10  C   UNL     1     -23.790  29.970 -38.062  1.00  0.00     0.000 C 
BRANCH  10  11
ATOM     11  C   UNL     1     -24.530  31.160 -38.700  1.00  0.00     0.000 C 
BRANCH  11  12
ATOM     12  C   UNL     1     -23.585  32.292 -39.138  1.00  0.00     0.006 C 
BRANCH  12  13
ATOM     13  C   UNL     1     -23.690  33.522 -38.226  1.00  0.00     0.053 C 
BRANCH  13  14
ATOM     14  C   UNL     1     -22.408  33.784 -37.496  1.00  0.00     0.041 C 
ATOM     15  O   UNL     1     -22.237  33.335 -36.333  1.00  0.00    -0.550 OA
ATOM     16  O   UNL     1     -21.415  34.552 -38.091  1.00  0.00    -0.550 OA
ENDBRANCH  13  14
ENDBRANCH  12  13
ENDBRANCH  11  12
ENDBRANCH  10  11
ENDBRANCH   9  10
ENDBRANCH   8   9
ENDBRANCH   7   8
ENDBRANCH   6   7
ENDBRANCH   5   6
ENDBRANCH   4   5
ENDBRANCH   3   4
ENDBRANCH   2   3
ENDBRANCH   1   2
BRANCH   1  17
ATOM     17  C   UNL     1     -25.515  28.503 -41.527  1.00  0.00     0.000 C 
BRANCH  17  18
ATOM     18  C   UNL     1     -26.181  29.887 -41.608  1.00  0.00     0.000 C 
BRANCH  18  19
ATOM     19  C   UNL     1     -27.673  29.812 -41.978  1.00  0.00     0.000 C 
BRANCH  19  20
ATOM     20  C   UNL     1     -28.480  30.990 -41.393  1.00  0.00     0.000 C 
BRANCH  20  21
ATOM     21  C   UNL     1     -27.649  31.916 -40.488  1.00  0.00     0.000 C 
BRANCH  21  22
ATOM     22  C   UNL     1     -28.484  32.579 -39.382  1.00  0.00    -0.000 C 
BRANCH  22  23
ATOM     23  C   UNL     1     -27.750  32.533 -38.037  1.00  0.00    -0.000 C 
BRANCH  23  24
ATOM     24  C   UNL     1     -28.553  31.733 -36.998  1.00  0.00    -0.000 C 
BRANCH  24  25
ATOM     25  C   UNL     1     -28.753  30.264 -37.406  1.00  0.00    -0.000 C 
BRANCH  25  26
ATOM     26  C   UNL     1     -27.462  29.435 -37.292  1.00  0.00    -0.000 C 
BRANCH  26  27
ATOM     27  C   UNL     1     -27.328  28.393 -38.415  1.00  0.00    -0.000 C 
BRANCH  27  28
ATOM     28  C   UNL     1     -28.498  27.394 -38.441  1.00  0.00    -0.000 C 
BRANCH  28  29
ATOM     29  C   UNL     1     -29.289  27.453 -39.758  1.00  0.00    -0.003 C 
ATOM     30  C   UNL     1     -30.715  27.970 -39.570  1.00  0.00     0.004 C 
ENDBRANCH  28  29
ENDBRANCH  27  28
ENDBRANCH  26  27
ENDBRANCH  25  26
ENDBRANCH  24  25
ENDBRANCH  23  24
ENDBRANCH  22  23
ENDBRANCH  21  22
ENDBRANCH  20  21
ENDBRANCH  19  20
ENDBRANCH  18  19
ENDBRANCH  17  18
ENDBRANCH   1  17
TORSDOF 26
ENDMDL
MODEL 2
REMARK VINA RESULT:    -3.734      2.416      7.630
REMARK INTER + INTRA:         -14.923
REMARK INTER:                 -10.008
REMARK INTRA:                  -4.915
REMARK UNBOUND:                -5.513
REMARK SMILES CCCCCCCCCCCCCCCCCCCCCCCCCCCC(=O)[O-]
REMARK SMILES IDX 15 1 16 2 17 3 18 4 19 5 20 6 21 7 22 8 23 9 24 10 25 11
REMARK SMILES IDX 26 12 27 13 28 14 29 15 30 16 14 17 13 18 12 19 11 20 10 21
REMARK SMILES IDX 9 22 8 23 7 24 6 25 5 26 4 27 3 28 2 29 1 30
REMARK H PARENT
REMARK Flexibility Score: inf
ROOT
ATOM      1  C   UNL     1     -24.561  34.003 -37.249  1.00  0.00     0.000 C 
ENDROOT
BRANCH   1   2
ATOM      2  C   UNL     1     -25.909  33.621 -37.889  1.00  0.00     0.000 C 
BRANCH   2   3
ATOM      3  C   UNL     1     -27.088  33.758 -36.913  1.00  0.00     0.000 C 
BRANCH   3   4
ATOM      4  C   UNL     1     -28.288  34.493 -37.536  1.00  0.00     0.000 C 
BRANCH   4   5
ATOM      5  C   UNL     1     -28.368  34.320 -39.061  1.00  0.00     0.000 C 
BRANCH   5   6
ATOM      6  C   UNL     1     -29.593  33.501 -39.506  1.00  0.00     0.000 C 
BRANCH   6   7
ATOM      7  C   UNL     1     -29.234  32.370 -40.489  1.00  0.00     0.000 C 
BRANCH   7   8
ATOM      8  C   UNL     1     -27.729  32.114 -40.685  1.00  0.00     0.000 C 
BRANCH   8   9
ATOM      9  C   UNL     1     -27.436  31.000 -41.704  1.00  0.00     0.000 C 
BRANCH   9  10
ATOM     10  C   UNL     1     -28.506  29.892 -41.710  1.00  0.00     0.000 C 
BRANCH  10  11
ATOM     11  C   UNL     1     -27.985  28.470 -41.431  1.00  0.00     0.000 C 
BRANCH  11  12
ATOM     12  C   UNL     1     -28.482  27.899 -40.091  1.00  0.00     0.006 C 
BRANCH  12  13
ATOM     13  C   UNL     1     -27.587  28.315 -38.916  1.00  0.00     0.053 C 
BRANCH  13  14
ATOM     14  C   UNL     1     -28.347  29.097 -37.888  1.00  0.00     0.041 C 
ATOM     15  O   UNL     1     -28.133  30.328 -37.741  1.00  0.00    -0.550 OA
ATOM     16  O   UNL     1     -29.270  28.456 -37.071  1.00  0.00    -0.550 OA
ENDBRANCH  13  14
ENDBRANCH  12  13
ENDBRANCH  11  12
ENDBRANCH  10  11
ENDBRANCH   9  10
ENDBRANCH   8   9
ENDBRANCH   7   8
ENDBRANCH   6   7
ENDBRANCH   5   6
ENDBRANCH   4   5
ENDBRANCH   3   4
ENDBRANCH   2   3
ENDBRANCH   1   2
BRANCH   1  17
ATOM     17  C   UNL     1     -23.429  34.110 -38.292  1.00  0.00     0.000 C 
BRANCH  17  18
ATOM     18  C   UNL     1     -22.067  34.493 -37.686  1.00  0.00     0.000 C 
BRANCH  18  19
ATOM     19  C   UNL     1     -20.902  33.674 -38.267  1.00  0.00     0.000 C 
BRANCH  19  20
ATOM     20  C   UNL     1     -21.090  33.374 -39.770  1.00  0.00     0.000 C 
BRANCH  20  21
ATOM     21  C   UNL     1     -20.045  32.398 -40.336  1.00  0.00     0.000 C 
BRANCH  21  22
ATOM     22  C   UNL     1     -20.303  30.940 -39.927  1.00  0.00    -0.000 C 
BRANCH  22  23
ATOM     23  C   UNL     1     -20.303  30.017 -41.150  1.00  0.00    -0.000 C 
BRANCH  23  24
ATOM     24  C   UNL     1     -21.234  30.555 -42.248  1.00  0.00    -0.000 C 
BRANCH  24  25
ATOM     25  C   UNL     1     -22.705  30.168 -42.021  1.00  0.00    -0.000 C 
BRANCH  25  26
ATOM     26  C   UNL     1     -23.597  31.381 -41.705  1.00  0.00    -0.000 C 
BRANCH  26  27
ATOM     27  C   UNL     1     -24.090  31.388 -40.249  1.00  0.00    -0.000 C 
BRANCH  27  28
ATOM     28  C   UNL     1     -24.318  29.971 -39.692  1.00  0.00    -0.000 C 
BRANCH  28  29
ATOM     29  C   UNL     1     -24.310  29.937 -38.155  1.00  0.00    -0.003 C 
ATOM     30  C   UNL     1     -23.030  30.517 -37.555  1.00  0.00     0.004 C 
ENDBRANCH  28  29
ENDBRANCH  27  28
ENDBRANCH  26  27
ENDBRANCH  25  26
ENDBRANCH  24  25
ENDBRANCH  23  24
ENDBRANCH  22  23
ENDBRANCH  21  22
ENDBRANCH  20  21
ENDBRANCH  19  20
ENDBRANCH  18  19
ENDBRANCH  17  18
ENDBRANCH   1  17
TORSDOF 26
ENDMDL
MODEL 3
REMARK VINA RESULT:    -3.734      2.646      7.277
REMARK INTER + INTRA:         -14.922
REMARK INTER:                  -9.844
REMARK INTRA:                  -5.078
REMARK UNBOUND:                -5.513
REMARK SMILES CCCCCCCCCCCCCCCCCCCCCCCCCCCC(=O)[O-]
REMARK SMILES IDX 15 1 16 2 17 3 18 4 19 5 20 6 21 7 22 8 23 9 24 10 25 11
REMARK SMILES IDX 26 12 27 13 28 14 29 15 30 16 14 17 13 18 12 19 11 20 10 21
REMARK SMILES IDX 9 22 8 23 7 24 6 25 5 26 4 27 3 28 2 29 1 30
REMARK H PARENT
REMARK Flexibility Score: inf
ROOT
ATOM      1  C   UNL     1     -24.126  33.179 -37.940  1.00  0.00     0.000 C 
ENDROOT
BRANCH   1   2
ATOM      2  C   UNL     1     -25.213  34.126 -37.401  1.00  0.00     0.000 C 
BRANCH   2   3
ATOM      3  C   UNL     1     -26.617  33.501 -37.443  1.00  0.00     0.000 C 
BRANCH   3   4
ATOM      4  C   UNL     1     -26.756  32.435 -38.544  1.00  0.00     0.000 C 
BRANCH   4   5
ATOM      5  C   UNL     1     -28.044  32.593 -39.369  1.00  0.00     0.000 C 
BRANCH   5   6
ATOM      6  C   UNL     1     -28.423  31.314 -40.136  1.00  0.00     0.000 C 
BRANCH   6   7
ATOM      7  C   UNL     1     -27.198  30.558 -40.685  1.00  0.00     0.000 C 
BRANCH   7   8
ATOM      8  C   UNL     1     -27.142  29.056 -40.352  1.00  0.00     0.000 C 
BRANCH   8   9
ATOM      9  C   UNL     1     -26.575  28.772 -38.950  1.00  0.00     0.000 C 
BRANCH   9  10
ATOM     10  C   UNL     1     -27.660  28.382 -37.929  1.00  0.00     0.000 C 
BRANCH  10  11
ATOM     11  C   UNL     1     -27.822  29.344 -36.738  1.00  0.00     0.000 C 
BRANCH  11  12
ATOM     12  C   UNL     1     -29.216  29.995 -36.676  1.00  0.00     0.006 C 
BRANCH  12  13
ATOM     13  C   UNL     1     -29.242  31.220 -35.752  1.00  0.00     0.053 C 
BRANCH  13  14
ATOM     14  C   UNL     1     -29.484  30.834 -34.324  1.00  0.00     0.041 C 
ATOM     15  O   UNL     1     -30.193  29.831 -34.050  1.00  0.00    -0.550 OA
ATOM     16  O   UNL     1     -28.952  31.603 -33.297  1.00  0.00    -0.550 OA
ENDBRANCH  13  14
ENDBRANCH  12  13
ENDBRANCH  11  12
ENDBRANCH  10  11
ENDBRANCH   9  10
ENDBRANCH   8   9
ENDBRANCH   7   8
ENDBRANCH   6   7
ENDBRANCH   5   6
ENDBRANCH   4   5
ENDBRANCH   3   4
ENDBRANCH   2   3
ENDBRANCH   1   2
BRANCH   1  17
ATOM     17  C   UNL     1     -22.890  33.944 -38.460  1.00  0.00     0.000 C 
BRANCH  17  18
ATOM     18  C   UNL     1     -21.564  33.465 -37.845  1.00  0.00     0.000 C 
BRANCH  18  19
ATOM     19  C   UNL     1     -20.384  33.547 -38.829  1.00  0.00     0.000 C 
BRANCH  19  20
ATOM     20  C   UNL     1     -20.677  32.815 -40.155  1.00  0.00     0.000 C 
BRANCH  20  21
ATOM     21  C   UNL     1     -19.448  32.108 -40.752  1.00  0.00     0.000 C 
BRANCH  21  22
ATOM     22  C   UNL     1     -19.754  30.683 -41.238  1.00  0.00    -0.000 C 
BRANCH  22  23
ATOM     23  C   UNL     1     -20.728  30.704 -42.422  1.00  0.00    -0.000 C 
BRANCH  23  24
ATOM     24  C   UNL     1     -21.954  29.819 -42.143  1.00  0.00    -0.000 C 
BRANCH  24  25
ATOM     25  C   UNL     1     -23.205  30.636 -41.780  1.00  0.00    -0.000 C 
BRANCH  25  26
ATOM     26  C   UNL     1     -23.568  30.533 -40.288  1.00  0.00    -0.000 C 
BRANCH  26  27
ATOM     27  C   UNL     1     -22.893  29.338 -39.597  1.00  0.00    -0.000 C 
BRANCH  27  28
ATOM     28  C   UNL     1     -21.975  29.763 -38.437  1.00  0.00    -0.000 C 
BRANCH  28  29
ATOM     29  C   UNL     1     -22.747  29.966 -37.123  1.00  0.00    -0.003 C 
ATOM     30  C   UNL     1     -23.621  28.766 -36.758  1.00  0.00     0.004 C 
ENDBRANCH  28  29
ENDBRANCH  27  28
ENDBRANCH  26  27
ENDBRANCH  25  26
ENDBRANCH  24  25
ENDBRANCH  23  24
ENDBRANCH  22  23
ENDBRANCH  21  22
ENDBRANCH  20  21
ENDBRANCH  19  20
ENDBRANCH  18  19
ENDBRANCH  17  18
ENDBRANCH   1  17
TORSDOF 26
ENDMDL
MODEL 4
REMARK VINA RESULT:    -3.670      1.968      4.351
REMARK INTER + INTRA:         -14.763
REMARK INTER:                  -9.376
REMARK INTRA:                  -5.387
REMARK UNBOUND:                -5.513
REMARK SMILES CCCCCCCCCCCCCCCCCCCCCCCCCCCC(=O)[O-]
REMARK SMILES IDX 15 1 16 2 17 3 18 4 19 5 20 6 21 7 22 8 23 9 24 10 25 11
REMARK SMILES IDX 26 12 27 13 28 14 29 15 30 16 14 17 13 18 12 19 11 20 10 21
REMARK SMILES IDX 9 22 8 23 7 24 6 25 5 26 4 27 3 28 2 29 1 30
REMARK H PARENT
REMARK Flexibility Score: inf
ROOT
ATOM      1  C   UNL     1     -23.559  34.120 -38.145  1.00  0.00     0.000 C 
ENDROOT
BRANCH   1   2
ATOM      2  C   UNL     1     -22.212  34.093 -37.400  1.00  0.00     0.000 C 
BRANCH   2   3
ATOM      3  C   UNL     1     -21.172  33.194 -38.087  1.00  0.00     0.000 C 
BRANCH   3   4
ATOM      4  C   UNL     1     -20.778  33.706 -39.483  1.00  0.00     0.000 C 
BRANCH   4   5
ATOM      5  C   UNL     1     -20.179  32.607 -40.375  1.00  0.00     0.000 C 
BRANCH   5   6
ATOM      6  C   UNL     1     -20.036  31.259 -39.647  1.00  0.00     0.000 C 
BRANCH   6   7
ATOM      7  C   UNL     1     -20.154  30.049 -40.594  1.00  0.00     0.000 C 
BRANCH   7   8
ATOM      8  C   UNL     1     -20.787  30.341 -41.967  1.00  0.00     0.000 C 
BRANCH   8   9
ATOM      9  C   UNL     1     -22.273  29.950 -42.038  1.00  0.00     0.000 C 
BRANCH   9  10
ATOM     10  C   UNL     1     -23.221  31.157 -41.904  1.00  0.00     0.000 C 
BRANCH  10  11
ATOM     11  C   UNL     1     -23.726  31.444 -40.478  1.00  0.00     0.000 C 
BRANCH  11  12
ATOM     12  C   UNL     1     -23.820  30.179 -39.606  1.00  0.00     0.006 C 
BRANCH  12  13
ATOM     13  C   UNL     1     -23.664  30.491 -38.112  1.00  0.00     0.053 C 
BRANCH  13  14
ATOM     14  C   UNL     1     -22.562  29.689 -37.489  1.00  0.00     0.041 C 
ATOM     15  O   UNL     1     -22.008  30.087 -36.431  1.00  0.00    -0.550 OA
ATOM     16  O   UNL     1     -22.126  28.518 -38.097  1.00  0.00    -0.550 OA
ENDBRANCH  13  14
ENDBRANCH  12  13
ENDBRANCH  11  12
ENDBRANCH  10  11
ENDBRANCH   9  10
ENDBRANCH   8   9
ENDBRANCH   7   8
ENDBRANCH   6   7
ENDBRANCH   5   6
ENDBRANCH   4   5
ENDBRANCH   3   4
ENDBRANCH   2   3
ENDBRANCH   1   2
BRANCH   1  17
ATOM     17  C   UNL     1     -24.755  33.887 -37.199  1.00  0.00     0.000 C 
BRANCH  17  18
ATOM     18  C   UNL     1     -26.083  33.632 -37.933  1.00  0.00     0.000 C 
BRANCH  18  19
ATOM     19  C   UNL     1     -27.302  33.670 -36.996  1.00  0.00     0.000 C 
BRANCH  19  20
ATOM     20  C   UNL     1     -28.341  34.726 -37.429  1.00  0.00     0.000 C 
BRANCH  20  21
ATOM     21  C   UNL     1     -28.132  35.241 -38.863  1.00  0.00     0.000 C 
BRANCH  21  22
ATOM     22  C   UNL     1     -29.453  35.527 -39.595  1.00  0.00    -0.000 C 
BRANCH  22  23
ATOM     23  C   UNL     1     -29.458  34.891 -40.989  1.00  0.00    -0.000 C 
BRANCH  23  24
ATOM     24  C   UNL     1     -29.222  33.374 -40.905  1.00  0.00    -0.000 C 
BRANCH  24  25
ATOM     25  C   UNL     1     -28.125  32.890 -41.867  1.00  0.00    -0.000 C 
BRANCH  25  26
ATOM     26  C   UNL     1     -27.161  31.886 -41.211  1.00  0.00    -0.000 C 
BRANCH  26  27
ATOM     27  C   UNL     1     -27.835  31.056 -40.106  1.00  0.00    -0.000 C 
BRANCH  27  28
ATOM     28  C   UNL     1     -27.485  29.560 -40.189  1.00  0.00    -0.000 C 
BRANCH  28  29
ATOM     29  C   UNL     1     -27.279  28.929 -38.802  1.00  0.00    -0.003 C 
ATOM     30  C   UNL     1     -27.339  29.953 -37.669  1.00  0.00     0.004 C 
ENDBRANCH  28  29
ENDBRANCH  27  28
ENDBRANCH  26  27
ENDBRANCH  25  26
ENDBRANCH  24  25
ENDBRANCH  23  24
ENDBRANCH  22  23
ENDBRANCH  21  22
ENDBRANCH  20  21
ENDBRANCH  19  20
ENDBRANCH  18  19
ENDBRANCH  17  18
ENDBRANCH   1  17
TORSDOF 26
ENDMDL
MODEL 5
REMARK VINA RESULT:    -3.651      2.625      7.642
REMARK INTER + INTRA:         -14.713
REMARK INTER:                  -9.787
REMARK INTRA:                  -4.927
REMARK UNBOUND:                -5.513
REMARK SMILES CCCCCCCCCCCCCCCCCCCCCCCCCCCC(=O)[O-]
REMARK SMILES IDX 15 1 16 2 17 3 18 4 19 5 20 6 21 7 22 8 23 9 24 10 25 11
REMARK SMILES IDX 26 12 27 13 28 14 29 15 30 16 14 17 13 18 12 19 11 20 10 21
REMARK SMILES IDX 9 22 8 23 7 24 6 25 5 26 4 27 3 28 2 29 1 30
REMARK H PARENT
REMARK Flexibility Score: inf
ROOT
ATOM      1  C   UNL     1     -23.958  31.853 -40.692  1.00  0.00     0.000 C 
ENDROOT
BRANCH   1   2
ATOM      2  C   UNL     1     -24.974  31.011 -41.484  1.00  0.00     0.000 C 
BRANCH   2   3
ATOM      3  C   UNL     1     -24.439  29.614 -41.840  1.00  0.00     0.000 C 
BRANCH   3   4
ATOM      4  C   UNL     1     -25.491  28.509 -41.639  1.00  0.00     0.000 C 
BRANCH   4   5
ATOM      5  C   UNL     1     -26.304  28.687 -40.346  1.00  0.00     0.000 C 
BRANCH   5   6
ATOM      6  C   UNL     1     -27.823  28.638 -40.585  1.00  0.00     0.000 C 
BRANCH   6   7
ATOM      7  C   UNL     1     -28.248  29.325 -41.897  1.00  0.00     0.000 C 
BRANCH   7   8
ATOM      8  C   UNL     1     -29.264  30.472 -41.747  1.00  0.00     0.000 C 
BRANCH   8   9
ATOM      9  C   UNL     1     -28.598  31.840 -41.526  1.00  0.00     0.000 C 
BRANCH   9  10
ATOM     10  C   UNL     1     -28.723  32.345 -40.077  1.00  0.00     0.000 C 
BRANCH  10  11
ATOM     11  C   UNL     1     -27.448  32.222 -39.222  1.00  0.00     0.000 C 
BRANCH  11  12
ATOM     12  C   UNL     1     -27.685  31.490 -37.889  1.00  0.00     0.006 C 
BRANCH  12  13
ATOM     13  C   UNL     1     -29.057  30.805 -37.840  1.00  0.00     0.053 C 
BRANCH  13  14
ATOM     14  C   UNL     1     -29.058  29.629 -36.911  1.00  0.00     0.041 C 
ATOM     15  O   UNL     1     -29.258  28.469 -37.357  1.00  0.00    -0.550 OA
ATOM     16  O   UNL     1     -28.868  29.820 -35.548  1.00  0.00    -0.550 OA
ENDBRANCH  13  14
ENDBRANCH  12  13
ENDBRANCH  11  12
ENDBRANCH  10  11
ENDBRANCH   9  10
ENDBRANCH   8   9
ENDBRANCH   7   8
ENDBRANCH   6   7
ENDBRANCH   5   6
ENDBRANCH   4   5
ENDBRANCH   3   4
ENDBRANCH   2   3
ENDBRANCH   1   2
BRANCH   1  17
ATOM     17  C   UNL     1     -23.843  31.399 -39.222  1.00  0.00     0.000 C 
BRANCH  17  18
ATOM     18  C   UNL     1     -23.883  32.559 -38.212  1.00  0.00     0.000 C 
BRANCH  18  19
ATOM     19  C   UNL     1     -22.502  32.885 -37.620  1.00  0.00     0.000 C 
BRANCH  19  20
ATOM     20  C   UNL     1     -21.830  34.082 -38.326  1.00  0.00     0.000 C 
BRANCH  20  21
ATOM     21  C   UNL     1     -20.925  33.673 -39.501  1.00  0.00     0.000 C 
BRANCH  21  22
ATOM     22  C   UNL     1     -19.692  32.872 -39.057  1.00  0.00    -0.000 C 
BRANCH  22  23
ATOM     23  C   UNL     1     -18.475  33.209 -39.925  1.00  0.00    -0.000 C 
BRANCH  23  24
ATOM     24  C   UNL     1     -17.570  31.979 -40.107  1.00  0.00    -0.000 C 
BRANCH  24  25
ATOM     25  C   UNL     1     -17.434  31.555 -41.579  1.00  0.00    -0.000 C 
BRANCH  25  26
ATOM     26  C   UNL     1     -18.293  30.326 -41.925  1.00  0.00    -0.000 C 
BRANCH  26  27
ATOM     27  C   UNL     1     -19.617  30.705 -42.610  1.00  0.00    -0.000 C 
BRANCH  27  28
ATOM     28  C   UNL     1     -20.850  30.301 -41.784  1.00  0.00    -0.000 C 
BRANCH  28  29
ATOM     29  C   UNL     1     -20.471  29.600 -40.469  1.00  0.00    -0.003 C 
ATOM     30  C   UNL     1     -21.510  28.568 -40.026  1.00  0.00     0.004 C 
ENDBRANCH  28  29
ENDBRANCH  27  28
ENDBRANCH  26  27
ENDBRANCH  25  26
ENDBRANCH  24  25
ENDBRANCH  23  24
ENDBRANCH  22  23
ENDBRANCH  21  22
ENDBRANCH  20  21
ENDBRANCH  19  20
ENDBRANCH  18  19
ENDBRANCH  17  18
ENDBRANCH   1  17
TORSDOF 26
ENDMDL
MODEL 6
REMARK VINA RESULT:    -3.651      3.077      7.667
REMARK INTER + INTRA:         -14.712
REMARK INTER:                  -9.079
REMARK INTRA:                  -5.633
REMARK UNBOUND:                -5.513
REMARK SMILES CCCCCCCCCCCCCCCCCCCCCCCCCCCC(=O)[O-]
REMARK SMILES IDX 15 1 16 2 17 3 18 4 19 5 20 6 21 7 22 8 23 9 24 10 25 11
REMARK SMILES IDX 26 12 27 13 28 14 29 15 30 16 14 17 13 18 12 19 11 20 10 21
REMARK SMILES IDX 9 22 8 23 7 24 6 25 5 26 4 27 3 28 2 29 1 30
REMARK H PARENT
REMARK Flexibility Score: inf
ROOT
ATOM      1  C   UNL     1     -26.247  29.599 -37.819  1.00  0.00     0.000 C 
ENDROOT
BRANCH   1   2
ATOM      2  C   UNL     1     -26.999  28.326 -38.250  1.00  0.00     0.000 C 
BRANCH   2   3
ATOM      3  C   UNL     1     -28.175  28.624 -39.193  1.00  0.00     0.000 C 
BRANCH   3   4
ATOM      4  C   UNL     1     -28.207  30.092 -39.653  1.00  0.00     0.000 C 
BRANCH   4   5
ATOM      5  C   UNL     1     -29.590  30.529 -40.162  1.00  0.00     0.000 C 
BRANCH   5   6
ATOM      6  C   UNL     1     -29.578  31.930 -40.797  1.00  0.00     0.000 C 
BRANCH   6   7
ATOM      7  C   UNL     1     -28.352  32.767 -40.382  1.00  0.00     0.000 C 
BRANCH   7   8
ATOM      8  C   UNL     1     -28.603  33.804 -39.271  1.00  0.00     0.000 C 
BRANCH   8   9
ATOM      9  C   UNL     1     -27.462  33.867 -38.240  1.00  0.00     0.000 C 
BRANCH   9  10
ATOM     10  C   UNL     1     -27.835  33.231 -36.889  1.00  0.00     0.000 C 
BRANCH  10  11
ATOM     11  C   UNL     1     -29.191  32.503 -36.853  1.00  0.00     0.000 C 
BRANCH  11  12
ATOM     12  C   UNL     1     -29.129  31.149 -36.123  1.00  0.00     0.006 C 
BRANCH  12  13
ATOM     13  C   UNL     1     -30.322  30.248 -36.468  1.00  0.00     0.053 C 
BRANCH  13  14
ATOM     14  C   UNL     1     -31.350  30.246 -35.378  1.00  0.00     0.041 C 
ATOM     15  O   UNL     1     -32.456  30.822 -35.549  1.00  0.00    -0.550 OA
ATOM     16  O   UNL     1     -31.072  29.633 -34.163  1.00  0.00    -0.550 OA
ENDBRANCH  13  14
ENDBRANCH  12  13
ENDBRANCH  11  12
ENDBRANCH  10  11
ENDBRANCH   9  10
ENDBRANCH   8   9
ENDBRANCH   7   8
ENDBRANCH   6   7
ENDBRANCH   5   6
ENDBRANCH   4   5
ENDBRANCH   3   4
ENDBRANCH   2   3
ENDBRANCH   1   2
BRANCH   1  17
ATOM     17  C   UNL     1     -24.716  29.439 -37.933  1.00  0.00     0.000 C 
BRANCH  17  18
ATOM     18  C   UNL     1     -24.000  30.702 -38.442  1.00  0.00     0.000 C 
BRANCH  18  19
ATOM     19  C   UNL     1     -24.875  31.550 -39.380  1.00  0.00     0.000 C 
BRANCH  19  20
ATOM     20  C   UNL     1     -24.515  31.339 -40.866  1.00  0.00     0.000 C 
BRANCH  20  21
ATOM     21  C   UNL     1     -25.291  30.189 -41.530  1.00  0.00     0.000 C 
BRANCH  21  22
ATOM     22  C   UNL     1     -24.446  28.917 -41.701  1.00  0.00    -0.000 C 
BRANCH  22  23
ATOM     23  C   UNL     1     -22.967  29.262 -41.907  1.00  0.00    -0.000 C 
BRANCH  23  24
ATOM     24  C   UNL     1     -22.102  28.683 -40.776  1.00  0.00    -0.000 C 
BRANCH  24  25
ATOM     25  C   UNL     1     -21.016  29.661 -40.299  1.00  0.00    -0.000 C 
BRANCH  25  26
ATOM     26  C   UNL     1     -20.875  30.887 -41.219  1.00  0.00    -0.000 C 
BRANCH  26  27
ATOM     27  C   UNL     1     -20.078  32.027 -40.565  1.00  0.00    -0.000 C 
BRANCH  27  28
ATOM     28  C   UNL     1     -20.695  32.498 -39.236  1.00  0.00    -0.000 C 
BRANCH  28  29
ATOM     29  C   UNL     1     -21.649  33.689 -39.423  1.00  0.00    -0.003 C 
ATOM     30  C   UNL     1     -22.339  34.105 -38.124  1.00  0.00     0.004 C 
ENDBRANCH  28  29
ENDBRANCH  27  28
ENDBRANCH  26  27
ENDBRANCH  25  26
ENDBRANCH  24  25
ENDBRANCH  23  24
ENDBRANCH  22  23
ENDBRANCH  21  22
ENDBRANCH  20  21
ENDBRANCH  19  20
ENDBRANCH  18  19
ENDBRANCH  17  18
ENDBRANCH   1  17
TORSDOF 26
ENDMDL
MODEL 7
REMARK VINA RESULT:    -3.636      3.089      7.872
REMARK INTER + INTRA:         -14.676
REMARK INTER:                  -9.572
REMARK INTRA:                  -5.104
REMARK UNBOUND:                -5.513
REMARK SMILES CCCCCCCCCCCCCCCCCCCCCCCCCCCC(=O)[O-]
REMARK SMILES IDX 15 1 16 2 17 3 18 4 19 5 20 6 21 7 22 8 23 9 24 10 25 11
REMARK SMILES IDX 26 12 27 13 28 14 29 15 30 16 14 17 13 18 12 19 11 20 10 21
REMARK SMILES IDX 9 22 8 23 7 24 6 25 5 26 4 27 3 28 2 29 1 30
REMARK H PARENT
REMARK Flexibility Score: inf
ROOT
ATOM      1  C   UNL     1     -22.270  33.423 -38.425  1.00  0.00     0.000 C 
ENDROOT
BRANCH   1   2
ATOM      2  C   UNL     1     -22.917  32.586 -39.543  1.00  0.00     0.000 C 
BRANCH   2   3
ATOM      3  C   UNL     1     -24.391  32.256 -39.260  1.00  0.00     0.000 C 
BRANCH   3   4
ATOM      4  C   UNL     1     -24.555  31.073 -38.289  1.00  0.00     0.000 C 
BRANCH   4   5
ATOM      5  C   UNL     1     -25.505  29.989 -38.824  1.00  0.00     0.000 C 
BRANCH   5   6
ATOM      6  C   UNL     1     -24.945  29.262 -40.059  1.00  0.00     0.000 C 
BRANCH   6   7
ATOM      7  C   UNL     1     -25.824  29.443 -41.312  1.00  0.00     0.000 C 
BRANCH   7   8
ATOM      8  C   UNL     1     -26.368  28.144 -41.934  1.00  0.00     0.000 C 
BRANCH   8   9
ATOM      9  C   UNL     1     -27.905  28.086 -41.956  1.00  0.00     0.000 C 
BRANCH   9  10
ATOM     10  C   UNL     1     -28.562  29.201 -41.122  1.00  0.00     0.000 C 
BRANCH  10  11
ATOM     11  C   UNL     1     -29.353  28.724 -39.889  1.00  0.00     0.000 C 
BRANCH  11  12
ATOM     12  C   UNL     1     -28.895  27.346 -39.377  1.00  0.00     0.006 C 
BRANCH  12  13
ATOM     13  C   UNL     1     -28.102  27.449 -38.067  1.00  0.00     0.053 C 
BRANCH  13  14
ATOM     14  C   UNL     1     -28.958  27.151 -36.874  1.00  0.00     0.041 C 
ATOM     15  O   UNL     1     -28.443  27.072 -35.728  1.00  0.00    -0.550 OA
ATOM     16  O   UNL     1     -30.320  26.928 -37.035  1.00  0.00    -0.550 OA
ENDBRANCH  13  14
ENDBRANCH  12  13
ENDBRANCH  11  12
ENDBRANCH  10  11
ENDBRANCH   9  10
ENDBRANCH   8   9
ENDBRANCH   7   8
ENDBRANCH   6   7
ENDBRANCH   5   6
ENDBRANCH   4   5
ENDBRANCH   3   4
ENDBRANCH   2   3
ENDBRANCH   1   2
BRANCH   1  17
ATOM     17  C   UNL     1     -20.872  33.943 -38.818  1.00  0.00     0.000 C 
BRANCH  17  18
ATOM     18  C   UNL     1     -20.235  33.176 -39.990  1.00  0.00     0.000 C 
BRANCH  18  19
ATOM     19  C   UNL     1     -18.754  32.838 -39.750  1.00  0.00     0.000 C 
BRANCH  19  20
ATOM     20  C   UNL     1     -18.169  31.948 -40.867  1.00  0.00     0.000 C 
BRANCH  20  21
ATOM     21  C   UNL     1     -19.076  31.838 -42.104  1.00  0.00     0.000 C 
BRANCH  21  22
ATOM     22  C   UNL     1     -19.546  30.400 -42.375  1.00  0.00    -0.000 C 
BRANCH  22  23
ATOM     23  C   UNL     1     -21.063  30.346 -42.579  1.00  0.00    -0.000 C 
BRANCH  23  24
ATOM     24  C   UNL     1     -21.752  29.632 -41.404  1.00  0.00    -0.000 C 
BRANCH  24  25
ATOM     25  C   UNL     1     -20.762  29.199 -40.310  1.00  0.00    -0.000 C 
BRANCH  25  26
ATOM     26  C   UNL     1     -21.381  29.234 -38.902  1.00  0.00    -0.000 C 
BRANCH  26  27
ATOM     27  C   UNL     1     -20.561  30.084 -37.918  1.00  0.00    -0.000 C 
BRANCH  27  28
ATOM     28  C   UNL     1     -21.334  30.410 -36.627  1.00  0.00    -0.000 C 
BRANCH  28  29
ATOM     29  C   UNL     1     -20.591  31.419 -35.738  1.00  0.00    -0.003 C 
ATOM     30  C   UNL     1     -19.185  31.737 -36.248  1.00  0.00     0.004 C 
ENDBRANCH  28  29
ENDBRANCH  27  28
ENDBRANCH  26  27
ENDBRANCH  25  26
ENDBRANCH  24  25
ENDBRANCH  23  24
ENDBRANCH  22  23
ENDBRANCH  21  22
ENDBRANCH  20  21
ENDBRANCH  19  20
ENDBRANCH  18  19
ENDBRANCH  17  18
ENDBRANCH   1  17
TORSDOF 26
ENDMDL
MODEL 8
REMARK VINA RESULT:    -3.635      1.889      4.980
REMARK INTER + INTRA:         -14.673
REMARK INTER:                  -9.675
REMARK INTRA:                  -4.998
REMARK UNBOUND:                -5.513
REMARK SMILES CCCCCCCCCCCCCCCCCCCCCCCCCCCC(=O)[O-]
REMARK SMILES IDX 15 1 16 2 17 3 18 4 19 5 20 6 21 7 22 8 23 9 24 10 25 11
REMARK SMILES IDX 26 12 27 13 28 14 29 15 30 16 14 17 13 18 12 19 11 20 10 21
REMARK SMILES IDX 9 22 8 23 7 24 6 25 5 26 4 27 3 28 2 29 1 30
REMARK H PARENT
REMARK Flexibility Score: inf
ROOT
ATOM      1  C   UNL     1     -27.984  28.473 -36.470  1.00  0.00     0.000 C 
ENDROOT
BRANCH   1   2
ATOM      2  C   UNL     1     -26.551  28.239 -36.980  1.00  0.00     0.000 C 
BRANCH   2   3
ATOM      3  C   UNL     1     -26.170  29.181 -38.133  1.00  0.00     0.000 C 
BRANCH   3   4
ATOM      4  C   UNL     1     -26.663  28.672 -39.499  1.00  0.00     0.000 C 
BRANCH   4   5
ATOM      5  C   UNL     1     -26.977  29.810 -40.483  1.00  0.00     0.000 C 
BRANCH   5   6
ATOM      6  C   UNL     1     -26.278  29.634 -41.843  1.00  0.00     0.000 C 
BRANCH   6   7
ATOM      7  C   UNL     1     -25.252  28.484 -41.846  1.00  0.00     0.000 C 
BRANCH   7   8
ATOM      8  C   UNL     1     -23.774  28.914 -41.883  1.00  0.00     0.000 C 
BRANCH   8   9
ATOM      9  C   UNL     1     -23.581  30.424 -41.661  1.00  0.00     0.000 C 
BRANCH   9  10
ATOM     10  C   UNL     1     -23.300  30.786 -40.191  1.00  0.00     0.000 C 
BRANCH  10  11
ATOM     11  C   UNL     1     -23.700  32.214 -39.774  1.00  0.00     0.000 C 
BRANCH  11  12
ATOM     12  C   UNL     1     -24.414  32.265 -38.411  1.00  0.00     0.006 C 
BRANCH  12  13
ATOM     13  C   UNL     1     -24.096  33.553 -37.639  1.00  0.00     0.053 C 
BRANCH  13  14
ATOM     14  C   UNL     1     -22.642  33.649 -37.294  1.00  0.00     0.041 C 
ATOM     15  O   UNL     1     -21.953  34.616 -37.712  1.00  0.00    -0.550 OA
ATOM     16  O   UNL     1     -22.041  32.653 -36.535  1.00  0.00    -0.550 OA
ENDBRANCH  13  14
ENDBRANCH  12  13
ENDBRANCH  11  12
ENDBRANCH  10  11
ENDBRANCH   9  10
ENDBRANCH   8   9
ENDBRANCH   7   8
ENDBRANCH   6   7
ENDBRANCH   5   6
ENDBRANCH   4   5
ENDBRANCH   3   4
ENDBRANCH   2   3
ENDBRANCH   1   2
BRANCH   1  17
ATOM     17  C   UNL     1     -28.886  27.237 -36.673  1.00  0.00     0.000 C 
BRANCH  17  18
ATOM     18  C   UNL     1     -30.072  27.487 -37.621  1.00  0.00     0.000 C 
BRANCH  18  19
ATOM     19  C   UNL     1     -30.109  28.924 -38.166  1.00  0.00     0.000 C 
BRANCH  19  20
ATOM     20  C   UNL     1     -31.543  29.495 -38.215  1.00  0.00     0.000 C 
BRANCH  20  21
ATOM     21  C   UNL     1     -32.467  28.928 -37.124  1.00  0.00     0.000 C 
BRANCH  21  22
ATOM     22  C   UNL     1     -32.537  29.820 -35.875  1.00  0.00    -0.000 C 
BRANCH  22  23
ATOM     23  C   UNL     1     -31.713  29.226 -34.728  1.00  0.00    -0.000 C 
BRANCH  23  24
ATOM     24  C   UNL     1     -30.756  30.274 -34.136  1.00  0.00    -0.000 C 
BRANCH  24  25
ATOM     25  C   UNL     1     -30.541  31.476 -35.070  1.00  0.00    -0.000 C 
BRANCH  25  26
ATOM     26  C   UNL     1     -29.053  31.769 -35.327  1.00  0.00    -0.000 C 
BRANCH  26  27
ATOM     27  C   UNL     1     -28.782  32.232 -36.768  1.00  0.00    -0.000 C 
BRANCH  27  28
ATOM     28  C   UNL     1     -27.924  33.508 -36.831  1.00  0.00    -0.000 C 
BRANCH  28  29
ATOM     29  C   UNL     1     -27.869  34.109 -38.245  1.00  0.00    -0.003 C 
ATOM     30  C   UNL     1     -28.056  33.061 -39.342  1.00  0.00     0.004 C 
ENDBRANCH  28  29
ENDBRANCH  27  28
ENDBRANCH  26  27
ENDBRANCH  25  26
ENDBRANCH  24  25
ENDBRANCH  23  24
ENDBRANCH  22  23
ENDBRANCH  21  22
ENDBRANCH  20  21
ENDBRANCH  19  20
ENDBRANCH  18  19
ENDBRANCH  17  18
ENDBRANCH   1  17
TORSDOF 26
ENDMDL
MODEL 9
REMARK VINA RESULT:    -3.623      2.912      7.270
REMARK INTER + INTRA:         -14.643
REMARK INTER:                  -9.028
REMARK INTRA:                  -5.615
REMARK UNBOUND:                -5.513
REMARK SMILES CCCCCCCCCCCCCCCCCCCCCCCCCCCC(=O)[O-]
REMARK SMILES IDX 15 1 16 2 17 3 18 4 19 5 20 6 21 7 22 8 23 9 24 10 25 11
REMARK SMILES IDX 26 12 27 13 28 14 29 15 30 16 14 17 13 18 12 19 11 20 10 21
REMARK SMILES IDX 9 22 8 23 7 24 6 25 5 26 4 27 3 28 2 29 1 30
REMARK H PARENT
REMARK Flexibility Score: inf
ROOT
ATOM      1  C   UNL     1     -25.097  28.169 -41.874  1.00  0.00     0.000 C 
ENDROOT
BRANCH   1   2
ATOM      2  C   UNL     1     -26.409  28.974 -41.852  1.00  0.00     0.000 C 
BRANCH   2   3
ATOM      3  C   UNL     1     -27.552  28.225 -41.150  1.00  0.00     0.000 C 
BRANCH   3   4
ATOM      4  C   UNL     1     -28.843  29.059 -41.068  1.00  0.00     0.000 C 
BRANCH   4   5
ATOM      5  C   UNL     1     -28.682  30.467 -41.665  1.00  0.00     0.000 C 
BRANCH   5   6
ATOM      6  C   UNL     1     -29.451  31.541 -40.876  1.00  0.00     0.000 C 
BRANCH   6   7
ATOM      7  C   UNL     1     -28.524  32.572 -40.204  1.00  0.00     0.000 C 
BRANCH   7   8
ATOM      8  C   UNL     1     -27.045  32.159 -40.090  1.00  0.00     0.000 C 
BRANCH   8   9
ATOM      9  C   UNL     1     -26.603  31.900 -38.640  1.00  0.00     0.000 C 
BRANCH   9  10
ATOM     10  C   UNL     1     -26.975  30.492 -38.138  1.00  0.00     0.000 C 
BRANCH  10  11
ATOM     11  C   UNL     1     -28.322  30.388 -37.399  1.00  0.00     0.000 C 
BRANCH  11  12
ATOM     12  C   UNL     1     -28.706  28.940 -37.050  1.00  0.00     0.006 C 
BRANCH  12  13
ATOM     13  C   UNL     1     -27.687  27.924 -37.584  1.00  0.00     0.053 C 
BRANCH  13  14
ATOM     14  C   UNL     1     -28.295  26.566 -37.758  1.00  0.00     0.041 C 
ATOM     15  O   UNL     1     -27.971  25.623 -36.990  1.00  0.00    -0.550 OA
ATOM     16  O   UNL     1     -29.196  26.336 -38.790  1.00  0.00    -0.550 OA
ENDBRANCH  13  14
ENDBRANCH  12  13
ENDBRANCH  11  12
ENDBRANCH  10  11
ENDBRANCH   9  10
ENDBRANCH   8   9
ENDBRANCH   7   8
ENDBRANCH   6   7
ENDBRANCH   5   6
ENDBRANCH   4   5
ENDBRANCH   3   4
ENDBRANCH   2   3
ENDBRANCH   1   2
BRANCH   1  17
ATOM     17  C   UNL     1     -23.852  29.079 -41.814  1.00  0.00     0.000 C 
BRANCH  17  18
ATOM     18  C   UNL     1     -24.178  30.552 -41.515  1.00  0.00     0.000 C 
BRANCH  18  19
ATOM     19  C   UNL     1     -23.036  31.508 -41.901  1.00  0.00     0.000 C 
BRANCH  19  20
ATOM     20  C   UNL     1     -21.748  30.754 -42.291  1.00  0.00     0.000 C 
BRANCH  20  21
ATOM     21  C   UNL     1     -20.552  31.066 -41.374  1.00  0.00     0.000 C 
BRANCH  21  22
ATOM     22  C   UNL     1     -19.915  29.804 -40.772  1.00  0.00    -0.000 C 
BRANCH  22  23
ATOM     23  C   UNL     1     -20.220  29.696 -39.274  1.00  0.00    -0.000 C 
BRANCH  23  24
ATOM     24  C   UNL     1     -21.520  28.912 -39.031  1.00  0.00    -0.000 C 
BRANCH  24  25
ATOM     25  C   UNL     1     -22.257  29.364 -37.759  1.00  0.00    -0.000 C 
BRANCH  25  26
ATOM     26  C   UNL     1     -23.263  30.496 -38.026  1.00  0.00    -0.000 C 
BRANCH  26  27
ATOM     27  C   UNL     1     -22.730  31.874 -37.601  1.00  0.00    -0.000 C 
BRANCH  27  28
ATOM     28  C   UNL     1     -22.999  32.965 -38.651  1.00  0.00    -0.000 C 
BRANCH  28  29
ATOM     29  C   UNL     1     -21.763  33.838 -38.921  1.00  0.00    -0.003 C 
ATOM     30  C   UNL     1     -20.489  33.273 -38.291  1.00  0.00     0.004 C 
ENDBRANCH  28  29
ENDBRANCH  27  28
ENDBRANCH  26  27
ENDBRANCH  25  26
ENDBRANCH  24  25
ENDBRANCH  23  24
ENDBRANCH  22  23
ENDBRANCH  21  22
ENDBRANCH  20  21
ENDBRANCH  19  20
ENDBRANCH  18  19
ENDBRANCH  17  18
ENDBRANCH   1  17
TORSDOF 26
ENDMDL
