MODEL 1
REMARK VINA RESULT:    -3.960      0.000      0.000
REMARK INTER + INTRA:          -4.075
REMARK INTER:                  -4.075
REMARK INTRA:                   0.000
REMARK UNBOUND:                 0.000
REMARK SMILES Nc1ncnc2nc[nH]c12
REMARK SMILES IDX 8 1 7 2 6 3 5 4 4 5 3 6 2 7 10 8 9 9 1 11
REMARK H PARENT 9 10 1 12 1 13
REMARK Flexibility Score: inf
ROOT
ATOM      1  C   UNL     1       2.187  15.632 -20.967  1.00  0.00     0.199 A 
ATOM      2  N   UNL     1       2.425  16.521 -19.964  1.00  0.00    -0.217 NA
ATOM      3  C   UNL     1       1.878  15.907 -18.902  1.00  0.00     0.182 A 
ATOM      4  N   UNL     1       1.841  16.372 -17.630  1.00  0.00    -0.215 NA
ATOM      5  C   UNL     1       1.238  15.598 -16.677  1.00  0.00     0.226 A 
ATOM      6  N   UNL     1       0.688  14.386 -17.011  1.00  0.00    -0.217 NA
ATOM      7  C   UNL     1       0.726  13.915 -18.293  1.00  0.00     0.152 A 
ATOM      8  C   UNL     1       1.343  14.714 -19.251  1.00  0.00     0.127 A 
ATOM      9  N   UNL     1       1.528  14.517 -20.562  1.00  0.00    -0.340 N 
ATOM     10  H   UNL     1       1.237  13.702 -21.147  1.00  0.00     0.168 HD
ENDROOT
BRANCH   7  11
ATOM     11  N   UNL     1       0.147  12.650 -18.616  1.00  0.00    -0.382 N 
ATOM     12  H   UNL     1      -0.726  12.316 -18.151  1.00  0.00     0.158 HD
ATOM     13  H   UNL     1       0.597  12.037 -19.331  1.00  0.00     0.158 HD
ENDBRANCH   7  11
TORSDOF 1
ENDMDL
MODEL 2
REMARK VINA RESULT:    -3.873      7.679      8.938
REMARK INTER + INTRA:          -3.987
REMARK INTER:                  -3.987
REMARK INTRA:                   0.000
REMARK UNBOUND:                 0.000
REMARK SMILES Nc1ncnc2nc[nH]c12
REMARK SMILES IDX 8 1 7 2 6 3 5 4 4 5 3 6 2 7 10 8 9 9 1 11
REMARK H PARENT 9 10 1 12 1 13
REMARK Flexibility Score: inf
ROOT
ATOM      1  C   UNL     1       3.186  10.119 -23.913  1.00  0.00     0.199 A 
ATOM      2  N   UNL     1       3.187   9.198 -22.910  1.00  0.00    -0.217 NA
ATOM      3  C   UNL     1       2.259   8.321 -23.327  1.00  0.00     0.182 A 
ATOM      4  N   UNL     1       1.866   7.195 -22.684  1.00  0.00    -0.215 NA
ATOM      5  C   UNL     1       0.902   6.421 -23.270  1.00  0.00     0.226 A 
ATOM      6  N   UNL     1       0.355   6.784 -24.474  1.00  0.00    -0.217 NA
ATOM      7  C   UNL     1       0.751   7.919 -25.124  1.00  0.00     0.152 A 
ATOM      8  C   UNL     1       1.733   8.696 -24.515  1.00  0.00     0.127 A 
ATOM      9  N   UNL     1       2.308   9.839 -24.909  1.00  0.00    -0.340 N 
ATOM     10  H   UNL     1       2.131  10.394 -25.776  1.00  0.00     0.168 HD
ENDROOT
BRANCH   7  11
ATOM     11  N   UNL     1       0.167   8.277 -26.377  1.00  0.00    -0.382 N 
ATOM     12  H   UNL     1      -0.804   8.655 -26.437  1.00  0.00     0.158 HD
ATOM     13  H   UNL     1       0.713   8.163 -27.260  1.00  0.00     0.158 HD
ENDBRANCH   7  11
TORSDOF 1
ENDMDL
MODEL 3
REMARK VINA RESULT:    -3.853      3.156      5.012
REMARK INTER + INTRA:          -3.966
REMARK INTER:                  -3.966
REMARK INTRA:                   0.000
REMARK UNBOUND:                 0.000
REMARK SMILES Nc1ncnc2nc[nH]c12
REMARK SMILES IDX 8 1 7 2 6 3 5 4 4 5 3 6 2 7 10 8 9 9 1 11
REMARK H PARENT 9 10 1 12 1 13
REMARK Flexibility Score: inf
ROOT
ATOM      1  C   UNL     1       5.876  17.859 -21.153  1.00  0.00     0.199 A 
ATOM      2  N   UNL     1       5.251  17.055 -20.250  1.00  0.00    -0.217 NA
ATOM      3  C   UNL     1       4.027  16.921 -20.786  1.00  0.00     0.182 A 
ATOM      4  N   UNL     1       2.995  16.207 -20.276  1.00  0.00    -0.215 NA
ATOM      5  C   UNL     1       1.817  16.189 -20.970  1.00  0.00     0.226 A 
ATOM      6  N   UNL     1       1.694  16.879 -22.149  1.00  0.00    -0.217 NA
ATOM      7  C   UNL     1       2.733  17.600 -22.666  1.00  0.00     0.152 A 
ATOM      8  C   UNL     1       3.926  17.608 -21.947  1.00  0.00     0.127 A 
ATOM      9  N   UNL     1       5.092  18.213 -22.203  1.00  0.00    -0.340 N 
ATOM     10  H   UNL     1       5.349  18.819 -23.014  1.00  0.00     0.168 HD
ENDROOT
BRANCH   7  11
ATOM     11  N   UNL     1       2.581  18.310 -23.895  1.00  0.00    -0.382 N 
ATOM     12  H   UNL     1       3.362  18.377 -24.585  1.00  0.00     0.158 HD
ATOM     13  H   UNL     1       1.674  18.775 -24.121  1.00  0.00     0.158 HD
ENDBRANCH   7  11
TORSDOF 1
ENDMDL
MODEL 4
REMARK VINA RESULT:    -3.791      3.293      4.926
REMARK INTER + INTRA:          -3.902
REMARK INTER:                  -3.902
REMARK INTRA:                   0.000
REMARK UNBOUND:                 0.000
REMARK SMILES Nc1ncnc2nc[nH]c12
REMARK SMILES IDX 8 1 7 2 6 3 5 4 4 5 3 6 2 7 10 8 9 9 1 11
REMARK H PARENT 9 10 1 12 1 13
REMARK Flexibility Score: inf
ROOT
ATOM      1  C   UNL     1       1.612  16.380 -23.026  1.00  0.00     0.199 A 
ATOM      2  N   UNL     1       1.646  15.836 -21.779  1.00  0.00    -0.217 NA
ATOM      3  C   UNL     1       2.746  16.399 -21.252  1.00  0.00     0.182 A 
ATOM      4  N   UNL     1       3.241  16.193 -20.008  1.00  0.00    -0.215 NA
ATOM      5  C   UNL     1       4.379  16.861 -19.648  1.00  0.00     0.226 A 
ATOM      6  N   UNL     1       4.994  17.714 -20.530  1.00  0.00    -0.217 NA
ATOM      7  C   UNL     1       4.495  17.923 -21.785  1.00  0.00     0.152 A 
ATOM      8  C   UNL     1       3.336  17.235 -22.136  1.00  0.00     0.127 A 
ATOM      9  N   UNL     1       2.632  17.241 -23.274  1.00  0.00    -0.340 N 
ATOM     10  H   UNL     1       2.814  17.775 -24.153  1.00  0.00     0.168 HD
ENDROOT
BRANCH   7  11
ATOM     11  N   UNL     1       5.153  18.815 -22.685  1.00  0.00    -0.382 N 
ATOM     12  H   UNL     1       4.643  19.609 -23.134  1.00  0.00     0.158 HD
ATOM     13  H   UNL     1       6.164  18.683 -22.906  1.00  0.00     0.158 HD
ENDBRANCH   7  11
TORSDOF 1
ENDMDL
MODEL 5
REMARK VINA RESULT:    -3.738      2.741      5.038
REMARK INTER + INTRA:          -3.847
REMARK INTER:                  -3.847
REMARK INTRA:                   0.000
REMARK UNBOUND:                 0.000
REMARK SMILES Nc1ncnc2nc[nH]c12
REMARK SMILES IDX 8 1 7 2 6 3 5 4 4 5 3 6 2 7 10 8 9 9 1 11
REMARK H PARENT 9 10 1 12 1 13
REMARK Flexibility Score: inf
ROOT
ATOM      1  C   UNL     1       1.740  15.673 -20.572  1.00  0.00     0.199 A 
ATOM      2  N   UNL     1       2.863  15.817 -19.815  1.00  0.00    -0.217 NA
ATOM      3  C   UNL     1       3.585  16.688 -20.539  1.00  0.00     0.182 A 
ATOM      4  N   UNL     1       4.810  17.176 -20.229  1.00  0.00    -0.215 NA
ATOM      5  C   UNL     1       5.391  18.061 -21.095  1.00  0.00     0.226 A 
ATOM      6  N   UNL     1       4.742  18.437 -22.244  1.00  0.00    -0.217 NA
ATOM      7  C   UNL     1       3.507  17.946 -22.559  1.00  0.00     0.152 A 
ATOM      8  C   UNL     1       2.929  17.046 -21.667  1.00  0.00     0.127 A 
ATOM      9  N   UNL     1       1.750  16.413 -21.709  1.00  0.00    -0.340 N 
ATOM     10  H   UNL     1       1.007  16.466 -22.441  1.00  0.00     0.168 HD
ENDROOT
BRANCH   7  11
ATOM     11  N   UNL     1       2.851  18.352 -23.761  1.00  0.00    -0.382 N 
ATOM     12  H   UNL     1       1.920  17.963 -24.031  1.00  0.00     0.158 HD
ATOM     13  H   UNL     1       3.302  19.052 -24.391  1.00  0.00     0.158 HD
ENDBRANCH   7  11
TORSDOF 1
ENDMDL
MODEL 6
REMARK VINA RESULT:    -3.710      2.438      4.048
REMARK INTER + INTRA:          -3.818
REMARK INTER:                  -3.818
REMARK INTRA:                   0.000
REMARK UNBOUND:                 0.000
REMARK SMILES Nc1ncnc2nc[nH]c12
REMARK SMILES IDX 8 1 7 2 6 3 5 4 4 5 3 6 2 7 10 8 9 9 1 11
REMARK H PARENT 9 10 1 12 1 13
REMARK Flexibility Score: inf
ROOT
ATOM      1  C   UNL     1       5.005  18.451 -21.348  1.00  0.00     0.199 A 
ATOM      2  N   UNL     1       4.127  17.587 -21.926  1.00  0.00    -0.217 NA
ATOM      3  C   UNL     1       3.520  17.041 -20.859  1.00  0.00     0.182 A 
ATOM      4  N   UNL     1       2.543  16.103 -20.878  1.00  0.00    -0.215 NA
ATOM      5  C   UNL     1       2.044  15.667 -19.681  1.00  0.00     0.226 A 
ATOM      6  N   UNL     1       2.527  16.172 -18.501  1.00  0.00    -0.217 NA
ATOM      7  C   UNL     1       3.512  17.119 -18.480  1.00  0.00     0.152 A 
ATOM      8  C   UNL     1       4.009  17.553 -19.706  1.00  0.00     0.127 A 
ATOM      9  N   UNL     1       4.957  18.454 -19.992  1.00  0.00    -0.340 N 
ATOM     10  H   UNL     1       5.531  19.028 -19.335  1.00  0.00     0.168 HD
ENDROOT
BRANCH   7  11
ATOM     11  N   UNL     1       3.998  17.629 -17.238  1.00  0.00    -0.382 N 
ATOM     12  H   UNL     1       3.989  17.049 -16.370  1.00  0.00     0.158 HD
ATOM     13  H   UNL     1       4.374  18.602 -17.185  1.00  0.00     0.158 HD
ENDBRANCH   7  11
TORSDOF 1
ENDMDL
MODEL 7
REMARK VINA RESULT:    -3.707      1.774      3.938
REMARK INTER + INTRA:          -3.815
REMARK INTER:                  -3.815
REMARK INTRA:                   0.000
REMARK UNBOUND:                 0.000
REMARK SMILES Nc1ncnc2nc[nH]c12
REMARK SMILES IDX 8 1 7 2 6 3 5 4 4 5 3 6 2 7 10 8 9 9 1 11
REMARK H PARENT 9 10 1 12 1 13
REMARK Flexibility Score: inf
ROOT
ATOM      1  C   UNL     1       1.741  15.092 -18.975  1.00  0.00     0.199 A 
ATOM      2  N   UNL     1       2.566  16.136 -19.262  1.00  0.00    -0.217 NA
ATOM      3  C   UNL     1       2.431  16.248 -20.594  1.00  0.00     0.182 A 
ATOM      4  N   UNL     1       3.048  17.149 -21.395  1.00  0.00    -0.215 NA
ATOM      5  C   UNL     1       2.783  17.108 -22.737  1.00  0.00     0.226 A 
ATOM      6  N   UNL     1       1.914  16.177 -23.246  1.00  0.00    -0.217 NA
ATOM      7  C   UNL     1       1.290  15.267 -22.439  1.00  0.00     0.152 A 
ATOM      8  C   UNL     1       1.571  15.322 -21.076  1.00  0.00     0.127 A 
ATOM      9  N   UNL     1       1.117  14.574 -20.063  1.00  0.00    -0.340 N 
ATOM     10  H   UNL     1       0.444  13.776 -20.091  1.00  0.00     0.168 HD
ENDROOT
BRANCH   7  11
ATOM     11  N   UNL     1       0.390  14.307 -22.992  1.00  0.00    -0.382 N 
ATOM     12  H   UNL     1      -0.299  13.799 -22.394  1.00  0.00     0.158 HD
ATOM     13  H   UNL     1       0.410  14.101 -24.015  1.00  0.00     0.158 HD
ENDBRANCH   7  11
TORSDOF 1
ENDMDL
MODEL 8
REMARK VINA RESULT:    -3.646      0.930      2.999
REMARK INTER + INTRA:          -3.753
REMARK INTER:                  -3.753
REMARK INTRA:                   0.000
REMARK UNBOUND:                 0.000
REMARK SMILES Nc1ncnc2nc[nH]c12
REMARK SMILES IDX 8 1 7 2 6 3 5 4 4 5 3 6 2 7 10 8 9 9 1 11
REMARK H PARENT 9 10 1 12 1 13
REMARK Flexibility Score: inf
ROOT
ATOM      1  C   UNL     1       0.241  13.928 -17.572  1.00  0.00     0.199 A 
ATOM      2  N   UNL     1       0.931  14.945 -16.986  1.00  0.00    -0.217 NA
ATOM      3  C   UNL     1       1.573  15.492 -18.032  1.00  0.00     0.182 A 
ATOM      4  N   UNL     1       2.411  16.556 -17.998  1.00  0.00    -0.215 NA
ATOM      5  C   UNL     1       2.973  16.973 -19.173  1.00  0.00     0.226 A 
ATOM      6  N   UNL     1       2.690  16.323 -20.348  1.00  0.00    -0.217 NA
ATOM      7  C   UNL     1       1.846  15.250 -20.384  1.00  0.00     0.152 A 
ATOM      8  C   UNL     1       1.281  14.839 -19.179  1.00  0.00     0.127 A 
ATOM      9  N   UNL     1       0.433  13.838 -18.912  1.00  0.00    -0.340 N 
ATOM     10  H   UNL     1       0.014  13.144 -19.570  1.00  0.00     0.168 HD
ENDROOT
BRANCH   7  11
ATOM     11  N   UNL     1       1.567  14.590 -21.619  1.00  0.00    -0.382 N 
ATOM     12  H   UNL     1       1.702  15.071 -22.536  1.00  0.00     0.158 HD
ATOM     13  H   UNL     1       1.220  13.605 -21.619  1.00  0.00     0.158 HD
ENDBRANCH   7  11
TORSDOF 1
ENDMDL
MODEL 9
REMARK VINA RESULT:    -3.533      3.053      5.202
REMARK INTER + INTRA:          -3.636
REMARK INTER:                  -3.636
REMARK INTRA:                   0.000
REMARK UNBOUND:                 0.000
REMARK SMILES Nc1ncnc2nc[nH]c12
REMARK SMILES IDX 8 1 7 2 6 3 5 4 4 5 3 6 2 7 10 8 9 9 1 11
REMARK H PARENT 9 10 1 12 1 13
REMARK Flexibility Score: inf
ROOT
ATOM      1  C   UNL     1       1.947  16.356 -20.586  1.00  0.00     0.199 A 
ATOM      2  N   UNL     1       1.935  17.383 -21.480  1.00  0.00    -0.217 NA
ATOM      3  C   UNL     1       3.220  17.775 -21.483  1.00  0.00     0.182 A 
ATOM      4  N   UNL     1       3.756  18.780 -22.215  1.00  0.00    -0.215 NA
ATOM      5  C   UNL     1       5.094  19.032 -22.085  1.00  0.00     0.226 A 
ATOM      6  N   UNL     1       5.862  18.281 -21.232  1.00  0.00    -0.217 NA
ATOM      7  C   UNL     1       5.323  17.266 -20.492  1.00  0.00     0.152 A 
ATOM      8  C   UNL     1       3.960  17.022 -20.637  1.00  0.00     0.127 A 
ATOM      9  N   UNL     1       3.171  16.111 -20.054  1.00  0.00    -0.340 N 
ATOM     10  H   UNL     1       3.426  15.380 -19.353  1.00  0.00     0.168 HD
ENDROOT
BRANCH   7  11
ATOM     11  N   UNL     1       6.144  16.498 -19.611  1.00  0.00    -0.382 N 
ATOM     12  H   UNL     1       6.475  16.885 -18.700  1.00  0.00     0.158 HD
ATOM     13  H   UNL     1       6.425  15.527 -19.873  1.00  0.00     0.158 HD
ENDBRANCH   7  11
TORSDOF 1
ENDMDL
