MODEL 1
REMARK VINA RESULT:    -5.120      0.000      0.000
REMARK INTER + INTRA:          -7.546
REMARK INTER:                  -7.065
REMARK INTRA:                  -0.481
REMARK UNBOUND:                -0.481
REMARK SMILES CCCCc1cccc(O)c1CCCC
REMARK SMILES IDX 5 1 11 2 9 3 8 4 7 5 6 6 4 7 3 8 2 9 1 10 12 11 13 12 14 13
REMARK SMILES IDX 15 14 10 15
REMARK H PARENT 10 16
REMARK Flexibility Score: inf
ROOT
ATOM      1  C   UNL     1     -30.415 -19.972 -32.539  1.00  0.00    -0.041 A 
ATOM      2  C   UNL     1     -30.129 -19.838 -31.149  1.00  0.00    -0.003 A 
ATOM      3  C   UNL     1     -28.894 -19.273 -30.755  1.00  0.00     0.119 A 
ATOM      4  C   UNL     1     -27.959 -18.875 -31.717  1.00  0.00     0.046 A 
ATOM      5  C   UNL     1     -28.234 -19.029 -33.072  1.00  0.00     0.004 A 
ATOM      6  C   UNL     1     -29.452 -19.568 -33.481  1.00  0.00     0.004 A 
ENDROOT
BRANCH   1   7
ATOM      7  C   UNL     1     -31.747 -20.477 -33.061  1.00  0.00     0.036 C 
BRANCH   7   8
ATOM      8  C   UNL     1     -31.591 -21.728 -33.941  1.00  0.00     0.004 C 
BRANCH   8   9
ATOM      9  C   UNL     1     -32.588 -21.755 -35.109  1.00  0.00    -0.003 C 
ATOM     10  C   UNL     1     -31.872 -21.973 -36.438  1.00  0.00     0.004 C 
ENDBRANCH   8   9
ENDBRANCH   7   8
ENDBRANCH   1   7
BRANCH   2  11
ATOM     11  C   UNL     1     -31.095 -20.328 -30.082  1.00  0.00     0.040 C 
BRANCH  11  12
ATOM     12  C   UNL     1     -31.733 -19.170 -29.290  1.00  0.00     0.005 C 
BRANCH  12  13
ATOM     13  C   UNL     1     -33.200 -18.883 -29.655  1.00  0.00    -0.003 C 
ATOM     14  C   UNL     1     -34.125 -18.885 -28.438  1.00  0.00     0.004 C 
ENDBRANCH  12  13
ENDBRANCH  11  12
ENDBRANCH   2  11
BRANCH   3  15
ATOM     15  O   UNL     1     -28.595 -19.104 -29.402  1.00  0.00    -0.508 OA
ATOM     16  H   UNL     1     -28.726 -18.215 -28.934  1.00  0.00     0.293 HD
ENDBRANCH   3  15
TORSDOF 7
ENDMDL
MODEL 2
REMARK VINA RESULT:    -4.667      1.475      5.022
REMARK INTER + INTRA:          -6.922
REMARK INTER:                  -6.352
REMARK INTRA:                  -0.570
REMARK UNBOUND:                -0.481
REMARK SMILES CCCCc1cccc(O)c1CCCC
REMARK SMILES IDX 5 1 11 2 9 3 8 4 7 5 6 6 4 7 3 8 2 9 1 10 12 11 13 12 14 13
REMARK SMILES IDX 15 14 10 15
REMARK H PARENT 10 16
REMARK Flexibility Score: inf
ROOT
ATOM      1  C   UNL     1     -30.425 -19.722 -31.292  1.00  0.00    -0.041 A 
ATOM      2  C   UNL     1     -30.387 -19.858 -32.710  1.00  0.00    -0.003 A 
ATOM      3  C   UNL     1     -29.200 -19.514 -33.399  1.00  0.00     0.119 A 
ATOM      4  C   UNL     1     -28.092 -19.027 -32.699  1.00  0.00     0.046 A 
ATOM      5  C   UNL     1     -28.143 -18.875 -31.317  1.00  0.00     0.004 A 
ATOM      6  C   UNL     1     -29.296 -19.223 -30.618  1.00  0.00     0.004 A 
ENDROOT
BRANCH   1   7
ATOM      7  C   UNL     1     -31.616 -20.153 -30.456  1.00  0.00     0.036 C 
BRANCH   7   8
ATOM      8  C   UNL     1     -32.141 -19.017 -29.562  1.00  0.00     0.004 C 
BRANCH   8   9
ATOM      9  C   UNL     1     -33.673 -19.010 -29.458  1.00  0.00    -0.003 C 
ATOM     10  C   UNL     1     -34.125 -18.875 -28.007  1.00  0.00     0.004 C 
ENDBRANCH   8   9
ENDBRANCH   7   8
ENDBRANCH   1   7
BRANCH   2  11
ATOM     11  C   UNL     1     -31.600 -20.316 -33.504  1.00  0.00     0.040 C 
BRANCH  11  12
ATOM     12  C   UNL     1     -31.539 -21.814 -33.859  1.00  0.00     0.005 C 
BRANCH  12  13
ATOM     13  C   UNL     1     -32.200 -22.176 -35.201  1.00  0.00    -0.003 C 
ATOM     14  C   UNL     1     -31.206 -22.210 -36.362  1.00  0.00     0.004 C 
ENDBRANCH  12  13
ENDBRANCH  11  12
ENDBRANCH   2  11
BRANCH   3  15
ATOM     15  O   UNL     1     -29.122 -19.660 -34.785  1.00  0.00    -0.508 OA
ATOM     16  H   UNL     1     -28.395 -20.213 -35.223  1.00  0.00     0.293 HD
ENDBRANCH   3  15
TORSDOF 7
ENDMDL
MODEL 3
REMARK VINA RESULT:    -4.166      1.339      2.177
REMARK INTER + INTRA:          -6.230
REMARK INTER:                  -5.554
REMARK INTRA:                  -0.676
REMARK UNBOUND:                -0.481
REMARK SMILES CCCCc1cccc(O)c1CCCC
REMARK SMILES IDX 5 1 11 2 9 3 8 4 7 5 6 6 4 7 3 8 2 9 1 10 12 11 13 12 14 13
REMARK SMILES IDX 15 14 10 15
REMARK H PARENT 10 16
REMARK Flexibility Score: inf
ROOT
ATOM      1  C   UNL     1     -30.268 -19.893 -32.641  1.00  0.00    -0.041 A 
ATOM      2  C   UNL     1     -30.023 -19.834 -31.238  1.00  0.00    -0.003 A 
ATOM      3  C   UNL     1     -28.792 -19.307 -30.779  1.00  0.00     0.119 A 
ATOM      4  C   UNL     1     -27.824 -18.875 -31.692  1.00  0.00     0.046 A 
ATOM      5  C   UNL     1     -28.060 -18.957 -33.061  1.00  0.00     0.004 A 
ATOM      6  C   UNL     1     -29.272 -19.457 -33.532  1.00  0.00     0.004 A 
ENDROOT
BRANCH   1   7
ATOM      7  C   UNL     1     -31.590 -20.352 -33.226  1.00  0.00     0.036 C 
BRANCH   7   8
ATOM      8  C   UNL     1     -31.431 -21.592 -34.122  1.00  0.00     0.004 C 
BRANCH   8   9
ATOM      9  C   UNL     1     -32.604 -21.767 -35.098  1.00  0.00    -0.003 C 
ATOM     10  C   UNL     1     -32.396 -22.985 -35.993  1.00  0.00     0.004 C 
ENDBRANCH   8   9
ENDBRANCH   7   8
ENDBRANCH   1   7
BRANCH   2  11
ATOM     11  C   UNL     1     -31.026 -20.362 -30.226  1.00  0.00     0.040 C 
BRANCH  11  12
ATOM     12  C   UNL     1     -30.703 -21.799 -29.772  1.00  0.00     0.005 C 
BRANCH  12  13
ATOM     13  C   UNL     1     -31.106 -22.889 -30.780  1.00  0.00    -0.003 C 
ATOM     14  C   UNL     1     -31.343 -24.248 -30.121  1.00  0.00     0.004 C 
ENDBRANCH  12  13
ENDBRANCH  11  12
ENDBRANCH   2  11
BRANCH   3  15
ATOM     15  O   UNL     1     -28.532 -19.211 -29.412  1.00  0.00    -0.508 OA
ATOM     16  H   UNL     1     -28.519 -18.318 -28.933  1.00  0.00     0.293 HD
ENDBRANCH   3  15
TORSDOF 7
ENDMDL
MODEL 4
REMARK VINA RESULT:    -3.859      3.905      7.627
REMARK INTER + INTRA:          -5.807
REMARK INTER:                  -5.134
REMARK INTRA:                  -0.673
REMARK UNBOUND:                -0.481
REMARK SMILES CCCCc1cccc(O)c1CCCC
REMARK SMILES IDX 5 1 11 2 9 3 8 4 7 5 6 6 4 7 3 8 2 9 1 10 12 11 13 12 14 13
REMARK SMILES IDX 15 14 10 15
REMARK H PARENT 10 16
REMARK Flexibility Score: inf
ROOT
ATOM      1  C   UNL     1     -32.681 -21.767 -35.396  1.00  0.00    -0.041 A 
ATOM      2  C   UNL     1     -32.463 -22.233 -36.724  1.00  0.00    -0.003 A 
ATOM      3  C   UNL     1     -33.074 -21.547 -37.800  1.00  0.00     0.119 A 
ATOM      4  C   UNL     1     -33.898 -20.443 -37.558  1.00  0.00     0.046 A 
ATOM      5  C   UNL     1     -34.125 -20.006 -36.257  1.00  0.00     0.004 A 
ATOM      6  C   UNL     1     -33.519 -20.658 -35.185  1.00  0.00     0.004 A 
ENDROOT
BRANCH   1   7
ATOM      7  C   UNL     1     -31.995 -22.376 -34.187  1.00  0.00     0.036 C 
BRANCH   7   8
ATOM      8  C   UNL     1     -31.352 -21.310 -33.284  1.00  0.00     0.004 C 
BRANCH   8   9
ATOM      9  C   UNL     1     -30.004 -20.814 -33.826  1.00  0.00    -0.003 C 
ATOM     10  C   UNL     1     -29.229 -20.049 -32.757  1.00  0.00     0.004 C 
ENDBRANCH   8   9
ENDBRANCH   7   8
ENDBRANCH   1   7
BRANCH   2  11
ATOM     11  C   UNL     1     -31.631 -23.473 -37.012  1.00  0.00     0.040 C 
BRANCH  11  12
ATOM     12  C   UNL     1     -32.499 -24.730 -37.213  1.00  0.00     0.005 C 
BRANCH  12  13
ATOM     13  C   UNL     1     -32.225 -25.489 -38.524  1.00  0.00    -0.003 C 
ATOM     14  C   UNL     1     -32.695 -26.942 -38.477  1.00  0.00     0.004 C 
ENDBRANCH  12  13
ENDBRANCH  11  12
ENDBRANCH   2  11
BRANCH   3  15
ATOM     15  O   UNL     1     -32.859 -21.963 -39.115  1.00  0.00    -0.508 OA
ATOM     16  H   UNL     1     -33.423 -21.617 -39.883  1.00  0.00     0.293 HD
ENDBRANCH   3  15
TORSDOF 7
ENDMDL
MODEL 5
REMARK VINA RESULT:    -3.186      1.066      3.731
REMARK INTER + INTRA:          -4.878
REMARK INTER:                  -4.941
REMARK INTRA:                   0.062
REMARK UNBOUND:                -0.481
REMARK SMILES CCCCc1cccc(O)c1CCCC
REMARK SMILES IDX 5 1 11 2 9 3 8 4 7 5 6 6 4 7 3 8 2 9 1 10 12 11 13 12 14 13
REMARK SMILES IDX 15 14 10 15
REMARK H PARENT 10 16
REMARK Flexibility Score: inf
ROOT
ATOM      1  C   UNL     1     -32.013 -19.745 -32.484  1.00  0.00    -0.041 A 
ATOM      2  C   UNL     1     -30.858 -20.103 -31.729  1.00  0.00    -0.003 A 
ATOM      3  C   UNL     1     -30.845 -19.854 -30.337  1.00  0.00     0.119 A 
ATOM      4  C   UNL     1     -31.941 -19.244 -29.717  1.00  0.00     0.046 A 
ATOM      5  C   UNL     1     -33.056 -18.876 -30.463  1.00  0.00     0.004 A 
ATOM      6  C   UNL     1     -33.096 -19.128 -31.832  1.00  0.00     0.004 A 
ENDROOT
BRANCH   1   7
ATOM      7  C   UNL     1     -32.160 -20.057 -33.961  1.00  0.00     0.036 C 
BRANCH   7   8
ATOM      8  C   UNL     1     -32.168 -21.570 -34.238  1.00  0.00     0.004 C 
BRANCH   8   9
ATOM      9  C   UNL     1     -31.926 -21.899 -35.718  1.00  0.00    -0.003 C 
ATOM     10  C   UNL     1     -32.459 -23.285 -36.068  1.00  0.00     0.004 C 
ENDBRANCH   8   9
ENDBRANCH   7   8
ENDBRANCH   1   7
BRANCH   2  11
ATOM     11  C   UNL     1     -29.625 -20.701 -32.387  1.00  0.00     0.040 C 
BRANCH  11  12
ATOM     12  C   UNL     1     -29.145 -19.876 -33.597  1.00  0.00     0.005 C 
BRANCH  12  13
ATOM     13  C   UNL     1     -28.020 -18.875 -33.277  1.00  0.00    -0.003 C 
ATOM     14  C   UNL     1     -27.588 -18.918 -31.812  1.00  0.00     0.004 C 
ENDBRANCH  12  13
ENDBRANCH  11  12
ENDBRANCH   2  11
BRANCH   3  15
ATOM     15  O   UNL     1     -29.740 -20.216 -29.565  1.00  0.00    -0.508 OA
ATOM     16  H   UNL     1     -29.521 -19.749 -28.693  1.00  0.00     0.293 HD
ENDBRANCH   3  15
TORSDOF 7
ENDMDL
MODEL 6
REMARK VINA RESULT:    -3.014      3.506      6.633
REMARK INTER + INTRA:          -4.640
REMARK INTER:                  -4.037
REMARK INTRA:                  -0.603
REMARK UNBOUND:                -0.481
REMARK SMILES CCCCc1cccc(O)c1CCCC
REMARK SMILES IDX 5 1 11 2 9 3 8 4 7 5 6 6 4 7 3 8 2 9 1 10 12 11 13 12 14 13
REMARK SMILES IDX 15 14 10 15
REMARK H PARENT 10 16
REMARK Flexibility Score: inf
ROOT
ATOM      1  C   UNL     1     -32.388 -22.823 -37.560  1.00  0.00    -0.041 A 
ATOM      2  C   UNL     1     -32.818 -22.003 -36.477  1.00  0.00    -0.003 A 
ATOM      3  C   UNL     1     -33.616 -20.868 -36.752  1.00  0.00     0.119 A 
ATOM      4  C   UNL     1     -33.956 -20.545 -38.070  1.00  0.00     0.046 A 
ATOM      5  C   UNL     1     -33.514 -21.337 -39.125  1.00  0.00     0.004 A 
ATOM      6  C   UNL     1     -32.741 -22.468 -38.874  1.00  0.00     0.004 A 
ENDROOT
BRANCH   1   7
ATOM      7  C   UNL     1     -31.611 -24.110 -37.359  1.00  0.00     0.036 C 
BRANCH   7   8
ATOM      8  C   UNL     1     -31.938 -25.161 -38.434  1.00  0.00     0.004 C 
BRANCH   8   9
ATOM      9  C   UNL     1     -33.025 -26.148 -37.981  1.00  0.00    -0.003 C 
ATOM     10  C   UNL     1     -32.880 -27.490 -38.692  1.00  0.00     0.004 C 
ENDBRANCH   8   9
ENDBRANCH   7   8
ENDBRANCH   1   7
BRANCH   2  11
ATOM     11  C   UNL     1     -32.404 -22.288 -35.042  1.00  0.00     0.040 C 
BRANCH  11  12
ATOM     12  C   UNL     1     -31.144 -21.504 -34.626  1.00  0.00     0.005 C 
BRANCH  12  13
ATOM     13  C   UNL     1     -31.134 -21.053 -33.155  1.00  0.00    -0.003 C 
ATOM     14  C   UNL     1     -29.764 -20.553 -32.697  1.00  0.00     0.004 C 
ENDBRANCH  12  13
ENDBRANCH  11  12
ENDBRANCH   2  11
BRANCH   3  15
ATOM     15  O   UNL     1     -34.075 -20.059 -35.711  1.00  0.00    -0.508 OA
ATOM     16  H   UNL     1     -33.924 -20.303 -34.740  1.00  0.00     0.293 HD
ENDBRANCH   3  15
TORSDOF 7
ENDMDL
MODEL 7
REMARK VINA RESULT:    -2.893      2.496      4.788
REMARK INTER + INTRA:          -4.473
REMARK INTER:                  -3.712
REMARK INTRA:                  -0.761
REMARK UNBOUND:                -0.481
REMARK SMILES CCCCc1cccc(O)c1CCCC
REMARK SMILES IDX 5 1 11 2 9 3 8 4 7 5 6 6 4 7 3 8 2 9 1 10 12 11 13 12 14 13
REMARK SMILES IDX 15 14 10 15
REMARK H PARENT 10 16
REMARK Flexibility Score: inf
ROOT
ATOM      1  C   UNL     1     -32.347 -21.597 -35.518  1.00  0.00    -0.041 A 
ATOM      2  C   UNL     1     -32.097 -20.840 -34.337  1.00  0.00    -0.003 A 
ATOM      3  C   UNL     1     -32.896 -19.703 -34.070  1.00  0.00     0.119 A 
ATOM      4  C   UNL     1     -33.899 -19.317 -34.966  1.00  0.00     0.046 A 
ATOM      5  C   UNL     1     -34.123 -20.047 -36.128  1.00  0.00     0.004 A 
ATOM      6  C   UNL     1     -33.359 -21.179 -36.401  1.00  0.00     0.004 A 
ENDROOT
BRANCH   1   7
ATOM      7  C   UNL     1     -31.610 -22.882 -35.843  1.00  0.00     0.036 C 
BRANCH   7   8
ATOM      8  C   UNL     1     -32.499 -23.891 -36.590  1.00  0.00     0.004 C 
BRANCH   8   9
ATOM      9  C   UNL     1     -31.858 -24.389 -37.893  1.00  0.00    -0.003 C 
ATOM     10  C   UNL     1     -31.852 -23.294 -38.956  1.00  0.00     0.004 C 
ENDBRANCH   8   9
ENDBRANCH   7   8
ENDBRANCH   1   7
BRANCH   2  11
ATOM     11  C   UNL     1     -30.968 -21.193 -33.383  1.00  0.00     0.040 C 
BRANCH  11  12
ATOM     12  C   UNL     1     -29.659 -20.453 -33.720  1.00  0.00     0.005 C 
BRANCH  12  13
ATOM     13  C   UNL     1     -29.040 -19.687 -32.537  1.00  0.00    -0.003 C 
ATOM     14  C   UNL     1     -29.865 -19.807 -31.256  1.00  0.00     0.004 C 
ENDBRANCH  12  13
ENDBRANCH  11  12
ENDBRANCH   2  11
BRANCH   3  15
ATOM     15  O   UNL     1     -32.694 -18.955 -32.908  1.00  0.00    -0.508 OA
ATOM     16  H   UNL     1     -32.127 -19.302 -32.143  1.00  0.00     0.293 HD
ENDBRANCH   3  15
TORSDOF 7
ENDMDL
MODEL 8
REMARK VINA RESULT:    -2.859      2.943      6.683
REMARK INTER + INTRA:          -4.427
REMARK INTER:                  -3.877
REMARK INTRA:                  -0.550
REMARK UNBOUND:                -0.481
REMARK SMILES CCCCc1cccc(O)c1CCCC
REMARK SMILES IDX 5 1 11 2 9 3 8 4 7 5 6 6 4 7 3 8 2 9 1 10 12 11 13 12 14 13
REMARK SMILES IDX 15 14 10 15
REMARK H PARENT 10 16
REMARK Flexibility Score: inf
ROOT
ATOM      1  C   UNL     1     -32.004 -20.646 -33.855  1.00  0.00    -0.041 A 
ATOM      2  C   UNL     1     -32.538 -21.402 -34.938  1.00  0.00    -0.003 A 
ATOM      3  C   UNL     1     -33.597 -20.854 -35.700  1.00  0.00     0.119 A 
ATOM      4  C   UNL     1     -34.125 -19.599 -35.377  1.00  0.00     0.046 A 
ATOM      5  C   UNL     1     -33.614 -18.876 -34.304  1.00  0.00     0.004 A 
ATOM      6  C   UNL     1     -32.560 -19.391 -33.552  1.00  0.00     0.004 A 
ENDROOT
BRANCH   1   7
ATOM      7  C   UNL     1     -30.809 -21.106 -33.041  1.00  0.00     0.036 C 
BRANCH   7   8
ATOM      8  C   UNL     1     -30.001 -19.925 -32.476  1.00  0.00     0.004 C 
BRANCH   8   9
ATOM      9  C   UNL     1     -29.853 -19.991 -30.949  1.00  0.00    -0.003 C 
ATOM     10  C   UNL     1     -31.160 -19.621 -30.253  1.00  0.00     0.004 C 
ENDBRANCH   8   9
ENDBRANCH   7   8
ENDBRANCH   1   7
BRANCH   2  11
ATOM     11  C   UNL     1     -32.034 -22.798 -35.267  1.00  0.00     0.040 C 
BRANCH  11  12
ATOM     12  C   UNL     1     -31.248 -22.843 -36.592  1.00  0.00     0.005 C 
BRANCH  12  13
ATOM     13  C   UNL     1     -31.611 -24.027 -37.506  1.00  0.00    -0.003 C 
ATOM     14  C   UNL     1     -31.916 -23.596 -38.940  1.00  0.00     0.004 C 
ENDBRANCH  12  13
ENDBRANCH  11  12
ENDBRANCH   2  11
BRANCH   3  15
ATOM     15  O   UNL     1     -34.125 -21.558 -36.784  1.00  0.00    -0.508 OA
ATOM     16  H   UNL     1     -33.876 -21.331 -37.739  1.00  0.00     0.293 HD
ENDBRANCH   3  15
TORSDOF 7
ENDMDL
