MODEL 1
REMARK VINA RESULT:    -4.968      0.000      0.000
REMARK INTER + INTRA:          -5.651
REMARK INTER:                  -5.404
REMARK INTRA:                  -0.247
REMARK UNBOUND:                -0.247
REMARK SMILES O=C([O-])c1ccccc1O
REMARK SMILES IDX 4 1 9 2 5 3 8 4 6 5 7 6 2 7 1 8 3 9 10 10
REMARK H PARENT 10 11
REMARK Flexibility Score: inf
ROOT
ATOM      1  C   UNL     1      -6.075   3.647  15.161  1.00  0.00     0.039 A 
ATOM      2  C   UNL     1      -6.603   4.387  16.245  1.00  0.00     0.124 A 
ATOM      3  C   UNL     1      -6.741   3.695  13.920  1.00  0.00     0.014 A 
ATOM      4  C   UNL     1      -7.769   5.150  16.072  1.00  0.00     0.047 A 
ATOM      5  C   UNL     1      -7.900   4.459  13.760  1.00  0.00     0.001 A 
ATOM      6  C   UNL     1      -8.413   5.184  14.834  1.00  0.00     0.004 A 
ENDROOT
BRANCH   1   7
ATOM      7  C   UNL     1      -4.845   2.826  15.300  1.00  0.00     0.075 C 
ATOM      8  O   UNL     1      -4.673   2.103  16.318  1.00  0.00    -0.545 OA
ATOM      9  O   UNL     1      -3.860   2.837  14.319  1.00  0.00    -0.545 OA
ENDBRANCH   1   7
BRANCH   2  10
ATOM     10  O   UNL     1      -5.979   4.369  17.492  1.00  0.00    -0.507 OA
ATOM     11  H   UNL     1      -4.971   4.318  17.583  1.00  0.00     0.293 HD
ENDBRANCH   2  10
TORSDOF 2
ENDMDL
MODEL 2
REMARK VINA RESULT:    -4.371      2.279      4.001
REMARK INTER + INTRA:          -5.002
REMARK INTER:                  -4.808
REMARK INTRA:                  -0.194
REMARK UNBOUND:                -0.247
REMARK SMILES O=C([O-])c1ccccc1O
REMARK SMILES IDX 4 1 9 2 5 3 8 4 6 5 7 6 2 7 1 8 3 9 10 10
REMARK H PARENT 10 11
REMARK Flexibility Score: inf
ROOT
ATOM      1  C   UNL     1      -6.817   4.805  15.420  1.00  0.00     0.039 A 
ATOM      2  C   UNL     1      -6.264   3.814  14.573  1.00  0.00     0.124 A 
ATOM      3  C   UNL     1      -6.750   4.618  16.815  1.00  0.00     0.014 A 
ATOM      4  C   UNL     1      -5.663   2.674  15.129  1.00  0.00     0.047 A 
ATOM      5  C   UNL     1      -6.147   3.479  17.355  1.00  0.00     0.001 A 
ATOM      6  C   UNL     1      -5.606   2.509  16.514  1.00  0.00     0.004 A 
ENDROOT
BRANCH   1   7
ATOM      7  C   UNL     1      -7.463   6.026  14.875  1.00  0.00     0.075 C 
ATOM      8  O   UNL     1      -8.574   5.950  14.285  1.00  0.00    -0.545 OA
ATOM      9  O   UNL     1      -6.862   7.273  15.001  1.00  0.00    -0.545 OA
ENDBRANCH   1   7
BRANCH   2  10
ATOM     10  O   UNL     1      -6.308   3.955  13.187  1.00  0.00    -0.507 OA
ATOM     11  H   UNL     1      -6.744   4.757  12.746  1.00  0.00     0.293 HD
ENDBRANCH   2  10
TORSDOF 2
ENDMDL
MODEL 3
REMARK VINA RESULT:    -4.061      0.945      2.149
REMARK INTER + INTRA:          -4.664
REMARK INTER:                  -4.410
REMARK INTRA:                  -0.254
REMARK UNBOUND:                -0.247
REMARK SMILES O=C([O-])c1ccccc1O
REMARK SMILES IDX 4 1 9 2 5 3 8 4 6 5 7 6 2 7 1 8 3 9 10 10
REMARK H PARENT 10 11
REMARK Flexibility Score: inf
ROOT
ATOM      1  C   UNL     1      -6.139   3.595  15.437  1.00  0.00     0.039 A 
ATOM      2  C   UNL     1      -6.518   3.745  14.081  1.00  0.00     0.124 A 
ATOM      3  C   UNL     1      -6.862   4.295  16.423  1.00  0.00     0.014 A 
ATOM      4  C   UNL     1      -7.595   4.579  13.743  1.00  0.00     0.047 A 
ATOM      5  C   UNL     1      -7.933   5.121  16.073  1.00  0.00     0.001 A 
ATOM      6  C   UNL     1      -8.298   5.263  14.735  1.00  0.00     0.004 A 
ENDROOT
BRANCH   1   7
ATOM      7  C   UNL     1      -5.006   2.723  15.840  1.00  0.00     0.075 C 
ATOM      8  O   UNL     1      -5.114   1.958  16.835  1.00  0.00    -0.545 OA
ATOM      9  O   UNL     1      -3.808   2.732  15.136  1.00  0.00    -0.545 OA
ENDBRANCH   1   7
BRANCH   2  10
ATOM     10  O   UNL     1      -5.832   3.072  13.070  1.00  0.00    -0.507 OA
ATOM     11  H   UNL     1      -5.976   3.292  12.092  1.00  0.00     0.293 HD
ENDBRANCH   2  10
TORSDOF 2
ENDMDL
MODEL 4
REMARK VINA RESULT:    -3.612      2.448      3.473
REMARK INTER + INTRA:          -4.176
REMARK INTER:                  -3.922
REMARK INTRA:                  -0.253
REMARK UNBOUND:                -0.247
REMARK SMILES O=C([O-])c1ccccc1O
REMARK SMILES IDX 4 1 9 2 5 3 8 4 6 5 7 6 2 7 1 8 3 9 10 10
REMARK H PARENT 10 11
REMARK Flexibility Score: inf
ROOT
ATOM      1  C   UNL     1      -7.032   4.818  15.424  1.00  0.00     0.039 A 
ATOM      2  C   UNL     1      -6.435   4.881  16.706  1.00  0.00     0.124 A 
ATOM      3  C   UNL     1      -7.124   3.568  14.780  1.00  0.00     0.014 A 
ATOM      4  C   UNL     1      -5.949   3.711  17.311  1.00  0.00     0.047 A 
ATOM      5  C   UNL     1      -6.637   2.411  15.394  1.00  0.00     0.001 A 
ATOM      6  C   UNL     1      -6.050   2.483  16.656  1.00  0.00     0.004 A 
ENDROOT
BRANCH   1   7
ATOM      7  C   UNL     1      -7.559   6.030  14.747  1.00  0.00     0.075 C 
ATOM      8  O   UNL     1      -8.663   5.991  14.139  1.00  0.00    -0.545 OA
ATOM      9  O   UNL     1      -6.854   7.228  14.767  1.00  0.00    -0.545 OA
ENDBRANCH   1   7
BRANCH   2  10
ATOM     10  O   UNL     1      -6.322   6.096  17.381  1.00  0.00    -0.507 OA
ATOM     11  H   UNL     1      -6.807   6.267  18.254  1.00  0.00     0.293 HD
ENDBRANCH   2  10
TORSDOF 2
ENDMDL
MODEL 5
REMARK VINA RESULT:    -3.458      1.776      3.428
REMARK INTER + INTRA:          -4.008
REMARK INTER:                  -3.798
REMARK INTRA:                  -0.210
REMARK UNBOUND:                -0.247
REMARK SMILES O=C([O-])c1ccccc1O
REMARK SMILES IDX 4 1 9 2 5 3 8 4 6 5 7 6 2 7 1 8 3 9 10 10
REMARK H PARENT 10 11
REMARK Flexibility Score: inf
ROOT
ATOM      1  C   UNL     1      -6.451   3.891  15.187  1.00  0.00     0.039 A 
ATOM      2  C   UNL     1      -5.752   3.346  16.290  1.00  0.00     0.124 A 
ATOM      3  C   UNL     1      -5.911   3.729  13.896  1.00  0.00     0.014 A 
ATOM      4  C   UNL     1      -4.544   2.659  16.085  1.00  0.00     0.047 A 
ATOM      5  C   UNL     1      -4.709   3.042  13.705  1.00  0.00     0.001 A 
ATOM      6  C   UNL     1      -4.027   2.510  14.797  1.00  0.00     0.004 A 
ENDROOT
BRANCH   1   7
ATOM      7  C   UNL     1      -7.731   4.624  15.359  1.00  0.00     0.075 C 
ATOM      8  O   UNL     1      -7.992   5.204  16.447  1.00  0.00    -0.545 OA
ATOM      9  O   UNL     1      -8.665   4.687  14.332  1.00  0.00    -0.545 OA
ENDBRANCH   1   7
BRANCH   2  10
ATOM     10  O   UNL     1      -6.247   3.481  17.587  1.00  0.00    -0.507 OA
ATOM     11  H   UNL     1      -5.785   4.064  18.275  1.00  0.00     0.293 HD
ENDBRANCH   2  10
TORSDOF 2
ENDMDL
MODEL 6
REMARK VINA RESULT:    -2.727      2.094      3.942
REMARK INTER + INTRA:          -3.214
REMARK INTER:                  -2.994
REMARK INTRA:                  -0.219
REMARK UNBOUND:                -0.247
REMARK SMILES O=C([O-])c1ccccc1O
REMARK SMILES IDX 4 1 9 2 5 3 8 4 6 5 7 6 2 7 1 8 3 9 10 10
REMARK H PARENT 10 11
REMARK Flexibility Score: inf
ROOT
ATOM      1  C   UNL     1      -6.307   3.966  15.269  1.00  0.00     0.039 A 
ATOM      2  C   UNL     1      -6.331   3.759  13.870  1.00  0.00     0.124 A 
ATOM      3  C   UNL     1      -5.204   3.490  16.006  1.00  0.00     0.014 A 
ATOM      4  C   UNL     1      -5.267   3.090  13.242  1.00  0.00     0.047 A 
ATOM      5  C   UNL     1      -4.152   2.827  15.370  1.00  0.00     0.001 A 
ATOM      6  C   UNL     1      -4.184   2.627  13.991  1.00  0.00     0.004 A 
ENDROOT
BRANCH   1   7
ATOM      7  C   UNL     1      -7.410   4.668  15.974  1.00  0.00     0.075 C 
ATOM      8  O   UNL     1      -8.589   4.609  15.530  1.00  0.00    -0.545 OA
ATOM      9  O   UNL     1      -7.171   5.403  17.129  1.00  0.00    -0.545 OA
ENDBRANCH   1   7
BRANCH   2  10
ATOM     10  O   UNL     1      -7.401   4.211  13.099  1.00  0.00    -0.507 OA
ATOM     11  H   UNL     1      -7.475   5.178  12.805  1.00  0.00     0.293 HD
ENDBRANCH   2  10
TORSDOF 2
ENDMDL
MODEL 7
REMARK VINA RESULT:    -2.492      1.853      2.609
REMARK INTER + INTRA:          -2.958
REMARK INTER:                  -2.789
REMARK INTRA:                  -0.169
REMARK UNBOUND:                -0.247
REMARK SMILES O=C([O-])c1ccccc1O
REMARK SMILES IDX 4 1 9 2 5 3 8 4 6 5 7 6 2 7 1 8 3 9 10 10
REMARK H PARENT 10 11
REMARK Flexibility Score: inf
ROOT
ATOM      1  C   UNL     1      -5.523   3.367  14.793  1.00  0.00     0.039 A 
ATOM      2  C   UNL     1      -6.683   4.119  14.492  1.00  0.00     0.124 A 
ATOM      3  C   UNL     1      -5.266   3.026  16.137  1.00  0.00     0.014 A 
ATOM      4  C   UNL     1      -7.552   4.510  15.523  1.00  0.00     0.047 A 
ATOM      5  C   UNL     1      -6.139   3.422  17.153  1.00  0.00     0.001 A 
ATOM      6  C   UNL     1      -7.279   4.163  16.847  1.00  0.00     0.004 A 
ENDROOT
BRANCH   1   7
ATOM      7  C   UNL     1      -4.577   2.932  13.734  1.00  0.00     0.075 C 
ATOM      8  O   UNL     1      -3.416   2.543  14.037  1.00  0.00    -0.545 OA
ATOM      9  O   UNL     1      -4.944   2.943  12.394  1.00  0.00    -0.545 OA
ENDBRANCH   1   7
BRANCH   2  10
ATOM     10  O   UNL     1      -6.978   4.479  13.178  1.00  0.00    -0.507 OA
ATOM     11  H   UNL     1      -7.787   5.047  12.950  1.00  0.00     0.293 HD
ENDBRANCH   2  10
TORSDOF 2
ENDMDL
