MODEL 1
REMARK VINA RESULT:    -4.875      0.000      0.000
REMARK INTER + INTRA:          -6.230
REMARK INTER:                  -6.869
REMARK INTRA:                   0.639
REMARK UNBOUND:                 0.639
REMARK SMILES CC1=CCC(=C(C)C)C(=O)CC(C)=CCC1
REMARK SMILES IDX 12 1 14 2 13 3 15 4 16 5 2 6 1 7 3 8 11 10 9 11 10 12 5 13
REMARK SMILES IDX 6 14 7 15 8 16 4 17
REMARK H PARENT
REMARK Flexibility Score: 60.00
ROOT
ATOM      1  C   UNL     1      13.425 -17.345 -31.876  1.00  0.00    -0.070 C 
ATOM      2  C   UNL     1      13.711 -16.456 -30.895  1.00  0.00    -0.027 C 
ATOM      3  C   UNL     1      13.498 -16.871 -33.304  1.00  0.00     0.039 C 
ENDROOT
BRANCH   2   4
ATOM      4  C   UNL     1      13.746 -16.772 -29.417  1.00  0.00     0.032 C 
BRANCH   4   5
ATOM      5  C   UNL     1      12.611 -16.068 -28.661  1.00  0.00     0.034 C 
BRANCH   5   6
ATOM      6  C   UNL     1      11.481 -17.002 -28.254  1.00  0.00    -0.077 C 
ATOM      7  C   UNL     1      11.523 -17.645 -26.891  1.00  0.00     0.039 C 
ATOM      8  C   UNL     1      10.420 -17.277 -29.047  1.00  0.00    -0.023 CG0
ATOM      9  G   UNL     1      10.236 -16.787 -30.465  1.00  0.00     0.000 G0
ENDBRANCH   5   6
ENDBRANCH   4   5
ENDBRANCH   2   4
BRANCH   1  10
ATOM     10  C   UNL     1      13.031 -18.783 -31.598  1.00  0.00     0.111 C 
BRANCH  10  11
ATOM     11  C   UNL     1      11.585 -18.880 -31.203  1.00  0.00     0.163 C 
ATOM     12  O   UNL     1      11.187 -19.884 -30.553  1.00  0.00    -0.294 OA
BRANCH  11  13
ATOM     13  C   UNL     1      10.617 -17.807 -31.546  1.00  0.00    -0.002 C 
ATOM     14  C   UNL     1      10.087 -17.733 -32.797  1.00  0.00    -0.069 C 
ATOM     15  C   UNL     1      10.390 -18.787 -33.838  1.00  0.00     0.039 C 
ATOM     16  C   UNL     1       9.141 -16.617 -33.179  1.00  0.00     0.039 C 
BRANCH  13  17
ATOM     17  C   UNL     1      10.227 -16.790 -30.477  1.00  0.00     0.066 CG0
ATOM     18  G   UNL     1      10.415 -17.291 -29.063  1.00  0.00     0.000 G0
ENDBRANCH  13  17
ENDBRANCH  11  13
ENDBRANCH  10  11
ENDBRANCH   1  10
TORSDOF 0
ENDMDL
MODEL 2
REMARK VINA RESULT:    -4.872      1.549      4.184
REMARK INTER + INTRA:          -6.226
REMARK INTER:                  -6.851
REMARK INTRA:                   0.625
REMARK UNBOUND:                 0.639
REMARK SMILES CC1=CCC(=C(C)C)C(=O)CC(C)=CCC1
REMARK SMILES IDX 12 1 14 2 13 3 15 4 16 5 2 6 1 7 3 8 11 10 9 11 10 12 5 13
REMARK SMILES IDX 6 14 7 15 8 16 4 17
REMARK H PARENT
REMARK Flexibility Score: 60.00
ROOT
ATOM      1  C   UNL     1      13.338 -17.364 -31.800  1.00  0.00    -0.070 C 
ATOM      2  C   UNL     1      12.282 -17.848 -32.496  1.00  0.00    -0.027 C 
ATOM      3  C   UNL     1      14.223 -16.347 -32.472  1.00  0.00     0.039 C 
ENDROOT
BRANCH   2   4
ATOM      4  C   UNL     1      11.259 -18.824 -31.960  1.00  0.00     0.032 C 
BRANCH   4   5
ATOM      5  C   UNL     1       9.859 -18.198 -31.895  1.00  0.00     0.034 C 
BRANCH   5   6
ATOM      6  C   UNL     1       9.850 -16.787 -31.325  1.00  0.00    -0.077 C 
ATOM      7  C   UNL     1       9.445 -15.644 -32.220  1.00  0.00     0.039 C 
ATOM      8  C   UNL     1      10.170 -16.499 -30.042  1.00  0.00    -0.023 CG0
ATOM      9  G   UNL     1      10.665 -17.496 -29.019  1.00  0.00     0.000 G0
ENDBRANCH   5   6
ENDBRANCH   4   5
ENDBRANCH   2   4
BRANCH   1  10
ATOM     10  C   UNL     1      13.666 -17.804 -30.386  1.00  0.00     0.111 C 
BRANCH  10  11
ATOM     11  C   UNL     1      13.141 -16.821 -29.379  1.00  0.00     0.163 C 
ATOM     12  O   UNL     1      13.628 -15.659 -29.335  1.00  0.00    -0.294 OA
BRANCH  11  13
ATOM     13  C   UNL     1      12.042 -17.183 -28.447  1.00  0.00    -0.002 C 
ATOM     14  C   UNL     1      12.265 -17.226 -27.106  1.00  0.00    -0.069 C 
ATOM     15  C   UNL     1      13.599 -16.819 -26.522  1.00  0.00     0.039 C 
ATOM     16  C   UNL     1      11.174 -17.644 -26.146  1.00  0.00     0.039 C 
BRANCH  13  17
ATOM     17  C   UNL     1      10.663 -17.505 -29.015  1.00  0.00     0.066 CG0
ATOM     18  G   UNL     1      10.171 -16.496 -30.027  1.00  0.00     0.000 G0
ENDBRANCH  13  17
ENDBRANCH  11  13
ENDBRANCH  10  11
ENDBRANCH   1  10
TORSDOF 0
ENDMDL
MODEL 3
REMARK VINA RESULT:    -4.701      1.895      4.869
REMARK INTER + INTRA:          -5.986
REMARK INTER:                  -7.002
REMARK INTRA:                   1.017
REMARK UNBOUND:                 0.639
REMARK SMILES CC1=CCC(=C(C)C)C(=O)CC(C)=CCC1
REMARK SMILES IDX 12 1 14 2 13 3 15 4 16 5 2 6 1 7 3 8 11 10 9 11 10 12 5 13
REMARK SMILES IDX 6 14 7 15 8 16 4 17
REMARK H PARENT
REMARK Flexibility Score: 60.00
ROOT
ATOM      1  C   UNL     1      11.017 -18.137 -28.231  1.00  0.00    -0.070 C 
ATOM      2  C   UNL     1      10.006 -17.654 -28.993  1.00  0.00    -0.027 C 
ATOM      3  C   UNL     1      11.119 -17.661 -26.806  1.00  0.00     0.039 C 
ENDROOT
BRANCH   2   4
ATOM      4  C   UNL     1       9.717 -18.066 -30.418  1.00  0.00     0.032 C 
BRANCH   4   5
ATOM      5  C   UNL     1      10.531 -17.239 -31.423  1.00  0.00     0.034 C 
BRANCH   5   6
ATOM      6  C   UNL     1      11.796 -17.937 -31.899  1.00  0.00    -0.077 C 
ATOM      7  C   UNL     1      11.674 -19.080 -32.875  1.00  0.00     0.039 C 
ATOM      8  C   UNL     1      13.040 -17.574 -31.509  1.00  0.00    -0.023 CG0
ATOM      9  G   UNL     1      13.360 -16.504 -30.490  1.00  0.00     0.000 G0
ENDBRANCH   5   6
ENDBRANCH   4   5
ENDBRANCH   2   4
BRANCH   1  10
ATOM     10  C   UNL     1      12.044 -19.124 -28.752  1.00  0.00     0.111 C 
BRANCH  10  11
ATOM     11  C   UNL     1      13.409 -18.500 -28.814  1.00  0.00     0.163 C 
ATOM     12  O   UNL     1      14.429 -19.226 -28.660  1.00  0.00    -0.294 OA
BRANCH  11  13
ATOM     13  C   UNL     1      13.583 -17.048 -29.074  1.00  0.00    -0.002 C 
ATOM     14  C   UNL     1      13.914 -16.203 -28.061  1.00  0.00    -0.069 C 
ATOM     15  C   UNL     1      14.204 -16.725 -26.671  1.00  0.00     0.039 C 
ATOM     16  C   UNL     1      14.044 -14.715 -28.296  1.00  0.00     0.039 C 
BRANCH  13  17
ATOM     17  C   UNL     1      13.388 -16.520 -30.492  1.00  0.00     0.066 CG0
ATOM     18  G   UNL     1      13.038 -17.592 -31.498  1.00  0.00     0.000 G0
ENDBRANCH  13  17
ENDBRANCH  11  13
ENDBRANCH  10  11
ENDBRANCH   1  10
TORSDOF 0
ENDMDL
MODEL 4
REMARK VINA RESULT:    -4.697      1.942      4.614
REMARK INTER + INTRA:          -5.979
REMARK INTER:                  -6.838
REMARK INTRA:                   0.859
REMARK UNBOUND:                 0.639
REMARK SMILES CC1=CCC(=C(C)C)C(=O)CC(C)=CCC1
REMARK SMILES IDX 12 1 14 2 13 3 15 4 16 5 2 6 1 7 3 8 11 10 9 11 10 12 5 13
REMARK SMILES IDX 6 14 7 15 8 16 4 17
REMARK H PARENT
REMARK Flexibility Score: 60.00
ROOT
ATOM      1  C   UNL     1      12.990 -19.795 -29.648  1.00  0.00    -0.070 C 
ATOM      2  C   UNL     1      13.251 -19.970 -30.965  1.00  0.00    -0.027 C 
ATOM      3  C   UNL     1      14.132 -19.943 -28.675  1.00  0.00     0.039 C 
ENDROOT
BRANCH   2   4
ATOM      4  C   UNL     1      12.244 -19.800 -32.081  1.00  0.00     0.032 C 
BRANCH   4   5
ATOM      5  C   UNL     1      11.902 -18.322 -32.315  1.00  0.00     0.034 C 
BRANCH   5   6
ATOM      6  C   UNL     1      13.062 -17.378 -32.033  1.00  0.00    -0.077 C 
ATOM      7  C   UNL     1      14.259 -17.401 -32.949  1.00  0.00     0.039 C 
ATOM      8  C   UNL     1      13.072 -16.495 -31.007  1.00  0.00    -0.023 CG0
ATOM      9  G   UNL     1      12.001 -16.373 -29.947  1.00  0.00     0.000 G0
ENDBRANCH   5   6
ENDBRANCH   4   5
ENDBRANCH   2   4
BRANCH   1  10
ATOM     10  C   UNL     1      11.610 -19.465 -29.115  1.00  0.00     0.111 C 
BRANCH  10  11
ATOM     11  C   UNL     1      11.653 -18.266 -28.209  1.00  0.00     0.163 C 
ATOM     12  O   UNL     1      11.100 -18.326 -27.078  1.00  0.00    -0.294 OA
BRANCH  11  13
ATOM     13  C   UNL     1      12.352 -17.019 -28.612  1.00  0.00    -0.002 C 
ATOM     14  C   UNL     1      13.295 -16.468 -27.801  1.00  0.00    -0.069 C 
ATOM     15  C   UNL     1      13.723 -17.152 -26.522  1.00  0.00     0.039 C 
ATOM     16  C   UNL     1      13.980 -15.172 -28.169  1.00  0.00     0.039 C 
BRANCH  13  17
ATOM     17  C   UNL     1      11.999 -16.368 -29.946  1.00  0.00     0.066 CG0
ATOM     18  G   UNL     1      13.081 -16.500 -30.993  1.00  0.00     0.000 G0
ENDBRANCH  13  17
ENDBRANCH  11  13
ENDBRANCH  10  11
ENDBRANCH   1  10
TORSDOF 0
ENDMDL
MODEL 5
REMARK VINA RESULT:    -4.667      1.518      3.065
REMARK INTER + INTRA:          -5.937
REMARK INTER:                  -6.767
REMARK INTRA:                   0.830
REMARK UNBOUND:                 0.639
REMARK SMILES CC1=CCC(=C(C)C)C(=O)CC(C)=CCC1
REMARK SMILES IDX 12 1 14 2 13 3 15 4 16 5 2 6 1 7 3 8 11 10 9 11 10 12 5 13
REMARK SMILES IDX 6 14 7 15 8 16 4 17
REMARK H PARENT
REMARK Flexibility Score: 60.00
ROOT
ATOM      1  C   UNL     1      10.153 -16.749 -29.500  1.00  0.00    -0.070 C 
ATOM      2  C   UNL     1      11.014 -16.613 -28.464  1.00  0.00    -0.027 C 
ATOM      3  C   UNL     1       9.476 -15.510 -30.026  1.00  0.00     0.039 C 
ENDROOT
BRANCH   2   4
ATOM      4  C   UNL     1      11.823 -17.733 -27.851  1.00  0.00     0.032 C 
BRANCH   4   5
ATOM      5  C   UNL     1      13.293 -17.675 -28.292  1.00  0.00     0.034 C 
BRANCH   5   6
ATOM      6  C   UNL     1      13.625 -16.458 -29.142  1.00  0.00    -0.077 C 
ATOM      7  C   UNL     1      13.902 -15.145 -28.454  1.00  0.00     0.039 C 
ATOM      8  C   UNL     1      13.707 -16.491 -30.492  1.00  0.00    -0.023 CG0
ATOM      9  G   UNL     1      13.397 -17.690 -31.358  1.00  0.00     0.000 G0
ENDBRANCH   5   6
ENDBRANCH   4   5
ENDBRANCH   2   4
BRANCH   1  10
ATOM     10  C   UNL     1       9.841 -18.086 -30.144  1.00  0.00     0.111 C 
BRANCH  10  11
ATOM     11  C   UNL     1      11.063 -18.669 -30.798  1.00  0.00     0.163 C 
ATOM     12  O   UNL     1      11.360 -19.876 -30.589  1.00  0.00    -0.294 OA
BRANCH  11  13
ATOM     13  C   UNL     1      11.915 -17.856 -31.703  1.00  0.00    -0.002 C 
ATOM     14  C   UNL     1      11.378 -17.263 -32.803  1.00  0.00    -0.069 C 
ATOM     15  C   UNL     1       9.894 -17.333 -33.084  1.00  0.00     0.039 C 
ATOM     16  C   UNL     1      12.239 -16.475 -33.764  1.00  0.00     0.039 C 
BRANCH  13  17
ATOM     17  C   UNL     1      13.398 -17.696 -31.381  1.00  0.00     0.066 CG0
ATOM     18  G   UNL     1      13.705 -16.505 -30.503  1.00  0.00     0.000 G0
ENDBRANCH  13  17
ENDBRANCH  11  13
ENDBRANCH  10  11
ENDBRANCH   1  10
TORSDOF 0
ENDMDL
MODEL 6
REMARK VINA RESULT:    -4.388      1.561      2.236
REMARK INTER + INTRA:          -5.544
REMARK INTER:                  -6.374
REMARK INTRA:                   0.830
REMARK UNBOUND:                 0.639
REMARK SMILES CC1=CCC(=C(C)C)C(=O)CC(C)=CCC1
REMARK SMILES IDX 12 1 14 2 13 3 15 4 16 5 2 6 1 7 3 8 11 10 9 11 10 12 5 13
REMARK SMILES IDX 6 14 7 15 8 16 4 17
REMARK H PARENT
REMARK Flexibility Score: 60.00
ROOT
ATOM      1  C   UNL     1      12.622 -18.209 -32.079  1.00  0.00    -0.070 C 
ATOM      2  C   UNL     1      13.505 -18.505 -31.095  1.00  0.00    -0.027 C 
ATOM      3  C   UNL     1      12.779 -16.894 -32.799  1.00  0.00     0.039 C 
ENDROOT
BRANCH   2   4
ATOM      4  C   UNL     1      13.535 -19.798 -30.313  1.00  0.00     0.032 C 
BRANCH   4   5
ATOM      5  C   UNL     1      12.547 -19.773 -29.139  1.00  0.00     0.034 C 
BRANCH   5   6
ATOM      6  C   UNL     1      12.267 -18.374 -28.609  1.00  0.00    -0.077 C 
ATOM      7  C   UNL     1      13.296 -17.711 -27.728  1.00  0.00     0.039 C 
ATOM      8  C   UNL     1      11.146 -17.676 -28.903  1.00  0.00    -0.023 CG0
ATOM      9  G   UNL     1       9.977 -18.196 -29.708  1.00  0.00     0.000 G0
ENDBRANCH   5   6
ENDBRANCH   4   5
ENDBRANCH   2   4
BRANCH   1  10
ATOM     10  C   UNL     1      11.491 -19.136 -32.480  1.00  0.00     0.111 C 
BRANCH  10  11
ATOM     11  C   UNL     1      10.156 -18.470 -32.295  1.00  0.00     0.163 C 
ATOM     12  O   UNL     1       9.240 -18.677 -33.135  1.00  0.00    -0.294 OA
BRANCH  11  13
ATOM     13  C   UNL     1       9.889 -17.588 -31.130  1.00  0.00    -0.002 C 
ATOM     14  C   UNL     1       9.586 -16.275 -31.318  1.00  0.00    -0.069 C 
ATOM     15  C   UNL     1       9.421 -15.701 -32.708  1.00  0.00     0.039 C 
ATOM     16  C   UNL     1       9.362 -15.350 -30.143  1.00  0.00     0.039 C 
BRANCH  13  17
ATOM     17  C   UNL     1       9.957 -18.175 -29.724  1.00  0.00     0.066 CG0
ATOM     18  G   UNL     1      11.128 -17.672 -28.911  1.00  0.00     0.000 G0
ENDBRANCH  13  17
ENDBRANCH  11  13
ENDBRANCH  10  11
ENDBRANCH   1  10
TORSDOF 0
ENDMDL
MODEL 7
REMARK VINA RESULT:    -4.360      1.604      4.678
REMARK INTER + INTRA:          -5.505
REMARK INTER:                  -6.180
REMARK INTRA:                   0.675
REMARK UNBOUND:                 0.639
REMARK SMILES CC1=CCC(=C(C)C)C(=O)CC(C)=CCC1
REMARK SMILES IDX 12 1 14 2 13 3 15 4 16 5 2 6 1 7 3 8 11 10 9 11 10 12 5 13
REMARK SMILES IDX 6 14 7 15 8 16 4 17
REMARK H PARENT
REMARK Flexibility Score: 60.00
ROOT
ATOM      1  C   UNL     1       9.612 -16.904 -30.481  1.00  0.00    -0.070 C 
ATOM      2  C   UNL     1       9.506 -17.093 -31.818  1.00  0.00    -0.027 C 
ATOM      3  C   UNL     1       9.391 -15.515 -29.943  1.00  0.00     0.039 C 
ENDROOT
BRANCH   2   4
ATOM      4  C   UNL     1       9.635 -18.425 -32.522  1.00  0.00     0.032 C 
BRANCH   4   5
ATOM      5  C   UNL     1      11.025 -18.601 -33.149  1.00  0.00     0.034 C 
BRANCH   5   6
ATOM      6  C   UNL     1      11.805 -17.301 -33.276  1.00  0.00    -0.077 C 
ATOM      7  C   UNL     1      11.478 -16.365 -34.412  1.00  0.00     0.039 C 
ATOM      8  C   UNL     1      12.771 -16.923 -32.406  1.00  0.00    -0.023 CG0
ATOM      9  G   UNL     1      13.283 -17.753 -31.253  1.00  0.00     0.000 G0
ENDBRANCH   5   6
ENDBRANCH   4   5
ENDBRANCH   2   4
BRANCH   1  10
ATOM     10  C   UNL     1       9.946 -18.023 -29.513  1.00  0.00     0.111 C 
BRANCH  10  11
ATOM     11  C   UNL     1      11.321 -18.570 -29.774  1.00  0.00     0.163 C 
ATOM     12  O   UNL     1      11.486 -19.817 -29.851  1.00  0.00    -0.294 OA
BRANCH  11  13
ATOM     13  C   UNL     1      12.487 -17.669 -29.963  1.00  0.00    -0.002 C 
ATOM     14  C   UNL     1      12.822 -16.768 -29.001  1.00  0.00    -0.069 C 
ATOM     15  C   UNL     1      12.084 -16.722 -27.682  1.00  0.00     0.039 C 
ATOM     16  C   UNL     1      13.973 -15.808 -29.198  1.00  0.00     0.039 C 
BRANCH  13  17
ATOM     17  C   UNL     1      13.301 -17.770 -31.250  1.00  0.00     0.066 CG0
ATOM     18  G   UNL     1      12.754 -16.932 -32.383  1.00  0.00     0.000 G0
ENDBRANCH  13  17
ENDBRANCH  11  13
ENDBRANCH  10  11
ENDBRANCH   1  10
TORSDOF 0
ENDMDL
MODEL 8
REMARK VINA RESULT:    -4.164      1.602      3.046
REMARK INTER + INTRA:          -5.228
REMARK INTER:                  -6.865
REMARK INTRA:                   1.637
REMARK UNBOUND:                 0.639
REMARK SMILES CC1=CCC(=C(C)C)C(=O)CC(C)=CCC1
REMARK SMILES IDX 12 1 14 2 13 3 15 4 16 5 2 6 1 7 3 8 11 10 9 11 10 12 5 13
REMARK SMILES IDX 6 14 7 15 8 16 4 17
REMARK H PARENT
REMARK Flexibility Score: 60.00
ROOT
ATOM      1  C   UNL     1      12.070 -17.052 -32.319  1.00  0.00    -0.070 C 
ATOM      2  C   UNL     1      13.383 -16.720 -32.305  1.00  0.00    -0.027 C 
ATOM      3  C   UNL     1      11.505 -17.653 -33.580  1.00  0.00     0.039 C 
ENDROOT
BRANCH   2   4
ATOM      4  C   UNL     1      14.128 -16.166 -31.112  1.00  0.00     0.032 C 
BRANCH   4   5
ATOM      5  C   UNL     1      13.985 -17.075 -29.883  1.00  0.00     0.034 C 
BRANCH   5   6
ATOM      6  C   UNL     1      13.322 -16.392 -28.696  1.00  0.00    -0.077 C 
ATOM      7  C   UNL     1      13.743 -14.989 -28.336  1.00  0.00     0.039 C 
ATOM      8  C   UNL     1      12.354 -16.970 -27.949  1.00  0.00    -0.023 CG0
ATOM      9  G   UNL     1      11.851 -18.386 -28.110  1.00  0.00     0.000 G0
ENDBRANCH   5   6
ENDBRANCH   4   5
ENDBRANCH   2   4
BRANCH   1  10
ATOM     10  C   UNL     1      11.152 -16.841 -31.131  1.00  0.00     0.111 C 
BRANCH  10  11
ATOM     11  C   UNL     1      10.798 -18.150 -30.483  1.00  0.00     0.163 C 
ATOM     12  O   UNL     1       9.684 -18.683 -30.734  1.00  0.00    -0.294 OA
BRANCH  11  13
ATOM     13  C   UNL     1      11.744 -18.839 -29.568  1.00  0.00    -0.002 C 
ATOM     14  C   UNL     1      12.523 -19.856 -30.024  1.00  0.00    -0.069 C 
ATOM     15  C   UNL     1      12.518 -20.250 -31.484  1.00  0.00     0.039 C 
ATOM     16  C   UNL     1      13.454 -20.604 -29.096  1.00  0.00     0.039 C 
BRANCH  13  17
ATOM     17  C   UNL     1      11.830 -18.389 -28.112  1.00  0.00     0.066 CG0
ATOM     18  G   UNL     1      12.357 -16.983 -27.940  1.00  0.00     0.000 G0
ENDBRANCH  13  17
ENDBRANCH  11  13
ENDBRANCH  10  11
ENDBRANCH   1  10
TORSDOF 0
ENDMDL
MODEL 9
REMARK VINA RESULT:    -4.164      1.548      3.582
REMARK INTER + INTRA:          -5.228
REMARK INTER:                  -6.160
REMARK INTRA:                   0.932
REMARK UNBOUND:                 0.639
REMARK SMILES CC1=CCC(=C(C)C)C(=O)CC(C)=CCC1
REMARK SMILES IDX 12 1 14 2 13 3 15 4 16 5 2 6 1 7 3 8 11 10 9 11 10 12 5 13
REMARK SMILES IDX 6 14 7 15 8 16 4 17
REMARK H PARENT
REMARK Flexibility Score: 60.00
ROOT
ATOM      1  C   UNL     1      12.349 -16.841 -29.145  1.00  0.00    -0.070 C 
ATOM      2  C   UNL     1      13.320 -17.578 -29.735  1.00  0.00    -0.027 C 
ATOM      3  C   UNL     1      12.663 -15.412 -28.785  1.00  0.00     0.039 C 
ENDROOT
BRANCH   2   4
ATOM      4  C   UNL     1      13.162 -19.002 -30.216  1.00  0.00     0.032 C 
BRANCH   4   5
ATOM      5  C   UNL     1      13.050 -19.073 -31.746  1.00  0.00     0.034 C 
BRANCH   5   6
ATOM      6  C   UNL     1      13.161 -17.718 -32.427  1.00  0.00    -0.077 C 
ATOM      7  C   UNL     1      14.532 -17.146 -32.691  1.00  0.00     0.039 C 
ATOM      8  C   UNL     1      12.090 -16.996 -32.831  1.00  0.00    -0.023 CG0
ATOM      9  G   UNL     1      10.645 -17.369 -32.593  1.00  0.00     0.000 G0
ENDBRANCH   5   6
ENDBRANCH   4   5
ENDBRANCH   2   4
BRANCH   1  10
ATOM     10  C   UNL     1      10.972 -17.392 -28.829  1.00  0.00     0.111 C 
BRANCH  10  11
ATOM     11  C   UNL     1      10.282 -17.868 -30.076  1.00  0.00     0.163 C 
ATOM     12  O   UNL     1       9.844 -19.049 -30.130  1.00  0.00    -0.294 OA
BRANCH  11  13
ATOM     13  C   UNL     1      10.085 -16.967 -31.241  1.00  0.00    -0.002 C 
ATOM     14  C   UNL     1       9.422 -15.788 -31.093  1.00  0.00    -0.069 C 
ATOM     15  C   UNL     1       8.952 -15.320 -29.734  1.00  0.00     0.039 C 
ATOM     16  C   UNL     1       9.167 -14.883 -32.277  1.00  0.00     0.039 C 
BRANCH  13  17
ATOM     17  C   UNL     1      10.637 -17.381 -32.601  1.00  0.00     0.066 CG0
ATOM     18  G   UNL     1      12.078 -16.981 -32.821  1.00  0.00     0.000 G0
ENDBRANCH  13  17
ENDBRANCH  11  13
ENDBRANCH  10  11
ENDBRANCH   1  10
TORSDOF 0
ENDMDL
