MODEL 1
REMARK VINA RESULT:    -4.980      0.000      0.000
REMARK INTER + INTRA:          -8.362
REMARK INTER:                  -7.600
REMARK INTRA:                  -0.762
REMARK UNBOUND:                -0.762
REMARK SMILES CCCCCCCCCC=CC(=O)[O-]
REMARK SMILES IDX 7 1 8 2 9 3 10 4 11 5 12 6 13 7 14 8 6 9 5 10 4 11 3 12 2 13
REMARK SMILES IDX 1 14
REMARK H PARENT
REMARK Flexibility Score: inf
ROOT
ATOM      1  C   UNL     1      -0.476  -3.322  -2.445  1.00  0.00     0.000 C 
ENDROOT
BRANCH   1   2
ATOM      2  C   UNL     1      -0.227  -4.308  -1.298  1.00  0.00     0.004 C 
BRANCH   2   3
ATOM      3  C   UNL     1      -0.242  -5.757  -1.806  1.00  0.00     0.027 C 
BRANCH   3   4
ATOM      4  C   UNL     1      -1.457  -6.495  -1.314  1.00  0.00    -0.025 C 
ATOM      5  C   UNL     1      -2.653  -6.540  -1.922  1.00  0.00     0.020 C 
BRANCH   5   6
ATOM      6  C   UNL     1      -3.011  -5.914  -3.213  1.00  0.00     0.064 C 
ATOM      7  O   UNL     1      -2.713  -6.510  -4.281  1.00  0.00    -0.545 OA
ATOM      8  O   UNL     1      -3.641  -4.678  -3.289  1.00  0.00    -0.545 OA
ENDBRANCH   5   6
ENDBRANCH   3   4
ENDBRANCH   2   3
ENDBRANCH   1   2
BRANCH   1   9
ATOM      9  C   UNL     1       0.304  -3.734  -3.703  1.00  0.00     0.000 C 
BRANCH   9  10
ATOM     10  C   UNL     1       1.695  -3.083  -3.779  1.00  0.00     0.000 C 
BRANCH  10  11
ATOM     11  C   UNL     1       2.415  -3.383  -5.105  1.00  0.00    -0.000 C 
BRANCH  11  12
ATOM     12  C   UNL     1       3.857  -2.850  -5.127  1.00  0.00    -0.000 C 
BRANCH  12  13
ATOM     13  C   UNL     1       4.866  -3.891  -5.634  1.00  0.00    -0.003 C 
ATOM     14  C   UNL     1       4.491  -5.294  -5.162  1.00  0.00     0.004 C 
ENDBRANCH  12  13
ENDBRANCH  11  12
ENDBRANCH  10  11
ENDBRANCH   9  10
ENDBRANCH   1   9
TORSDOF 9
ENDMDL
MODEL 2
REMARK VINA RESULT:    -4.939      3.302      6.207
REMARK INTER + INTRA:          -8.299
REMARK INTER:                  -6.860
REMARK INTRA:                  -1.439
REMARK UNBOUND:                -0.762
REMARK SMILES CCCCCCCCCC=CC(=O)[O-]
REMARK SMILES IDX 7 1 8 2 9 3 10 4 11 5 12 6 13 7 14 8 6 9 5 10 4 11 3 12 2 13
REMARK SMILES IDX 1 14
REMARK H PARENT
REMARK Flexibility Score: inf
ROOT
ATOM      1  C   UNL     1       0.951  -4.465  -6.219  1.00  0.00     0.000 C 
ENDROOT
BRANCH   1   2
ATOM      2  C   UNL     1       1.409  -3.121  -5.642  1.00  0.00     0.004 C 
BRANCH   2   3
ATOM      3  C   UNL     1       2.392  -3.328  -4.481  1.00  0.00     0.027 C 
BRANCH   3   4
ATOM      4  C   UNL     1       3.784  -2.899  -4.860  1.00  0.00    -0.025 C 
ATOM      5  C   UNL     1       4.750  -3.695  -5.348  1.00  0.00     0.020 C 
BRANCH   5   6
ATOM      6  C   UNL     1       4.635  -5.137  -5.652  1.00  0.00     0.064 C 
ATOM      7  O   UNL     1       4.958  -5.972  -4.767  1.00  0.00    -0.545 OA
ATOM      8  O   UNL     1       4.209  -5.603  -6.889  1.00  0.00    -0.545 OA
ENDBRANCH   5   6
ENDBRANCH   3   4
ENDBRANCH   2   3
ENDBRANCH   1   2
BRANCH   1   9
ATOM      9  C   UNL     1       0.732  -5.496  -5.102  1.00  0.00     0.000 C 
BRANCH   9  10
ATOM     10  C   UNL     1      -0.755  -5.799  -4.857  1.00  0.00     0.000 C 
BRANCH  10  11
ATOM     11  C   UNL     1      -1.279  -5.169  -3.554  1.00  0.00    -0.000 C 
BRANCH  11  12
ATOM     12  C   UNL     1      -0.227  -5.172  -2.433  1.00  0.00    -0.000 C 
BRANCH  12  13
ATOM     13  C   UNL     1      -0.230  -3.870  -1.616  1.00  0.00    -0.003 C 
ATOM     14  C   UNL     1      -0.700  -2.691  -2.464  1.00  0.00     0.004 C 
ENDBRANCH  12  13
ENDBRANCH  11  12
ENDBRANCH  10  11
ENDBRANCH   9  10
ENDBRANCH   1   9
TORSDOF 9
ENDMDL
MODEL 3
REMARK VINA RESULT:    -4.912      0.940      2.260
REMARK INTER + INTRA:          -8.258
REMARK INTER:                  -7.296
REMARK INTRA:                  -0.962
REMARK UNBOUND:                -0.762
REMARK SMILES CCCCCCCCCC=CC(=O)[O-]
REMARK SMILES IDX 7 1 8 2 9 3 10 4 11 5 12 6 13 7 14 8 6 9 5 10 4 11 3 12 2 13
REMARK SMILES IDX 1 14
REMARK H PARENT
REMARK Flexibility Score: inf
ROOT
ATOM      1  C   UNL     1       1.032  -3.842  -4.685  1.00  0.00     0.000 C 
ENDROOT
BRANCH   1   2
ATOM      2  C   UNL     1       1.136  -3.257  -3.272  1.00  0.00     0.004 C 
BRANCH   2   3
ATOM      3  C   UNL     1      -0.245  -3.182  -2.605  1.00  0.00     0.027 C 
BRANCH   3   4
ATOM      4  C   UNL     1      -0.545  -4.433  -1.826  1.00  0.00    -0.025 C 
ATOM      5  C   UNL     1      -1.434  -5.381  -2.165  1.00  0.00     0.020 C 
BRANCH   5   6
ATOM      6  C   UNL     1      -2.268  -5.412  -3.385  1.00  0.00     0.064 C 
ATOM      7  O   UNL     1      -3.417  -4.900  -3.350  1.00  0.00    -0.545 OA
ATOM      8  O   UNL     1      -1.838  -6.010  -4.563  1.00  0.00    -0.545 OA
ENDBRANCH   5   6
ENDBRANCH   3   4
ENDBRANCH   2   3
ENDBRANCH   1   2
BRANCH   1   9
ATOM      9  C   UNL     1       2.148  -3.295  -5.588  1.00  0.00     0.000 C 
BRANCH   9  10
ATOM     10  C   UNL     1       3.389  -2.851  -4.798  1.00  0.00     0.000 C 
BRANCH  10  11
ATOM     11  C   UNL     1       4.671  -3.561  -5.264  1.00  0.00    -0.000 C 
BRANCH  11  12
ATOM     12  C   UNL     1       4.390  -4.935  -5.892  1.00  0.00    -0.000 C 
BRANCH  12  13
ATOM     13  C   UNL     1       4.928  -6.097  -5.041  1.00  0.00    -0.003 C 
ATOM     14  C   UNL     1       3.804  -6.769  -4.258  1.00  0.00     0.004 C 
ENDBRANCH  12  13
ENDBRANCH  11  12
ENDBRANCH  10  11
ENDBRANCH   9  10
ENDBRANCH   1   9
TORSDOF 9
ENDMDL
MODEL 4
REMARK VINA RESULT:    -4.898      2.962      6.227
REMARK INTER + INTRA:          -8.236
REMARK INTER:                  -7.222
REMARK INTRA:                  -1.014
REMARK UNBOUND:                -0.762
REMARK SMILES CCCCCCCCCC=CC(=O)[O-]
REMARK SMILES IDX 7 1 8 2 9 3 10 4 11 5 12 6 13 7 14 8 6 9 5 10 4 11 3 12 2 13
REMARK SMILES IDX 1 14
REMARK H PARENT
REMARK Flexibility Score: inf
ROOT
ATOM      1  C   UNL     1       0.284  -2.781  -3.093  1.00  0.00     0.000 C 
ENDROOT
BRANCH   1   2
ATOM      2  C   UNL     1       1.436  -3.668  -3.578  1.00  0.00     0.004 C 
BRANCH   2   3
ATOM      3  C   UNL     1       1.935  -3.216  -4.957  1.00  0.00     0.027 C 
BRANCH   3   4
ATOM      4  C   UNL     1       3.358  -2.731  -4.891  1.00  0.00    -0.025 C 
ATOM      5  C   UNL     1       4.454  -3.458  -5.161  1.00  0.00     0.020 C 
BRANCH   5   6
ATOM      6  C   UNL     1       4.489  -4.864  -5.617  1.00  0.00     0.064 C 
ATOM      7  O   UNL     1       4.796  -5.107  -6.813  1.00  0.00    -0.545 OA
ATOM      8  O   UNL     1       4.169  -5.925  -4.779  1.00  0.00    -0.545 OA
ENDBRANCH   5   6
ENDBRANCH   3   4
ENDBRANCH   2   3
ENDBRANCH   1   2
BRANCH   1   9
ATOM      9  C   UNL     1      -0.368  -3.368  -1.832  1.00  0.00     0.000 C 
BRANCH   9  10
ATOM     10  C   UNL     1       0.101  -4.801  -1.532  1.00  0.00     0.000 C 
BRANCH  10  11
ATOM     11  C   UNL     1      -1.039  -5.829  -1.634  1.00  0.00    -0.000 C 
BRANCH  11  12
ATOM     12  C   UNL     1      -1.041  -6.577  -2.977  1.00  0.00    -0.000 C 
BRANCH  12  13
ATOM     13  C   UNL     1      -1.845  -5.844  -4.062  1.00  0.00    -0.003 C 
ATOM     14  C   UNL     1      -3.097  -5.199  -3.475  1.00  0.00     0.004 C 
ENDBRANCH  12  13
ENDBRANCH  11  12
ENDBRANCH  10  11
ENDBRANCH   9  10
ENDBRANCH   1   9
TORSDOF 9
ENDMDL
MODEL 5
REMARK VINA RESULT:    -4.822      3.111      6.091
REMARK INTER + INTRA:          -8.121
REMARK INTER:                  -6.958
REMARK INTRA:                  -1.163
REMARK UNBOUND:                -0.762
REMARK SMILES CCCCCCCCCC=CC(=O)[O-]
REMARK SMILES IDX 7 1 8 2 9 3 10 4 11 5 12 6 13 7 14 8 6 9 5 10 4 11 3 12 2 13
REMARK SMILES IDX 1 14
REMARK H PARENT
REMARK Flexibility Score: inf
ROOT
ATOM      1  C   UNL     1      -0.284  -3.970  -1.474  1.00  0.00     0.000 C 
ENDROOT
BRANCH   1   2
ATOM      2  C   UNL     1      -0.083  -3.168  -2.765  1.00  0.00     0.004 C 
BRANCH   2   3
ATOM      3  C   UNL     1       1.261  -3.513  -3.422  1.00  0.00     0.027 C 
BRANCH   3   4
ATOM      4  C   UNL     1       1.098  -3.771  -4.896  1.00  0.00    -0.025 C 
ATOM      5  C   UNL     1       2.085  -3.800  -5.806  1.00  0.00     0.020 C 
BRANCH   5   6
ATOM      6  C   UNL     1       3.530  -3.628  -5.546  1.00  0.00     0.064 C 
ATOM      7  O   UNL     1       4.009  -2.464  -5.525  1.00  0.00    -0.545 OA
ATOM      8  O   UNL     1       4.383  -4.706  -5.351  1.00  0.00    -0.545 OA
ENDBRANCH   5   6
ENDBRANCH   3   4
ENDBRANCH   2   3
ENDBRANCH   1   2
BRANCH   1   9
ATOM      9  C   UNL     1       0.517  -5.280  -1.511  1.00  0.00     0.000 C 
BRANCH   9  10
ATOM     10  C   UNL     1      -0.329  -6.504  -1.123  1.00  0.00     0.000 C 
BRANCH  10  11
ATOM     11  C   UNL     1      -1.755  -6.443  -1.698  1.00  0.00    -0.000 C 
BRANCH  11  12
ATOM     12  C   UNL     1      -1.837  -6.988  -3.133  1.00  0.00    -0.000 C 
BRANCH  12  13
ATOM     13  C   UNL     1      -2.577  -6.038  -4.086  1.00  0.00    -0.003 C 
ATOM     14  C   UNL     1      -3.238  -4.895  -3.319  1.00  0.00     0.004 C 
ENDBRANCH  12  13
ENDBRANCH  11  12
ENDBRANCH  10  11
ENDBRANCH   9  10
ENDBRANCH   1   9
TORSDOF 9
ENDMDL
MODEL 6
REMARK VINA RESULT:    -4.789      1.324      2.543
REMARK INTER + INTRA:          -8.071
REMARK INTER:                  -6.781
REMARK INTRA:                  -1.290
REMARK UNBOUND:                -0.762
REMARK SMILES CCCCCCCCCC=CC(=O)[O-]
REMARK SMILES IDX 7 1 8 2 9 3 10 4 11 5 12 6 13 7 14 8 6 9 5 10 4 11 3 12 2 13
REMARK SMILES IDX 1 14
REMARK H PARENT
REMARK Flexibility Score: inf
ROOT
ATOM      1  C   UNL     1      -0.545  -5.468  -1.358  1.00  0.00     0.000 C 
ENDROOT
BRANCH   1   2
ATOM      2  C   UNL     1       0.517  -6.478  -1.807  1.00  0.00     0.004 C 
BRANCH   2   3
ATOM      3  C   UNL     1      -0.019  -7.380  -2.927  1.00  0.00     0.027 C 
BRANCH   3   4
ATOM      4  C   UNL     1      -0.106  -6.636  -4.232  1.00  0.00    -0.025 C 
ATOM      5  C   UNL     1      -1.236  -6.249  -4.847  1.00  0.00     0.020 C 
BRANCH   5   6
ATOM      6  C   UNL     1      -2.617  -6.433  -4.352  1.00  0.00     0.064 C 
ATOM      7  O   UNL     1      -3.202  -5.460  -3.810  1.00  0.00    -0.545 OA
ATOM      8  O   UNL     1      -3.281  -7.650  -4.440  1.00  0.00    -0.545 OA
ENDBRANCH   5   6
ENDBRANCH   3   4
ENDBRANCH   2   3
ENDBRANCH   1   2
BRANCH   1   9
ATOM      9  C   UNL     1      -0.004  -4.032  -1.433  1.00  0.00     0.000 C 
BRANCH   9  10
ATOM     10  C   UNL     1      -0.650  -3.212  -2.562  1.00  0.00     0.000 C 
BRANCH  10  11
ATOM     11  C   UNL     1       0.391  -2.510  -3.452  1.00  0.00    -0.000 C 
BRANCH  11  12
ATOM     12  C   UNL     1       1.614  -3.395  -3.740  1.00  0.00    -0.000 C 
BRANCH  12  13
ATOM     13  C   UNL     1       2.289  -3.055  -5.078  1.00  0.00    -0.003 C 
ATOM     14  C   UNL     1       3.805  -2.975  -4.922  1.00  0.00     0.004 C 
ENDBRANCH  12  13
ENDBRANCH  11  12
ENDBRANCH  10  11
ENDBRANCH   9  10
ENDBRANCH   1   9
TORSDOF 9
ENDMDL
MODEL 7
REMARK VINA RESULT:    -4.702      2.664      6.330
REMARK INTER + INTRA:          -7.937
REMARK INTER:                  -7.190
REMARK INTRA:                  -0.747
REMARK UNBOUND:                -0.762
REMARK SMILES CCCCCCCCCC=CC(=O)[O-]
REMARK SMILES IDX 7 1 8 2 9 3 10 4 11 5 12 6 13 7 14 8 6 9 5 10 4 11 3 12 2 13
REMARK SMILES IDX 1 14
REMARK H PARENT
REMARK Flexibility Score: inf
ROOT
ATOM      1  C   UNL     1       1.471  -2.727  -4.978  1.00  0.00     0.000 C 
ENDROOT
BRANCH   1   2
ATOM      2  C   UNL     1       2.837  -2.119  -5.319  1.00  0.00     0.004 C 
BRANCH   2   3
ATOM      3  C   UNL     1       3.978  -2.992  -4.779  1.00  0.00     0.027 C 
BRANCH   3   4
ATOM      4  C   UNL     1       4.896  -3.437  -5.885  1.00  0.00    -0.025 C 
ATOM      5  C   UNL     1       4.837  -4.610  -6.537  1.00  0.00     0.020 C 
BRANCH   5   6
ATOM      6  C   UNL     1       3.841  -5.683  -6.333  1.00  0.00     0.064 C 
ATOM      7  O   UNL     1       4.193  -6.733  -5.734  1.00  0.00    -0.545 OA
ATOM      8  O   UNL     1       2.538  -5.585  -6.803  1.00  0.00    -0.545 OA
ENDBRANCH   5   6
ENDBRANCH   3   4
ENDBRANCH   2   3
ENDBRANCH   1   2
BRANCH   1   9
ATOM      9  C   UNL     1       1.435  -3.211  -3.520  1.00  0.00     0.000 C 
BRANCH   9  10
ATOM     10  C   UNL     1       0.078  -2.955  -2.843  1.00  0.00     0.000 C 
BRANCH  10  11
ATOM     11  C   UNL     1      -0.167  -3.884  -1.641  1.00  0.00    -0.000 C 
BRANCH  11  12
ATOM     12  C   UNL     1      -1.104  -5.053  -1.982  1.00  0.00    -0.000 C 
BRANCH  12  13
ATOM     13  C   UNL     1      -1.844  -4.852  -3.314  1.00  0.00    -0.003 C 
ATOM     14  C   UNL     1      -3.121  -5.685  -3.364  1.00  0.00     0.004 C 
ENDBRANCH  12  13
ENDBRANCH  11  12
ENDBRANCH  10  11
ENDBRANCH   9  10
ENDBRANCH   1   9
TORSDOF 9
ENDMDL
MODEL 8
REMARK VINA RESULT:    -4.671      1.385      1.935
REMARK INTER + INTRA:          -7.890
REMARK INTER:                  -6.936
REMARK INTRA:                  -0.955
REMARK UNBOUND:                -0.762
REMARK SMILES CCCCCCCCCC=CC(=O)[O-]
REMARK SMILES IDX 7 1 8 2 9 3 10 4 11 5 12 6 13 7 14 8 6 9 5 10 4 11 3 12 2 13
REMARK SMILES IDX 1 14
REMARK H PARENT
REMARK Flexibility Score: inf
ROOT
ATOM      1  C   UNL     1      -0.323  -4.020  -1.540  1.00  0.00     0.000 C 
ENDROOT
BRANCH   1   2
ATOM      2  C   UNL     1      -0.329  -5.543  -1.712  1.00  0.00     0.004 C 
BRANCH   2   3
ATOM      3  C   UNL     1      -1.763  -6.091  -1.712  1.00  0.00     0.027 C 
BRANCH   3   4
ATOM      4  C   UNL     1      -2.609  -5.406  -2.750  1.00  0.00    -0.025 C 
ATOM      5  C   UNL     1      -2.821  -5.835  -4.005  1.00  0.00     0.020 C 
BRANCH   5   6
ATOM      6  C   UNL     1      -2.305  -7.081  -4.610  1.00  0.00     0.064 C 
ATOM      7  O   UNL     1      -3.110  -8.019  -4.848  1.00  0.00    -0.545 OA
ATOM      8  O   UNL     1      -0.959  -7.263  -4.900  1.00  0.00    -0.545 OA
ENDBRANCH   5   6
ENDBRANCH   3   4
ENDBRANCH   2   3
ENDBRANCH   1   2
BRANCH   1   9
ATOM      9  C   UNL     1       0.401  -3.339  -2.712  1.00  0.00     0.000 C 
BRANCH   9  10
ATOM     10  C   UNL     1       1.222  -4.325  -3.558  1.00  0.00     0.000 C 
BRANCH  10  11
ATOM     11  C   UNL     1       1.280  -3.925  -5.042  1.00  0.00    -0.000 C 
BRANCH  11  12
ATOM     12  C   UNL     1       2.124  -2.662  -5.280  1.00  0.00    -0.000 C 
BRANCH  12  13
ATOM     13  C   UNL     1       3.534  -2.771  -4.680  1.00  0.00    -0.003 C 
ATOM     14  C   UNL     1       4.438  -3.636  -5.554  1.00  0.00     0.004 C 
ENDBRANCH  12  13
ENDBRANCH  11  12
ENDBRANCH  10  11
ENDBRANCH   9  10
ENDBRANCH   1   9
TORSDOF 9
ENDMDL
MODEL 9
REMARK VINA RESULT:    -4.660      1.880      2.813
REMARK INTER + INTRA:          -7.874
REMARK INTER:                  -6.457
REMARK INTRA:                  -1.417
REMARK UNBOUND:                -0.762
REMARK SMILES CCCCCCCCCC=CC(=O)[O-]
REMARK SMILES IDX 7 1 8 2 9 3 10 4 11 5 12 6 13 7 14 8 6 9 5 10 4 11 3 12 2 13
REMARK SMILES IDX 1 14
REMARK H PARENT
REMARK Flexibility Score: inf
ROOT
ATOM      1  C   UNL     1       0.353  -2.368  -3.398  1.00  0.00     0.000 C 
ENDROOT
BRANCH   1   2
ATOM      2  C   UNL     1      -0.739  -2.781  -2.405  1.00  0.00     0.004 C 
BRANCH   2   3
ATOM      3  C   UNL     1      -1.042  -4.282  -2.513  1.00  0.00     0.027 C 
BRANCH   3   4
ATOM      4  C   UNL     1      -2.332  -4.527  -3.249  1.00  0.00    -0.025 C 
ATOM      5  C   UNL     1      -3.038  -5.670  -3.245  1.00  0.00     0.020 C 
BRANCH   5   6
ATOM      6  C   UNL     1      -2.721  -6.901  -2.490  1.00  0.00     0.064 C 
ATOM      7  O   UNL     1      -3.059  -6.975  -1.280  1.00  0.00    -0.545 OA
ATOM      8  O   UNL     1      -2.039  -7.967  -3.062  1.00  0.00    -0.545 OA
ENDBRANCH   5   6
ENDBRANCH   3   4
ENDBRANCH   2   3
ENDBRANCH   1   2
BRANCH   1   9
ATOM      9  C   UNL     1       1.448  -3.442  -3.489  1.00  0.00     0.000 C 
BRANCH   9  10
ATOM     10  C   UNL     1       2.211  -3.402  -4.822  1.00  0.00     0.000 C 
BRANCH  10  11
ATOM     11  C   UNL     1       1.965  -4.654  -5.682  1.00  0.00    -0.000 C 
BRANCH  11  12
ATOM     12  C   UNL     1       0.473  -4.891  -5.965  1.00  0.00    -0.000 C 
BRANCH  12  13
ATOM     13  C   UNL     1      -0.007  -6.272  -5.492  1.00  0.00    -0.003 C 
ATOM     14  C   UNL     1       1.035  -6.939  -4.598  1.00  0.00     0.004 C 
ENDBRANCH  12  13
ENDBRANCH  11  12
ENDBRANCH  10  11
ENDBRANCH   9  10
ENDBRANCH   1   9
TORSDOF 9
ENDMDL
