MODEL 1
REMARK VINA RESULT:    -5.355      0.000      0.000
REMARK INTER + INTRA:         -11.572
REMARK INTER:                 -10.051
REMARK INTRA:                  -1.521
REMARK UNBOUND:                -1.521
REMARK SMILES O=C([O-])CCCCCCCCCCCCCCC(=O)[O-]
REMARK SMILES IDX 10 1 9 2 8 3 7 4 6 5 5 6 4 7 2 8 1 9 3 10 11 11 12 12 13 13
REMARK SMILES IDX 14 14 15 15 16 16 17 17 18 18 19 19 20 20
REMARK H PARENT
REMARK Flexibility Score: inf
ROOT
ATOM      1  C   UNL     1     135.535 137.470 113.536  1.00  0.00     0.000 C 
ENDROOT
BRANCH   1   2
ATOM      2  C   UNL     1     136.548 136.979 114.585  1.00  0.00     0.000 C 
BRANCH   2   3
ATOM      3  C   UNL     1     137.995 137.373 114.239  1.00  0.00     0.000 C 
BRANCH   3   4
ATOM      4  C   UNL     1     138.240 138.887 114.352  1.00  0.00     0.000 C 
BRANCH   4   5
ATOM      5  C   UNL     1     139.027 139.450 113.156  1.00  0.00     0.000 C 
BRANCH   5   6
ATOM      6  C   UNL     1     140.032 140.537 113.572  1.00  0.00     0.006 C 
BRANCH   6   7
ATOM      7  C   UNL     1     139.660 141.210 114.900  1.00  0.00     0.053 C 
BRANCH   7   8
ATOM      8  C   UNL     1     140.426 142.484 115.071  1.00  0.00     0.041 C 
ATOM      9  O   UNL     1     141.590 142.464 115.552  1.00  0.00    -0.550 OA
ATOM     10  O   UNL     1     139.873 143.688 114.654  1.00  0.00    -0.550 OA
ENDBRANCH   7   8
ENDBRANCH   6   7
ENDBRANCH   5   6
ENDBRANCH   4   5
ENDBRANCH   3   4
ENDBRANCH   2   3
ENDBRANCH   1   2
BRANCH   1  11
ATOM     11  C   UNL     1     135.489 136.564 112.294  1.00  0.00     0.000 C 
BRANCH  11  12
ATOM     12  C   UNL     1     134.084 136.003 112.020  1.00  0.00     0.000 C 
BRANCH  12  13
ATOM     13  C   UNL     1     133.093 136.304 113.156  1.00  0.00     0.000 C 
BRANCH  13  14
ATOM     14  C   UNL     1     132.588 135.028 113.852  1.00  0.00     0.000 C 
BRANCH  14  15
ATOM     15  C   UNL     1     133.552 134.521 114.935  1.00  0.00     0.000 C 
BRANCH  15  16
ATOM     16  C   UNL     1     134.207 133.198 114.511  1.00  0.00     0.006 C 
BRANCH  16  17
ATOM     17  C   UNL     1     135.687 133.372 114.147  1.00  0.00     0.053 C 
BRANCH  17  18
ATOM     18  C   UNL     1     136.588 132.965 115.272  1.00  0.00     0.041 C 
ATOM     19  O   UNL     1     136.850 133.776 116.200  1.00  0.00    -0.550 OA
ATOM     20  O   UNL     1     137.164 131.701 115.280  1.00  0.00    -0.550 OA
ENDBRANCH  17  18
ENDBRANCH  16  17
ENDBRANCH  15  16
ENDBRANCH  14  15
ENDBRANCH  13  14
ENDBRANCH  12  13
ENDBRANCH  11  12
ENDBRANCH   1  11
TORSDOF 15
ENDMDL
MODEL 2
REMARK VINA RESULT:    -5.341      1.829      6.762
REMARK INTER + INTRA:         -11.545
REMARK INTER:                  -9.939
REMARK INTRA:                  -1.606
REMARK UNBOUND:                -1.521
REMARK SMILES O=C([O-])CCCCCCCCCCCCCCC(=O)[O-]
REMARK SMILES IDX 10 1 9 2 8 3 7 4 6 5 5 6 4 7 2 8 1 9 3 10 11 11 12 12 13 13
REMARK SMILES IDX 14 14 15 15 16 16 17 17 18 18 19 19 20 20
REMARK H PARENT
REMARK Flexibility Score: inf
ROOT
ATOM      1  C   UNL     1     133.193 134.624 112.785  1.00  0.00     0.000 C 
ENDROOT
BRANCH   1   2
ATOM      2  C   UNL     1     133.054 135.013 114.266  1.00  0.00     0.000 C 
BRANCH   2   3
ATOM      3  C   UNL     1     133.677 133.971 115.212  1.00  0.00     0.000 C 
BRANCH   3   4
ATOM      4  C   UNL     1     134.834 133.194 114.560  1.00  0.00     0.000 C 
BRANCH   4   5
ATOM      5  C   UNL     1     136.201 133.860 114.796  1.00  0.00     0.000 C 
BRANCH   5   6
ATOM      6  C   UNL     1     136.577 133.919 116.285  1.00  0.00     0.006 C 
BRANCH   6   7
ATOM      7  C   UNL     1     136.897 135.343 116.759  1.00  0.00     0.053 C 
BRANCH   7   8
ATOM      8  C   UNL     1     136.117 135.670 117.993  1.00  0.00     0.041 C 
ATOM      9  O   UNL     1     136.598 135.423 119.130  1.00  0.00    -0.550 OA
ATOM     10  O   UNL     1     134.880 136.293 117.889  1.00  0.00    -0.550 OA
ENDBRANCH   7   8
ENDBRANCH   6   7
ENDBRANCH   5   6
ENDBRANCH   4   5
ENDBRANCH   3   4
ENDBRANCH   2   3
ENDBRANCH   1   2
BRANCH   1  11
ATOM     11  C   UNL     1     133.995 135.660 111.978  1.00  0.00     0.000 C 
BRANCH  11  12
ATOM     12  C   UNL     1     134.169 136.991 112.728  1.00  0.00     0.000 C 
BRANCH  12  13
ATOM     13  C   UNL     1     135.578 137.585 112.563  1.00  0.00     0.000 C 
BRANCH  13  14
ATOM     14  C   UNL     1     136.498 137.263 113.753  1.00  0.00     0.000 C 
BRANCH  14  15
ATOM     15  C   UNL     1     137.950 137.703 113.516  1.00  0.00     0.000 C 
BRANCH  15  16
ATOM     16  C   UNL     1     138.383 138.750 114.554  1.00  0.00     0.006 C 
BRANCH  16  17
ATOM     17  C   UNL     1     139.141 139.921 113.918  1.00  0.00     0.053 C 
BRANCH  17  18
ATOM     18  C   UNL     1     139.545 140.942 114.936  1.00  0.00     0.041 C 
ATOM     19  O   UNL     1     139.923 142.087 114.572  1.00  0.00    -0.550 OA
ATOM     20  O   UNL     1     139.535 140.618 116.287  1.00  0.00    -0.550 OA
ENDBRANCH  17  18
ENDBRANCH  16  17
ENDBRANCH  15  16
ENDBRANCH  14  15
ENDBRANCH  13  14
ENDBRANCH  12  13
ENDBRANCH  11  12
ENDBRANCH   1  11
TORSDOF 15
ENDMDL
MODEL 3
REMARK VINA RESULT:    -5.328      2.433      8.689
REMARK INTER + INTRA:         -11.521
REMARK INTER:                  -9.768
REMARK INTRA:                  -1.753
REMARK UNBOUND:                -1.521
REMARK SMILES O=C([O-])CCCCCCCCCCCCCCC(=O)[O-]
REMARK SMILES IDX 10 1 9 2 8 3 7 4 6 5 5 6 4 7 2 8 1 9 3 10 11 11 12 12 13 13
REMARK SMILES IDX 14 14 15 15 16 16 17 17 18 18 19 19 20 20
REMARK H PARENT
REMARK Flexibility Score: inf
ROOT
ATOM      1  C   UNL     1     141.802 139.701 112.971  1.00  0.00     0.000 C 
ENDROOT
BRANCH   1   2
ATOM      2  C   UNL     1     140.274 139.530 112.961  1.00  0.00     0.000 C 
BRANCH   2   3
ATOM      3  C   UNL     1     139.753 138.797 114.210  1.00  0.00     0.000 C 
BRANCH   3   4
ATOM      4  C   UNL     1     138.218 138.704 114.246  1.00  0.00     0.000 C 
BRANCH   4   5
ATOM      5  C   UNL     1     137.696 137.341 113.761  1.00  0.00     0.000 C 
BRANCH   5   6
ATOM      6  C   UNL     1     137.408 136.375 114.920  1.00  0.00     0.006 C 
BRANCH   6   7
ATOM      7  C   UNL     1     136.158 135.517 114.680  1.00  0.00     0.053 C 
BRANCH   7   8
ATOM      8  C   UNL     1     135.856 134.684 115.886  1.00  0.00     0.041 C 
ATOM      9  O   UNL     1     134.709 134.191 116.044  1.00  0.00    -0.550 OA
ATOM     10  O   UNL     1     136.857 134.413 116.810  1.00  0.00    -0.550 OA
ENDBRANCH   7   8
ENDBRANCH   6   7
ENDBRANCH   5   6
ENDBRANCH   4   5
ENDBRANCH   3   4
ENDBRANCH   2   3
ENDBRANCH   1   2
BRANCH   1  11
ATOM     11  C   UNL     1     142.370 139.833 114.395  1.00  0.00     0.000 C 
BRANCH  11  12
ATOM     12  C   UNL     1     143.320 141.032 114.546  1.00  0.00     0.000 C 
BRANCH  12  13
ATOM     13  C   UNL     1     142.868 142.254 113.730  1.00  0.00     0.000 C 
BRANCH  13  14
ATOM     14  C   UNL     1     142.003 143.225 114.551  1.00  0.00     0.000 C 
BRANCH  14  15
ATOM     15  C   UNL     1     140.501 143.063 114.270  1.00  0.00     0.000 C 
BRANCH  15  16
ATOM     16  C   UNL     1     139.811 142.292 115.406  1.00  0.00     0.006 C 
BRANCH  16  17
ATOM     17  C   UNL     1     140.593 142.374 116.723  1.00  0.00     0.053 C 
BRANCH  17  18
ATOM     18  C   UNL     1     140.319 141.197 117.607  1.00  0.00     0.041 C 
ATOM     19  O   UNL     1     139.231 141.116 118.236  1.00  0.00    -0.550 OA
ATOM     20  O   UNL     1     141.278 140.204 117.762  1.00  0.00    -0.550 OA
ENDBRANCH  17  18
ENDBRANCH  16  17
ENDBRANCH  15  16
ENDBRANCH  14  15
ENDBRANCH  13  14
ENDBRANCH  12  13
ENDBRANCH  11  12
ENDBRANCH   1  11
TORSDOF 15
ENDMDL
MODEL 4
REMARK VINA RESULT:    -5.282      1.635      7.168
REMARK INTER + INTRA:         -11.435
REMARK INTER:                  -9.851
REMARK INTRA:                  -1.584
REMARK UNBOUND:                -1.521
REMARK SMILES O=C([O-])CCCCCCCCCCCCCCC(=O)[O-]
REMARK SMILES IDX 10 1 9 2 8 3 7 4 6 5 5 6 4 7 2 8 1 9 3 10 11 11 12 12 13 13
REMARK SMILES IDX 14 14 15 15 16 16 17 17 18 18 19 19 20 20
REMARK H PARENT
REMARK Flexibility Score: inf
ROOT
ATOM      1  C   UNL     1     135.742 135.009 112.101  1.00  0.00     0.000 C 
ENDROOT
BRANCH   1   2
ATOM      2  C   UNL     1     134.248 134.759 112.369  1.00  0.00     0.000 C 
BRANCH   2   3
ATOM      3  C   UNL     1     134.010 133.849 113.587  1.00  0.00     0.000 C 
BRANCH   3   4
ATOM      4  C   UNL     1     133.319 134.582 114.749  1.00  0.00     0.000 C 
BRANCH   4   5
ATOM      5  C   UNL     1     133.885 135.993 114.981  1.00  0.00     0.000 C 
BRANCH   5   6
ATOM      6  C   UNL     1     134.585 136.129 116.342  1.00  0.00     0.006 C 
BRANCH   6   7
ATOM      7  C   UNL     1     134.964 134.773 116.953  1.00  0.00     0.053 C 
BRANCH   7   8
ATOM      8  C   UNL     1     136.437 134.542 116.839  1.00  0.00     0.041 C 
ATOM      9  O   UNL     1     137.237 135.180 117.572  1.00  0.00    -0.550 OA
ATOM     10  O   UNL     1     136.925 133.586 115.956  1.00  0.00    -0.550 OA
ENDBRANCH   7   8
ENDBRANCH   6   7
ENDBRANCH   5   6
ENDBRANCH   4   5
ENDBRANCH   3   4
ENDBRANCH   2   3
ENDBRANCH   1   2
BRANCH   1  11
ATOM     11  C   UNL     1     136.011 136.418 111.544  1.00  0.00     0.000 C 
BRANCH  11  12
ATOM     12  C   UNL     1     137.114 137.161 112.316  1.00  0.00     0.000 C 
BRANCH  12  13
ATOM     13  C   UNL     1     137.329 136.599 113.731  1.00  0.00     0.000 C 
BRANCH  13  14
ATOM     14  C   UNL     1     137.975 137.622 114.681  1.00  0.00     0.000 C 
BRANCH  14  15
ATOM     15  C   UNL     1     138.476 138.876 113.948  1.00  0.00     0.000 C 
BRANCH  15  16
ATOM     16  C   UNL     1     139.742 139.434 114.617  1.00  0.00     0.006 C 
BRANCH  16  17
ATOM     17  C   UNL     1     139.430 140.587 115.580  1.00  0.00     0.053 C 
BRANCH  17  18
ATOM     18  C   UNL     1     140.545 140.815 116.554  1.00  0.00     0.041 C 
ATOM     19  O   UNL     1     140.532 141.824 117.307  1.00  0.00    -0.550 OA
ATOM     20  O   UNL     1     141.614 139.929 116.608  1.00  0.00    -0.550 OA
ENDBRANCH  17  18
ENDBRANCH  16  17
ENDBRANCH  15  16
ENDBRANCH  14  15
ENDBRANCH  13  14
ENDBRANCH  12  13
ENDBRANCH  11  12
ENDBRANCH   1  11
TORSDOF 15
ENDMDL
MODEL 5
REMARK VINA RESULT:    -5.261      1.873      7.657
REMARK INTER + INTRA:         -11.395
REMARK INTER:                 -10.115
REMARK INTRA:                  -1.280
REMARK UNBOUND:                -1.521
REMARK SMILES O=C([O-])CCCCCCCCCCCCCCC(=O)[O-]
REMARK SMILES IDX 10 1 9 2 8 3 7 4 6 5 5 6 4 7 2 8 1 9 3 10 11 11 12 12 13 13
REMARK SMILES IDX 14 14 15 15 16 16 17 17 18 18 19 19 20 20
REMARK H PARENT
REMARK Flexibility Score: inf
ROOT
ATOM      1  C   UNL     1     134.479 136.737 114.370  1.00  0.00     0.000 C 
ENDROOT
BRANCH   1   2
ATOM      2  C   UNL     1     133.709 135.551 113.765  1.00  0.00     0.000 C 
BRANCH   2   3
ATOM      3  C   UNL     1     133.612 134.355 114.728  1.00  0.00     0.000 C 
BRANCH   3   4
ATOM      4  C   UNL     1     134.495 133.172 114.296  1.00  0.00     0.000 C 
BRANCH   4   5
ATOM      5  C   UNL     1     135.997 133.499 114.361  1.00  0.00     0.000 C 
BRANCH   5   6
ATOM      6  C   UNL     1     136.562 133.386 115.786  1.00  0.00     0.006 C 
BRANCH   6   7
ATOM      7  C   UNL     1     136.863 134.754 116.414  1.00  0.00     0.053 C 
BRANCH   7   8
ATOM      8  C   UNL     1     136.246 134.851 117.774  1.00  0.00     0.041 C 
ATOM      9  O   UNL     1     135.096 134.381 117.983  1.00  0.00    -0.550 OA
ATOM     10  O   UNL     1     136.960 135.416 118.823  1.00  0.00    -0.550 OA
ENDBRANCH   7   8
ENDBRANCH   6   7
ENDBRANCH   5   6
ENDBRANCH   4   5
ENDBRANCH   3   4
ENDBRANCH   2   3
ENDBRANCH   1   2
BRANCH   1  11
ATOM     11  C   UNL     1     135.637 137.205 113.472  1.00  0.00     0.000 C 
BRANCH  11  12
ATOM     12  C   UNL     1     136.882 137.616 114.275  1.00  0.00     0.000 C 
BRANCH  12  13
ATOM     13  C   UNL     1     137.964 138.272 113.400  1.00  0.00     0.000 C 
BRANCH  13  14
ATOM     14  C   UNL     1     139.199 138.700 114.210  1.00  0.00     0.000 C 
BRANCH  14  15
ATOM     15  C   UNL     1     139.609 140.156 113.943  1.00  0.00     0.000 C 
BRANCH  15  16
ATOM     16  C   UNL     1     139.461 141.009 115.211  1.00  0.00     0.006 C 
BRANCH  16  17
ATOM     17  C   UNL     1     140.439 140.585 116.314  1.00  0.00     0.053 C 
BRANCH  17  18
ATOM     18  C   UNL     1     140.273 141.410 117.553  1.00  0.00     0.041 C 
ATOM     19  O   UNL     1     141.163 142.234 117.891  1.00  0.00    -0.550 OA
ATOM     20  O   UNL     1     139.149 141.244 118.353  1.00  0.00    -0.550 OA
ENDBRANCH  17  18
ENDBRANCH  16  17
ENDBRANCH  15  16
ENDBRANCH  14  15
ENDBRANCH  13  14
ENDBRANCH  12  13
ENDBRANCH  11  12
ENDBRANCH   1  11
TORSDOF 15
ENDMDL
MODEL 6
REMARK VINA RESULT:    -5.249      1.660      2.355
REMARK INTER + INTRA:         -11.373
REMARK INTER:                  -9.716
REMARK INTRA:                  -1.657
REMARK UNBOUND:                -1.521
REMARK SMILES O=C([O-])CCCCCCCCCCCCCCC(=O)[O-]
REMARK SMILES IDX 10 1 9 2 8 3 7 4 6 5 5 6 4 7 2 8 1 9 3 10 11 11 12 12 13 13
REMARK SMILES IDX 14 14 15 15 16 16 17 17 18 18 19 19 20 20
REMARK H PARENT
REMARK Flexibility Score: inf
ROOT
ATOM      1  C   UNL     1     134.697 137.407 113.050  1.00  0.00     0.000 C 
ENDROOT
BRANCH   1   2
ATOM      2  C   UNL     1     135.934 137.143 112.175  1.00  0.00     0.000 C 
BRANCH   2   3
ATOM      3  C   UNL     1     137.203 136.889 113.006  1.00  0.00     0.000 C 
BRANCH   3   4
ATOM      4  C   UNL     1     137.504 138.029 113.994  1.00  0.00     0.000 C 
BRANCH   4   5
ATOM      5  C   UNL     1     138.838 138.735 113.696  1.00  0.00     0.000 C 
BRANCH   5   6
ATOM      6  C   UNL     1     139.020 140.019 114.521  1.00  0.00     0.006 C 
BRANCH   6   7
ATOM      7  C   UNL     1     140.262 139.972 115.421  1.00  0.00     0.053 C 
BRANCH   7   8
ATOM      8  C   UNL     1     140.199 141.053 116.454  1.00  0.00     0.041 C 
ATOM      9  O   UNL     1     139.446 140.930 117.455  1.00  0.00    -0.550 OA
ATOM     10  O   UNL     1     141.008 142.176 116.335  1.00  0.00    -0.550 OA
ENDBRANCH   7   8
ENDBRANCH   6   7
ENDBRANCH   5   6
ENDBRANCH   4   5
ENDBRANCH   3   4
ENDBRANCH   2   3
ENDBRANCH   1   2
BRANCH   1  11
ATOM     11  C   UNL     1     133.492 136.543 112.641  1.00  0.00     0.000 C 
BRANCH  11  12
ATOM     12  C   UNL     1     133.788 135.037 112.719  1.00  0.00     0.000 C 
BRANCH  12  13
ATOM     13  C   UNL     1     133.232 134.388 113.998  1.00  0.00     0.000 C 
BRANCH  13  14
ATOM     14  C   UNL     1     134.236 133.426 114.656  1.00  0.00     0.000 C 
BRANCH  14  15
ATOM     15  C   UNL     1     135.668 133.615 114.134  1.00  0.00     0.000 C 
BRANCH  15  16
ATOM     16  C   UNL     1     136.651 133.829 115.294  1.00  0.00     0.006 C 
BRANCH  16  17
ATOM     17  C   UNL     1     136.344 135.105 116.088  1.00  0.00     0.053 C 
BRANCH  17  18
ATOM     18  C   UNL     1     136.258 134.837 117.560  1.00  0.00     0.041 C 
ATOM     19  O   UNL     1     135.271 134.216 118.035  1.00  0.00    -0.550 OA
ATOM     20  O   UNL     1     137.253 135.303 118.410  1.00  0.00    -0.550 OA
ENDBRANCH  17  18
ENDBRANCH  16  17
ENDBRANCH  15  16
ENDBRANCH  14  15
ENDBRANCH  13  14
ENDBRANCH  12  13
ENDBRANCH  11  12
ENDBRANCH   1  11
TORSDOF 15
ENDMDL
MODEL 7
REMARK VINA RESULT:    -5.238      1.840      8.879
REMARK INTER + INTRA:         -11.352
REMARK INTER:                  -9.966
REMARK INTRA:                  -1.386
REMARK UNBOUND:                -1.521
REMARK SMILES O=C([O-])CCCCCCCCCCCCCCC(=O)[O-]
REMARK SMILES IDX 10 1 9 2 8 3 7 4 6 5 5 6 4 7 2 8 1 9 3 10 11 11 12 12 13 13
REMARK SMILES IDX 14 14 15 15 16 16 17 17 18 18 19 19 20 20
REMARK H PARENT
REMARK Flexibility Score: inf
ROOT
ATOM      1  C   UNL     1     140.298 139.240 114.243  1.00  0.00     0.000 C 
ENDROOT
BRANCH   1   2
ATOM      2  C   UNL     1     138.768 139.296 114.094  1.00  0.00     0.000 C 
BRANCH   2   3
ATOM      3  C   UNL     1     138.190 138.026 113.446  1.00  0.00     0.000 C 
BRANCH   3   4
ATOM      4  C   UNL     1     137.558 137.071 114.472  1.00  0.00     0.000 C 
BRANCH   4   5
ATOM      5  C   UNL     1     136.021 137.084 114.426  1.00  0.00     0.000 C 
BRANCH   5   6
ATOM      6  C   UNL     1     135.390 136.482 115.692  1.00  0.00     0.006 C 
BRANCH   6   7
ATOM      7  C   UNL     1     134.450 135.308 115.385  1.00  0.00     0.053 C 
BRANCH   7   8
ATOM      8  C   UNL     1     135.238 134.061 115.138  1.00  0.00     0.041 C 
ATOM      9  O   UNL     1     134.848 133.224 114.281  1.00  0.00    -0.550 OA
ATOM     10  O   UNL     1     136.429 133.844 115.819  1.00  0.00    -0.550 OA
ENDBRANCH   7   8
ENDBRANCH   6   7
ENDBRANCH   5   6
ENDBRANCH   4   5
ENDBRANCH   3   4
ENDBRANCH   2   3
ENDBRANCH   1   2
BRANCH   1  11
ATOM     11  C   UNL     1     141.027 139.481 112.909  1.00  0.00     0.000 C 
BRANCH  11  12
ATOM     12  C   UNL     1     140.591 140.784 112.221  1.00  0.00     0.000 C 
BRANCH  12  13
ATOM     13  C   UNL     1     141.343 142.016 112.753  1.00  0.00     0.000 C 
BRANCH  13  14
ATOM     14  C   UNL     1     142.847 141.754 112.942  1.00  0.00     0.000 C 
BRANCH  14  15
ATOM     15  C   UNL     1     143.261 141.721 114.421  1.00  0.00     0.000 C 
BRANCH  15  16
ATOM     16  C   UNL     1     142.338 142.608 115.269  1.00  0.00     0.006 C 
BRANCH  16  17
ATOM     17  C   UNL     1     141.740 141.852 116.462  1.00  0.00     0.053 C 
BRANCH  17  18
ATOM     18  C   UNL     1     140.271 142.108 116.604  1.00  0.00     0.041 C 
ATOM     19  O   UNL     1     139.619 141.565 117.535  1.00  0.00    -0.550 OA
ATOM     20  O   UNL     1     139.616 142.923 115.690  1.00  0.00    -0.550 OA
ENDBRANCH  17  18
ENDBRANCH  16  17
ENDBRANCH  15  16
ENDBRANCH  14  15
ENDBRANCH  13  14
ENDBRANCH  12  13
ENDBRANCH  11  12
ENDBRANCH   1  11
TORSDOF 15
ENDMDL
MODEL 8
REMARK VINA RESULT:    -5.227      2.410      5.117
REMARK INTER + INTRA:         -11.332
REMARK INTER:                  -9.627
REMARK INTRA:                  -1.705
REMARK UNBOUND:                -1.521
REMARK SMILES O=C([O-])CCCCCCCCCCCCCCC(=O)[O-]
REMARK SMILES IDX 10 1 9 2 8 3 7 4 6 5 5 6 4 7 2 8 1 9 3 10 11 11 12 12 13 13
REMARK SMILES IDX 14 14 15 15 16 16 17 17 18 18 19 19 20 20
REMARK H PARENT
REMARK Flexibility Score: inf
ROOT
ATOM      1  C   UNL     1     141.052 141.512 111.688  1.00  0.00     0.000 C 
ENDROOT
BRANCH   1   2
ATOM      2  C   UNL     1     142.525 141.082 111.798  1.00  0.00     0.000 C 
BRANCH   2   3
ATOM      3  C   UNL     1     143.279 141.835 112.908  1.00  0.00     0.000 C 
BRANCH   3   4
ATOM      4  C   UNL     1     143.704 140.915 114.065  1.00  0.00     0.000 C 
BRANCH   4   5
ATOM      5  C   UNL     1     142.702 140.930 115.232  1.00  0.00     0.000 C 
BRANCH   5   6
ATOM      6  C   UNL     1     142.155 142.337 115.519  1.00  0.00     0.006 C 
BRANCH   6   7
ATOM      7  C   UNL     1     140.632 142.352 115.711  1.00  0.00     0.053 C 
BRANCH   7   8
ATOM      8  C   UNL     1     140.270 141.803 117.055  1.00  0.00     0.041 C 
ATOM      9  O   UNL     1     140.696 142.357 118.102  1.00  0.00    -0.550 OA
ATOM     10  O   UNL     1     139.421 140.708 117.152  1.00  0.00    -0.550 OA
ENDBRANCH   7   8
ENDBRANCH   6   7
ENDBRANCH   5   6
ENDBRANCH   4   5
ENDBRANCH   3   4
ENDBRANCH   2   3
ENDBRANCH   1   2
BRANCH   1  11
ATOM     11  C   UNL     1     140.088 140.312 111.688  1.00  0.00     0.000 C 
BRANCH  11  12
ATOM     12  C   UNL     1     140.236 139.432 112.940  1.00  0.00     0.000 C 
BRANCH  12  13
ATOM     13  C   UNL     1     139.024 139.531 113.882  1.00  0.00     0.000 C 
BRANCH  13  14
ATOM     14  C   UNL     1     138.351 138.169 114.123  1.00  0.00     0.000 C 
BRANCH  14  15
ATOM     15  C   UNL     1     137.682 137.606 112.860  1.00  0.00     0.000 C 
BRANCH  15  16
ATOM     16  C   UNL     1     136.760 136.427 113.207  1.00  0.00     0.006 C 
BRANCH  16  17
ATOM     17  C   UNL     1     136.935 135.960 114.658  1.00  0.00     0.053 C 
BRANCH  17  18
ATOM     18  C   UNL     1     135.620 135.820 115.360  1.00  0.00     0.041 C 
ATOM     19  O   UNL     1     135.006 136.841 115.768  1.00  0.00    -0.550 OA
ATOM     20  O   UNL     1     135.087 134.558 115.592  1.00  0.00    -0.550 OA
ENDBRANCH  17  18
ENDBRANCH  16  17
ENDBRANCH  15  16
ENDBRANCH  14  15
ENDBRANCH  13  14
ENDBRANCH  12  13
ENDBRANCH  11  12
ENDBRANCH   1  11
TORSDOF 15
ENDMDL
MODEL 9
REMARK VINA RESULT:    -5.225      2.497      8.996
REMARK INTER + INTRA:         -11.328
REMARK INTER:                  -9.810
REMARK INTRA:                  -1.518
REMARK UNBOUND:                -1.521
REMARK SMILES O=C([O-])CCCCCCCCCCCCCCC(=O)[O-]
REMARK SMILES IDX 10 1 9 2 8 3 7 4 6 5 5 6 4 7 2 8 1 9 3 10 11 11 12 12 13 13
REMARK SMILES IDX 14 14 15 15 16 16 17 17 18 18 19 19 20 20
REMARK H PARENT
REMARK Flexibility Score: inf
ROOT
ATOM      1  C   UNL     1     140.526 139.570 112.456  1.00  0.00     0.000 C 
ENDROOT
BRANCH   1   2
ATOM      2  C   UNL     1     139.395 139.959 113.422  1.00  0.00     0.000 C 
BRANCH   2   3
ATOM      3  C   UNL     1     139.058 138.837 114.420  1.00  0.00     0.000 C 
BRANCH   3   4
ATOM      4  C   UNL     1     137.630 138.294 114.242  1.00  0.00     0.000 C 
BRANCH   4   5
ATOM      5  C   UNL     1     137.604 136.900 113.591  1.00  0.00     0.000 C 
BRANCH   5   6
ATOM      6  C   UNL     1     136.650 135.933 114.310  1.00  0.00     0.006 C 
BRANCH   6   7
ATOM      7  C   UNL     1     136.797 135.981 115.837  1.00  0.00     0.053 C 
BRANCH   7   8
ATOM      8  C   UNL     1     135.462 135.830 116.495  1.00  0.00     0.041 C 
ATOM      9  O   UNL     1     134.595 136.737 116.387  1.00  0.00    -0.550 OA
ATOM     10  O   UNL     1     135.157 134.665 117.187  1.00  0.00    -0.550 OA
ENDBRANCH   7   8
ENDBRANCH   6   7
ENDBRANCH   5   6
ENDBRANCH   4   5
ENDBRANCH   3   4
ENDBRANCH   2   3
ENDBRANCH   1   2
BRANCH   1  11
ATOM     11  C   UNL     1     140.987 140.752 111.585  1.00  0.00     0.000 C 
BRANCH  11  12
ATOM     12  C   UNL     1     142.511 140.955 111.618  1.00  0.00     0.000 C 
BRANCH  12  13
ATOM     13  C   UNL     1     143.194 140.140 112.730  1.00  0.00     0.000 C 
BRANCH  13  14
ATOM     14  C   UNL     1     143.784 141.031 113.836  1.00  0.00     0.000 C 
BRANCH  14  15
ATOM     15  C   UNL     1     142.799 141.276 114.989  1.00  0.00     0.000 C 
BRANCH  15  16
ATOM     16  C   UNL     1     142.473 142.771 115.123  1.00  0.00     0.006 C 
BRANCH  16  17
ATOM     17  C   UNL     1     141.286 143.188 114.246  1.00  0.00     0.053 C 
BRANCH  17  18
ATOM     18  C   UNL     1     140.062 143.470 115.062  1.00  0.00     0.041 C 
ATOM     19  O   UNL     1     139.509 142.547 115.716  1.00  0.00    -0.550 OA
ATOM     20  O   UNL     1     139.514 144.747 115.075  1.00  0.00    -0.550 OA
ENDBRANCH  17  18
ENDBRANCH  16  17
ENDBRANCH  15  16
ENDBRANCH  14  15
ENDBRANCH  13  14
ENDBRANCH  12  13
ENDBRANCH  11  12
ENDBRANCH   1  11
TORSDOF 15
ENDMDL
