MODEL 1
REMARK VINA RESULT:    -5.019      0.000      0.000
REMARK INTER + INTRA:          -8.411
REMARK INTER:                  -7.220
REMARK INTRA:                  -1.191
REMARK UNBOUND:                -1.191
REMARK SMILES CC(C)=CCCC(C)=CCCC(C)=CCO
REMARK SMILES IDX 10 1 9 2 7 3 8 4 6 5 5 6 4 7 1 8 2 9 3 10 11 11 12 12 14 13
REMARK SMILES IDX 13 14 15 15 16 16
REMARK H PARENT 16 17
REMARK Flexibility Score: inf
ROOT
ATOM      1  C   UNL     1       9.539   2.258   7.724  1.00  0.00     0.032 C 
ENDROOT
BRANCH   1   2
ATOM      2  C   UNL     1       9.639   1.727   6.314  1.00  0.00    -0.028 C 
ATOM      3  C   UNL     1      10.275   0.575   6.003  1.00  0.00    -0.077 C 
ATOM      4  C   UNL     1      10.935  -0.271   7.065  1.00  0.00     0.039 C 
BRANCH   3   5
ATOM      5  C   UNL     1      10.325   0.124   4.560  1.00  0.00     0.034 C 
BRANCH   5   6
ATOM      6  C   UNL     1      11.775  -0.017   4.083  1.00  0.00     0.032 C 
BRANCH   6   7
ATOM      7  C   UNL     1      12.182   1.172   3.248  1.00  0.00    -0.028 C 
ATOM      8  C   UNL     1      13.325   2.323   5.157  1.00  0.00     0.039 C 
ATOM      9  C   UNL     1      12.907   2.216   3.711  1.00  0.00    -0.080 C 
ATOM     10  C   UNL     1      13.283   3.339   2.780  1.00  0.00     0.039 C 
ENDBRANCH   6   7
ENDBRANCH   5   6
ENDBRANCH   3   5
ENDBRANCH   1   2
BRANCH   1  11
ATOM     11  C   UNL     1      10.672   3.245   8.027  1.00  0.00     0.034 C 
BRANCH  11  12
ATOM     12  C   UNL     1      10.188   4.674   7.911  1.00  0.00    -0.075 C 
ATOM     13  C   UNL     1      11.087   5.661   7.702  1.00  0.00    -0.000 C 
ATOM     14  C   UNL     1       8.710   4.967   8.021  1.00  0.00     0.039 C 
BRANCH  13  15
ATOM     15  C   UNL     1      10.705   7.111   7.573  1.00  0.00     0.183 C 
BRANCH  15  16
ATOM     16  O   UNL     1      10.713   7.480   6.222  1.00  0.00    -0.392 OA
ATOM     17  H   UNL     1      10.134   6.825   5.754  1.00  0.00     0.210 HD
ENDBRANCH  15  16
ENDBRANCH  13  15
ENDBRANCH  11  12
ENDBRANCH   1  11
TORSDOF 8
ENDMDL
MODEL 2
REMARK VINA RESULT:    -4.930      2.668      6.300
REMARK INTER + INTRA:          -8.282
REMARK INTER:                  -7.522
REMARK INTRA:                  -0.761
REMARK UNBOUND:                -1.191
REMARK SMILES CC(C)=CCCC(C)=CCCC(C)=CCO
REMARK SMILES IDX 10 1 9 2 7 3 8 4 6 5 5 6 4 7 1 8 2 9 3 10 11 11 12 12 14 13
REMARK SMILES IDX 13 14 15 15 16 16
REMARK H PARENT 16 17
REMARK Flexibility Score: inf
ROOT
ATOM      1  C   UNL     1      12.782   2.763   3.388  1.00  0.00     0.032 C 
ENDROOT
BRANCH   1   2
ATOM      2  C   UNL     1      12.894   2.821   4.892  1.00  0.00    -0.028 C 
ATOM      3  C   UNL     1      12.009   2.224   5.721  1.00  0.00    -0.077 C 
ATOM      4  C   UNL     1      10.832   1.444   5.186  1.00  0.00     0.039 C 
BRANCH   3   5
ATOM      5  C   UNL     1      12.203   2.340   7.217  1.00  0.00     0.034 C 
BRANCH   5   6
ATOM      6  C   UNL     1      11.013   3.055   7.867  1.00  0.00     0.032 C 
BRANCH   6   7
ATOM      7  C   UNL     1      11.202   4.551   7.832  1.00  0.00    -0.028 C 
ATOM      8  C   UNL     1       8.745   5.025   7.953  1.00  0.00     0.039 C 
ATOM      9  C   UNL     1      10.192   5.448   7.902  1.00  0.00    -0.080 C 
ATOM     10  C   UNL     1      10.498   6.923   7.887  1.00  0.00     0.039 C 
ENDBRANCH   6   7
ENDBRANCH   5   6
ENDBRANCH   3   5
ENDBRANCH   1   2
BRANCH   1  11
ATOM     11  C   UNL     1      13.905   1.914   2.779  1.00  0.00     0.034 C 
BRANCH  11  12
ATOM     12  C   UNL     1      15.126   2.760   2.495  1.00  0.00    -0.075 C 
ATOM     13  C   UNL     1      15.039   3.766   1.596  1.00  0.00    -0.000 C 
ATOM     14  C   UNL     1      16.415   2.471   3.228  1.00  0.00     0.039 C 
BRANCH  13  15
ATOM     15  C   UNL     1      16.196   4.662   1.247  1.00  0.00     0.183 C 
BRANCH  15  16
ATOM     16  O   UNL     1      15.916   5.349   0.060  1.00  0.00    -0.392 OA
ATOM     17  H   UNL     1      14.964   5.162  -0.149  1.00  0.00     0.210 HD
ENDBRANCH  15  16
ENDBRANCH  13  15
ENDBRANCH  11  12
ENDBRANCH   1  11
TORSDOF 8
ENDMDL
MODEL 3
REMARK VINA RESULT:    -4.914      2.909      6.599
REMARK INTER + INTRA:          -8.259
REMARK INTER:                  -7.316
REMARK INTRA:                  -0.943
REMARK UNBOUND:                -1.191
REMARK SMILES CC(C)=CCCC(C)=CCCC(C)=CCO
REMARK SMILES IDX 10 1 9 2 7 3 8 4 6 5 5 6 4 7 1 8 2 9 3 10 11 11 12 12 14 13
REMARK SMILES IDX 13 14 15 15 16 16
REMARK H PARENT 16 17
REMARK Flexibility Score: inf
ROOT
ATOM      1  C   UNL     1      13.088   1.997   1.846  1.00  0.00     0.032 C 
ENDROOT
BRANCH   1   2
ATOM      2  C   UNL     1      12.371   1.491   3.074  1.00  0.00    -0.028 C 
ATOM      3  C   UNL     1      12.147   2.257   4.165  1.00  0.00    -0.077 C 
ATOM      4  C   UNL     1      12.604   3.695   4.224  1.00  0.00     0.039 C 
BRANCH   3   5
ATOM      5  C   UNL     1      11.421   1.661   5.351  1.00  0.00     0.034 C 
BRANCH   5   6
ATOM      6  C   UNL     1      11.529   2.578   6.573  1.00  0.00     0.032 C 
BRANCH   6   7
ATOM      7  C   UNL     1      10.164   3.053   7.009  1.00  0.00    -0.028 C 
ATOM      8  C   UNL     1      10.955   5.378   7.501  1.00  0.00     0.039 C 
ATOM      9  C   UNL     1       9.887   4.318   7.398  1.00  0.00    -0.080 C 
ATOM     10  C   UNL     1       8.480   4.691   7.787  1.00  0.00     0.039 C 
ENDBRANCH   6   7
ENDBRANCH   5   6
ENDBRANCH   3   5
ENDBRANCH   1   2
BRANCH   1  11
ATOM     11  C   UNL     1      14.482   1.372   1.719  1.00  0.00     0.034 C 
BRANCH  11  12
ATOM     12  C   UNL     1      15.534   2.438   1.505  1.00  0.00    -0.075 C 
ATOM     13  C   UNL     1      15.160   3.736   1.462  1.00  0.00    -0.000 C 
ATOM     14  C   UNL     1      16.981   2.031   1.353  1.00  0.00     0.039 C 
BRANCH  13  15
ATOM     15  C   UNL     1      16.130   4.867   1.255  1.00  0.00     0.183 C 
BRANCH  15  16
ATOM     16  O   UNL     1      15.977   5.386  -0.036  1.00  0.00    -0.392 OA
ATOM     17  H   UNL     1      15.114   5.033  -0.375  1.00  0.00     0.210 HD
ENDBRANCH  15  16
ENDBRANCH  13  15
ENDBRANCH  11  12
ENDBRANCH   1  11
TORSDOF 8
ENDMDL
MODEL 4
REMARK VINA RESULT:    -4.870      1.320      2.374
REMARK INTER + INTRA:          -8.196
REMARK INTER:                  -6.978
REMARK INTRA:                  -1.218
REMARK UNBOUND:                -1.191
REMARK SMILES CC(C)=CCCC(C)=CCCC(C)=CCO
REMARK SMILES IDX 10 1 9 2 7 3 8 4 6 5 5 6 4 7 1 8 2 9 3 10 11 11 12 12 14 13
REMARK SMILES IDX 13 14 15 15 16 16
REMARK H PARENT 16 17
REMARK Flexibility Score: inf
ROOT
ATOM      1  C   UNL     1      10.051   2.434   6.255  1.00  0.00     0.032 C 
ENDROOT
BRANCH   1   2
ATOM      2  C   UNL     1      11.450   1.869   6.210  1.00  0.00    -0.028 C 
ATOM      3  C   UNL     1      12.459   2.452   5.525  1.00  0.00    -0.077 C 
ATOM      4  C   UNL     1      12.249   3.731   4.751  1.00  0.00     0.039 C 
BRANCH   3   5
ATOM      5  C   UNL     1      13.829   1.810   5.537  1.00  0.00     0.034 C 
BRANCH   5   6
ATOM      6  C   UNL     1      13.863   0.583   4.619  1.00  0.00     0.032 C 
BRANCH   6   7
ATOM      7  C   UNL     1      13.758   0.995   3.170  1.00  0.00    -0.028 C 
ATOM      8  C   UNL     1      11.474   0.006   2.890  1.00  0.00     0.039 C 
ATOM      9  C   UNL     1      12.676   0.769   2.391  1.00  0.00    -0.080 C 
ATOM     10  C   UNL     1      12.668   1.250   0.963  1.00  0.00     0.039 C 
ENDBRANCH   6   7
ENDBRANCH   5   6
ENDBRANCH   3   5
ENDBRANCH   1   2
BRANCH   1  11
ATOM     11  C   UNL     1       9.654   2.820   7.685  1.00  0.00     0.034 C 
BRANCH  11  12
ATOM     12  C   UNL     1       9.527   4.321   7.823  1.00  0.00    -0.075 C 
ATOM     13  C   UNL     1      10.631   5.091   7.699  1.00  0.00    -0.000 C 
ATOM     14  C   UNL     1       8.170   4.930   8.086  1.00  0.00     0.039 C 
BRANCH  13  15
ATOM     15  C   UNL     1      10.609   6.591   7.819  1.00  0.00     0.183 C 
BRANCH  15  16
ATOM     16  O   UNL     1      10.518   7.163   6.544  1.00  0.00    -0.392 OA
ATOM     17  H   UNL     1      10.174   8.084   6.680  1.00  0.00     0.210 HD
ENDBRANCH  15  16
ENDBRANCH  13  15
ENDBRANCH  11  12
ENDBRANCH   1  11
TORSDOF 8
ENDMDL
MODEL 5
REMARK VINA RESULT:    -4.837      1.624      2.715
REMARK INTER + INTRA:          -8.148
REMARK INTER:                  -7.542
REMARK INTRA:                  -0.606
REMARK UNBOUND:                -1.191
REMARK SMILES CC(C)=CCCC(C)=CCCC(C)=CCO
REMARK SMILES IDX 10 1 9 2 7 3 8 4 6 5 5 6 4 7 1 8 2 9 3 10 11 11 12 12 14 13
REMARK SMILES IDX 13 14 15 15 16 16
REMARK H PARENT 16 17
REMARK Flexibility Score: inf
ROOT
ATOM      1  C   UNL     1      10.457   2.610   5.920  1.00  0.00     0.032 C 
ENDROOT
BRANCH   1   2
ATOM      2  C   UNL     1      11.799   2.701   5.235  1.00  0.00    -0.028 C 
ATOM      3  C   UNL     1      12.229   1.791   4.332  1.00  0.00    -0.077 C 
ATOM      4  C   UNL     1      11.377   0.606   3.942  1.00  0.00     0.039 C 
BRANCH   3   5
ATOM      5  C   UNL     1      13.592   1.964   3.699  1.00  0.00     0.034 C 
BRANCH   5   6
ATOM      6  C   UNL     1      13.465   2.217   2.193  1.00  0.00     0.032 C 
BRANCH   6   7
ATOM      7  C   UNL     1      14.145   3.508   1.807  1.00  0.00    -0.028 C 
ATOM      8  C   UNL     1      16.368   2.413   1.442  1.00  0.00     0.039 C 
ATOM      9  C   UNL     1      15.442   3.604   1.436  1.00  0.00    -0.080 C 
ATOM     10  C   UNL     1      16.011   4.942   1.043  1.00  0.00     0.039 C 
ENDBRANCH   6   7
ENDBRANCH   5   6
ENDBRANCH   3   5
ENDBRANCH   1   2
BRANCH   1  11
ATOM     11  C   UNL     1      10.548   3.066   7.381  1.00  0.00     0.034 C 
BRANCH  11  12
ATOM     12  C   UNL     1      10.104   4.506   7.525  1.00  0.00    -0.075 C 
ATOM     13  C   UNL     1      11.026   5.491   7.461  1.00  0.00    -0.000 C 
ATOM     14  C   UNL     1       8.639   4.813   7.728  1.00  0.00     0.039 C 
BRANCH  13  15
ATOM     15  C   UNL     1      10.685   6.950   7.592  1.00  0.00     0.183 C 
BRANCH  15  16
ATOM     16  O   UNL     1      10.636   7.538   6.322  1.00  0.00    -0.392 OA
ATOM     17  H   UNL     1      11.529   7.942   6.171  1.00  0.00     0.210 HD
ENDBRANCH  15  16
ENDBRANCH  13  15
ENDBRANCH  11  12
ENDBRANCH   1  11
TORSDOF 8
ENDMDL
MODEL 6
REMARK VINA RESULT:    -4.818      1.528      2.555
REMARK INTER + INTRA:          -8.121
REMARK INTER:                  -7.094
REMARK INTRA:                  -1.027
REMARK UNBOUND:                -1.191
REMARK SMILES CC(C)=CCCC(C)=CCCC(C)=CCO
REMARK SMILES IDX 10 1 9 2 7 3 8 4 6 5 5 6 4 7 1 8 2 9 3 10 11 11 12 12 14 13
REMARK SMILES IDX 13 14 15 15 16 16
REMARK H PARENT 16 17
REMARK Flexibility Score: inf
ROOT
ATOM      1  C   UNL     1      10.063   2.438   6.256  1.00  0.00     0.032 C 
ENDROOT
BRANCH   1   2
ATOM      2  C   UNL     1      11.467   1.887   6.207  1.00  0.00    -0.028 C 
ATOM      3  C   UNL     1      12.469   2.480   5.520  1.00  0.00    -0.077 C 
ATOM      4  C   UNL     1      12.245   3.759   4.749  1.00  0.00     0.039 C 
BRANCH   3   5
ATOM      5  C   UNL     1      13.845   1.851   5.527  1.00  0.00     0.034 C 
BRANCH   5   6
ATOM      6  C   UNL     1      14.161   1.217   4.168  1.00  0.00     0.032 C 
BRANCH   6   7
ATOM      7  C   UNL     1      15.269   1.967   3.471  1.00  0.00    -0.028 C 
ATOM      8  C   UNL     1      13.756   2.863   1.687  1.00  0.00     0.039 C 
ATOM      9  C   UNL     1      15.094   2.737   2.373  1.00  0.00    -0.080 C 
ATOM     10  C   UNL     1      16.268   3.466   1.774  1.00  0.00     0.039 C 
ENDBRANCH   6   7
ENDBRANCH   5   6
ENDBRANCH   3   5
ENDBRANCH   1   2
BRANCH   1  11
ATOM     11  C   UNL     1       9.656   2.793   7.691  1.00  0.00     0.034 C 
BRANCH  11  12
ATOM     12  C   UNL     1       9.493   4.289   7.852  1.00  0.00    -0.075 C 
ATOM     13  C   UNL     1      10.577   5.087   7.739  1.00  0.00    -0.000 C 
ATOM     14  C   UNL     1       8.121   4.860   8.124  1.00  0.00     0.039 C 
BRANCH  13  15
ATOM     15  C   UNL     1      10.518   6.584   7.882  1.00  0.00     0.183 C 
BRANCH  15  16
ATOM     16  O   UNL     1      10.592   7.180   6.617  1.00  0.00    -0.392 OA
ATOM     17  H   UNL     1      10.357   8.134   6.749  1.00  0.00     0.210 HD
ENDBRANCH  15  16
ENDBRANCH  13  15
ENDBRANCH  11  12
ENDBRANCH   1  11
TORSDOF 8
ENDMDL
MODEL 7
REMARK VINA RESULT:    -4.612      1.621      2.449
REMARK INTER + INTRA:          -7.825
REMARK INTER:                  -6.545
REMARK INTRA:                  -1.280
REMARK UNBOUND:                -1.191
REMARK SMILES CC(C)=CCCC(C)=CCCC(C)=CCO
REMARK SMILES IDX 10 1 9 2 7 3 8 4 6 5 5 6 4 7 1 8 2 9 3 10 11 11 12 12 14 13
REMARK SMILES IDX 13 14 15 15 16 16
REMARK H PARENT 16 17
REMARK Flexibility Score: inf
ROOT
ATOM      1  C   UNL     1      12.001   0.940   6.982  1.00  0.00     0.032 C 
ENDROOT
BRANCH   1   2
ATOM      2  C   UNL     1      12.535   0.584   5.616  1.00  0.00    -0.028 C 
ATOM      3  C   UNL     1      11.745   0.169   4.600  1.00  0.00    -0.077 C 
ATOM      4  C   UNL     1      10.251   0.037   4.769  1.00  0.00     0.039 C 
BRANCH   3   5
ATOM      5  C   UNL     1      12.372  -0.169   3.266  1.00  0.00     0.034 C 
BRANCH   5   6
ATOM      6  C   UNL     1      11.972   0.858   2.200  1.00  0.00     0.032 C 
BRANCH   6   7
ATOM      7  C   UNL     1      13.175   1.639   1.730  1.00  0.00    -0.028 C 
ATOM      8  C   UNL     1      12.843   3.466   3.411  1.00  0.00     0.039 C 
ATOM      9  C   UNL     1      13.596   2.797   2.287  1.00  0.00    -0.080 C 
ATOM     10  C   UNL     1      14.828   3.480   1.755  1.00  0.00     0.039 C 
ENDBRANCH   6   7
ENDBRANCH   5   6
ENDBRANCH   3   5
ENDBRANCH   1   2
BRANCH   1  11
ATOM     11  C   UNL     1      11.952   2.459   7.180  1.00  0.00     0.034 C 
BRANCH  11  12
ATOM     12  C   UNL     1      10.541   2.920   7.474  1.00  0.00    -0.075 C 
ATOM     13  C   UNL     1      10.231   4.229   7.339  1.00  0.00    -0.000 C 
ATOM     14  C   UNL     1       9.504   1.908   7.902  1.00  0.00     0.039 C 
BRANCH  13  15
ATOM     15  C   UNL     1       8.859   4.783   7.606  1.00  0.00     0.183 C 
BRANCH  15  16
ATOM     16  O   UNL     1       8.092   4.725   6.436  1.00  0.00    -0.392 OA
ATOM     17  H   UNL     1       8.688   4.352   5.735  1.00  0.00     0.210 HD
ENDBRANCH  15  16
ENDBRANCH  13  15
ENDBRANCH  11  12
ENDBRANCH   1  11
TORSDOF 8
ENDMDL
MODEL 8
REMARK VINA RESULT:    -4.564      2.840      6.384
REMARK INTER + INTRA:          -7.757
REMARK INTER:                  -7.135
REMARK INTRA:                  -0.621
REMARK UNBOUND:                -1.191
REMARK SMILES CC(C)=CCCC(C)=CCCC(C)=CCO
REMARK SMILES IDX 10 1 9 2 7 3 8 4 6 5 5 6 4 7 1 8 2 9 3 10 11 11 12 12 14 13
REMARK SMILES IDX 13 14 15 15 16 16
REMARK H PARENT 16 17
REMARK Flexibility Score: inf
ROOT
ATOM      1  C   UNL     1      13.534   2.009   2.554  1.00  0.00     0.032 C 
ENDROOT
BRANCH   1   2
ATOM      2  C   UNL     1      12.644   2.173   3.762  1.00  0.00    -0.028 C 
ATOM      3  C   UNL     1      11.726   1.253   4.133  1.00  0.00    -0.077 C 
ATOM      4  C   UNL     1      11.532  -0.024   3.350  1.00  0.00     0.039 C 
BRANCH   3   5
ATOM      5  C   UNL     1      10.877   1.507   5.358  1.00  0.00     0.034 C 
BRANCH   5   6
ATOM      6  C   UNL     1      11.036   2.952   5.842  1.00  0.00     0.032 C 
BRANCH   6   7
ATOM      7  C   UNL     1       9.804   3.408   6.584  1.00  0.00    -0.028 C 
ATOM      8  C   UNL     1      10.925   5.444   7.518  1.00  0.00     0.039 C 
ATOM      9  C   UNL     1       9.731   4.544   7.315  1.00  0.00    -0.080 C 
ATOM     10  C   UNL     1       8.439   4.917   7.992  1.00  0.00     0.039 C 
ENDBRANCH   6   7
ENDBRANCH   5   6
ENDBRANCH   3   5
ENDBRANCH   1   2
BRANCH   1  11
ATOM     11  C   UNL     1      13.741   3.344   1.830  1.00  0.00     0.034 C 
BRANCH  11  12
ATOM     12  C   UNL     1      15.211   3.689   1.742  1.00  0.00    -0.075 C 
ATOM     13  C   UNL     1      16.108   2.935   2.416  1.00  0.00    -0.000 C 
ATOM     14  C   UNL     1      15.649   4.861   0.896  1.00  0.00     0.039 C 
BRANCH  13  15
ATOM     15  C   UNL     1      17.589   3.197   2.391  1.00  0.00     0.183 C 
BRANCH  15  16
ATOM     16  O   UNL     1      17.957   3.923   3.530  1.00  0.00    -0.392 OA
ATOM     17  H   UNL     1      17.830   4.880   3.299  1.00  0.00     0.210 HD
ENDBRANCH  15  16
ENDBRANCH  13  15
ENDBRANCH  11  12
ENDBRANCH   1  11
TORSDOF 8
ENDMDL
MODEL 9
REMARK VINA RESULT:    -4.497      2.121      4.057
REMARK INTER + INTRA:          -7.660
REMARK INTER:                  -6.392
REMARK INTRA:                  -1.267
REMARK UNBOUND:                -1.191
REMARK SMILES CC(C)=CCCC(C)=CCCC(C)=CCO
REMARK SMILES IDX 10 1 9 2 7 3 8 4 6 5 5 6 4 7 1 8 2 9 3 10 11 11 12 12 14 13
REMARK SMILES IDX 13 14 15 15 16 16
REMARK H PARENT 16 17
REMARK Flexibility Score: inf
ROOT
ATOM      1  C   UNL     1      11.536   0.114   4.556  1.00  0.00     0.032 C 
ENDROOT
BRANCH   1   2
ATOM      2  C   UNL     1      11.888   1.118   3.484  1.00  0.00    -0.028 C 
ATOM      3  C   UNL     1      12.726   2.157   3.694  1.00  0.00    -0.077 C 
ATOM      4  C   UNL     1      13.379   2.382   5.037  1.00  0.00     0.039 C 
BRANCH   3   5
ATOM      5  C   UNL     1      13.017   3.114   2.559  1.00  0.00     0.034 C 
BRANCH   5   6
ATOM      6  C   UNL     1      14.097   2.546   1.631  1.00  0.00     0.032 C 
BRANCH   6   7
ATOM      7  C   UNL     1      15.370   3.350   1.736  1.00  0.00    -0.028 C 
ATOM      8  C   UNL     1      16.503   1.660   3.197  1.00  0.00     0.039 C 
ATOM      9  C   UNL     1      16.471   2.947   2.411  1.00  0.00    -0.080 C 
ATOM     10  C   UNL     1      17.700   3.818   2.427  1.00  0.00     0.039 C 
ENDBRANCH   6   7
ENDBRANCH   5   6
ENDBRANCH   3   5
ENDBRANCH   1   2
BRANCH   1  11
ATOM     11  C   UNL     1      10.091   0.297   5.035  1.00  0.00     0.034 C 
BRANCH  11  12
ATOM     12  C   UNL     1      10.020   1.307   6.160  1.00  0.00    -0.075 C 
ATOM     13  C   UNL     1       9.520   2.538   5.911  1.00  0.00    -0.000 C 
ATOM     14  C   UNL     1      10.499   0.918   7.538  1.00  0.00     0.039 C 
BRANCH  13  15
ATOM     15  C   UNL     1       9.407   3.610   6.961  1.00  0.00     0.183 C 
BRANCH  15  16
ATOM     16  O   UNL     1       8.450   4.553   6.568  1.00  0.00    -0.392 OA
ATOM     17  H   UNL     1       7.761   4.052   6.060  1.00  0.00     0.210 HD
ENDBRANCH  15  16
ENDBRANCH  13  15
ENDBRANCH  11  12
ENDBRANCH   1  11
TORSDOF 8
ENDMDL
