MODEL 1
REMARK VINA RESULT:    -3.086      0.000      0.000
REMARK INTER + INTRA:          -3.814
REMARK INTER:                  -3.718
REMARK INTRA:                  -0.097
REMARK UNBOUND:                -0.097
REMARK SMILES CC[C@@H](C)[C@@H]([NH3+])C(=O)[O-]
REMARK SMILES IDX 3 1 4 2 5 3 6 4 7 8 8 9 9 10 2 11 1 12
REMARK H PARENT 6 5 6 6 6 7
REMARK Flexibility Score: inf
ROOT
ATOM      1  C   UNL     1       1.501 -39.920  -5.536  1.00  0.00     0.050 C 
ATOM      2  C   UNL     1       0.566 -39.930  -6.762  1.00  0.00     0.014 C 
ENDROOT
BRANCH   1   3
ATOM      3  C   UNL     1       2.997 -39.694  -5.917  1.00  0.00     0.230 C 
BRANCH   3   4
ATOM      4  N   UNL     1       3.789 -39.214  -4.775  1.00  0.00    -0.350 N 
ATOM      5  H   UNL     1       3.584 -38.201  -4.611  1.00  0.00     0.345 HD
ATOM      6  H   UNL     1       3.529 -39.741  -3.910  1.00  0.00     0.345 HD
ATOM      7  H   UNL     1       4.815 -39.317  -4.945  1.00  0.00     0.345 HD
ENDBRANCH   3   4
BRANCH   3   8
ATOM      8  C   UNL     1       3.632 -40.921  -6.527  1.00  0.00     0.099 C 
ATOM      9  O   UNL     1       3.359 -42.064  -6.073  1.00  0.00    -0.544 OA
ATOM     10  O   UNL     1       4.545 -40.802  -7.568  1.00  0.00    -0.544 OA
ENDBRANCH   3   8
ENDBRANCH   1   3
BRANCH   1  11
ATOM     11  C   UNL     1       1.040 -38.873  -4.490  1.00  0.00     0.006 C 
ATOM     12  C   UNL     1       0.091 -37.822  -5.071  1.00  0.00     0.004 C 
ENDBRANCH   1  11
TORSDOF 4
ENDMDL
MODEL 2
REMARK VINA RESULT:    -2.967      1.670      2.306
REMARK INTER + INTRA:          -3.671
REMARK INTER:                  -3.580
REMARK INTRA:                  -0.090
REMARK UNBOUND:                -0.097
REMARK SMILES CC[C@@H](C)[C@@H]([NH3+])C(=O)[O-]
REMARK SMILES IDX 3 1 4 2 5 3 6 4 7 8 8 9 9 10 2 11 1 12
REMARK H PARENT 6 5 6 6 6 7
REMARK Flexibility Score: inf
ROOT
ATOM      1  C   UNL     1       1.470 -38.896  -5.185  1.00  0.00     0.050 C 
ATOM      2  C   UNL     1       1.204 -39.015  -3.671  1.00  0.00     0.014 C 
ENDROOT
BRANCH   1   3
ATOM      3  C   UNL     1       1.406 -40.270  -5.922  1.00  0.00     0.230 C 
BRANCH   3   4
ATOM      4  N   UNL     1       0.396 -40.275  -6.990  1.00  0.00    -0.350 N 
ATOM      5  H   UNL     1      -0.416 -40.867  -6.698  1.00  0.00     0.345 HD
ATOM      6  H   UNL     1       0.046 -39.305  -7.159  1.00  0.00     0.345 HD
ATOM      7  H   UNL     1       0.779 -40.662  -7.883  1.00  0.00     0.345 HD
ENDBRANCH   3   4
BRANCH   3   8
ATOM      8  C   UNL     1       2.750 -40.704  -6.456  1.00  0.00     0.099 C 
ATOM      9  O   UNL     1       3.357 -39.985  -7.295  1.00  0.00    -0.544 OA
ATOM     10  O   UNL     1       3.315 -41.910  -6.059  1.00  0.00    -0.544 OA
ENDBRANCH   3   8
ENDBRANCH   1   3
BRANCH   1  11
ATOM     11  C   UNL     1       0.503 -37.878  -5.843  1.00  0.00     0.006 C 
ATOM     12  C   UNL     1      -0.541 -37.326  -4.870  1.00  0.00     0.004 C 
ENDBRANCH   1  11
TORSDOF 4
ENDMDL
MODEL 3
REMARK VINA RESULT:    -2.813      2.247      2.748
REMARK INTER + INTRA:          -3.485
REMARK INTER:                  -3.449
REMARK INTRA:                  -0.036
REMARK UNBOUND:                -0.097
REMARK SMILES CC[C@@H](C)[C@@H]([NH3+])C(=O)[O-]
REMARK SMILES IDX 3 1 4 2 5 3 6 4 7 8 8 9 9 10 2 11 1 12
REMARK H PARENT 6 5 6 6 6 7
REMARK Flexibility Score: inf
ROOT
ATOM      1  C   UNL     1       1.327 -39.075  -4.701  1.00  0.00     0.050 C 
ATOM      2  C   UNL     1       0.193 -38.166  -5.215  1.00  0.00     0.014 C 
ENDROOT
BRANCH   1   3
ATOM      3  C   UNL     1       2.060 -39.838  -5.849  1.00  0.00     0.230 C 
BRANCH   3   4
ATOM      4  N   UNL     1       1.771 -41.279  -5.824  1.00  0.00    -0.350 N 
ATOM      5  H   UNL     1       0.746 -41.426  -5.671  1.00  0.00     0.345 HD
ATOM      6  H   UNL     1       2.026 -41.713  -6.741  1.00  0.00     0.345 HD
ATOM      7  H   UNL     1       2.289 -41.765  -5.058  1.00  0.00     0.345 HD
ENDBRANCH   3   4
BRANCH   3   8
ATOM      8  C   UNL     1       1.764 -39.258  -7.211  1.00  0.00     0.099 C 
ATOM      9  O   UNL     1       0.934 -39.825  -7.971  1.00  0.00    -0.544 OA
ATOM     10  O   UNL     1       2.425 -38.119  -7.655  1.00  0.00    -0.544 OA
ENDBRANCH   3   8
ENDBRANCH   1   3
BRANCH   1  11
ATOM     11  C   UNL     1       2.341 -38.273  -3.846  1.00  0.00     0.006 C 
ATOM     12  C   UNL     1       3.798 -38.601  -4.178  1.00  0.00     0.004 C 
ENDBRANCH   1  11
TORSDOF 4
ENDMDL
MODEL 4
REMARK VINA RESULT:    -2.780      3.939      4.423
REMARK INTER + INTRA:          -3.445
REMARK INTER:                  -3.352
REMARK INTRA:                  -0.093
REMARK UNBOUND:                -0.097
REMARK SMILES CC[C@@H](C)[C@@H]([NH3+])C(=O)[O-]
REMARK SMILES IDX 3 1 4 2 5 3 6 4 7 8 8 9 9 10 2 11 1 12
REMARK H PARENT 6 5 6 6 6 7
REMARK Flexibility Score: inf
ROOT
ATOM      1  C   UNL     1       2.853 -38.476  -4.179  1.00  0.00     0.050 C 
ATOM      2  C   UNL     1       3.522 -39.069  -5.435  1.00  0.00     0.014 C 
ENDROOT
BRANCH   1   3
ATOM      3  C   UNL     1       3.143 -36.953  -4.000  1.00  0.00     0.230 C 
BRANCH   3   4
ATOM      4  N   UNL     1       1.913 -36.149  -4.045  1.00  0.00    -0.350 N 
ATOM      5  H   UNL     1       1.336 -36.348  -3.194  1.00  0.00     0.345 HD
ATOM      6  H   UNL     1       2.150 -35.130  -4.044  1.00  0.00     0.345 HD
ATOM      7  H   UNL     1       1.339 -36.367  -4.890  1.00  0.00     0.345 HD
ENDBRANCH   3   4
BRANCH   3   8
ATOM      8  C   UNL     1       3.929 -36.656  -2.745  1.00  0.00     0.099 C 
ATOM      9  O   UNL     1       5.034 -37.226  -2.543  1.00  0.00    -0.544 OA
ATOM     10  O   UNL     1       3.429 -35.781  -1.787  1.00  0.00    -0.544 OA
ENDBRANCH   3   8
ENDBRANCH   1   3
BRANCH   1  11
ATOM     11  C   UNL     1       1.326 -38.744  -4.179  1.00  0.00     0.006 C 
ATOM     12  C   UNL     1       0.825 -39.356  -5.489  1.00  0.00     0.004 C 
ENDBRANCH   1  11
TORSDOF 4
ENDMDL
MODEL 5
REMARK VINA RESULT:    -2.764      2.024      2.408
REMARK INTER + INTRA:          -3.427
REMARK INTER:                  -3.472
REMARK INTRA:                   0.046
REMARK UNBOUND:                -0.097
REMARK SMILES CC[C@@H](C)[C@@H]([NH3+])C(=O)[O-]
REMARK SMILES IDX 3 1 4 2 5 3 6 4 7 8 8 9 9 10 2 11 1 12
REMARK H PARENT 6 5 6 6 6 7
REMARK Flexibility Score: inf
ROOT
ATOM      1  C   UNL     1       1.100 -39.082  -4.878  1.00  0.00     0.050 C 
ATOM      2  C   UNL     1       1.527 -40.363  -5.623  1.00  0.00     0.014 C 
ENDROOT
BRANCH   1   3
ATOM      3  C   UNL     1       2.314 -38.212  -4.426  1.00  0.00     0.230 C 
BRANCH   3   4
ATOM      4  N   UNL     1       2.495 -38.233  -2.967  1.00  0.00    -0.350 N 
ATOM      5  H   UNL     1       1.687 -37.750  -2.510  1.00  0.00     0.345 HD
ATOM      6  H   UNL     1       2.518 -39.220  -2.622  1.00  0.00     0.345 HD
ATOM      7  H   UNL     1       3.374 -37.748  -2.679  1.00  0.00     0.345 HD
ENDBRANCH   3   4
BRANCH   3   8
ATOM      8  C   UNL     1       3.595 -38.594  -5.127  1.00  0.00     0.099 C 
ATOM      9  O   UNL     1       3.813 -38.198  -6.303  1.00  0.00    -0.544 OA
ATOM     10  O   UNL     1       4.529 -39.412  -4.501  1.00  0.00    -0.544 OA
ENDBRANCH   3   8
ENDBRANCH   1   3
BRANCH   1  11
ATOM     11  C   UNL     1       0.114 -38.243  -5.730  1.00  0.00     0.006 C 
ATOM     12  C   UNL     1      -0.703 -37.251  -4.899  1.00  0.00     0.004 C 
ENDBRANCH   1  11
TORSDOF 4
ENDMDL
MODEL 6
REMARK VINA RESULT:    -2.731      2.946      3.517
REMARK INTER + INTRA:          -3.386
REMARK INTER:                  -3.297
REMARK INTRA:                  -0.089
REMARK UNBOUND:                -0.097
REMARK SMILES CC[C@@H](C)[C@@H]([NH3+])C(=O)[O-]
REMARK SMILES IDX 3 1 4 2 5 3 6 4 7 8 8 9 9 10 2 11 1 12
REMARK H PARENT 6 5 6 6 6 7
REMARK Flexibility Score: inf
ROOT
ATOM      1  C   UNL     1       2.606 -39.332  -5.539  1.00  0.00     0.050 C 
ATOM      2  C   UNL     1       3.028 -38.697  -6.879  1.00  0.00     0.014 C 
ENDROOT
BRANCH   1   3
ATOM      3  C   UNL     1       2.300 -38.272  -4.435  1.00  0.00     0.230 C 
BRANCH   3   4
ATOM      4  N   UNL     1       1.192 -38.688  -3.563  1.00  0.00    -0.350 N 
ATOM      5  H   UNL     1       1.461 -39.561  -3.052  1.00  0.00     0.345 HD
ATOM      6  H   UNL     1       0.994 -37.946  -2.854  1.00  0.00     0.345 HD
ATOM      7  H   UNL     1       0.322 -38.883  -4.109  1.00  0.00     0.345 HD
ENDBRANCH   3   4
BRANCH   3   8
ATOM      8  C   UNL     1       3.519 -37.919  -3.617  1.00  0.00     0.099 C 
ATOM      9  O   UNL     1       4.585 -38.575  -3.759  1.00  0.00    -0.544 OA
ATOM     10  O   UNL     1       3.470 -36.895  -2.678  1.00  0.00    -0.544 OA
ENDBRANCH   3   8
ENDBRANCH   1   3
BRANCH   1  11
ATOM     11  C   UNL     1       1.398 -40.286  -5.728  1.00  0.00     0.006 C 
ATOM     12  C   UNL     1       0.571 -39.965  -6.975  1.00  0.00     0.004 C 
ENDBRANCH   1  11
TORSDOF 4
ENDMDL
MODEL 7
REMARK VINA RESULT:    -2.703      2.115      2.540
REMARK INTER + INTRA:          -3.352
REMARK INTER:                  -3.209
REMARK INTRA:                  -0.144
REMARK UNBOUND:                -0.097
REMARK SMILES CC[C@@H](C)[C@@H]([NH3+])C(=O)[O-]
REMARK SMILES IDX 3 1 4 2 5 3 6 4 7 8 8 9 9 10 2 11 1 12
REMARK H PARENT 6 5 6 6 6 7
REMARK Flexibility Score: inf
ROOT
ATOM      1  C   UNL     1       2.429 -38.649  -5.168  1.00  0.00     0.050 C 
ATOM      2  C   UNL     1       3.597 -38.642  -4.161  1.00  0.00     0.014 C 
ENDROOT
BRANCH   1   3
ATOM      3  C   UNL     1       2.563 -39.772  -6.243  1.00  0.00     0.230 C 
BRANCH   3   4
ATOM      4  N   UNL     1       1.765 -40.960  -5.902  1.00  0.00    -0.350 N 
ATOM      5  H   UNL     1       0.949 -40.673  -5.312  1.00  0.00     0.345 HD
ATOM      6  H   UNL     1       1.394 -41.406  -6.772  1.00  0.00     0.345 HD
ATOM      7  H   UNL     1       2.325 -41.662  -5.368  1.00  0.00     0.345 HD
ENDBRANCH   3   4
BRANCH   3   8
ATOM      8  C   UNL     1       2.228 -39.287  -7.633  1.00  0.00     0.099 C 
ATOM      9  O   UNL     1       1.166 -39.666  -8.195  1.00  0.00    -0.544 OA
ATOM     10  O   UNL     1       3.099 -38.449  -8.320  1.00  0.00    -0.544 OA
ENDBRANCH   3   8
ENDBRANCH   1   3
BRANCH   1  11
ATOM     11  C   UNL     1       1.064 -38.751  -4.440  1.00  0.00     0.006 C 
ATOM     12  C   UNL     1       0.008 -37.803  -5.010  1.00  0.00     0.004 C 
ENDBRANCH   1  11
TORSDOF 4
ENDMDL
MODEL 8
REMARK VINA RESULT:    -2.700      1.499      2.045
REMARK INTER + INTRA:          -3.349
REMARK INTER:                  -3.349
REMARK INTRA:                   0.000
REMARK UNBOUND:                -0.097
REMARK SMILES CC[C@@H](C)[C@@H]([NH3+])C(=O)[O-]
REMARK SMILES IDX 3 1 4 2 5 3 6 4 7 8 8 9 9 10 2 11 1 12
REMARK H PARENT 6 5 6 6 6 7
REMARK Flexibility Score: inf
ROOT
ATOM      1  C   UNL     1       2.732 -38.258  -4.819  1.00  0.00     0.050 C 
ATOM      2  C   UNL     1       3.336 -37.671  -3.527  1.00  0.00     0.014 C 
ENDROOT
BRANCH   1   3
ATOM      3  C   UNL     1       3.704 -39.234  -5.553  1.00  0.00     0.230 C 
BRANCH   3   4
ATOM      4  N   UNL     1       4.628 -39.896  -4.621  1.00  0.00    -0.350 N 
ATOM      5  H   UNL     1       4.110 -40.170  -3.753  1.00  0.00     0.345 HD
ATOM      6  H   UNL     1       5.014 -40.766  -5.054  1.00  0.00     0.345 HD
ATOM      7  H   UNL     1       5.418 -39.269  -4.348  1.00  0.00     0.345 HD
ENDBRANCH   3   4
BRANCH   3   8
ATOM      8  C   UNL     1       2.974 -40.253  -6.394  1.00  0.00     0.099 C 
ATOM      9  O   UNL     1       3.005 -41.472  -6.076  1.00  0.00    -0.544 OA
ATOM     10  O   UNL     1       2.294 -39.868  -7.544  1.00  0.00    -0.544 OA
ENDBRANCH   3   8
ENDBRANCH   1   3
BRANCH   1  11
ATOM     11  C   UNL     1       1.374 -38.949  -4.537  1.00  0.00     0.006 C 
ATOM     12  C   UNL     1       0.178 -38.166  -5.081  1.00  0.00     0.004 C 
ENDBRANCH   1  11
TORSDOF 4
ENDMDL
MODEL 9
REMARK VINA RESULT:    -2.649      3.312      4.210
REMARK INTER + INTRA:          -3.288
REMARK INTER:                  -3.176
REMARK INTRA:                  -0.112
REMARK UNBOUND:                -0.097
REMARK SMILES CC[C@@H](C)[C@@H]([NH3+])C(=O)[O-]
REMARK SMILES IDX 3 1 4 2 5 3 6 4 7 8 8 9 9 10 2 11 1 12
REMARK H PARENT 6 5 6 6 6 7
REMARK Flexibility Score: inf
ROOT
ATOM      1  C   UNL     1       1.064 -38.853  -4.544  1.00  0.00     0.050 C 
ATOM      2  C   UNL     1       2.277 -38.437  -3.687  1.00  0.00     0.014 C 
ENDROOT
BRANCH   1   3
ATOM      3  C   UNL     1       0.396 -37.647  -5.274  1.00  0.00     0.230 C 
BRANCH   3   4
ATOM      4  N   UNL     1      -0.732 -37.096  -4.509  1.00  0.00    -0.350 N 
ATOM      5  H   UNL     1      -0.551 -36.086  -4.300  1.00  0.00     0.345 HD
ATOM      6  H   UNL     1      -1.612 -37.157  -5.071  1.00  0.00     0.345 HD
ATOM      7  H   UNL     1      -0.868 -37.599  -3.603  1.00  0.00     0.345 HD
ENDBRANCH   3   4
BRANCH   3   8
ATOM      8  C   UNL     1       1.384 -36.560  -5.623  1.00  0.00     0.099 C 
ATOM      9  O   UNL     1       1.381 -35.476  -4.982  1.00  0.00    -0.544 OA
ATOM     10  O   UNL     1       2.281 -36.728  -6.672  1.00  0.00    -0.544 OA
ENDBRANCH   3   8
ENDBRANCH   1   3
BRANCH   1  11
ATOM     11  C   UNL     1       1.451 -39.959  -5.559  1.00  0.00     0.006 C 
ATOM     12  C   UNL     1       0.576 -39.953  -6.815  1.00  0.00     0.004 C 
ENDBRANCH   1  11
TORSDOF 4
ENDMDL
