MODEL 1
REMARK VINA RESULT:    -5.395      0.000      0.000
REMARK INTER + INTRA:         -11.889
REMARK INTER:                  -8.864
REMARK INTRA:                  -3.025
REMARK UNBOUND:                -3.025
REMARK SMILES C[C@H]1O[C@H](OC[C@H]2O[C@H](Oc3c(-c4ccc(O)c(O)c4)oc4cc(O)cc(O)c4c3=O)[C@H](O)[C@H](O)[C@H]2O)[C@@H](O)[C@H](O)[C@@H]1O
REMARK SMILES IDX 7 1 36 2 34 3 32 4 9 5 8 6 6 7 5 8 4 9 1 10 2 11 42 12 3 13
REMARK SMILES IDX 40 14 38 15 43 16 41 18 39 20 37 22 35 24 10 26 11 27 12 28
REMARK SMILES IDX 30 29 21 30 29 31 31 32 22 33 27 34 23 35 26 36 24 37 13 38
REMARK SMILES IDX 20 39 14 40 18 41 15 42 16 43 19 44 17 46 28 48 25 50 33 52
REMARK H PARENT 43 17 41 19 39 21 37 23 35 25 19 45 17 47 28 49 25 51 33 53
REMARK Flexibility Score: inf
ROOT
ATOM      1  C   UNL     1     137.459 131.838 119.283  1.00  0.00     0.180 C 
ATOM      2  C   UNL     1     138.558 132.898 119.023  1.00  0.00     0.177 C 
ATOM      3  C   UNL     1     139.703 132.711 120.031  1.00  0.00     0.180 C 
ATOM      4  C   UNL     1     140.168 131.239 120.035  1.00  0.00     0.214 C 
ATOM      5  C   UNL     1     138.973 130.262 120.149  1.00  0.00     0.339 C 
ATOM      6  O   UNL     1     138.000 130.531 119.149  1.00  0.00    -0.332 OA
ENDROOT
BRANCH   1   7
ATOM      7  C   UNL     1     136.273 131.965 118.303  1.00  0.00     0.198 C 
BRANCH   7   8
ATOM      8  O   UNL     1     136.467 131.215 117.118  1.00  0.00    -0.347 OA
BRANCH   8   9
ATOM      9  C   UNL     1     135.673 131.688 116.034  1.00  0.00     0.281 C 
ATOM     10  C   UNL     1     137.298 129.782 113.338  1.00  0.00     0.041 C 
ATOM     11  C   UNL     1     136.451 129.996 114.594  1.00  0.00     0.150 C 
ATOM     12  C   UNL     1     135.065 129.328 114.464  1.00  0.00     0.174 C 
ATOM     13  O   UNL     1     136.305 131.393 114.798  1.00  0.00    -0.344 OA
ATOM     14  C   UNL     1     134.254 129.572 115.748  1.00  0.00     0.179 C 
ATOM     15  C   UNL     1     134.252 131.074 116.114  1.00  0.00     0.202 C 
BRANCH  12  16
ATOM     16  O   UNL     1     135.187 127.946 114.253  1.00  0.00    -0.388 OA
ATOM     17  H   UNL     1     135.357 127.807 113.284  1.00  0.00     0.211 HD
ENDBRANCH  12  16
BRANCH  14  18
ATOM     18  O   UNL     1     134.806 128.818 116.801  1.00  0.00    -0.387 OA
ATOM     19  H   UNL     1     135.786 128.779 116.636  1.00  0.00     0.211 HD
ENDBRANCH  14  18
BRANCH  15  20
ATOM     20  O   UNL     1     133.343 131.782 115.307  1.00  0.00    -0.385 OA
ATOM     21  H   UNL     1     132.479 131.839 115.791  1.00  0.00     0.211 HD
ENDBRANCH  15  20
ENDBRANCH   8   9
ENDBRANCH   7   8
ENDBRANCH   1   7
BRANCH   2  22
ATOM     22  O   UNL     1     139.072 132.778 117.719  1.00  0.00    -0.387 OA
ATOM     23  H   UNL     1     139.886 132.211 117.780  1.00  0.00     0.211 HD
ENDBRANCH   2  22
BRANCH   3  24
ATOM     24  O   UNL     1     139.274 133.103 121.309  1.00  0.00    -0.387 OA
ATOM     25  H   UNL     1     138.504 133.719 121.179  1.00  0.00     0.211 HD
ENDBRANCH   3  24
BRANCH   5  26
ATOM     26  O   UNL     1     138.349 130.274 121.445  1.00  0.00    -0.454 OA
BRANCH  26  27
ATOM     27  C   UNL     1     138.481 129.331 122.485  1.00  0.00     0.214 A 
ATOM     28  C   UNL     1     137.930 128.027 122.461  1.00  0.00     0.180 A 
ATOM     29  C   UNL     1     139.190 129.729 123.626  1.00  0.00     0.239 A 
ATOM     30  O   UNL     1     138.158 127.195 123.469  1.00  0.00    -0.452 OA
ATOM     31  C   UNL     1     139.356 128.839 124.715  1.00  0.00     0.111 A 
ATOM     32  O   UNL     1     139.706 130.875 123.630  1.00  0.00    -0.285 OA
ATOM     33  C   UNL     1     138.835 127.530 124.559  1.00  0.00     0.146 A 
ATOM     34  C   UNL     1     140.032 129.160 125.932  1.00  0.00     0.134 A 
ATOM     35  C   UNL     1     139.015 126.568 125.557  1.00  0.00     0.094 A 
ATOM     36  C   UNL     1     140.226 128.165 126.899  1.00  0.00     0.093 A 
ATOM     37  C   UNL     1     139.716 126.880 126.721  1.00  0.00     0.123 A 
BRANCH  28  38
ATOM     38  C   UNL     1     137.080 127.529 121.370  1.00  0.00     0.025 A 
ATOM     39  C   UNL     1     135.880 128.178 121.043  1.00  0.00     0.062 A 
ATOM     40  C   UNL     1     137.450 126.366 120.686  1.00  0.00     0.016 A 
ATOM     41  C   UNL     1     135.071 127.696 120.004  1.00  0.00     0.158 A 
ATOM     42  C   UNL     1     136.656 125.884 119.644  1.00  0.00     0.051 A 
ATOM     43  C   UNL     1     135.468 126.536 119.292  1.00  0.00     0.157 A 
BRANCH  41  44
ATOM     44  O   UNL     1     133.896 128.393 119.718  1.00  0.00    -0.504 OA
ATOM     45  H   UNL     1     133.124 127.999 119.199  1.00  0.00     0.293 HD
ENDBRANCH  41  44
BRANCH  43  46
ATOM     46  O   UNL     1     134.718 125.997 118.244  1.00  0.00    -0.504 OA
ATOM     47  H   UNL     1     133.853 125.489 118.372  1.00  0.00     0.293 HD
ENDBRANCH  43  46
ENDBRANCH  28  38
BRANCH  34  48
ATOM     48  O   UNL     1     140.506 130.435 126.253  1.00  0.00    -0.507 OA
ATOM     49  H   UNL     1     140.568 131.210 125.611  1.00  0.00     0.293 HD
ENDBRANCH  34  48
BRANCH  37  50
ATOM     50  O   UNL     1     139.902 125.924 127.717  1.00  0.00    -0.508 OA
ATOM     51  H   UNL     1     140.814 125.530 127.912  1.00  0.00     0.293 HD
ENDBRANCH  37  50
ENDBRANCH  26  27
ENDBRANCH   5  26
BRANCH   4  52
ATOM     52  O   UNL     1     141.093 131.011 121.067  1.00  0.00    -0.384 OA
ATOM     53  H   UNL     1     141.550 130.154 120.859  1.00  0.00     0.211 HD
ENDBRANCH   4  52
TORSDOF 16
ENDMDL
MODEL 2
REMARK VINA RESULT:    -5.322      2.225      8.766
REMARK INTER + INTRA:         -11.769
REMARK INTER:                  -8.085
REMARK INTRA:                  -3.684
REMARK UNBOUND:                -3.025
REMARK SMILES C[C@H]1O[C@H](OC[C@H]2O[C@H](Oc3c(-c4ccc(O)c(O)c4)oc4cc(O)cc(O)c4c3=O)[C@H](O)[C@H](O)[C@H]2O)[C@@H](O)[C@H](O)[C@@H]1O
REMARK SMILES IDX 7 1 36 2 34 3 32 4 9 5 8 6 6 7 5 8 4 9 1 10 2 11 42 12 3 13
REMARK SMILES IDX 40 14 38 15 43 16 41 18 39 20 37 22 35 24 10 26 11 27 12 28
REMARK SMILES IDX 30 29 21 30 29 31 31 32 22 33 27 34 23 35 26 36 24 37 13 38
REMARK SMILES IDX 20 39 14 40 18 41 15 42 16 43 19 44 17 46 28 48 25 50 33 52
REMARK H PARENT 43 17 41 19 39 21 37 23 35 25 19 45 17 47 28 49 25 51 33 53
REMARK Flexibility Score: inf
ROOT
ATOM      1  C   UNL     1     137.067 129.177 123.105  1.00  0.00     0.180 C 
ATOM      2  C   UNL     1     137.404 127.755 123.619  1.00  0.00     0.177 C 
ATOM      3  C   UNL     1     137.068 126.721 122.533  1.00  0.00     0.180 C 
ATOM      4  C   UNL     1     137.718 127.131 121.194  1.00  0.00     0.214 C 
ATOM      5  C   UNL     1     137.440 128.615 120.853  1.00  0.00     0.339 C 
ATOM      6  O   UNL     1     137.813 129.462 121.930  1.00  0.00    -0.332 OA
ENDROOT
BRANCH   1   7
ATOM      7  C   UNL     1     137.381 130.271 124.147  1.00  0.00     0.198 C 
BRANCH   7   8
ATOM      8  O   UNL     1     138.753 130.618 124.171  1.00  0.00    -0.347 OA
BRANCH   8   9
ATOM      9  C   UNL     1     138.962 132.019 124.319  1.00  0.00     0.281 C 
ATOM     10  C   UNL     1     142.509 131.909 125.292  1.00  0.00     0.041 C 
ATOM     11  C   UNL     1     141.302 131.769 124.363  1.00  0.00     0.150 C 
ATOM     12  C   UNL     1     141.511 132.537 123.040  1.00  0.00     0.174 C 
ATOM     13  O   UNL     1     140.159 132.263 125.042  1.00  0.00    -0.344 OA
ATOM     14  C   UNL     1     140.273 132.365 122.144  1.00  0.00     0.179 C 
ATOM     15  C   UNL     1     138.983 132.699 122.927  1.00  0.00     0.202 C 
BRANCH  12  16
ATOM     16  O   UNL     1     142.643 132.068 122.356  1.00  0.00    -0.388 OA
ATOM     17  H   UNL     1     143.380 131.993 123.019  1.00  0.00     0.211 HD
ENDBRANCH  12  16
BRANCH  14  18
ATOM     18  O   UNL     1     140.221 131.041 121.667  1.00  0.00    -0.387 OA
ATOM     19  H   UNL     1     140.059 130.463 122.460  1.00  0.00     0.211 HD
ENDBRANCH  14  18
BRANCH  15  20
ATOM     20  O   UNL     1     138.813 134.091 123.034  1.00  0.00    -0.385 OA
ATOM     21  H   UNL     1     137.979 134.339 122.559  1.00  0.00     0.211 HD
ENDBRANCH  15  20
ENDBRANCH   8   9
ENDBRANCH   7   8
ENDBRANCH   1   7
BRANCH   2  22
ATOM     22  O   UNL     1     138.770 127.652 123.943  1.00  0.00    -0.387 OA
ATOM     23  H   UNL     1     138.848 127.815 124.921  1.00  0.00     0.211 HD
ENDBRANCH   2  22
BRANCH   3  24
ATOM     24  O   UNL     1     135.675 126.614 122.401  1.00  0.00    -0.387 OA
ATOM     25  H   UNL     1     135.494 125.759 121.927  1.00  0.00     0.211 HD
ENDBRANCH   3  24
BRANCH   5  26
ATOM     26  O   UNL     1     136.070 128.868 120.492  1.00  0.00    -0.454 OA
BRANCH  26  27
ATOM     27  C   UNL     1     135.520 129.010 119.202  1.00  0.00     0.214 A 
ATOM     28  C   UNL     1     135.680 130.154 118.383  1.00  0.00     0.180 A 
ATOM     29  C   UNL     1     134.747 127.949 118.713  1.00  0.00     0.239 A 
ATOM     30  O   UNL     1     135.168 130.167 117.159  1.00  0.00    -0.452 OA
ATOM     31  C   UNL     1     134.156 128.023 117.428  1.00  0.00     0.111 A 
ATOM     32  O   UNL     1     134.636 126.922 119.429  1.00  0.00    -0.285 OA
ATOM     33  C   UNL     1     134.442 129.178 116.656  1.00  0.00     0.146 A 
ATOM     34  C   UNL     1     133.326 127.012 116.855  1.00  0.00     0.134 A 
ATOM     35  C   UNL     1     133.955 129.300 115.352  1.00  0.00     0.094 A 
ATOM     36  C   UNL     1     132.881 127.149 115.534  1.00  0.00     0.093 A 
ATOM     37  C   UNL     1     133.184 128.286 114.787  1.00  0.00     0.123 A 
BRANCH  28  38
ATOM     38  C   UNL     1     136.379 131.371 118.821  1.00  0.00     0.025 A 
ATOM     39  C   UNL     1     137.736 131.564 118.523  1.00  0.00     0.062 A 
ATOM     40  C   UNL     1     135.694 132.320 119.586  1.00  0.00     0.016 A 
ATOM     41  C   UNL     1     138.399 132.724 118.946  1.00  0.00     0.158 A 
ATOM     42  C   UNL     1     136.343 133.483 120.005  1.00  0.00     0.051 A 
ATOM     43  C   UNL     1     137.691 133.699 119.693  1.00  0.00     0.157 A 
BRANCH  41  44
ATOM     44  O   UNL     1     139.746 132.865 118.606  1.00  0.00    -0.504 OA
ATOM     45  H   UNL     1     140.479 133.028 119.282  1.00  0.00     0.293 HD
ENDBRANCH  41  44
BRANCH  43  46
ATOM     46  O   UNL     1     138.281 134.880 120.148  1.00  0.00    -0.504 OA
ATOM     47  H   UNL     1     138.045 135.801 119.801  1.00  0.00     0.293 HD
ENDBRANCH  43  46
ENDBRANCH  28  38
BRANCH  34  48
ATOM     48  O   UNL     1     132.889 125.875 117.540  1.00  0.00    -0.507 OA
ATOM     49  H   UNL     1     132.666 125.839 118.523  1.00  0.00     0.293 HD
ENDBRANCH  34  48
BRANCH  37  50
ATOM     50  O   UNL     1     132.699 128.401 113.486  1.00  0.00    -0.508 OA
ATOM     51  H   UNL     1     133.288 128.226 112.682  1.00  0.00     0.293 HD
ENDBRANCH  37  50
ENDBRANCH  26  27
ENDBRANCH   5  26
BRANCH   4  52
ATOM     52  O   UNL     1     137.284 126.294 120.153  1.00  0.00    -0.384 OA
ATOM     53  H   UNL     1     137.032 126.886 119.396  1.00  0.00     0.211 HD
ENDBRANCH   4  52
TORSDOF 16
ENDMDL
MODEL 3
REMARK VINA RESULT:    -5.247      2.252      8.736
REMARK INTER + INTRA:         -11.646
REMARK INTER:                  -7.999
REMARK INTRA:                  -3.647
REMARK UNBOUND:                -3.025
REMARK SMILES C[C@H]1O[C@H](OC[C@H]2O[C@H](Oc3c(-c4ccc(O)c(O)c4)oc4cc(O)cc(O)c4c3=O)[C@H](O)[C@H](O)[C@H]2O)[C@@H](O)[C@H](O)[C@@H]1O
REMARK SMILES IDX 7 1 36 2 34 3 32 4 9 5 8 6 6 7 5 8 4 9 1 10 2 11 42 12 3 13
REMARK SMILES IDX 40 14 38 15 43 16 41 18 39 20 37 22 35 24 10 26 11 27 12 28
REMARK SMILES IDX 30 29 21 30 29 31 31 32 22 33 27 34 23 35 26 36 24 37 13 38
REMARK SMILES IDX 20 39 14 40 18 41 15 42 16 43 19 44 17 46 28 48 25 50 33 52
REMARK H PARENT 43 17 41 19 39 21 37 23 35 25 19 45 17 47 28 49 25 51 33 53
REMARK Flexibility Score: inf
ROOT
ATOM      1  C   UNL     1     136.763 128.943 123.063  1.00  0.00     0.180 C 
ATOM      2  C   UNL     1     137.156 127.556 123.630  1.00  0.00     0.177 C 
ATOM      3  C   UNL     1     136.917 126.477 122.564  1.00  0.00     0.180 C 
ATOM      4  C   UNL     1     137.594 126.884 121.238  1.00  0.00     0.214 C 
ATOM      5  C   UNL     1     137.249 128.341 120.844  1.00  0.00     0.339 C 
ATOM      6  O   UNL     1     137.537 129.237 121.908  1.00  0.00    -0.332 OA
ENDROOT
BRANCH   1   7
ATOM      7  C   UNL     1     136.978 130.081 124.083  1.00  0.00     0.198 C 
BRANCH   7   8
ATOM      8  O   UNL     1     137.847 131.088 123.597  1.00  0.00    -0.347 OA
BRANCH   8   9
ATOM      9  C   UNL     1     139.151 131.006 124.160  1.00  0.00     0.281 C 
ATOM     10  C   UNL     1     141.078 131.579 121.078  1.00  0.00     0.041 C 
ATOM     11  C   UNL     1     140.149 131.934 122.240  1.00  0.00     0.150 C 
ATOM     12  C   UNL     1     140.620 133.207 122.975  1.00  0.00     0.174 C 
ATOM     13  O   UNL     1     140.119 130.833 123.135  1.00  0.00    -0.344 OA
ATOM     14  C   UNL     1     139.655 133.520 124.131  1.00  0.00     0.179 C 
ATOM     15  C   UNL     1     139.437 132.268 125.013  1.00  0.00     0.202 C 
BRANCH  12  16
ATOM     16  O   UNL     1     140.664 134.307 122.103  1.00  0.00    -0.388 OA
ATOM     17  H   UNL     1     140.245 134.024 121.248  1.00  0.00     0.211 HD
ENDBRANCH  12  16
BRANCH  14  18
ATOM     18  O   UNL     1     138.425 133.964 123.609  1.00  0.00    -0.387 OA
ATOM     19  H   UNL     1     137.721 133.629 124.226  1.00  0.00     0.211 HD
ENDBRANCH  14  18
BRANCH  15  20
ATOM     20  O   UNL     1     140.533 132.069 125.872  1.00  0.00    -0.385 OA
ATOM     21  H   UNL     1     141.359 132.318 125.383  1.00  0.00     0.211 HD
ENDBRANCH  15  20
ENDBRANCH   8   9
ENDBRANCH   7   8
ENDBRANCH   1   7
BRANCH   2  22
ATOM     22  O   UNL     1     138.512 127.537 124.006  1.00  0.00    -0.387 OA
ATOM     23  H   UNL     1     138.835 128.476 123.971  1.00  0.00     0.211 HD
ENDBRANCH   2  22
BRANCH   3  24
ATOM     24  O   UNL     1     135.537 126.290 122.384  1.00  0.00    -0.387 OA
ATOM     25  H   UNL     1     135.080 127.029 122.867  1.00  0.00     0.211 HD
ENDBRANCH   3  24
BRANCH   5  26
ATOM     26  O   UNL     1     135.883 128.510 120.426  1.00  0.00    -0.454 OA
BRANCH  26  27
ATOM     27  C   UNL     1     135.394 128.806 119.137  1.00  0.00     0.214 A 
ATOM     28  C   UNL     1     135.576 130.043 118.475  1.00  0.00     0.180 A 
ATOM     29  C   UNL     1     134.662 127.806 118.484  1.00  0.00     0.239 A 
ATOM     30  O   UNL     1     135.124 130.203 117.237  1.00  0.00    -0.452 OA
ATOM     31  C   UNL     1     134.133 128.033 117.190  1.00  0.00     0.111 A 
ATOM     32  O   UNL     1     134.532 126.697 119.061  1.00  0.00    -0.285 OA
ATOM     33  C   UNL     1     134.439 129.277 116.581  1.00  0.00     0.146 A 
ATOM     34  C   UNL     1     133.347 127.093 116.455  1.00  0.00     0.134 A 
ATOM     35  C   UNL     1     134.015 129.555 115.279  1.00  0.00     0.094 A 
ATOM     36  C   UNL     1     132.965 127.388 115.140  1.00  0.00     0.093 A 
ATOM     37  C   UNL     1     133.287 128.611 114.555  1.00  0.00     0.123 A 
BRANCH  28  38
ATOM     38  C   UNL     1     136.235 131.203 119.094  1.00  0.00     0.025 A 
ATOM     39  C   UNL     1     135.796 131.699 120.330  1.00  0.00     0.062 A 
ATOM     40  C   UNL     1     137.275 131.846 118.416  1.00  0.00     0.016 A 
ATOM     41  C   UNL     1     136.424 132.807 120.915  1.00  0.00     0.158 A 
ATOM     42  C   UNL     1     137.913 132.945 118.994  1.00  0.00     0.051 A 
ATOM     43  C   UNL     1     137.501 133.435 120.240  1.00  0.00     0.157 A 
BRANCH  41  44
ATOM     44  O   UNL     1     135.951 133.246 122.153  1.00  0.00    -0.504 OA
ATOM     45  H   UNL     1     135.927 132.666 122.980  1.00  0.00     0.293 HD
ENDBRANCH  41  44
BRANCH  43  46
ATOM     46  O   UNL     1     138.178 134.542 120.757  1.00  0.00    -0.504 OA
ATOM     47  H   UNL     1     137.870 135.066 121.565  1.00  0.00     0.293 HD
ENDBRANCH  43  46
ENDBRANCH  28  38
BRANCH  34  48
ATOM     48  O   UNL     1     132.895 125.876 116.973  1.00  0.00    -0.507 OA
ATOM     49  H   UNL     1     133.206 125.461 117.837  1.00  0.00     0.293 HD
ENDBRANCH  34  48
BRANCH  37  50
ATOM     50  O   UNL     1     132.864 128.883 113.255  1.00  0.00    -0.508 OA
ATOM     51  H   UNL     1     132.133 129.556 113.064  1.00  0.00     0.293 HD
ENDBRANCH  37  50
ENDBRANCH  26  27
ENDBRANCH   5  26
BRANCH   4  52
ATOM     52  O   UNL     1     137.244 125.998 120.206  1.00  0.00    -0.384 OA
ATOM     53  H   UNL     1     137.212 125.089 120.607  1.00  0.00     0.211 HD
ENDBRANCH   4  52
TORSDOF 16
ENDMDL
MODEL 4
REMARK VINA RESULT:    -5.174      2.322      8.377
REMARK INTER + INTRA:         -11.526
REMARK INTER:                  -7.928
REMARK INTRA:                  -3.598
REMARK UNBOUND:                -3.025
REMARK SMILES C[C@H]1O[C@H](OC[C@H]2O[C@H](Oc3c(-c4ccc(O)c(O)c4)oc4cc(O)cc(O)c4c3=O)[C@H](O)[C@H](O)[C@H]2O)[C@@H](O)[C@H](O)[C@@H]1O
REMARK SMILES IDX 7 1 36 2 34 3 32 4 9 5 8 6 6 7 5 8 4 9 1 10 2 11 42 12 3 13
REMARK SMILES IDX 40 14 38 15 43 16 41 18 39 20 37 22 35 24 10 26 11 27 12 28
REMARK SMILES IDX 30 29 21 30 29 31 31 32 22 33 27 34 23 35 26 36 24 37 13 38
REMARK SMILES IDX 20 39 14 40 18 41 15 42 16 43 19 44 17 46 28 48 25 50 33 52
REMARK H PARENT 43 17 41 19 39 21 37 23 35 25 19 45 17 47 28 49 25 51 33 53
REMARK Flexibility Score: inf
ROOT
ATOM      1  C   UNL     1     137.849 132.399 120.872  1.00  0.00     0.180 C 
ATOM      2  C   UNL     1     137.233 133.818 120.811  1.00  0.00     0.177 C 
ATOM      3  C   UNL     1     135.961 133.791 119.950  1.00  0.00     0.180 C 
ATOM      4  C   UNL     1     135.022 132.664 120.430  1.00  0.00     0.214 C 
ATOM      5  C   UNL     1     135.778 131.323 120.599  1.00  0.00     0.339 C 
ATOM      6  O   UNL     1     136.917 131.484 121.432  1.00  0.00    -0.332 OA
ENDROOT
BRANCH   1   7
ATOM      7  C   UNL     1     139.135 132.350 121.725  1.00  0.00     0.198 C 
BRANCH   7   8
ATOM      8  O   UNL     1     138.875 132.504 123.108  1.00  0.00    -0.347 OA
BRANCH   8   9
ATOM      9  C   UNL     1     139.544 131.531 123.903  1.00  0.00     0.281 C 
ATOM     10  C   UNL     1     139.102 133.152 127.177  1.00  0.00     0.041 C 
ATOM     11  C   UNL     1     138.676 132.421 125.903  1.00  0.00     0.150 C 
ATOM     12  C   UNL     1     137.844 131.160 126.223  1.00  0.00     0.174 C 
ATOM     13  O   UNL     1     139.847 132.066 125.182  1.00  0.00    -0.344 OA
ATOM     14  C   UNL     1     137.442 130.463 124.912  1.00  0.00     0.179 C 
ATOM     15  C   UNL     1     138.678 130.249 124.007  1.00  0.00     0.202 C 
BRANCH  12  16
ATOM     16  O   UNL     1     136.685 131.489 126.942  1.00  0.00    -0.388 OA
ATOM     17  H   UNL     1     135.922 131.031 126.500  1.00  0.00     0.211 HD
ENDBRANCH  12  16
BRANCH  14  18
ATOM     18  O   UNL     1     136.481 131.243 124.241  1.00  0.00    -0.387 OA
ATOM     19  H   UNL     1     136.502 132.142 124.666  1.00  0.00     0.211 HD
ENDBRANCH  14  18
BRANCH  15  20
ATOM     20  O   UNL     1     139.437 129.153 124.454  1.00  0.00    -0.385 OA
ATOM     21  H   UNL     1     138.850 128.572 125.002  1.00  0.00     0.211 HD
ENDBRANCH  15  20
ENDBRANCH   8   9
ENDBRANCH   7   8
ENDBRANCH   1   7
BRANCH   2  22
ATOM     22  O   UNL     1     136.904 134.276 122.100  1.00  0.00    -0.387 OA
ATOM     23  H   UNL     1     137.665 134.835 122.411  1.00  0.00     0.211 HD
ENDBRANCH   2  22
BRANCH   3  24
ATOM     24  O   UNL     1     136.309 133.612 118.602  1.00  0.00    -0.387 OA
ATOM     25  H   UNL     1     137.188 134.057 118.468  1.00  0.00     0.211 HD
ENDBRANCH   3  24
BRANCH   5  26
ATOM     26  O   UNL     1     136.172 130.731 119.349  1.00  0.00    -0.454 OA
BRANCH  26  27
ATOM     27  C   UNL     1     135.546 129.683 118.644  1.00  0.00     0.214 A 
ATOM     28  C   UNL     1     135.447 128.349 119.107  1.00  0.00     0.180 A 
ATOM     29  C   UNL     1     135.003 129.990 117.389  1.00  0.00     0.239 A 
ATOM     30  O   UNL     1     134.787 127.448 118.392  1.00  0.00    -0.452 OA
ATOM     31  C   UNL     1     134.366 128.988 116.618  1.00  0.00     0.111 A 
ATOM     32  O   UNL     1     135.063 131.182 116.996  1.00  0.00    -0.285 OA
ATOM     33  C   UNL     1     134.249 127.702 117.207  1.00  0.00     0.146 A 
ATOM     34  C   UNL     1     133.812 129.190 115.317  1.00  0.00     0.134 A 
ATOM     35  C   UNL     1     133.574 126.675 116.543  1.00  0.00     0.094 A 
ATOM     36  C   UNL     1     133.112 128.150 114.692  1.00  0.00     0.093 A 
ATOM     37  C   UNL     1     132.998 126.898 115.293  1.00  0.00     0.123 A 
BRANCH  28  38
ATOM     38  C   UNL     1     136.064 127.880 120.356  1.00  0.00     0.025 A 
ATOM     39  C   UNL     1     137.458 127.899 120.518  1.00  0.00     0.062 A 
ATOM     40  C   UNL     1     135.254 127.362 121.372  1.00  0.00     0.016 A 
ATOM     41  C   UNL     1     138.042 127.447 121.709  1.00  0.00     0.158 A 
ATOM     42  C   UNL     1     135.826 126.918 122.565  1.00  0.00     0.051 A 
ATOM     43  C   UNL     1     137.214 126.955 122.749  1.00  0.00     0.157 A 
BRANCH  41  44
ATOM     44  O   UNL     1     139.433 127.505 121.815  1.00  0.00    -0.504 OA
ATOM     45  H   UNL     1     140.031 126.691 121.778  1.00  0.00     0.293 HD
ENDBRANCH  41  44
BRANCH  43  46
ATOM     46  O   UNL     1     137.720 126.489 123.964  1.00  0.00    -0.504 OA
ATOM     47  H   UNL     1     138.354 125.705 124.050  1.00  0.00     0.293 HD
ENDBRANCH  43  46
ENDBRANCH  28  38
BRANCH  34  48
ATOM     48  O   UNL     1     133.942 130.375 114.586  1.00  0.00    -0.507 OA
ATOM     49  H   UNL     1     133.660 131.289 114.906  1.00  0.00     0.293 HD
ENDBRANCH  34  48
BRANCH  37  50
ATOM     50  O   UNL     1     132.320 125.877 114.629  1.00  0.00    -0.508 OA
ATOM     51  H   UNL     1     131.331 125.941 114.427  1.00  0.00     0.293 HD
ENDBRANCH  37  50
ENDBRANCH  26  27
ENDBRANCH   5  26
BRANCH   4  52
ATOM     52  O   UNL     1     133.936 132.511 119.552  1.00  0.00    -0.384 OA
ATOM     53  H   UNL     1     134.112 131.692 119.018  1.00  0.00     0.211 HD
ENDBRANCH   4  52
TORSDOF 16
ENDMDL
MODEL 5
REMARK VINA RESULT:    -5.144      1.819      4.867
REMARK INTER + INTRA:         -11.476
REMARK INTER:                  -9.167
REMARK INTRA:                  -2.309
REMARK UNBOUND:                -3.025
REMARK SMILES C[C@H]1O[C@H](OC[C@H]2O[C@H](Oc3c(-c4ccc(O)c(O)c4)oc4cc(O)cc(O)c4c3=O)[C@H](O)[C@H](O)[C@H]2O)[C@@H](O)[C@H](O)[C@@H]1O
REMARK SMILES IDX 7 1 36 2 34 3 32 4 9 5 8 6 6 7 5 8 4 9 1 10 2 11 42 12 3 13
REMARK SMILES IDX 40 14 38 15 43 16 41 18 39 20 37 22 35 24 10 26 11 27 12 28
REMARK SMILES IDX 30 29 21 30 29 31 31 32 22 33 27 34 23 35 26 36 24 37 13 38
REMARK SMILES IDX 20 39 14 40 18 41 15 42 16 43 19 44 17 46 28 48 25 50 33 52
REMARK H PARENT 43 17 41 19 39 21 37 23 35 25 19 45 17 47 28 49 25 51 33 53
REMARK Flexibility Score: inf
ROOT
ATOM      1  C   UNL     1     135.374 128.411 118.878  1.00  0.00     0.180 C 
ATOM      2  C   UNL     1     134.790 126.976 118.856  1.00  0.00     0.177 C 
ATOM      3  C   UNL     1     135.404 126.153 119.999  1.00  0.00     0.180 C 
ATOM      4  C   UNL     1     135.272 126.919 121.332  1.00  0.00     0.214 C 
ATOM      5  C   UNL     1     135.747 128.387 121.198  1.00  0.00     0.339 C 
ATOM      6  O   UNL     1     135.088 129.037 120.121  1.00  0.00    -0.332 OA
ENDROOT
BRANCH   1   7
ATOM      7  C   UNL     1     134.800 129.299 117.753  1.00  0.00     0.198 C 
BRANCH   7   8
ATOM      8  O   UNL     1     134.121 128.548 116.764  1.00  0.00    -0.347 OA
BRANCH   8   9
ATOM      9  C   UNL     1     134.963 128.189 115.674  1.00  0.00     0.281 C 
ATOM     10  C   UNL     1     132.468 126.364 113.676  1.00  0.00     0.041 C 
ATOM     11  C   UNL     1     133.131 127.580 114.326  1.00  0.00     0.150 C 
ATOM     12  C   UNL     1     133.381 128.707 113.300  1.00  0.00     0.174 C 
ATOM     13  O   UNL     1     134.358 127.161 114.903  1.00  0.00    -0.344 OA
ATOM     14  C   UNL     1     134.047 129.902 114.001  1.00  0.00     0.179 C 
ATOM     15  C   UNL     1     135.278 129.441 114.816  1.00  0.00     0.202 C 
BRANCH  12  16
ATOM     16  O   UNL     1     132.179 129.130 112.711  1.00  0.00    -0.388 OA
ATOM     17  H   UNL     1     132.396 129.889 112.108  1.00  0.00     0.211 HD
ENDBRANCH  12  16
BRANCH  14  18
ATOM     18  O   UNL     1     133.113 130.529 114.849  1.00  0.00    -0.387 OA
ATOM     19  H   UNL     1     133.641 131.011 115.540  1.00  0.00     0.211 HD
ENDBRANCH  14  18
BRANCH  15  20
ATOM     20  O   UNL     1     136.379 129.218 113.969  1.00  0.00    -0.385 OA
ATOM     21  H   UNL     1     136.395 129.937 113.286  1.00  0.00     0.211 HD
ENDBRANCH  15  20
ENDBRANCH   8   9
ENDBRANCH   7   8
ENDBRANCH   1   7
BRANCH   2  22
ATOM     22  O   UNL     1     133.392 127.004 119.011  1.00  0.00    -0.387 OA
ATOM     23  H   UNL     1     133.199 126.736 119.949  1.00  0.00     0.211 HD
ENDBRANCH   2  22
BRANCH   3  24
ATOM     24  O   UNL     1     136.750 125.878 119.711  1.00  0.00    -0.387 OA
ATOM     25  H   UNL     1     136.837 125.866 118.721  1.00  0.00     0.211 HD
ENDBRANCH   3  24
BRANCH   5  26
ATOM     26  O   UNL     1     137.171 128.512 121.040  1.00  0.00    -0.454 OA
BRANCH  26  27
ATOM     27  C   UNL     1     138.064 129.318 121.776  1.00  0.00     0.214 A 
ATOM     28  C   UNL     1     138.711 130.469 121.267  1.00  0.00     0.180 A 
ATOM     29  C   UNL     1     138.337 128.933 123.095  1.00  0.00     0.239 A 
ATOM     30  O   UNL     1     139.492 131.193 122.060  1.00  0.00    -0.452 OA
ATOM     31  C   UNL     1     139.230 129.689 123.893  1.00  0.00     0.111 A 
ATOM     32  O   UNL     1     137.734 127.930 123.554  1.00  0.00    -0.285 OA
ATOM     33  C   UNL     1     139.764 130.869 123.316  1.00  0.00     0.146 A 
ATOM     34  C   UNL     1     139.599 129.362 125.234  1.00  0.00     0.134 A 
ATOM     35  C   UNL     1     140.599 131.709 124.058  1.00  0.00     0.094 A 
ATOM     36  C   UNL     1     140.410 130.241 125.963  1.00  0.00     0.093 A 
ATOM     37  C   UNL     1     140.915 131.403 125.382  1.00  0.00     0.123 A 
BRANCH  28  38
ATOM     38  C   UNL     1     138.588 130.916 119.872  1.00  0.00     0.025 A 
ATOM     39  C   UNL     1     139.647 130.741 118.968  1.00  0.00     0.062 A 
ATOM     40  C   UNL     1     137.422 131.568 119.459  1.00  0.00     0.016 A 
ATOM     41  C   UNL     1     139.527 131.172 117.640  1.00  0.00     0.158 A 
ATOM     42  C   UNL     1     137.289 131.992 118.136  1.00  0.00     0.051 A 
ATOM     43  C   UNL     1     138.328 131.802 117.217  1.00  0.00     0.157 A 
BRANCH  41  44
ATOM     44  O   UNL     1     140.609 130.957 116.785  1.00  0.00    -0.504 OA
ATOM     45  H   UNL     1     141.339 131.637 116.624  1.00  0.00     0.293 HD
ENDBRANCH  41  44
BRANCH  43  46
ATOM     46  O   UNL     1     138.132 132.257 115.911  1.00  0.00    -0.504 OA
ATOM     47  H   UNL     1     137.494 131.829 115.254  1.00  0.00     0.293 HD
ENDBRANCH  43  46
ENDBRANCH  28  38
BRANCH  34  48
ATOM     48  O   UNL     1     139.223 128.184 125.885  1.00  0.00    -0.507 OA
ATOM     49  H   UNL     1     139.555 127.260 125.654  1.00  0.00     0.293 HD
ENDBRANCH  34  48
BRANCH  37  50
ATOM     50  O   UNL     1     141.744 132.239 126.127  1.00  0.00    -0.508 OA
ATOM     51  H   UNL     1     142.717 132.015 126.289  1.00  0.00     0.293 HD
ENDBRANCH  37  50
ENDBRANCH  26  27
ENDBRANCH   5  26
BRANCH   4  52
ATOM     52  O   UNL     1     135.976 126.264 122.356  1.00  0.00    -0.384 OA
ATOM     53  H   UNL     1     135.600 126.588 123.216  1.00  0.00     0.211 HD
ENDBRANCH   4  52
TORSDOF 16
ENDMDL
MODEL 6
REMARK VINA RESULT:    -5.095      2.897      8.967
REMARK INTER + INTRA:         -11.397
REMARK INTER:                  -8.800
REMARK INTRA:                  -2.597
REMARK UNBOUND:                -3.025
REMARK SMILES C[C@H]1O[C@H](OC[C@H]2O[C@H](Oc3c(-c4ccc(O)c(O)c4)oc4cc(O)cc(O)c4c3=O)[C@H](O)[C@H](O)[C@H]2O)[C@@H](O)[C@H](O)[C@@H]1O
REMARK SMILES IDX 7 1 36 2 34 3 32 4 9 5 8 6 6 7 5 8 4 9 1 10 2 11 42 12 3 13
REMARK SMILES IDX 40 14 38 15 43 16 41 18 39 20 37 22 35 24 10 26 11 27 12 28
REMARK SMILES IDX 30 29 21 30 29 31 31 32 22 33 27 34 23 35 26 36 24 37 13 38
REMARK SMILES IDX 20 39 14 40 18 41 15 42 16 43 19 44 17 46 28 48 25 50 33 52
REMARK H PARENT 43 17 41 19 39 21 37 23 35 25 19 45 17 47 28 49 25 51 33 53
REMARK Flexibility Score: inf
ROOT
ATOM      1  C   UNL     1     138.701 129.230 125.237  1.00  0.00     0.180 C 
ATOM      2  C   UNL     1     138.845 127.700 125.424  1.00  0.00     0.177 C 
ATOM      3  C   UNL     1     138.560 126.989 124.093  1.00  0.00     0.180 C 
ATOM      4  C   UNL     1     139.408 127.617 122.966  1.00  0.00     0.214 C 
ATOM      5  C   UNL     1     139.306 129.162 122.967  1.00  0.00     0.339 C 
ATOM      6  O   UNL     1     139.613 129.690 124.249  1.00  0.00    -0.332 OA
ENDROOT
BRANCH   1   7
ATOM      7  C   UNL     1     138.975 130.012 126.539  1.00  0.00     0.198 C 
BRANCH   7   8
ATOM      8  O   UNL     1     137.847 130.746 126.979  1.00  0.00    -0.347 OA
BRANCH   8   9
ATOM      9  C   UNL     1     137.986 132.146 126.768  1.00  0.00     0.281 C 
ATOM     10  C   UNL     1     136.050 132.392 123.648  1.00  0.00     0.041 C 
ATOM     11  C   UNL     1     136.281 132.175 125.145  1.00  0.00     0.150 C 
ATOM     12  C   UNL     1     135.344 133.057 125.997  1.00  0.00     0.174 C 
ATOM     13  O   UNL     1     137.637 132.479 125.432  1.00  0.00    -0.344 OA
ATOM     14  C   UNL     1     135.616 132.803 127.490  1.00  0.00     0.179 C 
ATOM     15  C   UNL     1     137.126 132.923 127.797  1.00  0.00     0.202 C 
BRANCH  12  16
ATOM     16  O   UNL     1     133.996 132.777 125.721  1.00  0.00    -0.388 OA
ATOM     17  H   UNL     1     133.975 131.980 125.128  1.00  0.00     0.211 HD
ENDBRANCH  12  16
BRANCH  14  18
ATOM     18  O   UNL     1     135.151 131.521 127.839  1.00  0.00    -0.387 OA
ATOM     19  H   UNL     1     134.195 131.485 127.569  1.00  0.00     0.211 HD
ENDBRANCH  14  18
BRANCH  15  20
ATOM     20  O   UNL     1     137.512 134.274 127.872  1.00  0.00    -0.385 OA
ATOM     21  H   UNL     1     138.475 134.334 127.642  1.00  0.00     0.211 HD
ENDBRANCH  15  20
ENDBRANCH   8   9
ENDBRANCH   7   8
ENDBRANCH   1   7
BRANCH   2  22
ATOM     22  O   UNL     1     140.144 127.368 125.852  1.00  0.00    -0.387 OA
ATOM     23  H   UNL     1     140.754 128.064 125.489  1.00  0.00     0.211 HD
ENDBRANCH   2  22
BRANCH   3  24
ATOM     24  O   UNL     1     137.191 127.076 123.796  1.00  0.00    -0.387 OA
ATOM     25  H   UNL     1     136.725 127.306 124.644  1.00  0.00     0.211 HD
ENDBRANCH   3  24
BRANCH   5  26
ATOM     26  O   UNL     1     138.021 129.647 122.539  1.00  0.00    -0.454 OA
BRANCH  26  27
ATOM     27  C   UNL     1     137.650 130.132 121.269  1.00  0.00     0.214 A 
ATOM     28  C   UNL     1     138.324 131.168 120.577  1.00  0.00     0.180 A 
ATOM     29  C   UNL     1     136.524 129.557 120.666  1.00  0.00     0.239 A 
ATOM     30  O   UNL     1     137.928 131.515 119.359  1.00  0.00    -0.452 OA
ATOM     31  C   UNL     1     136.086 129.999 119.393  1.00  0.00     0.111 A 
ATOM     32  O   UNL     1     135.949 128.615 121.268  1.00  0.00    -0.285 OA
ATOM     33  C   UNL     1     136.876 130.985 118.750  1.00  0.00     0.146 A 
ATOM     34  C   UNL     1     134.934 129.501 118.711  1.00  0.00     0.134 A 
ATOM     35  C   UNL     1     136.555 131.427 117.464  1.00  0.00     0.094 A 
ATOM     36  C   UNL     1     134.658 129.939 117.409  1.00  0.00     0.093 A 
ATOM     37  C   UNL     1     135.454 130.900 116.789  1.00  0.00     0.123 A 
BRANCH  28  38
ATOM     38  C   UNL     1     139.452 131.920 121.146  1.00  0.00     0.025 A 
ATOM     39  C   UNL     1     140.773 131.503 120.925  1.00  0.00     0.062 A 
ATOM     40  C   UNL     1     139.199 133.030 121.957  1.00  0.00     0.016 A 
ATOM     41  C   UNL     1     141.846 132.221 121.472  1.00  0.00     0.158 A 
ATOM     42  C   UNL     1     140.260 133.757 122.500  1.00  0.00     0.051 A 
ATOM     43  C   UNL     1     141.585 133.367 122.266  1.00  0.00     0.157 A 
BRANCH  41  44
ATOM     44  O   UNL     1     143.138 131.766 121.205  1.00  0.00    -0.504 OA
ATOM     45  H   UNL     1     143.347 130.829 120.892  1.00  0.00     0.293 HD
ENDBRANCH  41  44
BRANCH  43  46
ATOM     46  O   UNL     1     142.599 134.134 122.844  1.00  0.00    -0.504 OA
ATOM     47  H   UNL     1     143.313 134.618 122.316  1.00  0.00     0.293 HD
ENDBRANCH  43  46
ENDBRANCH  28  38
BRANCH  34  48
ATOM     48  O   UNL     1     134.020 128.603 119.269  1.00  0.00    -0.507 OA
ATOM     49  H   UNL     1     133.886 127.649 118.970  1.00  0.00     0.293 HD
ENDBRANCH  34  48
BRANCH  37  50
ATOM     50  O   UNL     1     135.131 131.334 115.506  1.00  0.00    -0.508 OA
ATOM     51  H   UNL     1     134.432 130.863 114.945  1.00  0.00     0.293 HD
ENDBRANCH  37  50
ENDBRANCH  26  27
ENDBRANCH   5  26
BRANCH   4  52
ATOM     52  O   UNL     1     139.037 127.098 121.715  1.00  0.00    -0.384 OA
ATOM     53  H   UNL     1     139.311 127.768 121.034  1.00  0.00     0.211 HD
ENDBRANCH   4  52
TORSDOF 16
ENDMDL
MODEL 7
REMARK VINA RESULT:    -4.955      3.815      6.906
REMARK INTER + INTRA:         -11.166
REMARK INTER:                  -8.057
REMARK INTRA:                  -3.110
REMARK UNBOUND:                -3.025
REMARK SMILES C[C@H]1O[C@H](OC[C@H]2O[C@H](Oc3c(-c4ccc(O)c(O)c4)oc4cc(O)cc(O)c4c3=O)[C@H](O)[C@H](O)[C@H]2O)[C@@H](O)[C@H](O)[C@@H]1O
REMARK SMILES IDX 7 1 36 2 34 3 32 4 9 5 8 6 6 7 5 8 4 9 1 10 2 11 42 12 3 13
REMARK SMILES IDX 40 14 38 15 43 16 41 18 39 20 37 22 35 24 10 26 11 27 12 28
REMARK SMILES IDX 30 29 21 30 29 31 31 32 22 33 27 34 23 35 26 36 24 37 13 38
REMARK SMILES IDX 20 39 14 40 18 41 15 42 16 43 19 44 17 46 28 48 25 50 33 52
REMARK H PARENT 43 17 41 19 39 21 37 23 35 25 19 45 17 47 28 49 25 51 33 53
REMARK Flexibility Score: inf
ROOT
ATOM      1  C   UNL     1     136.785 133.756 123.121  1.00  0.00     0.180 C 
ATOM      2  C   UNL     1     136.435 134.172 121.671  1.00  0.00     0.177 C 
ATOM      3  C   UNL     1     136.973 133.119 120.689  1.00  0.00     0.180 C 
ATOM      4  C   UNL     1     136.513 131.710 121.121  1.00  0.00     0.214 C 
ATOM      5  C   UNL     1     136.777 131.459 122.626  1.00  0.00     0.339 C 
ATOM      6  O   UNL     1     136.211 132.492 123.420  1.00  0.00    -0.332 OA
ENDROOT
BRANCH   1   7
ATOM      7  C   UNL     1     136.272 134.771 124.166  1.00  0.00     0.198 C 
BRANCH   7   8
ATOM      8  O   UNL     1     135.468 134.165 125.160  1.00  0.00    -0.347 OA
BRANCH   8   9
ATOM      9  C   UNL     1     135.940 134.421 126.479  1.00  0.00     0.281 C 
ATOM     10  C   UNL     1     132.771 133.886 128.272  1.00  0.00     0.041 C 
ATOM     11  C   UNL     1     134.008 133.499 127.459  1.00  0.00     0.150 C 
ATOM     12  C   UNL     1     134.774 132.330 128.114  1.00  0.00     0.174 C 
ATOM     13  O   UNL     1     134.847 134.640 127.358  1.00  0.00    -0.344 OA
ATOM     14  C   UNL     1     136.006 131.981 127.261  1.00  0.00     0.179 C 
ATOM     15  C   UNL     1     136.835 133.250 126.955  1.00  0.00     0.202 C 
BRANCH  12  16
ATOM     16  O   UNL     1     133.959 131.193 128.230  1.00  0.00    -0.388 OA
ATOM     17  H   UNL     1     134.186 130.587 127.477  1.00  0.00     0.211 HD
ENDBRANCH  12  16
BRANCH  14  18
ATOM     18  O   UNL     1     135.588 131.375 126.060  1.00  0.00    -0.387 OA
ATOM     19  H   UNL     1     134.727 130.920 126.260  1.00  0.00     0.211 HD
ENDBRANCH  14  18
BRANCH  15  20
ATOM     20  O   UNL     1     137.609 133.617 128.071  1.00  0.00    -0.385 OA
ATOM     21  H   UNL     1     138.036 134.491 127.878  1.00  0.00     0.211 HD
ENDBRANCH  15  20
ENDBRANCH   8   9
ENDBRANCH   7   8
ENDBRANCH   1   7
BRANCH   2  22
ATOM     22  O   UNL     1     135.042 134.283 121.505  1.00  0.00    -0.387 OA
ATOM     23  H   UNL     1     134.779 133.620 120.813  1.00  0.00     0.211 HD
ENDBRANCH   2  22
BRANCH   3  24
ATOM     24  O   UNL     1     138.374 133.195 120.639  1.00  0.00    -0.387 OA
ATOM     25  H   UNL     1     138.678 133.523 121.527  1.00  0.00     0.211 HD
ENDBRANCH   3  24
BRANCH   5  26
ATOM     26  O   UNL     1     138.173 131.316 122.943  1.00  0.00    -0.454 OA
BRANCH  26  27
ATOM     27  C   UNL     1     138.767 130.475 123.906  1.00  0.00     0.214 A 
ATOM     28  C   UNL     1     138.844 129.065 123.802  1.00  0.00     0.180 A 
ATOM     29  C   UNL     1     139.298 131.085 125.050  1.00  0.00     0.239 A 
ATOM     30  O   UNL     1     139.476 128.367 124.739  1.00  0.00    -0.452 OA
ATOM     31  C   UNL     1     139.904 130.304 126.065  1.00  0.00     0.111 A 
ATOM     32  O   UNL     1     139.258 132.339 125.123  1.00  0.00    -0.285 OA
ATOM     33  C   UNL     1     140.002 128.909 125.828  1.00  0.00     0.146 A 
ATOM     34  C   UNL     1     140.443 130.826 127.281  1.00  0.00     0.134 A 
ATOM     35  C   UNL     1     140.646 128.076 126.746  1.00  0.00     0.094 A 
ATOM     36  C   UNL     1     141.112 129.970 128.164  1.00  0.00     0.093 A 
ATOM     37  C   UNL     1     141.209 128.603 127.908  1.00  0.00     0.123 A 
BRANCH  28  38
ATOM     38  C   UNL     1     138.236 128.301 122.705  1.00  0.00     0.025 A 
ATOM     39  C   UNL     1     136.861 128.019 122.704  1.00  0.00     0.062 A 
ATOM     40  C   UNL     1     139.046 127.807 121.678  1.00  0.00     0.016 A 
ATOM     41  C   UNL     1     136.286 127.286 121.657  1.00  0.00     0.158 A 
ATOM     42  C   UNL     1     138.482 127.084 120.626  1.00  0.00     0.051 A 
ATOM     43  C   UNL     1     137.107 126.817 120.601  1.00  0.00     0.157 A 
BRANCH  41  44
ATOM     44  O   UNL     1     134.911 127.050 121.706  1.00  0.00    -0.504 OA
ATOM     45  H   UNL     1     134.247 127.478 121.076  1.00  0.00     0.293 HD
ENDBRANCH  41  44
BRANCH  43  46
ATOM     46  O   UNL     1     136.608 126.083 119.522  1.00  0.00    -0.504 OA
ATOM     47  H   UNL     1     137.188 125.663 118.808  1.00  0.00     0.293 HD
ENDBRANCH  43  46
ENDBRANCH  28  38
BRANCH  34  48
ATOM     48  O   UNL     1     140.327 132.160 127.680  1.00  0.00    -0.507 OA
ATOM     49  H   UNL     1     140.688 132.953 127.171  1.00  0.00     0.293 HD
ENDBRANCH  34  48
BRANCH  37  50
ATOM     50  O   UNL     1     141.855 127.777 128.824  1.00  0.00    -0.508 OA
ATOM     51  H   UNL     1     142.095 128.099 129.753  1.00  0.00     0.293 HD
ENDBRANCH  37  50
ENDBRANCH  26  27
ENDBRANCH   5  26
BRANCH   4  52
ATOM     52  O   UNL     1     137.134 130.722 120.339  1.00  0.00    -0.384 OA
ATOM     53  H   UNL     1     137.869 130.341 120.888  1.00  0.00     0.211 HD
ENDBRANCH   4  52
TORSDOF 16
ENDMDL
MODEL 8
REMARK VINA RESULT:    -4.949      3.522      8.884
REMARK INTER + INTRA:         -11.156
REMARK INTER:                  -8.432
REMARK INTRA:                  -2.724
REMARK UNBOUND:                -3.025
REMARK SMILES C[C@H]1O[C@H](OC[C@H]2O[C@H](Oc3c(-c4ccc(O)c(O)c4)oc4cc(O)cc(O)c4c3=O)[C@H](O)[C@H](O)[C@H]2O)[C@@H](O)[C@H](O)[C@@H]1O
REMARK SMILES IDX 7 1 36 2 34 3 32 4 9 5 8 6 6 7 5 8 4 9 1 10 2 11 42 12 3 13
REMARK SMILES IDX 40 14 38 15 43 16 41 18 39 20 37 22 35 24 10 26 11 27 12 28
REMARK SMILES IDX 30 29 21 30 29 31 31 32 22 33 27 34 23 35 26 36 24 37 13 38
REMARK SMILES IDX 20 39 14 40 18 41 15 42 16 43 19 44 17 46 28 48 25 50 33 52
REMARK H PARENT 43 17 41 19 39 21 37 23 35 25 19 45 17 47 28 49 25 51 33 53
REMARK Flexibility Score: inf
ROOT
ATOM      1  C   UNL     1     137.882 129.842 124.432  1.00  0.00     0.180 C 
ATOM      2  C   UNL     1     138.652 128.567 124.858  1.00  0.00     0.177 C 
ATOM      3  C   UNL     1     138.605 127.533 123.722  1.00  0.00     0.180 C 
ATOM      4  C   UNL     1     139.051 128.184 122.396  1.00  0.00     0.214 C 
ATOM      5  C   UNL     1     138.324 129.528 122.146  1.00  0.00     0.339 C 
ATOM      6  O   UNL     1     138.464 130.397 123.261  1.00  0.00    -0.332 OA
ENDROOT
BRANCH   1   7
ATOM      7  C   UNL     1     137.889 130.929 125.528  1.00  0.00     0.198 C 
BRANCH   7   8
ATOM      8  O   UNL     1     136.592 131.421 125.811  1.00  0.00    -0.347 OA
BRANCH   8   9
ATOM      9  C   UNL     1     136.577 132.825 126.045  1.00  0.00     0.281 C 
ATOM     10  C   UNL     1     133.325 133.569 124.492  1.00  0.00     0.041 C 
ATOM     11  C   UNL     1     134.285 132.989 125.532  1.00  0.00     0.150 C 
ATOM     12  C   UNL     1     133.889 133.404 126.965  1.00  0.00     0.174 C 
ATOM     13  O   UNL     1     135.594 133.448 125.231  1.00  0.00    -0.344 OA
ATOM     14  C   UNL     1     134.883 132.797 127.970  1.00  0.00     0.179 C 
ATOM     15  C   UNL     1     136.339 133.106 127.550  1.00  0.00     0.202 C 
BRANCH  12  16
ATOM     16  O   UNL     1     132.593 132.966 127.279  1.00  0.00    -0.388 OA
ATOM     17  H   UNL     1     132.156 132.702 126.427  1.00  0.00     0.211 HD
ENDBRANCH  12  16
BRANCH  14  18
ATOM     18  O   UNL     1     134.686 131.405 128.041  1.00  0.00    -0.387 OA
ATOM     19  H   UNL     1     135.494 130.986 127.640  1.00  0.00     0.211 HD
ENDBRANCH  14  18
BRANCH  15  20
ATOM     20  O   UNL     1     136.682 134.429 127.885  1.00  0.00    -0.385 OA
ATOM     21  H   UNL     1     136.842 134.470 128.863  1.00  0.00     0.211 HD
ENDBRANCH  15  20
ENDBRANCH   8   9
ENDBRANCH   7   8
ENDBRANCH   1   7
BRANCH   2  22
ATOM     22  O   UNL     1     139.996 128.868 125.148  1.00  0.00    -0.387 OA
ATOM     23  H   UNL     1     140.257 128.305 125.924  1.00  0.00     0.211 HD
ENDBRANCH   2  22
BRANCH   3  24
ATOM     24  O   UNL     1     137.305 127.014 123.612  1.00  0.00    -0.387 OA
ATOM     25  H   UNL     1     136.990 127.216 122.691  1.00  0.00     0.211 HD
ENDBRANCH   3  24
BRANCH   5  26
ATOM     26  O   UNL     1     136.930 129.371 121.827  1.00  0.00    -0.454 OA
BRANCH  26  27
ATOM     27  C   UNL     1     136.314 129.417 120.560  1.00  0.00     0.214 A 
ATOM     28  C   UNL     1     136.245 130.571 119.743  1.00  0.00     0.180 A 
ATOM     29  C   UNL     1     135.713 128.240 120.096  1.00  0.00     0.239 A 
ATOM     30  O   UNL     1     135.690 130.497 118.539  1.00  0.00    -0.452 OA
ATOM     31  C   UNL     1     135.067 128.212 118.836  1.00  0.00     0.111 A 
ATOM     32  O   UNL     1     135.805 127.209 120.809  1.00  0.00    -0.285 OA
ATOM     33  C   UNL     1     135.123 129.398 118.060  1.00  0.00     0.146 A 
ATOM     34  C   UNL     1     134.398 127.075 118.289  1.00  0.00     0.134 A 
ATOM     35  C   UNL     1     134.572 129.436 116.776  1.00  0.00     0.094 A 
ATOM     36  C   UNL     1     133.885 127.134 116.986  1.00  0.00     0.093 A 
ATOM     37  C   UNL     1     133.961 128.305 116.235  1.00  0.00     0.123 A 
BRANCH  28  38
ATOM     38  C   UNL     1     136.745 131.889 120.161  1.00  0.00     0.025 A 
ATOM     39  C   UNL     1     136.054 132.645 121.120  1.00  0.00     0.062 A 
ATOM     40  C   UNL     1     137.892 132.413 119.557  1.00  0.00     0.016 A 
ATOM     41  C   UNL     1     136.533 133.903 121.513  1.00  0.00     0.158 A 
ATOM     42  C   UNL     1     138.382 133.660 119.948  1.00  0.00     0.051 A 
ATOM     43  C   UNL     1     137.716 134.415 120.922  1.00  0.00     0.157 A 
BRANCH  41  44
ATOM     44  O   UNL     1     135.809 134.601 122.481  1.00  0.00    -0.504 OA
ATOM     45  H   UNL     1     136.222 135.277 123.109  1.00  0.00     0.293 HD
ENDBRANCH  41  44
BRANCH  43  46
ATOM     46  O   UNL     1     138.255 135.657 121.261  1.00  0.00    -0.504 OA
ATOM     47  H   UNL     1     138.457 135.947 122.209  1.00  0.00     0.293 HD
ENDBRANCH  43  46
ENDBRANCH  28  38
BRANCH  34  48
ATOM     48  O   UNL     1     134.187 125.881 118.984  1.00  0.00    -0.507 OA
ATOM     49  H   UNL     1     133.319 125.368 119.009  1.00  0.00     0.293 HD
ENDBRANCH  34  48
BRANCH  37  50
ATOM     50  O   UNL     1     133.413 128.336 114.955  1.00  0.00    -0.508 OA
ATOM     51  H   UNL     1     132.433 128.537 114.802  1.00  0.00     0.293 HD
ENDBRANCH  37  50
ENDBRANCH  26  27
ENDBRANCH   5  26
BRANCH   4  52
ATOM     52  O   UNL     1     138.852 127.307 121.318  1.00  0.00    -0.384 OA
ATOM     53  H   UNL     1     137.903 127.404 121.040  1.00  0.00     0.211 HD
ENDBRANCH   4  52
TORSDOF 16
ENDMDL
MODEL 9
REMARK VINA RESULT:    -4.907      2.210      8.809
REMARK INTER + INTRA:         -11.087
REMARK INTER:                  -8.020
REMARK INTRA:                  -3.067
REMARK UNBOUND:                -3.025
REMARK SMILES C[C@H]1O[C@H](OC[C@H]2O[C@H](Oc3c(-c4ccc(O)c(O)c4)oc4cc(O)cc(O)c4c3=O)[C@H](O)[C@H](O)[C@H]2O)[C@@H](O)[C@H](O)[C@@H]1O
REMARK SMILES IDX 7 1 36 2 34 3 32 4 9 5 8 6 6 7 5 8 4 9 1 10 2 11 42 12 3 13
REMARK SMILES IDX 40 14 38 15 43 16 41 18 39 20 37 22 35 24 10 26 11 27 12 28
REMARK SMILES IDX 30 29 21 30 29 31 31 32 22 33 27 34 23 35 26 36 24 37 13 38
REMARK SMILES IDX 20 39 14 40 18 41 15 42 16 43 19 44 17 46 28 48 25 50 33 52
REMARK H PARENT 43 17 41 19 39 21 37 23 35 25 19 45 17 47 28 49 25 51 33 53
REMARK Flexibility Score: inf
ROOT
ATOM      1  C   UNL     1     138.380 130.810 122.695  1.00  0.00     0.180 C 
ATOM      2  C   UNL     1     138.879 132.276 122.647  1.00  0.00     0.177 C 
ATOM      3  C   UNL     1     138.398 132.941 121.349  1.00  0.00     0.180 C 
ATOM      4  C   UNL     1     136.878 132.737 121.181  1.00  0.00     0.214 C 
ATOM      5  C   UNL     1     136.472 131.258 121.398  1.00  0.00     0.339 C 
ATOM      6  O   UNL     1     136.960 130.775 122.641  1.00  0.00    -0.332 OA
ENDROOT
BRANCH   1   7
ATOM      7  C   UNL     1     138.826 130.077 123.978  1.00  0.00     0.198 C 
BRANCH   7   8
ATOM      8  O   UNL     1     139.901 130.728 124.629  1.00  0.00    -0.347 OA
BRANCH   8   9
ATOM      9  C   UNL     1     140.301 130.067 125.825  1.00  0.00     0.281 C 
ATOM     10  C   UNL     1     142.911 132.438 126.876  1.00  0.00     0.041 C 
ATOM     11  C   UNL     1     141.490 131.949 126.589  1.00  0.00     0.150 C 
ATOM     12  C   UNL     1     140.557 132.175 127.799  1.00  0.00     0.174 C 
ATOM     13  O   UNL     1     141.553 130.568 126.268  1.00  0.00    -0.344 OA
ATOM     14  C   UNL     1     139.145 131.668 127.461  1.00  0.00     0.179 C 
ATOM     15  C   UNL     1     139.202 130.225 126.907  1.00  0.00     0.202 C 
BRANCH  12  16
ATOM     16  O   UNL     1     140.489 133.535 128.137  1.00  0.00    -0.388 OA
ATOM     17  H   UNL     1     141.075 133.674 128.927  1.00  0.00     0.211 HD
ENDBRANCH  12  16
BRANCH  14  18
ATOM     18  O   UNL     1     138.553 132.526 126.515  1.00  0.00    -0.387 OA
ATOM     19  H   UNL     1     137.569 132.421 126.617  1.00  0.00     0.211 HD
ENDBRANCH  14  18
BRANCH  15  20
ATOM     20  O   UNL     1     139.375 129.298 127.951  1.00  0.00    -0.385 OA
ATOM     21  H   UNL     1     140.285 129.420 128.325  1.00  0.00     0.211 HD
ENDBRANCH  15  20
ENDBRANCH   8   9
ENDBRANCH   7   8
ENDBRANCH   1   7
BRANCH   2  22
ATOM     22  O   UNL     1     138.389 133.007 123.745  1.00  0.00    -0.387 OA
ATOM     23  H   UNL     1     138.923 132.732 124.537  1.00  0.00     0.211 HD
ENDBRANCH   2  22
BRANCH   3  24
ATOM     24  O   UNL     1     139.099 132.404 120.257  1.00  0.00    -0.387 OA
ATOM     25  H   UNL     1     139.128 131.419 120.389  1.00  0.00     0.211 HD
ENDBRANCH   3  24
BRANCH   5  26
ATOM     26  O   UNL     1     136.905 130.388 120.337  1.00  0.00    -0.454 OA
BRANCH  26  27
ATOM     27  C   UNL     1     136.163 129.397 119.664  1.00  0.00     0.214 A 
ATOM     28  C   UNL     1     135.994 128.069 120.125  1.00  0.00     0.180 A 
ATOM     29  C   UNL     1     135.571 129.755 118.445  1.00  0.00     0.239 A 
ATOM     30  O   UNL     1     135.229 127.225 119.445  1.00  0.00    -0.452 OA
ATOM     31  C   UNL     1     134.818 128.809 117.708  1.00  0.00     0.111 A 
ATOM     32  O   UNL     1     135.695 130.943 118.056  1.00  0.00    -0.285 OA
ATOM     33  C   UNL     1     134.642 127.530 118.295  1.00  0.00     0.146 A 
ATOM     34  C   UNL     1     134.205 129.065 116.443  1.00  0.00     0.134 A 
ATOM     35  C   UNL     1     133.855 126.561 117.667  1.00  0.00     0.094 A 
ATOM     36  C   UNL     1     133.395 128.084 115.856  1.00  0.00     0.093 A 
ATOM     37  C   UNL     1     133.225 126.838 116.455  1.00  0.00     0.123 A 
BRANCH  28  38
ATOM     38  C   UNL     1     136.648 127.543 121.332  1.00  0.00     0.025 A 
ATOM     39  C   UNL     1     138.018 127.241 121.331  1.00  0.00     0.062 A 
ATOM     40  C   UNL     1     135.883 127.295 122.476  1.00  0.00     0.016 A 
ATOM     41  C   UNL     1     138.636 126.736 122.483  1.00  0.00     0.158 A 
ATOM     42  C   UNL     1     136.491 126.801 123.632  1.00  0.00     0.051 A 
ATOM     43  C   UNL     1     137.862 126.519 123.651  1.00  0.00     0.157 A 
BRANCH  41  44
ATOM     44  O   UNL     1     140.005 126.468 122.424  1.00  0.00    -0.504 OA
ATOM     45  H   UNL     1     140.536 126.459 121.565  1.00  0.00     0.293 HD
ENDBRANCH  41  44
BRANCH  43  46
ATOM     46  O   UNL     1     138.405 126.021 124.838  1.00  0.00    -0.504 OA
ATOM     47  H   UNL     1     137.942 125.346 125.432  1.00  0.00     0.293 HD
ENDBRANCH  43  46
ENDBRANCH  28  38
BRANCH  34  48
ATOM     48  O   UNL     1     134.378 130.244 115.713  1.00  0.00    -0.507 OA
ATOM     49  H   UNL     1     133.797 130.542 114.944  1.00  0.00     0.293 HD
ENDBRANCH  34  48
BRANCH  37  50
ATOM     50  O   UNL     1     132.436 125.876 115.827  1.00  0.00    -0.508 OA
ATOM     51  H   UNL     1     131.429 125.961 115.784  1.00  0.00     0.293 HD
ENDBRANCH  37  50
ENDBRANCH  26  27
ENDBRANCH   5  26
BRANCH   4  52
ATOM     52  O   UNL     1     136.450 133.187 119.921  1.00  0.00    -0.384 OA
ATOM     53  H   UNL     1     136.129 132.388 119.425  1.00  0.00     0.211 HD
ENDBRANCH   4  52
TORSDOF 16
ENDMDL
