MODEL 1
REMARK VINA RESULT:    -6.345      0.000      0.000
REMARK INTER + INTRA:          -6.704
REMARK INTER:                  -6.901
REMARK INTRA:                   0.197
REMARK UNBOUND:                 0.197
REMARK SMILES C[C@H]1[C@H](C)CC[C@@]2(C(=O)[O-])CC[C@@]3(C)C(=CC[C@@H]4[C@]5(C)CC[C@H](O)C(C)(C)[C@@H]5CC[C@@]43C)[C@H]12
REMARK SMILES IDX 7 1 6 2 11 3 33 4 5 5 12 6 15 7 2 8 3 9 13 10 16 11 1 12
REMARK SMILES IDX 4 13 14 14 31 15 17 16 18 17 30 18 32 19 19 20 29 21 28 22
REMARK SMILES IDX 21 23 20 24 25 25 22 26 23 27 26 28 27 29 8 30 9 31 10 32
REMARK SMILES IDX 24 33
REMARK H PARENT 24 34
REMARK Flexibility Score: inf
ROOT
ATOM      1  C   UNL     1      15.222  59.530  31.668  1.00  0.00     0.017 C 
ATOM      2  C   UNL     1      15.723  60.779  32.442  1.00  0.00     0.014 C 
ATOM      3  C   UNL     1      16.428  58.622  31.399  1.00  0.00     0.014 C 
ATOM      4  C   UNL     1      14.172  58.794  32.585  1.00  0.00     0.030 C 
ATOM      5  C   UNL     1      14.582  61.754  32.750  1.00  0.00     0.004 C 
ATOM      6  C   UNL     1      16.012  57.368  30.626  1.00  0.00     0.013 C 
ATOM      7  C   UNL     1      13.955  57.292  32.208  1.00  0.00    -0.063 C 
ATOM      8  C   UNL     1      12.929  59.783  32.772  1.00  0.00    -0.003 C 
ATOM      9  C   UNL     1      13.425  61.077  33.513  1.00  0.00    -0.011 C 
ATOM     10  C   UNL     1      14.982  56.463  31.390  1.00  0.00    -0.006 C 
ATOM     11  C   UNL     1      13.034  56.558  32.874  1.00  0.00    -0.027 C 
ATOM     12  C   UNL     1      11.683  59.211  33.471  1.00  0.00     0.008 C 
ATOM     13  C   UNL     1      12.316  62.124  33.735  1.00  0.00     0.008 C 
ATOM     14  C   UNL     1      15.855  55.658  32.405  1.00  0.00     0.017 C 
ATOM     15  C   UNL     1      14.152  55.491  30.403  1.00  0.00    -0.020 C 
ATOM     16  C   UNL     1      12.733  55.101  32.620  1.00  0.00     0.032 C 
ATOM     17  C   UNL     1      13.141  54.537  31.214  1.00  0.00     0.006 C 
ATOM     18  C   UNL     1      15.071  54.704  29.405  1.00  0.00     0.008 C 
ATOM     19  C   UNL     1      13.253  56.393  29.474  1.00  0.00     0.012 C 
ATOM     20  C   UNL     1      13.325  52.930  31.207  1.00  0.00    -0.025 C 
ATOM     21  C   UNL     1      15.347  53.250  29.737  1.00  0.00     0.005 C 
ATOM     22  C   UNL     1      14.032  52.441  29.888  1.00  0.00     0.003 C 
ATOM     23  C   UNL     1      14.125  52.394  32.450  1.00  0.00     0.010 C 
ATOM     24  C   UNL     1      11.873  52.347  31.286  1.00  0.00     0.012 C 
ATOM     25  C   UNL     1      14.235  50.846  29.777  1.00  0.00    -0.006 C 
ATOM     26  C   UNL     1      14.942  51.099  32.246  1.00  0.00     0.033 C 
ATOM     27  C   UNL     1      14.345  50.160  31.191  1.00  0.00     0.120 C 
ATOM     28  C   UNL     1      15.478  50.471  28.916  1.00  0.00     0.014 C 
ATOM     29  C   UNL     1      13.032  50.219  29.020  1.00  0.00     0.014 C 
ENDROOT
BRANCH   1  30
ATOM     30  C   UNL     1      14.669  59.979  30.311  1.00  0.00     0.048 C 
ATOM     31  O   UNL     1      13.492  59.700  29.963  1.00  0.00    -0.550 OA
ATOM     32  O   UNL     1      15.498  60.621  29.399  1.00  0.00    -0.550 OA
ENDBRANCH   1  30
BRANCH  27  33
ATOM     33  O   UNL     1      15.048  48.939  31.145  1.00  0.00    -0.393 OA
ATOM     34  H   UNL     1      15.263  48.658  32.072  1.00  0.00     0.210 HD
ENDBRANCH  27  33
TORSDOF 2
ENDMDL
MODEL 2
REMARK VINA RESULT:    -6.241      1.751      8.131
REMARK INTER + INTRA:          -6.591
REMARK INTER:                  -6.790
REMARK INTRA:                   0.199
REMARK UNBOUND:                 0.197
REMARK SMILES C[C@H]1[C@H](C)CC[C@@]2(C(=O)[O-])CC[C@@]3(C)C(=CC[C@@H]4[C@]5(C)CC[C@H](O)C(C)(C)[C@@H]5CC[C@@]43C)[C@H]12
REMARK SMILES IDX 7 1 6 2 11 3 33 4 5 5 12 6 15 7 2 8 3 9 13 10 16 11 1 12
REMARK SMILES IDX 4 13 14 14 31 15 17 16 18 17 30 18 32 19 19 20 29 21 28 22
REMARK SMILES IDX 21 23 20 24 25 25 22 26 23 27 26 28 27 29 8 30 9 31 10 32
REMARK SMILES IDX 24 33
REMARK H PARENT 24 34
REMARK Flexibility Score: inf
ROOT
ATOM      1  C   UNL     1      13.189  51.993  29.418  1.00  0.00     0.017 C 
ATOM      2  C   UNL     1      12.351  50.688  29.451  1.00  0.00     0.014 C 
ATOM      3  C   UNL     1      12.273  53.136  28.965  1.00  0.00     0.014 C 
ATOM      4  C   UNL     1      13.714  52.256  30.881  1.00  0.00     0.030 C 
ATOM      5  C   UNL     1      13.190  49.482  29.888  1.00  0.00     0.004 C 
ATOM      6  C   UNL     1      13.036  54.462  28.899  1.00  0.00     0.013 C 
ATOM      7  C   UNL     1      14.125  53.742  31.143  1.00  0.00    -0.063 C 
ATOM      8  C   UNL     1      14.699  51.052  31.256  1.00  0.00    -0.003 C 
ATOM      9  C   UNL     1      13.879  49.713  31.249  1.00  0.00    -0.011 C 
ATOM     10  C   UNL     1      13.619  54.929  30.279  1.00  0.00    -0.006 C 
ATOM     11  C   UNL     1      14.651  54.094  32.338  1.00  0.00    -0.027 C 
ATOM     12  C   UNL     1      15.495  51.186  32.567  1.00  0.00     0.008 C 
ATOM     13  C   UNL     1      14.727  48.468  31.575  1.00  0.00     0.008 C 
ATOM     14  C   UNL     1      12.398  55.565  31.017  1.00  0.00     0.017 C 
ATOM     15  C   UNL     1      14.840  55.973  30.119  1.00  0.00    -0.020 C 
ATOM     16  C   UNL     1      15.078  55.489  32.724  1.00  0.00     0.032 C 
ATOM     17  C   UNL     1      15.386  56.478  31.547  1.00  0.00     0.006 C 
ATOM     18  C   UNL     1      14.512  57.151  29.136  1.00  0.00     0.008 C 
ATOM     19  C   UNL     1      16.041  55.218  29.433  1.00  0.00     0.012 C 
ATOM     20  C   UNL     1      15.273  58.032  31.980  1.00  0.00    -0.025 C 
ATOM     21  C   UNL     1      14.156  58.484  29.766  1.00  0.00     0.005 C 
ATOM     22  C   UNL     1      15.273  58.979  30.722  1.00  0.00     0.003 C 
ATOM     23  C   UNL     1      14.003  58.339  32.856  1.00  0.00     0.010 C 
ATOM     24  C   UNL     1      16.538  58.309  32.862  1.00  0.00     0.012 C 
ATOM     25  C   UNL     1      15.190  60.553  31.056  1.00  0.00    -0.006 C 
ATOM     26  C   UNL     1      13.412  59.762  32.749  1.00  0.00     0.033 C 
ATOM     27  C   UNL     1      14.457  60.835  32.421  1.00  0.00     0.120 C 
ATOM     28  C   UNL     1      14.501  61.360  29.916  1.00  0.00     0.014 C 
ATOM     29  C   UNL     1      16.625  61.145  31.140  1.00  0.00     0.014 C 
ENDROOT
BRANCH   1  30
ATOM     30  C   UNL     1      14.296  51.843  28.369  1.00  0.00     0.048 C 
ATOM     31  O   UNL     1      15.506  52.019  28.668  1.00  0.00    -0.550 OA
ATOM     32  O   UNL     1      13.967  51.606  27.039  1.00  0.00    -0.550 OA
ENDBRANCH   1  30
BRANCH  27  33
ATOM     33  O   UNL     1      13.891  62.125  32.473  1.00  0.00    -0.393 OA
ATOM     34  H   UNL     1      14.397  62.722  31.862  1.00  0.00     0.210 HD
ENDBRANCH  27  33
TORSDOF 2
ENDMDL
MODEL 3
REMARK VINA RESULT:    -6.239      2.917      7.407
REMARK INTER + INTRA:          -6.589
REMARK INTER:                  -6.799
REMARK INTRA:                   0.210
REMARK UNBOUND:                 0.197
REMARK SMILES C[C@H]1[C@H](C)CC[C@@]2(C(=O)[O-])CC[C@@]3(C)C(=CC[C@@H]4[C@]5(C)CC[C@H](O)C(C)(C)[C@@H]5CC[C@@]43C)[C@H]12
REMARK SMILES IDX 7 1 6 2 11 3 33 4 5 5 12 6 15 7 2 8 3 9 13 10 16 11 1 12
REMARK SMILES IDX 4 13 14 14 31 15 17 16 18 17 30 18 32 19 19 20 29 21 28 22
REMARK SMILES IDX 21 23 20 24 25 25 22 26 23 27 26 28 27 29 8 30 9 31 10 32
REMARK SMILES IDX 24 33
REMARK H PARENT 24 34
REMARK Flexibility Score: inf
ROOT
ATOM      1  C   UNL     1      12.329  54.948  34.222  1.00  0.00     0.017 C 
ATOM      2  C   UNL     1      12.441  54.545  35.716  1.00  0.00     0.014 C 
ATOM      3  C   UNL     1      11.805  56.387  34.156  1.00  0.00     0.014 C 
ATOM      4  C   UNL     1      13.774  54.859  33.598  1.00  0.00     0.030 C 
ATOM      5  C   UNL     1      12.953  53.110  35.883  1.00  0.00     0.004 C 
ATOM      6  C   UNL     1      11.659  56.855  32.705  1.00  0.00     0.013 C 
ATOM      7  C   UNL     1      13.944  55.697  32.288  1.00  0.00    -0.063 C 
ATOM      8  C   UNL     1      14.224  53.325  33.657  1.00  0.00    -0.003 C 
ATOM      9  C   UNL     1      14.298  52.882  35.162  1.00  0.00    -0.011 C 
ATOM     10  C   UNL     1      13.008  56.875  31.904  1.00  0.00    -0.006 C 
ATOM     11  C   UNL     1      15.117  55.661  31.614  1.00  0.00    -0.027 C 
ATOM     12  C   UNL     1      15.525  52.952  32.925  1.00  0.00     0.008 C 
ATOM     13  C   UNL     1      14.702  51.407  35.353  1.00  0.00     0.008 C 
ATOM     14  C   UNL     1      13.704  58.198  32.355  1.00  0.00     0.017 C 
ATOM     15  C   UNL     1      12.787  56.822  30.306  1.00  0.00    -0.020 C 
ATOM     16  C   UNL     1      15.417  56.426  30.349  1.00  0.00     0.032 C 
ATOM     17  C   UNL     1      14.181  56.897  29.506  1.00  0.00     0.006 C 
ATOM     18  C   UNL     1      11.732  57.868  29.801  1.00  0.00     0.008 C 
ATOM     19  C   UNL     1      12.149  55.426  29.948  1.00  0.00     0.012 C 
ATOM     20  C   UNL     1      14.518  58.144  28.532  1.00  0.00    -0.025 C 
ATOM     21  C   UNL     1      12.278  59.124  29.148  1.00  0.00     0.005 C 
ATOM     22  C   UNL     1      13.204  58.787  27.950  1.00  0.00     0.003 C 
ATOM     23  C   UNL     1      15.371  59.264  29.234  1.00  0.00     0.010 C 
ATOM     24  C   UNL     1      15.382  57.542  27.373  1.00  0.00     0.012 C 
ATOM     25  C   UNL     1      13.440  60.023  26.944  1.00  0.00    -0.006 C 
ATOM     26  C   UNL     1      15.176  60.709  28.725  1.00  0.00     0.033 C 
ATOM     27  C   UNL     1      14.784  60.788  27.245  1.00  0.00     0.120 C 
ATOM     28  C   UNL     1      12.251  61.029  26.961  1.00  0.00     0.014 C 
ATOM     29  C   UNL     1      13.489  59.504  25.480  1.00  0.00     0.014 C 
ENDROOT
BRANCH   1  30
ATOM     30  C   UNL     1      11.293  54.046  33.543  1.00  0.00     0.048 C 
ATOM     31  O   UNL     1      11.557  53.444  32.470  1.00  0.00    -0.550 OA
ATOM     32  O   UNL     1      10.004  53.959  34.056  1.00  0.00    -0.550 OA
ENDBRANCH   1  30
BRANCH  27  33
ATOM     33  O   UNL     1      14.756  62.125  26.800  1.00  0.00    -0.393 OA
ATOM     34  H   UNL     1      15.633  62.546  26.995  1.00  0.00     0.210 HD
ENDBRANCH  27  33
TORSDOF 2
ENDMDL
MODEL 4
REMARK VINA RESULT:    -6.167      1.829      8.251
REMARK INTER + INTRA:          -6.510
REMARK INTER:                  -6.732
REMARK INTRA:                   0.222
REMARK UNBOUND:                 0.197
REMARK SMILES C[C@H]1[C@H](C)CC[C@@]2(C(=O)[O-])CC[C@@]3(C)C(=CC[C@@H]4[C@]5(C)CC[C@H](O)C(C)(C)[C@@H]5CC[C@@]43C)[C@H]12
REMARK SMILES IDX 7 1 6 2 11 3 33 4 5 5 12 6 15 7 2 8 3 9 13 10 16 11 1 12
REMARK SMILES IDX 4 13 14 14 31 15 17 16 18 17 30 18 32 19 19 20 29 21 28 22
REMARK SMILES IDX 21 23 20 24 25 25 22 26 23 27 26 28 27 29 8 30 9 31 10 32
REMARK SMILES IDX 24 33
REMARK H PARENT 24 34
REMARK Flexibility Score: inf
ROOT
ATOM      1  C   UNL     1      13.491  52.114  31.099  1.00  0.00     0.017 C 
ATOM      2  C   UNL     1      13.776  50.603  31.311  1.00  0.00     0.014 C 
ATOM      3  C   UNL     1      13.595  52.813  32.459  1.00  0.00     0.014 C 
ATOM      4  C   UNL     1      14.585  52.668  30.110  1.00  0.00     0.030 C 
ATOM      5  C   UNL     1      13.685  49.816  29.999  1.00  0.00     0.004 C 
ATOM      6  C   UNL     1      13.316  54.313  32.332  1.00  0.00     0.013 C 
ATOM      7  C   UNL     1      14.768  54.220  30.182  1.00  0.00    -0.063 C 
ATOM      8  C   UNL     1      14.374  51.930  28.706  1.00  0.00    -0.003 C 
ATOM      9  C   UNL     1      14.613  50.391  28.909  1.00  0.00    -0.011 C 
ATOM     10  C   UNL     1      14.329  55.072  31.404  1.00  0.00    -0.006 C 
ATOM     11  C   UNL     1      15.632  54.836  29.342  1.00  0.00    -0.027 C 
ATOM     12  C   UNL     1      15.202  52.448  27.516  1.00  0.00     0.008 C 
ATOM     13  C   UNL     1      14.416  49.561  27.624  1.00  0.00     0.008 C 
ATOM     14  C   UNL     1      15.586  55.291  32.304  1.00  0.00     0.017 C 
ATOM     15  C   UNL     1      13.737  56.465  30.841  1.00  0.00    -0.020 C 
ATOM     16  C   UNL     1      15.911  56.318  29.314  1.00  0.00     0.032 C 
ATOM     17  C   UNL     1      14.812  57.249  29.936  1.00  0.00     0.006 C 
ATOM     18  C   UNL     1      13.112  57.361  31.966  1.00  0.00     0.008 C 
ATOM     19  C   UNL     1      12.524  56.131  29.891  1.00  0.00     0.012 C 
ATOM     20  C   UNL     1      15.388  58.692  30.387  1.00  0.00    -0.025 C 
ATOM     21  C   UNL     1      13.950  58.528  32.451  1.00  0.00     0.005 C 
ATOM     22  C   UNL     1      14.350  59.467  31.283  1.00  0.00     0.003 C 
ATOM     23  C   UNL     1      16.760  58.599  31.150  1.00  0.00     0.010 C 
ATOM     24  C   UNL     1      15.636  59.473  29.053  1.00  0.00     0.012 C 
ATOM     25  C   UNL     1      14.825  60.931  31.760  1.00  0.00    -0.006 C 
ATOM     26  C   UNL     1      17.054  59.704  32.188  1.00  0.00     0.033 C 
ATOM     27  C   UNL     1      16.393  61.047  31.855  1.00  0.00     0.120 C 
ATOM     28  C   UNL     1      14.187  61.341  33.120  1.00  0.00     0.014 C 
ATOM     29  C   UNL     1      14.315  61.999  30.753  1.00  0.00     0.014 C 
ENDROOT
BRANCH   1  30
ATOM     30  C   UNL     1      12.050  52.280  30.603  1.00  0.00     0.048 C 
ATOM     31  O   UNL     1      11.079  51.811  31.252  1.00  0.00    -0.550 OA
ATOM     32  O   UNL     1      11.803  52.870  29.369  1.00  0.00    -0.550 OA
ENDBRANCH   1  30
BRANCH  27  33
ATOM     33  O   UNL     1      16.806  62.051  32.755  1.00  0.00    -0.393 OA
ATOM     34  H   UNL     1      16.003  62.513  33.110  1.00  0.00     0.210 HD
ENDBRANCH  27  33
TORSDOF 2
ENDMDL
MODEL 5
REMARK VINA RESULT:    -6.006      2.314      7.813
REMARK INTER + INTRA:          -6.335
REMARK INTER:                  -6.550
REMARK INTRA:                   0.215
REMARK UNBOUND:                 0.197
REMARK SMILES C[C@H]1[C@H](C)CC[C@@]2(C(=O)[O-])CC[C@@]3(C)C(=CC[C@@H]4[C@]5(C)CC[C@H](O)C(C)(C)[C@@H]5CC[C@@]43C)[C@H]12
REMARK SMILES IDX 7 1 6 2 11 3 33 4 5 5 12 6 15 7 2 8 3 9 13 10 16 11 1 12
REMARK SMILES IDX 4 13 14 14 31 15 17 16 18 17 30 18 32 19 19 20 29 21 28 22
REMARK SMILES IDX 21 23 20 24 25 25 22 26 23 27 26 28 27 29 8 30 9 31 10 32
REMARK SMILES IDX 24 33
REMARK H PARENT 24 34
REMARK Flexibility Score: inf
ROOT
ATOM      1  C   UNL     1      15.161  53.395  33.308  1.00  0.00     0.017 C 
ATOM      2  C   UNL     1      16.068  52.264  33.863  1.00  0.00     0.014 C 
ATOM      3  C   UNL     1      15.838  54.737  33.605  1.00  0.00     0.014 C 
ATOM      4  C   UNL     1      15.031  53.176  31.752  1.00  0.00     0.030 C 
ATOM      5  C   UNL     1      15.465  50.877  33.618  1.00  0.00     0.004 C 
ATOM      6  C   UNL     1      14.994  55.907  33.093  1.00  0.00     0.013 C 
ATOM      7  C   UNL     1      14.601  54.462  30.972  1.00  0.00    -0.063 C 
ATOM      8  C   UNL     1      14.271  51.787  31.529  1.00  0.00    -0.003 C 
ATOM      9  C   UNL     1      15.151  50.632  32.127  1.00  0.00    -0.011 C 
ATOM     10  C   UNL     1      14.771  55.897  31.539  1.00  0.00    -0.006 C 
ATOM     11  C   UNL     1      14.391  54.400  29.637  1.00  0.00    -0.027 C 
ATOM     12  C   UNL     1      13.849  51.447  30.088  1.00  0.00     0.008 C 
ATOM     13  C   UNL     1      14.512  49.235  31.993  1.00  0.00     0.008 C 
ATOM     14  C   UNL     1      16.097  56.482  30.957  1.00  0.00     0.017 C 
ATOM     15  C   UNL     1      13.481  56.757  31.088  1.00  0.00    -0.020 C 
ATOM     16  C   UNL     1      13.987  55.563  28.765  1.00  0.00     0.032 C 
ATOM     17  C   UNL     1      13.304  56.776  29.489  1.00  0.00     0.006 C 
ATOM     18  C   UNL     1      13.449  58.190  31.726  1.00  0.00     0.008 C 
ATOM     19  C   UNL     1      12.196  56.047  31.663  1.00  0.00     0.012 C 
ATOM     20  C   UNL     1      13.419  58.157  28.653  1.00  0.00    -0.025 C 
ATOM     21  C   UNL     1      13.865  59.342  30.832  1.00  0.00     0.005 C 
ATOM     22  C   UNL     1      13.014  59.395  29.537  1.00  0.00     0.003 C 
ATOM     23  C   UNL     1      14.852  58.399  28.053  1.00  0.00     0.010 C 
ATOM     24  C   UNL     1      12.421  58.000  27.457  1.00  0.00     0.012 C 
ATOM     25  C   UNL     1      13.071  60.817  28.781  1.00  0.00    -0.006 C 
ATOM     26  C   UNL     1      15.291  59.868  27.870  1.00  0.00     0.033 C 
ATOM     27  C   UNL     1      14.123  60.826  27.608  1.00  0.00     0.120 C 
ATOM     28  C   UNL     1      13.370  61.991  29.760  1.00  0.00     0.014 C 
ATOM     29  C   UNL     1      11.674  61.150  28.188  1.00  0.00     0.014 C 
ENDROOT
BRANCH   1  30
ATOM     30  C   UNL     1      13.827  53.372  34.061  1.00  0.00     0.048 C 
ATOM     31  O   UNL     1      12.730  53.372  33.444  1.00  0.00    -0.550 OA
ATOM     32  O   UNL     1      13.809  53.452  35.449  1.00  0.00    -0.550 OA
ENDBRANCH   1  30
BRANCH  27  33
ATOM     33  O   UNL     1      14.589  62.123  27.311  1.00  0.00    -0.393 OA
ATOM     34  H   UNL     1      15.373  62.051  26.707  1.00  0.00     0.210 HD
ENDBRANCH  27  33
TORSDOF 2
ENDMDL
MODEL 6
REMARK VINA RESULT:    -5.963      3.431      9.964
REMARK INTER + INTRA:          -6.288
REMARK INTER:                  -6.512
REMARK INTRA:                   0.224
REMARK UNBOUND:                 0.197
REMARK SMILES C[C@H]1[C@H](C)CC[C@@]2(C(=O)[O-])CC[C@@]3(C)C(=CC[C@@H]4[C@]5(C)CC[C@H](O)C(C)(C)[C@@H]5CC[C@@]43C)[C@H]12
REMARK SMILES IDX 7 1 6 2 11 3 33 4 5 5 12 6 15 7 2 8 3 9 13 10 16 11 1 12
REMARK SMILES IDX 4 13 14 14 31 15 17 16 18 17 30 18 32 19 19 20 29 21 28 22
REMARK SMILES IDX 21 23 20 24 25 25 22 26 23 27 26 28 27 29 8 30 9 31 10 32
REMARK SMILES IDX 24 33
REMARK H PARENT 24 34
REMARK Flexibility Score: inf
ROOT
ATOM      1  C   UNL     1      15.782  47.195  28.252  1.00  0.00     0.017 C 
ATOM      2  C   UNL     1      16.371  46.463  27.017  1.00  0.00     0.014 C 
ATOM      3  C   UNL     1      16.880  48.083  28.847  1.00  0.00     0.014 C 
ATOM      4  C   UNL     1      14.575  48.075  27.749  1.00  0.00     0.030 C 
ATOM      5  C   UNL     1      15.341  45.540  26.356  1.00  0.00     0.004 C 
ATOM      6  C   UNL     1      16.374  48.834  30.081  1.00  0.00     0.013 C 
ATOM      7  C   UNL     1      14.200  49.240  28.722  1.00  0.00    -0.063 C 
ATOM      8  C   UNL     1      13.456  47.075  27.195  1.00  0.00    -0.003 C 
ATOM      9  C   UNL     1      14.048  46.288  25.971  1.00  0.00    -0.011 C 
ATOM     10  C   UNL     1      15.178  49.807  29.787  1.00  0.00    -0.006 C 
ATOM     11  C   UNL     1      13.142  50.036  28.444  1.00  0.00    -0.027 C 
ATOM     12  C   UNL     1      12.093  47.689  26.827  1.00  0.00     0.008 C 
ATOM     13  C   UNL     1      13.067  45.269  25.359  1.00  0.00     0.008 C 
ATOM     14  C   UNL     1      15.855  51.077  29.180  1.00  0.00     0.017 C 
ATOM     15  C   UNL     1      14.316  50.153  31.108  1.00  0.00    -0.020 C 
ATOM     16  C   UNL     1      12.681  51.198  29.288  1.00  0.00     0.032 C 
ATOM     17  C   UNL     1      13.129  51.192  30.791  1.00  0.00     0.006 C 
ATOM     18  C   UNL     1      15.208  50.591  32.322  1.00  0.00     0.008 C 
ATOM     19  C   UNL     1      13.619  48.826  31.597  1.00  0.00     0.012 C 
ATOM     20  C   UNL     1      13.107  52.664  31.463  1.00  0.00    -0.025 C 
ATOM     21  C   UNL     1      15.268  52.077  32.620  1.00  0.00     0.005 C 
ATOM     22  C   UNL     1      13.854  52.670  32.849  1.00  0.00     0.003 C 
ATOM     23  C   UNL     1      13.726  53.775  30.539  1.00  0.00     0.010 C 
ATOM     24  C   UNL     1      11.591  53.003  31.667  1.00  0.00     0.012 C 
ATOM     25  C   UNL     1      13.861  54.091  33.610  1.00  0.00    -0.006 C 
ATOM     26  C   UNL     1      14.386  54.979  31.245  1.00  0.00     0.033 C 
ATOM     27  C   UNL     1      13.765  55.303  32.609  1.00  0.00     0.120 C 
ATOM     28  C   UNL     1      15.113  54.263  34.521  1.00  0.00     0.014 C 
ATOM     29  C   UNL     1      12.655  54.166  34.587  1.00  0.00     0.014 C 
ENDROOT
BRANCH   1  30
ATOM     30  C   UNL     1      15.404  46.153  29.310  1.00  0.00     0.048 C 
ATOM     31  O   UNL     1      16.236  45.295  29.706  1.00  0.00    -0.550 OA
ATOM     32  O   UNL     1      14.098  46.079  29.779  1.00  0.00    -0.550 OA
ENDBRANCH   1  30
BRANCH  27  33
ATOM     33  O   UNL     1      14.309  56.489  33.143  1.00  0.00    -0.393 OA
ATOM     34  H   UNL     1      13.655  57.225  33.020  1.00  0.00     0.210 HD
ENDBRANCH  27  33
TORSDOF 2
ENDMDL
MODEL 7
REMARK VINA RESULT:    -5.911      3.652      6.712
REMARK INTER + INTRA:          -6.232
REMARK INTER:                  -6.428
REMARK INTRA:                   0.196
REMARK UNBOUND:                 0.197
REMARK SMILES C[C@H]1[C@H](C)CC[C@@]2(C(=O)[O-])CC[C@@]3(C)C(=CC[C@@H]4[C@]5(C)CC[C@H](O)C(C)(C)[C@@H]5CC[C@@]43C)[C@H]12
REMARK SMILES IDX 7 1 6 2 11 3 33 4 5 5 12 6 15 7 2 8 3 9 13 10 16 11 1 12
REMARK SMILES IDX 4 13 14 14 31 15 17 16 18 17 30 18 32 19 19 20 29 21 28 22
REMARK SMILES IDX 21 23 20 24 25 25 22 26 23 27 26 28 27 29 8 30 9 31 10 32
REMARK SMILES IDX 24 33
REMARK H PARENT 24 34
REMARK Flexibility Score: inf
ROOT
ATOM      1  C   UNL     1      14.199  53.570  30.801  1.00  0.00     0.017 C 
ATOM      2  C   UNL     1      14.716  54.981  31.189  1.00  0.00     0.014 C 
ATOM      3  C   UNL     1      14.393  53.390  29.292  1.00  0.00     0.014 C 
ATOM      4  C   UNL     1      15.059  52.516  31.597  1.00  0.00     0.030 C 
ATOM      5  C   UNL     1      14.554  55.256  32.687  1.00  0.00     0.004 C 
ATOM      6  C   UNL     1      13.895  52.018  28.831  1.00  0.00     0.013 C 
ATOM      7  C   UNL     1      15.034  51.084  30.968  1.00  0.00    -0.063 C 
ATOM      8  C   UNL     1      14.759  52.735  33.153  1.00  0.00    -0.003 C 
ATOM      9  C   UNL     1      15.233  54.177  33.556  1.00  0.00    -0.011 C 
ATOM     10  C   UNL     1      14.655  50.812  29.487  1.00  0.00    -0.006 C 
ATOM     11  C   UNL     1      15.679  50.066  31.585  1.00  0.00    -0.027 C 
ATOM     12  C   UNL     1      15.334  51.691  34.127  1.00  0.00     0.008 C 
ATOM     13  C   UNL     1      14.977  54.520  35.037  1.00  0.00     0.008 C 
ATOM     14  C   UNL     1      15.982  50.703  28.671  1.00  0.00     0.017 C 
ATOM     15  C   UNL     1      13.804  49.440  29.444  1.00  0.00    -0.020 C 
ATOM     16  C   UNL     1      15.744  48.646  31.082  1.00  0.00     0.032 C 
ATOM     17  C   UNL     1      14.625  48.207  30.075  1.00  0.00     0.006 C 
ATOM     18  C   UNL     1      13.223  49.126  28.021  1.00  0.00     0.008 C 
ATOM     19  C   UNL     1      12.529  49.628  30.351  1.00  0.00     0.012 C 
ATOM     20  C   UNL     1      15.053  46.939  29.167  1.00  0.00    -0.025 C 
ATOM     21  C   UNL     1      13.951  48.075  27.205  1.00  0.00     0.005 C 
ATOM     22  C   UNL     1      14.053  46.729  27.969  1.00  0.00     0.003 C 
ATOM     23  C   UNL     1      16.517  47.047  28.603  1.00  0.00     0.010 C 
ATOM     24  C   UNL     1      15.003  45.705  30.131  1.00  0.00     0.012 C 
ATOM     25  C   UNL     1      14.382  45.468  27.021  1.00  0.00    -0.006 C 
ATOM     26  C   UNL     1      16.797  46.347  27.255  1.00  0.00     0.033 C 
ATOM     27  C   UNL     1      15.917  45.115  27.013  1.00  0.00     0.120 C 
ATOM     28  C   UNL     1      13.888  45.687  25.560  1.00  0.00     0.014 C 
ATOM     29  C   UNL     1      13.595  44.223  27.516  1.00  0.00     0.014 C 
ENDROOT
BRANCH   1  30
ATOM     30  C   UNL     1      12.695  53.500  31.086  1.00  0.00     0.048 C 
ATOM     31  O   UNL     1      12.216  52.623  31.851  1.00  0.00    -0.550 OA
ATOM     32  O   UNL     1      11.820  54.351  30.420  1.00  0.00    -0.550 OA
ENDBRANCH   1  30
BRANCH  27  33
ATOM     33  O   UNL     1      16.308  44.437  25.840  1.00  0.00    -0.393 OA
ATOM     34  H   UNL     1      16.489  43.487  26.064  1.00  0.00     0.210 HD
ENDBRANCH  27  33
TORSDOF 2
ENDMDL
MODEL 8
REMARK VINA RESULT:    -5.849      3.140      5.948
REMARK INTER + INTRA:          -6.164
REMARK INTER:                  -6.357
REMARK INTRA:                   0.193
REMARK UNBOUND:                 0.197
REMARK SMILES C[C@H]1[C@H](C)CC[C@@]2(C(=O)[O-])CC[C@@]3(C)C(=CC[C@@H]4[C@]5(C)CC[C@H](O)C(C)(C)[C@@H]5CC[C@@]43C)[C@H]12
REMARK SMILES IDX 7 1 6 2 11 3 33 4 5 5 12 6 15 7 2 8 3 9 13 10 16 11 1 12
REMARK SMILES IDX 4 13 14 14 31 15 17 16 18 17 30 18 32 19 19 20 29 21 28 22
REMARK SMILES IDX 21 23 20 24 25 25 22 26 23 27 26 28 27 29 8 30 9 31 10 32
REMARK SMILES IDX 24 33
REMARK H PARENT 24 34
REMARK Flexibility Score: inf
ROOT
ATOM      1  C   UNL     1      14.707  53.995  29.636  1.00  0.00     0.017 C 
ATOM      2  C   UNL     1      15.540  55.296  29.488  1.00  0.00     0.014 C 
ATOM      3  C   UNL     1      15.027  53.087  28.443  1.00  0.00     0.014 C 
ATOM      4  C   UNL     1      15.143  53.306  30.985  1.00  0.00     0.030 C 
ATOM      5  C   UNL     1      15.278  56.274  30.638  1.00  0.00     0.004 C 
ATOM      6  C   UNL     1      14.232  51.781  28.515  1.00  0.00     0.013 C 
ATOM      7  C   UNL     1      14.805  51.780  31.047  1.00  0.00    -0.063 C 
ATOM      8  C   UNL     1      14.728  54.288  32.177  1.00  0.00    -0.003 C 
ATOM      9  C   UNL     1      15.526  55.632  32.019  1.00  0.00    -0.011 C 
ATOM     10  C   UNL     1      14.548  50.913  29.784  1.00  0.00    -0.006 C 
ATOM     11  C   UNL     1      15.068  51.077  32.173  1.00  0.00    -0.027 C 
ATOM     12  C   UNL     1      14.873  53.746  33.610  1.00  0.00     0.008 C 
ATOM     13  C   UNL     1      15.195  56.678  33.102  1.00  0.00     0.008 C 
ATOM     14  C   UNL     1      15.884  50.186  29.430  1.00  0.00     0.017 C 
ATOM     15  C   UNL     1      13.367  49.871  30.138  1.00  0.00    -0.020 C 
ATOM     16  C   UNL     1      14.803  49.604  32.362  1.00  0.00     0.032 C 
ATOM     17  C   UNL     1      13.737  48.957  31.410  1.00  0.00     0.006 C 
ATOM     18  C   UNL     1      12.899  49.034  28.897  1.00  0.00     0.008 C 
ATOM     19  C   UNL     1      12.091  50.700  30.550  1.00  0.00     0.012 C 
ATOM     20  C   UNL     1      13.908  47.355  31.265  1.00  0.00    -0.025 C 
ATOM     21  C   UNL     1      13.406  47.607  28.808  1.00  0.00     0.005 C 
ATOM     22  C   UNL     1      13.042  46.793  30.076  1.00  0.00     0.003 C 
ATOM     23  C   UNL     1      15.404  46.909  31.069  1.00  0.00     0.010 C 
ATOM     24  C   UNL     1      13.407  46.761  32.624  1.00  0.00     0.012 C 
ATOM     25  C   UNL     1      13.127  45.197  29.870  1.00  0.00    -0.006 C 
ATOM     26  C   UNL     1      15.643  45.614  30.262  1.00  0.00     0.033 C 
ATOM     27  C   UNL     1      14.496  44.603  30.374  1.00  0.00     0.120 C 
ATOM     28  C   UNL     1      12.893  44.783  28.386  1.00  0.00     0.014 C 
ATOM     29  C   UNL     1      11.976  44.507  30.653  1.00  0.00     0.014 C 
ENDROOT
BRANCH   1  30
ATOM     30  C   UNL     1      13.219  54.350  29.562  1.00  0.00     0.048 C 
ATOM     31  O   UNL     1      12.428  54.040  30.491  1.00  0.00    -0.550 OA
ATOM     32  O   UNL     1      12.699  54.936  28.414  1.00  0.00    -0.550 OA
ENDBRANCH   1  30
BRANCH  27  33
ATOM     33  O   UNL     1      14.827  43.390  29.735  1.00  0.00    -0.393 OA
ATOM     34  H   UNL     1      15.001  43.571  28.775  1.00  0.00     0.210 HD
ENDBRANCH  27  33
TORSDOF 2
ENDMDL
MODEL 9
REMARK VINA RESULT:    -5.790      3.635      6.006
REMARK INTER + INTRA:          -6.101
REMARK INTER:                  -6.299
REMARK INTRA:                   0.198
REMARK UNBOUND:                 0.197
REMARK SMILES C[C@H]1[C@H](C)CC[C@@]2(C(=O)[O-])CC[C@@]3(C)C(=CC[C@@H]4[C@]5(C)CC[C@H](O)C(C)(C)[C@@H]5CC[C@@]43C)[C@H]12
REMARK SMILES IDX 7 1 6 2 11 3 33 4 5 5 12 6 15 7 2 8 3 9 13 10 16 11 1 12
REMARK SMILES IDX 4 13 14 14 31 15 17 16 18 17 30 18 32 19 19 20 29 21 28 22
REMARK SMILES IDX 21 23 20 24 25 25 22 26 23 27 26 28 27 29 8 30 9 31 10 32
REMARK SMILES IDX 24 33
REMARK H PARENT 24 34
REMARK Flexibility Score: inf
ROOT
ATOM      1  C   UNL     1      12.580  54.079  30.039  1.00  0.00     0.017 C 
ATOM      2  C   UNL     1      12.716  55.624  30.063  1.00  0.00     0.014 C 
ATOM      3  C   UNL     1      13.168  53.569  28.719  1.00  0.00     0.014 C 
ATOM      4  C   UNL     1      13.399  53.513  31.262  1.00  0.00     0.030 C 
ATOM      5  C   UNL     1      12.143  56.228  31.350  1.00  0.00     0.004 C 
ATOM      6  C   UNL     1      13.061  52.045  28.619  1.00  0.00     0.013 C 
ATOM      7  C   UNL     1      13.795  52.008  31.109  1.00  0.00    -0.063 C 
ATOM      8  C   UNL     1      12.692  54.045  32.595  1.00  0.00    -0.003 C 
ATOM      9  C   UNL     1      12.777  55.614  32.615  1.00  0.00    -0.011 C 
ATOM     10  C   UNL     1      13.847  51.278  29.739  1.00  0.00    -0.006 C 
ATOM     11  C   UNL     1      14.447  51.378  32.113  1.00  0.00    -0.027 C 
ATOM     12  C   UNL     1      13.194  53.465  33.929  1.00  0.00     0.008 C 
ATOM     13  C   UNL     1      12.106  56.253  33.847  1.00  0.00     0.008 C 
ATOM     14  C   UNL     1      15.330  51.295  29.250  1.00  0.00     0.017 C 
ATOM     15  C   UNL     1      13.303  49.774  29.966  1.00  0.00    -0.020 C 
ATOM     16  C   UNL     1      14.896  49.938  32.091  1.00  0.00     0.032 C 
ATOM     17  C   UNL     1      14.158  48.991  31.082  1.00  0.00     0.006 C 
ATOM     18  C   UNL     1      13.156  48.970  28.627  1.00  0.00     0.008 C 
ATOM     19  C   UNL     1      11.832  49.867  30.526  1.00  0.00     0.012 C 
ATOM     20  C   UNL     1      15.023  47.678  30.699  1.00  0.00    -0.025 C 
ATOM     21  C   UNL     1      14.244  47.959  28.319  1.00  0.00     0.005 C 
ATOM     22  C   UNL     1      14.403  46.925  29.463  1.00  0.00     0.003 C 
ATOM     23  C   UNL     1      16.534  47.998  30.404  1.00  0.00     0.010 C 
ATOM     24  C   UNL     1      14.969  46.763  31.969  1.00  0.00     0.012 C 
ATOM     25  C   UNL     1      15.183  45.585  29.023  1.00  0.00    -0.006 C 
ATOM     26  C   UNL     1      17.260  47.065  29.410  1.00  0.00     0.033 C 
ATOM     27  C   UNL     1      16.711  45.634  29.402  1.00  0.00     0.120 C 
ATOM     28  C   UNL     1      15.030  45.289  27.502  1.00  0.00     0.014 C 
ATOM     29  C   UNL     1      14.544  44.355  29.726  1.00  0.00     0.014 C 
ENDROOT
BRANCH   1  30
ATOM     30  C   UNL     1      11.092  53.714  30.055  1.00  0.00     0.048 C 
ATOM     31  O   UNL     1      10.614  52.964  30.945  1.00  0.00    -0.550 OA
ATOM     32  O   UNL     1      10.262  54.130  29.020  1.00  0.00    -0.550 OA
ENDBRANCH   1  30
BRANCH  27  33
ATOM     33  O   UNL     1      17.497  44.795  28.584  1.00  0.00    -0.393 OA
ATOM     34  H   UNL     1      16.948  44.017  28.303  1.00  0.00     0.210 HD
ENDBRANCH  27  33
TORSDOF 2
ENDMDL
