MODEL 1
REMARK VINA RESULT:    -4.277      0.000      0.000
REMARK INTER + INTRA:          -5.227
REMARK INTER:                  -4.902
REMARK INTRA:                  -0.325
REMARK UNBOUND:                -0.325
REMARK SMILES COc1ccc(C(C)=O)c(O)c1
REMARK SMILES IDX 6 1 10 2 12 3 3 4 4 5 5 6 7 7 8 8 9 9 11 10 2 12 1 13
REMARK H PARENT 11 11
REMARK Flexibility Score: inf
ROOT
ATOM      1  C   UNL     1     -23.167  25.783   9.345  1.00  0.00     0.059 A 
ATOM      2  C   UNL     1     -22.354  24.629   9.249  1.00  0.00     0.130 A 
ATOM      3  C   UNL     1     -21.871  24.012  10.413  1.00  0.00     0.093 A 
ATOM      4  C   UNL     1     -22.178  24.522  11.677  1.00  0.00     0.122 A 
ATOM      5  C   UNL     1     -22.982  25.669  11.775  1.00  0.00     0.047 A 
ATOM      6  C   UNL     1     -23.469  26.290  10.624  1.00  0.00     0.019 A 
ENDROOT
BRANCH   1   7
ATOM      7  C   UNL     1     -23.702  26.455   8.125  1.00  0.00     0.163 C 
ATOM      8  C   UNL     1     -23.789  27.948   8.020  1.00  0.00     0.093 C 
ATOM      9  O   UNL     1     -24.125  25.766   7.157  1.00  0.00    -0.294 OA
ENDBRANCH   1   7
BRANCH   2  10
ATOM     10  O   UNL     1     -22.013  24.099   8.005  1.00  0.00    -0.507 OA
ATOM     11  H   UNL     1     -22.255  24.570   7.141  1.00  0.00     0.293 HD
ENDBRANCH   2  10
BRANCH   4  12
ATOM     12  O   UNL     1     -21.666  23.862  12.805  1.00  0.00    -0.497 OA
ATOM     13  C   UNL     1     -20.336  24.009  13.287  1.00  0.00     0.278 C 
ENDBRANCH   4  12
TORSDOF 3
ENDMDL
MODEL 2
REMARK VINA RESULT:    -3.964      1.834      2.208
REMARK INTER + INTRA:          -4.868
REMARK INTER:                  -4.580
REMARK INTRA:                  -0.288
REMARK UNBOUND:                -0.325
REMARK SMILES COc1ccc(C(C)=O)c(O)c1
REMARK SMILES IDX 6 1 10 2 12 3 3 4 4 5 5 6 7 7 8 8 9 9 11 10 2 12 1 13
REMARK H PARENT 11 11
REMARK Flexibility Score: inf
ROOT
ATOM      1  C   UNL     1     -23.696  25.641   9.018  1.00  0.00     0.059 A 
ATOM      2  C   UNL     1     -23.006  26.039  10.186  1.00  0.00     0.130 A 
ATOM      3  C   UNL     1     -22.728  25.102  11.192  1.00  0.00     0.093 A 
ATOM      4  C   UNL     1     -23.127  23.769  11.061  1.00  0.00     0.122 A 
ATOM      5  C   UNL     1     -23.816  23.371   9.904  1.00  0.00     0.047 A 
ATOM      6  C   UNL     1     -24.096  24.296   8.896  1.00  0.00     0.019 A 
ENDROOT
BRANCH   1   7
ATOM      7  C   UNL     1     -23.996  26.615   7.928  1.00  0.00     0.163 C 
ATOM      8  C   UNL     1     -24.125  26.183   6.498  1.00  0.00     0.093 C 
ATOM      9  O   UNL     1     -24.121  27.842   8.191  1.00  0.00    -0.294 OA
ENDBRANCH   1   7
BRANCH   2  10
ATOM     10  O   UNL     1     -22.604  27.364  10.360  1.00  0.00    -0.507 OA
ATOM     11  H   UNL     1     -23.016  28.120   9.826  1.00  0.00     0.293 HD
ENDBRANCH   2  10
BRANCH   4  12
ATOM     12  O   UNL     1     -22.822  22.876  12.101  1.00  0.00    -0.497 OA
ATOM     13  C   UNL     1     -21.867  23.131  13.124  1.00  0.00     0.278 C 
ENDBRANCH   4  12
TORSDOF 3
ENDMDL
MODEL 3
REMARK VINA RESULT:    -3.588      3.229      7.572
REMARK INTER + INTRA:          -4.436
REMARK INTER:                  -4.099
REMARK INTRA:                  -0.338
REMARK UNBOUND:                -0.325
REMARK SMILES COc1ccc(C(C)=O)c(O)c1
REMARK SMILES IDX 6 1 10 2 12 3 3 4 4 5 5 6 7 7 8 8 9 9 11 10 2 12 1 13
REMARK H PARENT 11 11
REMARK Flexibility Score: inf
ROOT
ATOM      1  C   UNL     1     -20.158  23.627  16.164  1.00  0.00     0.059 A 
ATOM      2  C   UNL     1     -21.477  23.246  15.824  1.00  0.00     0.130 A 
ATOM      3  C   UNL     1     -21.885  23.250  14.482  1.00  0.00     0.093 A 
ATOM      4  C   UNL     1     -21.006  23.629  13.465  1.00  0.00     0.122 A 
ATOM      5  C   UNL     1     -19.697  24.011  13.799  1.00  0.00     0.047 A 
ATOM      6  C   UNL     1     -19.280  24.010  15.131  1.00  0.00     0.019 A 
ENDROOT
BRANCH   1   7
ATOM      7  C   UNL     1     -19.694  23.624  17.582  1.00  0.00     0.163 C 
ATOM      8  C   UNL     1     -18.455  22.892  18.004  1.00  0.00     0.093 C 
ATOM      9  O   UNL     1     -20.362  24.222  18.469  1.00  0.00    -0.294 OA
ENDBRANCH   1   7
BRANCH   2  10
ATOM     10  O   UNL     1     -22.389  22.875  16.813  1.00  0.00    -0.507 OA
ATOM     11  H   UNL     1     -22.124  22.822  17.789  1.00  0.00     0.293 HD
ENDBRANCH   2  10
BRANCH   4  12
ATOM     12  O   UNL     1     -21.471  23.613  12.140  1.00  0.00    -0.497 OA
ATOM     13  C   UNL     1     -22.285  24.627  11.562  1.00  0.00     0.278 C 
ENDBRANCH   4  12
TORSDOF 3
ENDMDL
MODEL 4
REMARK VINA RESULT:    -3.540      2.797      5.044
REMARK INTER + INTRA:          -4.382
REMARK INTER:                  -4.072
REMARK INTRA:                  -0.311
REMARK UNBOUND:                -0.325
REMARK SMILES COc1ccc(C(C)=O)c(O)c1
REMARK SMILES IDX 6 1 10 2 12 3 3 4 4 5 5 6 7 7 8 8 9 9 11 10 2 12 1 13
REMARK H PARENT 11 11
REMARK Flexibility Score: inf
ROOT
ATOM      1  C   UNL     1     -21.472  23.793  13.215  1.00  0.00     0.059 A 
ATOM      2  C   UNL     1     -22.069  23.305  14.402  1.00  0.00     0.130 A 
ATOM      3  C   UNL     1     -21.315  23.213  15.581  1.00  0.00     0.093 A 
ATOM      4  C   UNL     1     -19.971  23.594  15.606  1.00  0.00     0.122 A 
ATOM      5  C   UNL     1     -19.374  24.075  14.430  1.00  0.00     0.047 A 
ATOM      6  C   UNL     1     -20.116  24.173  13.251  1.00  0.00     0.019 A 
ENDROOT
BRANCH   1   7
ATOM      7  C   UNL     1     -22.252  23.911  11.949  1.00  0.00     0.163 C 
ATOM      8  C   UNL     1     -22.621  25.246  11.372  1.00  0.00     0.093 C 
ATOM      9  O   UNL     1     -22.646  22.875  11.348  1.00  0.00    -0.294 OA
ENDBRANCH   1   7
BRANCH   2  10
ATOM     10  O   UNL     1     -23.404  22.901  14.413  1.00  0.00    -0.507 OA
ATOM     11  H   UNL     1     -23.685  21.981  14.097  1.00  0.00     0.293 HD
ENDBRANCH   2  10
BRANCH   4  12
ATOM     12  O   UNL     1     -19.268  23.479  16.815  1.00  0.00    -0.497 OA
ATOM     13  C   UNL     1     -19.813  23.781  18.094  1.00  0.00     0.278 C 
ENDBRANCH   4  12
TORSDOF 3
ENDMDL
MODEL 5
REMARK VINA RESULT:    -3.418      2.112      2.757
REMARK INTER + INTRA:          -4.242
REMARK INTER:                  -4.001
REMARK INTRA:                  -0.242
REMARK UNBOUND:                -0.325
REMARK SMILES COc1ccc(C(C)=O)c(O)c1
REMARK SMILES IDX 6 1 10 2 12 3 3 4 4 5 5 6 7 7 8 8 9 9 11 10 2 12 1 13
REMARK H PARENT 11 11
REMARK Flexibility Score: inf
ROOT
ATOM      1  C   UNL     1     -23.294  24.555  10.155  1.00  0.00     0.059 A 
ATOM      2  C   UNL     1     -23.081  25.457  11.224  1.00  0.00     0.130 A 
ATOM      3  C   UNL     1     -23.339  25.057  12.543  1.00  0.00     0.093 A 
ATOM      4  C   UNL     1     -23.810  23.772  12.825  1.00  0.00     0.122 A 
ATOM      5  C   UNL     1     -24.026  22.875  11.766  1.00  0.00     0.047 A 
ATOM      6  C   UNL     1     -23.770  23.263  10.450  1.00  0.00     0.019 A 
ENDROOT
BRANCH   1   7
ATOM      7  C   UNL     1     -23.018  24.950   8.743  1.00  0.00     0.163 C 
ATOM      8  C   UNL     1     -24.125  25.273   7.784  1.00  0.00     0.093 C 
ATOM      9  O   UNL     1     -21.832  24.993   8.317  1.00  0.00    -0.294 OA
ENDBRANCH   1   7
BRANCH   2  10
ATOM     10  O   UNL     1     -22.625  26.753  10.981  1.00  0.00    -0.507 OA
ATOM     11  H   UNL     1     -21.836  27.143  11.483  1.00  0.00     0.293 HD
ENDBRANCH   2  10
BRANCH   4  12
ATOM     12  O   UNL     1     -24.051  23.429  14.164  1.00  0.00    -0.497 OA
ATOM     13  C   UNL     1     -23.064  22.920  15.053  1.00  0.00     0.278 C 
ENDBRANCH   4  12
TORSDOF 3
ENDMDL
MODEL 6
REMARK VINA RESULT:    -3.324     10.668     11.934
REMARK INTER + INTRA:          -4.134
REMARK INTER:                  -3.833
REMARK INTRA:                  -0.301
REMARK UNBOUND:                -0.325
REMARK SMILES COc1ccc(C(C)=O)c(O)c1
REMARK SMILES IDX 6 1 10 2 12 3 3 4 4 5 5 6 7 7 8 8 9 9 11 10 2 12 1 13
REMARK H PARENT 11 11
REMARK Flexibility Score: inf
ROOT
ATOM      1  C   UNL     1     -21.982  30.038  20.638  1.00  0.00     0.059 A 
ATOM      2  C   UNL     1     -21.273  29.013  19.968  1.00  0.00     0.130 A 
ATOM      3  C   UNL     1     -19.976  28.671  20.380  1.00  0.00     0.093 A 
ATOM      4  C   UNL     1     -19.364  29.331  21.448  1.00  0.00     0.122 A 
ATOM      5  C   UNL     1     -20.064  30.352  22.113  1.00  0.00     0.047 A 
ATOM      6  C   UNL     1     -21.355  30.699  21.712  1.00  0.00     0.019 A 
ENDROOT
BRANCH   1   7
ATOM      7  C   UNL     1     -23.366  30.416  20.227  1.00  0.00     0.163 C 
ATOM      8  C   UNL     1     -23.907  31.795  20.459  1.00  0.00     0.093 C 
ATOM      9  O   UNL     1     -24.125  29.561  19.696  1.00  0.00    -0.294 OA
ENDBRANCH   1   7
BRANCH   2  10
ATOM     10  O   UNL     1     -21.845  28.340  18.888  1.00  0.00    -0.507 OA
ATOM     11  H   UNL     1     -22.531  27.607  19.019  1.00  0.00     0.293 HD
ENDBRANCH   2  10
BRANCH   4  12
ATOM     12  O   UNL     1     -18.066  28.946  21.815  1.00  0.00    -0.497 OA
ATOM     13  C   UNL     1     -17.455  29.261  23.061  1.00  0.00     0.278 C 
ENDBRANCH   4  12
TORSDOF 3
ENDMDL
MODEL 7
REMARK VINA RESULT:    -3.267     10.607     12.673
REMARK INTER + INTRA:          -4.069
REMARK INTER:                  -3.760
REMARK INTRA:                  -0.308
REMARK UNBOUND:                -0.325
REMARK SMILES COc1ccc(C(C)=O)c(O)c1
REMARK SMILES IDX 6 1 10 2 12 3 3 4 4 5 5 6 7 7 8 8 9 9 11 10 2 12 1 13
REMARK H PARENT 11 11
REMARK Flexibility Score: inf
ROOT
ATOM      1  C   UNL     1     -22.180  30.027  20.642  1.00  0.00     0.059 A 
ATOM      2  C   UNL     1     -23.431  30.388  20.089  1.00  0.00     0.130 A 
ATOM      3  C   UNL     1     -23.996  31.638  20.384  1.00  0.00     0.093 A 
ATOM      4  C   UNL     1     -23.340  32.542  21.223  1.00  0.00     0.122 A 
ATOM      5  C   UNL     1     -22.100  32.186  21.777  1.00  0.00     0.047 A 
ATOM      6  C   UNL     1     -21.529  30.945  21.489  1.00  0.00     0.019 A 
ENDROOT
BRANCH   1   7
ATOM      7  C   UNL     1     -21.552  28.708  20.338  1.00  0.00     0.163 C 
ATOM      8  C   UNL     1     -20.310  28.600  19.505  1.00  0.00     0.093 C 
ATOM      9  O   UNL     1     -22.080  27.643  20.760  1.00  0.00    -0.294 OA
ENDBRANCH   1   7
BRANCH   2  10
ATOM     10  O   UNL     1     -24.123  29.507  19.257  1.00  0.00    -0.507 OA
ATOM     11  H   UNL     1     -23.642  28.917  18.589  1.00  0.00     0.293 HD
ENDBRANCH   2  10
BRANCH   4  12
ATOM     12  O   UNL     1     -23.954  33.777  21.482  1.00  0.00    -0.497 OA
ATOM     13  C   UNL     1     -23.645  34.987  20.799  1.00  0.00     0.278 C 
ENDBRANCH   4  12
TORSDOF 3
ENDMDL
MODEL 8
REMARK VINA RESULT:    -3.180     10.736     13.446
REMARK INTER + INTRA:          -3.970
REMARK INTER:                  -3.664
REMARK INTRA:                  -0.306
REMARK UNBOUND:                -0.325
REMARK SMILES COc1ccc(C(C)=O)c(O)c1
REMARK SMILES IDX 6 1 10 2 12 3 3 4 4 5 5 6 7 7 8 8 9 9 11 10 2 12 1 13
REMARK H PARENT 11 11
REMARK Flexibility Score: inf
ROOT
ATOM      1  C   UNL     1     -19.630  30.483  22.390  1.00  0.00     0.059 A 
ATOM      2  C   UNL     1     -19.135  29.398  21.630  1.00  0.00     0.130 A 
ATOM      3  C   UNL     1     -19.931  28.820  20.630  1.00  0.00     0.093 A 
ATOM      4  C   UNL     1     -21.217  29.299  20.369  1.00  0.00     0.122 A 
ATOM      5  C   UNL     1     -21.713  30.373  21.125  1.00  0.00     0.047 A 
ATOM      6  C   UNL     1     -20.929  30.957  22.121  1.00  0.00     0.019 A 
ENDROOT
BRANCH   1   7
ATOM      7  C   UNL     1     -18.802  31.123  23.454  1.00  0.00     0.163 C 
ATOM      8  C   UNL     1     -18.881  32.594  23.736  1.00  0.00     0.093 C 
ATOM      9  O   UNL     1     -17.988  30.432  24.125  1.00  0.00    -0.294 OA
ENDBRANCH   1   7
BRANCH   2  10
ATOM     10  O   UNL     1     -17.861  28.883  21.870  1.00  0.00    -0.507 OA
ATOM     11  H   UNL     1     -17.669  27.889  21.816  1.00  0.00     0.293 HD
ENDBRANCH   2  10
BRANCH   4  12
ATOM     12  O   UNL     1     -21.967  28.681  19.356  1.00  0.00    -0.497 OA
ATOM     13  C   UNL     1     -22.719  27.486  19.529  1.00  0.00     0.278 C 
ENDBRANCH   4  12
TORSDOF 3
ENDMDL
MODEL 9
REMARK VINA RESULT:    -3.125     14.171     15.841
REMARK INTER + INTRA:          -3.906
REMARK INTER:                  -3.575
REMARK INTRA:                  -0.331
REMARK UNBOUND:                -0.325
REMARK SMILES COc1ccc(C(C)=O)c(O)c1
REMARK SMILES IDX 6 1 10 2 12 3 3 4 4 5 5 6 7 7 8 8 9 9 11 10 2 12 1 13
REMARK H PARENT 11 11
REMARK Flexibility Score: inf
ROOT
ATOM      1  C   UNL     1     -22.213  34.094  21.895  1.00  0.00     0.059 A 
ATOM      2  C   UNL     1     -22.609  35.011  20.894  1.00  0.00     0.130 A 
ATOM      3  C   UNL     1     -22.621  36.387  21.167  1.00  0.00     0.093 A 
ATOM      4  C   UNL     1     -22.247  36.873  22.422  1.00  0.00     0.122 A 
ATOM      5  C   UNL     1     -21.857  35.965  23.419  1.00  0.00     0.047 A 
ATOM      6  C   UNL     1     -21.840  34.594  23.158  1.00  0.00     0.019 A 
ENDROOT
BRANCH   1   7
ATOM      7  C   UNL     1     -22.182  32.626  21.629  1.00  0.00     0.163 C 
ATOM      8  C   UNL     1     -21.067  31.758  22.131  1.00  0.00     0.093 C 
ATOM      9  O   UNL     1     -23.092  32.087  20.943  1.00  0.00    -0.294 OA
ENDBRANCH   1   7
BRANCH   2  10
ATOM     10  O   UNL     1     -23.003  34.563  19.633  1.00  0.00    -0.507 OA
ATOM     11  H   UNL     1     -23.969  34.342  19.423  1.00  0.00     0.293 HD
ENDBRANCH   2  10
BRANCH   4  12
ATOM     12  O   UNL     1     -22.279  38.260  22.637  1.00  0.00    -0.497 OA
ATOM     13  C   UNL     1     -22.625  39.219  21.644  1.00  0.00     0.278 C 
ENDBRANCH   4  12
TORSDOF 3
ENDMDL
