MODEL 1
REMARK VINA RESULT:     1.359      0.000      0.000
REMARK INTER + INTRA:           1.315
REMARK INTER:                   1.478
REMARK INTRA:                  -0.163
REMARK UNBOUND:                -0.163
REMARK SMILES O=C([O-])c1ccccc1O
REMARK SMILES IDX 4 1 9 2 5 3 8 4 6 5 7 6 2 7 1 8 3 9 10 10
REMARK H PARENT 10 11
REMARK Flexibility Score: inf
ROOT
ATOM      1  C   UNL     1     -31.414  40.284 -25.228  1.00  0.00     0.039 A 
ATOM      2  C   UNL     1     -31.275  40.725 -23.888  1.00  0.00     0.124 A 
ATOM      3  C   UNL     1     -30.290  40.314 -26.075  1.00  0.00     0.014 A 
ATOM      4  C   UNL     1     -30.016  41.120 -23.416  1.00  0.00     0.047 A 
ATOM      5  C   UNL     1     -29.047  40.732 -25.594  1.00  0.00     0.001 A 
ATOM      6  C   UNL     1     -28.908  41.125 -24.264  1.00  0.00     0.004 A 
ENDROOT
BRANCH   1   7
ATOM      7  C   UNL     1     -32.690  39.757 -25.761  1.00  0.00     0.075 C 
ATOM      8  O   UNL     1     -33.651  40.539 -25.990  1.00  0.00    -0.545 OA
ATOM      9  O   UNL     1     -32.825  38.411 -26.080  1.00  0.00    -0.545 OA
ENDBRANCH   1   7
BRANCH   2  10
ATOM     10  O   UNL     1     -32.357  40.819 -23.010  1.00  0.00    -0.507 OA
ATOM     11  H   UNL     1     -32.987  40.052 -22.821  1.00  0.00     0.293 HD
ENDBRANCH   2  10
TORSDOF 2
ENDMDL
MODEL 2
REMARK VINA RESULT:     3.367      1.558      2.666
REMARK INTER + INTRA:           3.499
REMARK INTER:                   3.623
REMARK INTRA:                  -0.124
REMARK UNBOUND:                -0.163
REMARK SMILES O=C([O-])c1ccccc1O
REMARK SMILES IDX 4 1 9 2 5 3 8 4 6 5 7 6 2 7 1 8 3 9 10 10
REMARK H PARENT 10 11
REMARK Flexibility Score: inf
ROOT
ATOM      1  C   UNL     1     -32.278  40.035 -24.446  1.00  0.00     0.039 A 
ATOM      2  C   UNL     1     -30.974  40.574 -24.578  1.00  0.00     0.124 A 
ATOM      3  C   UNL     1     -32.878  40.008 -23.173  1.00  0.00     0.014 A 
ATOM      4  C   UNL     1     -30.335  41.124 -23.458  1.00  0.00     0.047 A 
ATOM      5  C   UNL     1     -32.219  40.541 -22.063  1.00  0.00     0.001 A 
ATOM      6  C   UNL     1     -30.953  41.107 -22.207  1.00  0.00     0.004 A 
ENDROOT
BRANCH   1   7
ATOM      7  C   UNL     1     -33.051  39.533 -25.604  1.00  0.00     0.075 C 
ATOM      8  O   UNL     1     -32.792  38.400 -26.093  1.00  0.00    -0.545 OA
ATOM      9  O   UNL     1     -34.110  40.266 -26.125  1.00  0.00    -0.545 OA
ENDBRANCH   1   7
BRANCH   2  10
ATOM     10  O   UNL     1     -30.268  40.551 -25.783  1.00  0.00    -0.507 OA
ATOM     11  H   UNL     1     -30.217  41.341 -26.411  1.00  0.00     0.293 HD
ENDBRANCH   2  10
TORSDOF 2
ENDMDL
MODEL 3
REMARK VINA RESULT:     3.546      1.038      1.591
REMARK INTER + INTRA:           3.693
REMARK INTER:                   3.774
REMARK INTRA:                  -0.080
REMARK UNBOUND:                -0.163
REMARK SMILES O=C([O-])c1ccccc1O
REMARK SMILES IDX 4 1 9 2 5 3 8 4 6 5 7 6 2 7 1 8 3 9 10 10
REMARK H PARENT 10 11
REMARK Flexibility Score: inf
ROOT
ATOM      1  C   UNL     1     -32.357  40.436 -24.844  1.00  0.00     0.039 A 
ATOM      2  C   UNL     1     -32.452  40.496 -23.431  1.00  0.00     0.124 A 
ATOM      3  C   UNL     1     -31.135  40.767 -25.460  1.00  0.00     0.014 A 
ATOM      4  C   UNL     1     -31.317  40.820 -22.674  1.00  0.00     0.047 A 
ATOM      5  C   UNL     1     -30.020  41.108 -24.692  1.00  0.00     0.001 A 
ATOM      6  C   UNL     1     -30.108  41.125 -23.300  1.00  0.00     0.004 A 
ENDROOT
BRANCH   1   7
ATOM      7  C   UNL     1     -33.486  40.002 -25.697  1.00  0.00     0.075 C 
ATOM      8  O   UNL     1     -33.536  38.817 -26.124  1.00  0.00    -0.545 OA
ATOM      9  O   UNL     1     -34.536  40.866 -25.983  1.00  0.00    -0.545 OA
ENDBRANCH   1   7
BRANCH   2  10
ATOM     10  O   UNL     1     -33.649  40.279 -22.746  1.00  0.00    -0.507 OA
ATOM     11  H   UNL     1     -33.802  40.567 -21.790  1.00  0.00     0.293 HD
ENDBRANCH   2  10
TORSDOF 2
ENDMDL
MODEL 4
REMARK VINA RESULT:     3.721      1.535      2.940
REMARK INTER + INTRA:           3.884
REMARK INTER:                   4.100
REMARK INTRA:                  -0.215
REMARK UNBOUND:                -0.163
REMARK SMILES O=C([O-])c1ccccc1O
REMARK SMILES IDX 4 1 9 2 5 3 8 4 6 5 7 6 2 7 1 8 3 9 10 10
REMARK H PARENT 10 11
REMARK Flexibility Score: inf
ROOT
ATOM      1  C   UNL     1     -30.090  40.810 -24.052  1.00  0.00     0.039 A 
ATOM      2  C   UNL     1     -30.064  40.448 -25.423  1.00  0.00     0.124 A 
ATOM      3  C   UNL     1     -28.879  41.121 -23.406  1.00  0.00     0.014 A 
ATOM      4  C   UNL     1     -28.849  40.468 -26.121  1.00  0.00     0.047 A 
ATOM      5  C   UNL     1     -27.673  41.114 -24.112  1.00  0.00     0.001 A 
ATOM      6  C   UNL     1     -27.660  40.798 -25.470  1.00  0.00     0.004 A 
ENDROOT
BRANCH   1   7
ATOM      7  C   UNL     1     -31.350  40.911 -23.282  1.00  0.00     0.075 C 
ATOM      8  O   UNL     1     -31.316  41.122 -22.040  1.00  0.00    -0.545 OA
ATOM      9  O   UNL     1     -32.582  40.844 -23.921  1.00  0.00    -0.545 OA
ENDBRANCH   1   7
BRANCH   2  10
ATOM     10  O   UNL     1     -31.204  40.033 -26.114  1.00  0.00    -0.507 OA
ATOM     11  H   UNL     1     -31.786  39.263 -25.813  1.00  0.00     0.293 HD
ENDBRANCH   2  10
TORSDOF 2
ENDMDL
MODEL 5
REMARK VINA RESULT:     3.867      1.546      2.949
REMARK INTER + INTRA:           4.043
REMARK INTER:                   4.239
REMARK INTRA:                  -0.196
REMARK UNBOUND:                -0.163
REMARK SMILES O=C([O-])c1ccccc1O
REMARK SMILES IDX 4 1 9 2 5 3 8 4 6 5 7 6 2 7 1 8 3 9 10 10
REMARK H PARENT 10 11
REMARK Flexibility Score: inf
ROOT
ATOM      1  C   UNL     1     -30.091  40.813 -24.054  1.00  0.00     0.039 A 
ATOM      2  C   UNL     1     -30.063  40.449 -25.424  1.00  0.00     0.124 A 
ATOM      3  C   UNL     1     -28.880  41.125 -23.408  1.00  0.00     0.014 A 
ATOM      4  C   UNL     1     -28.847  40.468 -26.122  1.00  0.00     0.047 A 
ATOM      5  C   UNL     1     -27.674  41.117 -24.112  1.00  0.00     0.001 A 
ATOM      6  C   UNL     1     -27.658  40.799 -25.470  1.00  0.00     0.004 A 
ENDROOT
BRANCH   1   7
ATOM      7  C   UNL     1     -31.351  40.916 -23.286  1.00  0.00     0.075 C 
ATOM      8  O   UNL     1     -32.461  40.824 -23.877  1.00  0.00    -0.545 OA
ATOM      9  O   UNL     1     -31.333  41.045 -21.902  1.00  0.00    -0.545 OA
ENDBRANCH   1   7
BRANCH   2  10
ATOM     10  O   UNL     1     -31.203  40.033 -26.116  1.00  0.00    -0.507 OA
ATOM     11  H   UNL     1     -31.612  40.556 -26.877  1.00  0.00     0.293 HD
ENDBRANCH   2  10
TORSDOF 2
ENDMDL
MODEL 6
REMARK VINA RESULT:     4.234      2.355      4.183
REMARK INTER + INTRA:           4.442
REMARK INTER:                   4.617
REMARK INTRA:                  -0.175
REMARK UNBOUND:                -0.163
REMARK SMILES O=C([O-])c1ccccc1O
REMARK SMILES IDX 4 1 9 2 5 3 8 4 6 5 7 6 2 7 1 8 3 9 10 10
REMARK H PARENT 10 11
REMARK Flexibility Score: inf
ROOT
ATOM      1  C   UNL     1     -28.494  40.893 -23.377  1.00  0.00     0.039 A 
ATOM      2  C   UNL     1     -29.534  40.985 -24.336  1.00  0.00     0.124 A 
ATOM      3  C   UNL     1     -27.177  40.665 -23.821  1.00  0.00     0.014 A 
ATOM      4  C   UNL     1     -29.226  40.913 -25.702  1.00  0.00     0.047 A 
ATOM      5  C   UNL     1     -26.890  40.574 -25.185  1.00  0.00     0.001 A 
ATOM      6  C   UNL     1     -27.912  40.707 -26.124  1.00  0.00     0.004 A 
ENDROOT
BRANCH   1   7
ATOM      7  C   UNL     1     -28.734  41.064 -21.928  1.00  0.00     0.075 C 
ATOM      8  O   UNL     1     -29.912  41.125 -21.485  1.00  0.00    -0.545 OA
ATOM      9  O   UNL     1     -27.674  41.092 -21.029  1.00  0.00    -0.545 OA
ENDBRANCH   1   7
BRANCH   2  10
ATOM     10  O   UNL     1     -30.878  41.112 -23.979  1.00  0.00    -0.507 OA
ATOM     11  H   UNL     1     -31.276  41.964 -23.610  1.00  0.00     0.293 HD
ENDBRANCH   2  10
TORSDOF 2
ENDMDL
