MODEL 1
REMARK VINA RESULT:    -6.586      0.000      0.000
REMARK INTER + INTRA:         -11.277
REMARK INTER:                  -8.896
REMARK INTRA:                  -2.381
REMARK UNBOUND:                -2.381
REMARK SMILES CC[C@H](CC[C@H](C)[C@H]1CC[C@@H]2[C@@H]3CC(=O)C4=CC(=O)CC[C@]4(C)[C@@H]3CC[C@]21C)C(C)C
REMARK SMILES IDX 4 1 3 2 2 3 1 4 29 5 30 6 31 7 5 8 6 9 7 10 8 11 9 12 27 13
REMARK SMILES IDX 10 14 11 15 26 16 28 17 12 18 25 19 24 20 13 21 22 22 14 23
REMARK SMILES IDX 16 24 21 25 23 26 15 27 17 28 20 29 18 30 19 31
REMARK H PARENT
REMARK Flexibility Score: inf
ROOT
ATOM      1  C   UNL     1       3.291  11.854  14.662  1.00  0.00     0.004 C 
ENDROOT
BRANCH   1   2
ATOM      2  C   UNL     1       2.284  12.054  15.839  1.00  0.00    -0.009 C 
BRANCH   2   3
ATOM      3  C   UNL     1       0.868  12.311  15.248  1.00  0.00     0.000 C 
ATOM      4  C   UNL     1      -0.055  13.067  16.208  1.00  0.00     0.004 C 
ENDBRANCH   2   3
BRANCH   2   5
ATOM      5  C   UNL     1       2.244  10.886  16.892  1.00  0.00    -0.014 C 
ATOM      6  C   UNL     1       3.587  10.672  17.608  1.00  0.00     0.007 C 
ATOM      7  C   UNL     1       1.701   9.556  16.343  1.00  0.00     0.007 C 
ENDBRANCH   2   5
ENDBRANCH   1   2
BRANCH   1   8
ATOM      8  C   UNL     1       3.459  13.029  13.674  1.00  0.00     0.004 C 
BRANCH   8   9
ATOM      9  C   UNL     1       4.769  13.863  13.809  1.00  0.00    -0.011 C 
ATOM     10  C   UNL     1       5.879  13.019  14.478  1.00  0.00     0.008 C 
BRANCH   9  11
ATOM     11  C   UNL     1       4.449  15.239  14.505  1.00  0.00    -0.002 C 
ATOM     12  C   UNL     1       3.109  15.900  14.063  1.00  0.00     0.005 C 
ATOM     13  C   UNL     1       4.427  15.298  16.077  1.00  0.00    -0.026 C 
ATOM     14  C   UNL     1       2.242  16.083  15.321  1.00  0.00     0.005 C 
ATOM     15  C   UNL     1       2.915  15.198  16.352  1.00  0.00    -0.001 C 
ATOM     16  C   UNL     1       5.139  14.174  16.870  1.00  0.00     0.007 C 
ATOM     17  C   UNL     1       5.079  16.664  16.478  1.00  0.00     0.012 C 
ATOM     18  C   UNL     1       2.454  15.234  17.830  1.00  0.00     0.004 C 
ATOM     19  C   UNL     1       4.763  14.195  18.378  1.00  0.00     0.005 C 
ATOM     20  C   UNL     1       3.223  14.131  18.632  1.00  0.00     0.003 C 
ATOM     21  C   UNL     1       2.471  16.627  18.487  1.00  0.00     0.085 C 
ATOM     22  C   UNL     1       2.779  14.057  20.155  1.00  0.00    -0.000 C 
ATOM     23  C   UNL     1       2.144  16.565  19.943  1.00  0.00     0.159 C 
ATOM     24  C   UNL     1       2.638  15.447  20.776  1.00  0.00     0.005 C 
ATOM     25  C   UNL     1       3.788  13.208  20.996  1.00  0.00     0.020 C 
ATOM     26  C   UNL     1       1.383  13.377  20.226  1.00  0.00     0.017 C 
ATOM     27  O   UNL     1       1.515  17.524  20.469  1.00  0.00    -0.295 OA
ATOM     28  C   UNL     1       2.783  15.631  22.104  1.00  0.00     0.055 C 
ATOM     29  C   UNL     1       3.440  13.159  22.488  1.00  0.00     0.081 C 
ATOM     30  C   UNL     1       3.180  14.540  23.010  1.00  0.00     0.156 C 
ATOM     31  O   UNL     1       3.267  14.761  24.247  1.00  0.00    -0.295 OA
ENDBRANCH   9  11
ENDBRANCH   8   9
ENDBRANCH   1   8
TORSDOF 6
ENDMDL
MODEL 2
REMARK VINA RESULT:    -6.391      3.838      6.933
REMARK INTER + INTRA:         -11.014
REMARK INTER:                  -8.680
REMARK INTRA:                  -2.334
REMARK UNBOUND:                -2.381
REMARK SMILES CC[C@H](CC[C@H](C)[C@H]1CC[C@@H]2[C@@H]3CC(=O)C4=CC(=O)CC[C@]4(C)[C@@H]3CC[C@]21C)C(C)C
REMARK SMILES IDX 4 1 3 2 2 3 1 4 29 5 30 6 31 7 5 8 6 9 7 10 8 11 9 12 27 13
REMARK SMILES IDX 10 14 11 15 26 16 28 17 12 18 25 19 24 20 13 21 22 22 14 23
REMARK SMILES IDX 16 24 21 25 23 26 15 27 17 28 20 29 18 30 19 31
REMARK H PARENT
REMARK Flexibility Score: inf
ROOT
ATOM      1  C   UNL     1       2.745  15.855  22.206  1.00  0.00     0.004 C 
ENDROOT
BRANCH   1   2
ATOM      2  C   UNL     1       3.176  14.373  22.440  1.00  0.00    -0.009 C 
BRANCH   2   3
ATOM      3  C   UNL     1       4.461  14.089  21.611  1.00  0.00     0.000 C 
ATOM      4  C   UNL     1       4.479  12.687  20.993  1.00  0.00     0.004 C 
ENDBRANCH   2   3
BRANCH   2   5
ATOM      5  C   UNL     1       3.385  13.967  23.946  1.00  0.00    -0.014 C 
ATOM      6  C   UNL     1       4.860  13.734  24.309  1.00  0.00     0.007 C 
ATOM      7  C   UNL     1       2.516  12.787  24.411  1.00  0.00     0.007 C 
ENDBRANCH   2   5
ENDBRANCH   1   2
BRANCH   1   8
ATOM      8  C   UNL     1       2.462  16.282  20.749  1.00  0.00     0.004 C 
BRANCH   8   9
ATOM      9  C   UNL     1       0.984  16.647  20.411  1.00  0.00    -0.011 C 
ATOM     10  C   UNL     1       0.164  16.833  21.708  1.00  0.00     0.008 C 
BRANCH   9  11
ATOM     11  C   UNL     1       0.404  15.603  19.384  1.00  0.00    -0.002 C 
ATOM     12  C   UNL     1       1.326  15.305  18.163  1.00  0.00     0.005 C 
ATOM     13  C   UNL     1      -0.026  14.187  19.916  1.00  0.00    -0.026 C 
ATOM     14  C   UNL     1       1.625  13.796  18.161  1.00  0.00     0.005 C 
ATOM     15  C   UNL     1       1.211  13.346  19.549  1.00  0.00    -0.001 C 
ATOM     16  C   UNL     1      -0.295  14.017  21.432  1.00  0.00     0.007 C 
ATOM     17  C   UNL     1      -1.334  13.803  19.145  1.00  0.00     0.012 C 
ATOM     18  C   UNL     1       1.183  11.840  19.904  1.00  0.00     0.004 C 
ATOM     19  C   UNL     1      -0.395  12.521  21.843  1.00  0.00     0.005 C 
ATOM     20  C   UNL     1       0.854  11.680  21.427  1.00  0.00     0.003 C 
ATOM     21  C   UNL     1       0.324  10.964  18.973  1.00  0.00     0.085 C 
ATOM     22  C   UNL     1       0.852  10.164  21.899  1.00  0.00    -0.000 C 
ATOM     23  C   UNL     1       0.236   9.552  19.453  1.00  0.00     0.159 C 
ATOM     24  C   UNL     1       0.136   9.256  20.898  1.00  0.00     0.005 C 
ATOM     25  C   UNL     1       0.191  10.013  23.308  1.00  0.00     0.020 C 
ATOM     26  C   UNL     1       2.325   9.678  21.991  1.00  0.00     0.017 C 
ATOM     27  O   UNL     1       0.161   8.623  18.603  1.00  0.00    -0.295 OA
ATOM     28  C   UNL     1      -0.429   8.097  21.294  1.00  0.00     0.055 C 
ATOM     29  C   UNL     1       0.105   8.558  23.783  1.00  0.00     0.081 C 
ATOM     30  C   UNL     1      -0.480   7.691  22.709  1.00  0.00     0.156 C 
ATOM     31  O   UNL     1      -0.991   6.582  23.018  1.00  0.00    -0.295 OA
ENDBRANCH   9  11
ENDBRANCH   8   9
ENDBRANCH   1   8
TORSDOF 6
ENDMDL
MODEL 3
REMARK VINA RESULT:    -6.367      2.843      7.272
REMARK INTER + INTRA:         -10.982
REMARK INTER:                  -8.531
REMARK INTRA:                  -2.451
REMARK UNBOUND:                -2.381
REMARK SMILES CC[C@H](CC[C@H](C)[C@H]1CC[C@@H]2[C@@H]3CC(=O)C4=CC(=O)CC[C@]4(C)[C@@H]3CC[C@]21C)C(C)C
REMARK SMILES IDX 4 1 3 2 2 3 1 4 29 5 30 6 31 7 5 8 6 9 7 10 8 11 9 12 27 13
REMARK SMILES IDX 10 14 11 15 26 16 28 17 12 18 25 19 24 20 13 21 22 22 14 23
REMARK SMILES IDX 16 24 21 25 23 26 15 27 17 28 20 29 18 30 19 31
REMARK H PARENT
REMARK Flexibility Score: inf
ROOT
ATOM      1  C   UNL     1       3.041  13.069  24.346  1.00  0.00     0.004 C 
ENDROOT
BRANCH   1   2
ATOM      2  C   UNL     1       4.125  11.946  24.305  1.00  0.00    -0.009 C 
BRANCH   2   3
ATOM      3  C   UNL     1       3.478  10.647  23.743  1.00  0.00     0.000 C 
ATOM      4  C   UNL     1       1.947  10.672  23.786  1.00  0.00     0.004 C 
ENDBRANCH   2   3
BRANCH   2   5
ATOM      5  C   UNL     1       5.432  12.305  23.508  1.00  0.00    -0.014 C 
ATOM      6  C   UNL     1       5.774  11.281  22.415  1.00  0.00     0.007 C 
ATOM      7  C   UNL     1       6.658  12.587  24.393  1.00  0.00     0.007 C 
ENDBRANCH   2   5
ENDBRANCH   1   2
BRANCH   1   8
ATOM      8  C   UNL     1       3.500  14.501  23.992  1.00  0.00     0.004 C 
BRANCH   8   9
ATOM      9  C   UNL     1       3.073  15.036  22.592  1.00  0.00    -0.011 C 
ATOM     10  C   UNL     1       2.327  16.383  22.734  1.00  0.00     0.008 C 
BRANCH   9  11
ATOM     11  C   UNL     1       2.298  13.910  21.810  1.00  0.00    -0.002 C 
ATOM     12  C   UNL     1       0.791  14.211  21.554  1.00  0.00     0.005 C 
ATOM     13  C   UNL     1       2.857  13.445  20.416  1.00  0.00    -0.026 C 
ATOM     14  C   UNL     1       0.560  14.179  20.033  1.00  0.00     0.005 C 
ATOM     15  C   UNL     1       1.961  14.251  19.457  1.00  0.00    -0.001 C 
ATOM     16  C   UNL     1       4.335  13.753  20.071  1.00  0.00     0.007 C 
ATOM     17  C   UNL     1       2.658  11.893  20.354  1.00  0.00     0.012 C 
ATOM     18  C   UNL     1       2.188  14.062  17.937  1.00  0.00     0.004 C 
ATOM     19  C   UNL     1       4.644  13.523  18.565  1.00  0.00     0.005 C 
ATOM     20  C   UNL     1       3.698  14.321  17.611  1.00  0.00     0.003 C 
ATOM     21  C   UNL     1       1.626  12.754  17.348  1.00  0.00     0.085 C 
ATOM     22  C   UNL     1       4.021  14.199  16.061  1.00  0.00    -0.000 C 
ATOM     23  C   UNL     1       1.998  12.579  15.913  1.00  0.00     0.159 C 
ATOM     24  C   UNL     1       3.335  12.988  15.428  1.00  0.00     0.005 C 
ATOM     25  C   UNL     1       5.563  14.116  15.810  1.00  0.00     0.020 C 
ATOM     26  C   UNL     1       3.472  15.465  15.345  1.00  0.00     0.017 C 
ATOM     27  O   UNL     1       1.188  11.999  15.139  1.00  0.00    -0.295 OA
ATOM     28  C   UNL     1       3.843  12.400  14.326  1.00  0.00     0.055 C 
ATOM     29  C   UNL     1       5.926  13.932  14.333  1.00  0.00     0.081 C 
ATOM     30  C   UNL     1       5.123  12.818  13.732  1.00  0.00     0.156 C 
ATOM     31  O   UNL     1       5.533  12.256  12.682  1.00  0.00    -0.295 OA
ENDBRANCH   9  11
ENDBRANCH   8   9
ENDBRANCH   1   8
TORSDOF 6
ENDMDL
MODEL 4
REMARK VINA RESULT:    -6.345      2.500      5.999
REMARK INTER + INTRA:         -10.952
REMARK INTER:                  -8.631
REMARK INTRA:                  -2.321
REMARK UNBOUND:                -2.381
REMARK SMILES CC[C@H](CC[C@H](C)[C@H]1CC[C@@H]2[C@@H]3CC(=O)C4=CC(=O)CC[C@]4(C)[C@@H]3CC[C@]21C)C(C)C
REMARK SMILES IDX 4 1 3 2 2 3 1 4 29 5 30 6 31 7 5 8 6 9 7 10 8 11 9 12 27 13
REMARK SMILES IDX 10 14 11 15 26 16 28 17 12 18 25 19 24 20 13 21 22 22 14 23
REMARK SMILES IDX 16 24 21 25 23 26 15 27 17 28 20 29 18 30 19 31
REMARK H PARENT
REMARK Flexibility Score: inf
ROOT
ATOM      1  C   UNL     1       1.645   9.305  17.413  1.00  0.00     0.004 C 
ENDROOT
BRANCH   1   2
ATOM      2  C   UNL     1       2.142  10.719  16.974  1.00  0.00    -0.009 C 
BRANCH   2   3
ATOM      3  C   UNL     1       3.683  10.794  17.179  1.00  0.00     0.000 C 
ATOM      4  C   UNL     1       4.113  11.952  18.084  1.00  0.00     0.004 C 
ENDBRANCH   2   3
BRANCH   2   5
ATOM      5  C   UNL     1       1.756  11.139  15.508  1.00  0.00    -0.014 C 
ATOM      6  C   UNL     1       2.973  11.280  14.580  1.00  0.00     0.007 C 
ATOM      7  C   UNL     1       0.856  12.382  15.421  1.00  0.00     0.007 C 
ENDBRANCH   2   5
ENDBRANCH   1   2
BRANCH   1   8
ATOM      8  C   UNL     1       2.020   8.840  18.837  1.00  0.00     0.004 C 
BRANCH   8   9
ATOM      9  C   UNL     1       0.833   8.503  19.789  1.00  0.00    -0.011 C 
ATOM     10  C   UNL     1      -0.468   8.300  18.977  1.00  0.00     0.008 C 
BRANCH   9  11
ATOM     11  C   UNL     1       0.755   9.578  20.938  1.00  0.00    -0.002 C 
ATOM     12  C   UNL     1       2.106   9.860  21.662  1.00  0.00     0.005 C 
ATOM     13  C   UNL     1       0.179  11.001  20.596  1.00  0.00    -0.026 C 
ATOM     14  C   UNL     1       2.418  11.358  21.504  1.00  0.00     0.005 C 
ATOM     15  C   UNL     1       1.478  11.804  20.400  1.00  0.00    -0.001 C 
ATOM     16  C   UNL     1      -0.688  11.163  19.323  1.00  0.00     0.007 C 
ATOM     17  C   UNL     1      -0.683  11.437  21.829  1.00  0.00     0.012 C 
ATOM     18  C   UNL     1       1.344  13.307  20.052  1.00  0.00     0.004 C 
ATOM     19  C   UNL     1      -0.910  12.656  18.954  1.00  0.00     0.005 C 
ATOM     20  C   UNL     1       0.420  13.459  18.796  1.00  0.00     0.003 C 
ATOM     21  C   UNL     1       0.969  14.222  21.233  1.00  0.00     0.085 C 
ATOM     22  C   UNL     1       0.261  14.969  18.331  1.00  0.00    -0.000 C 
ATOM     23  C   UNL     1       0.727  15.629  20.798  1.00  0.00     0.159 C 
ATOM     24  C   UNL     1       0.046  15.912  19.515  1.00  0.00     0.005 C 
ATOM     25  C   UNL     1      -0.919  15.126  17.317  1.00  0.00     0.020 C 
ATOM     26  C   UNL     1       1.577  15.406  17.628  1.00  0.00     0.017 C 
ATOM     27  O   UNL     1       1.034  16.571  21.579  1.00  0.00    -0.295 OA
ATOM     28  C   UNL     1      -0.603  17.084  19.360  1.00  0.00     0.055 C 
ATOM     29  C   UNL     1      -1.156  16.577  16.885  1.00  0.00     0.081 C 
ATOM     30  C   UNL     1      -1.224  17.475  18.083  1.00  0.00     0.156 C 
ATOM     31  O   UNL     1      -1.788  18.597  17.986  1.00  0.00    -0.295 OA
ENDBRANCH   9  11
ENDBRANCH   8   9
ENDBRANCH   1   8
TORSDOF 6
ENDMDL
MODEL 5
REMARK VINA RESULT:    -6.308      3.324      6.688
REMARK INTER + INTRA:         -10.901
REMARK INTER:                  -8.498
REMARK INTRA:                  -2.404
REMARK UNBOUND:                -2.381
REMARK SMILES CC[C@H](CC[C@H](C)[C@H]1CC[C@@H]2[C@@H]3CC(=O)C4=CC(=O)CC[C@]4(C)[C@@H]3CC[C@]21C)C(C)C
REMARK SMILES IDX 4 1 3 2 2 3 1 4 29 5 30 6 31 7 5 8 6 9 7 10 8 11 9 12 27 13
REMARK SMILES IDX 10 14 11 15 26 16 28 17 12 18 25 19 24 20 13 21 22 22 14 23
REMARK SMILES IDX 16 24 21 25 23 26 15 27 17 28 20 29 18 30 19 31
REMARK H PARENT
REMARK Flexibility Score: inf
ROOT
ATOM      1  C   UNL     1       1.392  16.196  18.615  1.00  0.00     0.004 C 
ENDROOT
BRANCH   1   2
ATOM      2  C   UNL     1       1.252  15.059  17.554  1.00  0.00    -0.009 C 
BRANCH   2   3
ATOM      3  C   UNL     1       2.663  14.722  16.993  1.00  0.00     0.000 C 
ATOM      4  C   UNL     1       3.796  15.405  17.766  1.00  0.00     0.004 C 
ENDBRANCH   2   3
BRANCH   2   5
ATOM      5  C   UNL     1       0.530  13.756  18.060  1.00  0.00    -0.014 C 
ATOM      6  C   UNL     1       1.358  12.481  17.837  1.00  0.00     0.007 C 
ATOM      7  C   UNL     1      -0.901  13.576  17.528  1.00  0.00     0.007 C 
ENDBRANCH   2   5
ENDBRANCH   1   2
BRANCH   1   8
ATOM      8  C   UNL     1       0.226  16.374  19.612  1.00  0.00     0.004 C 
BRANCH   8   9
ATOM      9  C   UNL     1       0.507  15.951  21.086  1.00  0.00    -0.011 C 
ATOM     10  C   UNL     1       0.147  17.101  22.055  1.00  0.00     0.008 C 
BRANCH   9  11
ATOM     11  C   UNL     1       1.977  15.398  21.205  1.00  0.00    -0.002 C 
ATOM     12  C   UNL     1       2.911  16.219  22.145  1.00  0.00     0.005 C 
ATOM     13  C   UNL     1       2.182  13.902  21.644  1.00  0.00    -0.026 C 
ATOM     14  C   UNL     1       3.420  15.270  23.243  1.00  0.00     0.005 C 
ATOM     15  C   UNL     1       2.491  14.075  23.143  1.00  0.00    -0.001 C 
ATOM     16  C   UNL     1       0.992  12.920  21.505  1.00  0.00     0.007 C 
ATOM     17  C   UNL     1       3.371  13.348  20.788  1.00  0.00     0.012 C 
ATOM     18  C   UNL     1       2.777  12.796  23.967  1.00  0.00     0.004 C 
ATOM     19  C   UNL     1       1.244  11.587  22.263  1.00  0.00     0.005 C 
ATOM     20  C   UNL     1       1.592  11.789  23.772  1.00  0.00     0.003 C 
ATOM     21  C   UNL     1       4.174  12.182  23.760  1.00  0.00     0.085 C 
ATOM     22  C   UNL     1       1.772  10.460  24.623  1.00  0.00    -0.000 C 
ATOM     23  C   UNL     1       4.329  10.883  24.480  1.00  0.00     0.159 C 
ATOM     24  C   UNL     1       3.203   9.926  24.553  1.00  0.00     0.005 C 
ATOM     25  C   UNL     1       0.776   9.350  24.150  1.00  0.00     0.020 C 
ATOM     26  C   UNL     1       1.475  10.787  26.112  1.00  0.00     0.017 C 
ATOM     27  O   UNL     1       5.459  10.577  24.950  1.00  0.00    -0.295 OA
ATOM     28  C   UNL     1       3.464   8.616  24.736  1.00  0.00     0.055 C 
ATOM     29  C   UNL     1       0.952   8.023  24.896  1.00  0.00     0.081 C 
ATOM     30  C   UNL     1       2.395   7.618  24.911  1.00  0.00     0.156 C 
ATOM     31  O   UNL     1       2.699   6.413  25.113  1.00  0.00    -0.295 OA
ENDBRANCH   9  11
ENDBRANCH   8   9
ENDBRANCH   1   8
TORSDOF 6
ENDMDL
MODEL 6
REMARK VINA RESULT:    -6.263      3.168      7.106
REMARK INTER + INTRA:         -10.841
REMARK INTER:                  -9.017
REMARK INTRA:                  -1.824
REMARK UNBOUND:                -2.381
REMARK SMILES CC[C@H](CC[C@H](C)[C@H]1CC[C@@H]2[C@@H]3CC(=O)C4=CC(=O)CC[C@]4(C)[C@@H]3CC[C@]21C)C(C)C
REMARK SMILES IDX 4 1 3 2 2 3 1 4 29 5 30 6 31 7 5 8 6 9 7 10 8 11 9 12 27 13
REMARK SMILES IDX 10 14 11 15 26 16 28 17 12 18 25 19 24 20 13 21 22 22 14 23
REMARK SMILES IDX 16 24 21 25 23 26 15 27 17 28 20 29 18 30 19 31
REMARK H PARENT
REMARK Flexibility Score: inf
ROOT
ATOM      1  C   UNL     1       1.502  10.309  21.452  1.00  0.00     0.004 C 
ENDROOT
BRANCH   1   2
ATOM      2  C   UNL     1       1.549  11.702  22.157  1.00  0.00    -0.009 C 
BRANCH   2   3
ATOM      3  C   UNL     1       0.163  12.390  21.999  1.00  0.00     0.000 C 
ATOM      4  C   UNL     1       0.266  13.861  21.585  1.00  0.00     0.004 C 
ENDBRANCH   2   3
BRANCH   2   5
ATOM      5  C   UNL     1       1.987  11.673  23.667  1.00  0.00    -0.014 C 
ATOM      6  C   UNL     1       0.806  11.498  24.635  1.00  0.00     0.007 C 
ATOM      7  C   UNL     1       2.870  12.857  24.094  1.00  0.00     0.007 C 
ENDBRANCH   2   5
ENDBRANCH   1   2
BRANCH   1   8
ATOM      8  C   UNL     1       0.167   9.901  20.791  1.00  0.00     0.004 C 
BRANCH   8   9
ATOM      9  C   UNL     1       0.219   9.593  19.264  1.00  0.00    -0.011 C 
ATOM     10  C   UNL     1      -0.272   8.153  18.987  1.00  0.00     0.008 C 
BRANCH   9  11
ATOM     11  C   UNL     1       1.648   9.943  18.703  1.00  0.00    -0.002 C 
ATOM     12  C   UNL     1       2.229   8.903  17.698  1.00  0.00     0.005 C 
ATOM     13  C   UNL     1       1.859  11.336  18.005  1.00  0.00    -0.026 C 
ATOM     14  C   UNL     1       2.513   9.638  16.377  1.00  0.00     0.005 C 
ATOM     15  C   UNL     1       1.749  10.941  16.520  1.00  0.00    -0.001 C 
ATOM     16  C   UNL     1       0.836  12.466  18.282  1.00  0.00     0.007 C 
ATOM     17  C   UNL     1       3.274  11.843  18.446  1.00  0.00     0.012 C 
ATOM     18  C   UNL     1       1.918  12.062  15.467  1.00  0.00     0.004 C 
ATOM     19  C   UNL     1       0.995  13.653  17.291  1.00  0.00     0.005 C 
ATOM     20  C   UNL     1       0.917  13.223  15.792  1.00  0.00     0.003 C 
ATOM     21  C   UNL     1       3.369  12.522  15.226  1.00  0.00     0.085 C 
ATOM     22  C   UNL     1       0.982  14.403  14.732  1.00  0.00    -0.000 C 
ATOM     23  C   UNL     1       3.441  13.692  14.301  1.00  0.00     0.159 C 
ATOM     24  C   UNL     1       2.422  14.762  14.364  1.00  0.00     0.005 C 
ATOM     25  C   UNL     1       0.244  15.677  15.261  1.00  0.00     0.020 C 
ATOM     26  C   UNL     1       0.278  13.931  13.429  1.00  0.00     0.017 C 
ATOM     27  O   UNL     1       4.430  13.796  13.526  1.00  0.00    -0.295 OA
ATOM     28  C   UNL     1       2.738  15.998  13.925  1.00  0.00     0.055 C 
ATOM     29  C   UNL     1       0.333  16.869  14.302  1.00  0.00     0.081 C 
ATOM     30  C   UNL     1       1.751  17.089  13.870  1.00  0.00     0.156 C 
ATOM     31  O   UNL     1       2.094  18.213  13.418  1.00  0.00    -0.295 OA
ENDBRANCH   9  11
ENDBRANCH   8   9
ENDBRANCH   1   8
TORSDOF 6
ENDMDL
MODEL 7
REMARK VINA RESULT:    -6.195      2.882      6.862
REMARK INTER + INTRA:         -10.749
REMARK INTER:                  -8.350
REMARK INTRA:                  -2.399
REMARK UNBOUND:                -2.381
REMARK SMILES CC[C@H](CC[C@H](C)[C@H]1CC[C@@H]2[C@@H]3CC(=O)C4=CC(=O)CC[C@]4(C)[C@@H]3CC[C@]21C)C(C)C
REMARK SMILES IDX 4 1 3 2 2 3 1 4 29 5 30 6 31 7 5 8 6 9 7 10 8 11 9 12 27 13
REMARK SMILES IDX 10 14 11 15 26 16 28 17 12 18 25 19 24 20 13 21 22 22 14 23
REMARK SMILES IDX 16 24 21 25 23 26 15 27 17 28 20 29 18 30 19 31
REMARK H PARENT
REMARK Flexibility Score: inf
ROOT
ATOM      1  C   UNL     1       1.835  13.599  22.360  1.00  0.00     0.004 C 
ENDROOT
BRANCH   1   2
ATOM      2  C   UNL     1       2.195  15.030  21.850  1.00  0.00    -0.009 C 
BRANCH   2   3
ATOM      3  C   UNL     1       3.568  14.971  21.121  1.00  0.00     0.000 C 
ATOM      4  C   UNL     1       4.366  13.704  21.446  1.00  0.00     0.004 C 
ENDBRANCH   2   3
BRANCH   2   5
ATOM      5  C   UNL     1       1.109  15.708  20.936  1.00  0.00    -0.014 C 
ATOM      6  C   UNL     1       1.686  16.265  19.625  1.00  0.00     0.007 C 
ATOM      7  C   UNL     1       0.253  16.768  21.649  1.00  0.00     0.007 C 
ENDBRANCH   2   5
ENDBRANCH   1   2
BRANCH   1   8
ATOM      8  C   UNL     1       0.455  13.036  21.957  1.00  0.00     0.004 C 
BRANCH   8   9
ATOM      9  C   UNL     1       0.398  11.513  21.634  1.00  0.00    -0.011 C 
ATOM     10  C   UNL     1       1.680  10.807  22.134  1.00  0.00     0.008 C 
BRANCH   9  11
ATOM     11  C   UNL     1       0.061  11.309  20.109  1.00  0.00    -0.002 C 
ATOM     12  C   UNL     1      -0.995  12.301  19.534  1.00  0.00     0.005 C 
ATOM     13  C   UNL     1       1.242  11.334  19.070  1.00  0.00    -0.026 C 
ATOM     14  C   UNL     1      -0.338  13.058  18.367  1.00  0.00     0.005 C 
ATOM     15  C   UNL     1       1.142  12.779  18.547  1.00  0.00    -0.001 C 
ATOM     16  C   UNL     1       2.685  11.103  19.584  1.00  0.00     0.007 C 
ATOM     17  C   UNL     1       0.922  10.227  18.009  1.00  0.00     0.012 C 
ATOM     18  C   UNL     1       2.155  13.218  17.461  1.00  0.00     0.004 C 
ATOM     19  C   UNL     1       3.751  11.469  18.514  1.00  0.00     0.005 C 
ATOM     20  C   UNL     1       3.607  12.927  17.971  1.00  0.00     0.003 C 
ATOM     21  C   UNL     1       1.862  12.694  16.043  1.00  0.00     0.085 C 
ATOM     22  C   UNL     1       4.723  13.391  16.942  1.00  0.00    -0.000 C 
ATOM     23  C   UNL     1       2.948  13.045  15.080  1.00  0.00     0.159 C 
ATOM     24  C   UNL     1       4.365  13.016  15.503  1.00  0.00     0.005 C 
ATOM     25  C   UNL     1       6.118  12.784  17.309  1.00  0.00     0.020 C 
ATOM     26  C   UNL     1       4.829  14.941  17.000  1.00  0.00     0.017 C 
ATOM     27  O   UNL     1       2.645  13.282  13.878  1.00  0.00    -0.295 OA
ATOM     28  C   UNL     1       5.326  12.835  14.574  1.00  0.00     0.055 C 
ATOM     29  C   UNL     1       7.219  13.150  16.307  1.00  0.00     0.081 C 
ATOM     30  C   UNL     1       6.760  12.886  14.905  1.00  0.00     0.156 C 
ATOM     31  O   UNL     1       7.613  12.743  13.990  1.00  0.00    -0.295 OA
ENDBRANCH   9  11
ENDBRANCH   8   9
ENDBRANCH   1   8
TORSDOF 6
ENDMDL
MODEL 8
REMARK VINA RESULT:    -6.103      2.902      5.381
REMARK INTER + INTRA:         -10.625
REMARK INTER:                  -8.358
REMARK INTRA:                  -2.267
REMARK UNBOUND:                -2.381
REMARK SMILES CC[C@H](CC[C@H](C)[C@H]1CC[C@@H]2[C@@H]3CC(=O)C4=CC(=O)CC[C@]4(C)[C@@H]3CC[C@]21C)C(C)C
REMARK SMILES IDX 4 1 3 2 2 3 1 4 29 5 30 6 31 7 5 8 6 9 7 10 8 11 9 12 27 13
REMARK SMILES IDX 10 14 11 15 26 16 28 17 12 18 25 19 24 20 13 21 22 22 14 23
REMARK SMILES IDX 16 24 21 25 23 26 15 27 17 28 20 29 18 30 19 31
REMARK H PARENT
REMARK Flexibility Score: inf
ROOT
ATOM      1  C   UNL     1       0.745  15.681  16.766  1.00  0.00     0.004 C 
ENDROOT
BRANCH   1   2
ATOM      2  C   UNL     1       0.441  14.152  16.857  1.00  0.00    -0.009 C 
BRANCH   2   3
ATOM      3  C   UNL     1      -1.101  13.945  16.828  1.00  0.00     0.000 C 
ATOM      4  C   UNL     1      -1.662  13.431  18.157  1.00  0.00     0.004 C 
ENDBRANCH   2   3
BRANCH   2   5
ATOM      5  C   UNL     1       1.142  13.264  15.764  1.00  0.00    -0.014 C 
ATOM      6  C   UNL     1       0.492  13.389  14.376  1.00  0.00     0.007 C 
ATOM      7  C   UNL     1       1.307  11.786  16.157  1.00  0.00     0.007 C 
ENDBRANCH   2   5
ENDBRANCH   1   2
BRANCH   1   8
ATOM      8  C   UNL     1       0.735  16.479  18.087  1.00  0.00     0.004 C 
BRANCH   8   9
ATOM      9  C   UNL     1       2.128  16.866  18.671  1.00  0.00    -0.011 C 
ATOM     10  C   UNL     1       3.257  16.414  17.716  1.00  0.00     0.008 C 
BRANCH   9  11
ATOM     11  C   UNL     1       2.243  16.346  20.153  1.00  0.00    -0.002 C 
ATOM     12  C   UNL     1       1.071  16.772  21.088  1.00  0.00     0.005 C 
ATOM     13  C   UNL     1       2.407  14.801  20.395  1.00  0.00    -0.026 C 
ATOM     14  C   UNL     1       0.421  15.490  21.636  1.00  0.00     0.005 C 
ATOM     15  C   UNL     1       0.959  14.400  20.729  1.00  0.00    -0.001 C 
ATOM     16  C   UNL     1       2.897  13.916  19.222  1.00  0.00     0.007 C 
ATOM     17  C   UNL     1       3.422  14.644  21.578  1.00  0.00     0.012 C 
ATOM     18  C   UNL     1       0.686  12.911  21.055  1.00  0.00     0.004 C 
ATOM     19  C   UNL     1       2.705  12.401  19.514  1.00  0.00     0.005 C 
ATOM     20  C   UNL     1       1.236  12.024  19.887  1.00  0.00     0.003 C 
ATOM     21  C   UNL     1       1.124  12.457  22.460  1.00  0.00     0.085 C 
ATOM     22  C   UNL     1       0.957  10.477  20.108  1.00  0.00    -0.000 C 
ATOM     23  C   UNL     1       0.954  10.986  22.653  1.00  0.00     0.159 C 
ATOM     24  C   UNL     1       1.238  10.046  21.548  1.00  0.00     0.005 C 
ATOM     25  C   UNL     1       1.806   9.605  19.125  1.00  0.00     0.020 C 
ATOM     26  C   UNL     1      -0.549  10.206  19.832  1.00  0.00     0.017 C 
ATOM     27  O   UNL     1       0.646  10.553  23.797  1.00  0.00    -0.295 OA
ATOM     28  C   UNL     1       1.569   8.771  21.838  1.00  0.00     0.055 C 
ATOM     29  C   UNL     1       1.622   8.098  19.341  1.00  0.00     0.081 C 
ATOM     30  C   UNL     1       1.776   7.755  20.792  1.00  0.00     0.156 C 
ATOM     31  O   UNL     1       2.051   6.571  21.123  1.00  0.00    -0.295 OA
ENDBRANCH   9  11
ENDBRANCH   8   9
ENDBRANCH   1   8
TORSDOF 6
ENDMDL
MODEL 9
REMARK VINA RESULT:    -6.038      3.429      7.147
REMARK INTER + INTRA:         -10.537
REMARK INTER:                  -8.749
REMARK INTRA:                  -1.788
REMARK UNBOUND:                -2.381
REMARK SMILES CC[C@H](CC[C@H](C)[C@H]1CC[C@@H]2[C@@H]3CC(=O)C4=CC(=O)CC[C@]4(C)[C@@H]3CC[C@]21C)C(C)C
REMARK SMILES IDX 4 1 3 2 2 3 1 4 29 5 30 6 31 7 5 8 6 9 7 10 8 11 9 12 27 13
REMARK SMILES IDX 10 14 11 15 26 16 28 17 12 18 25 19 24 20 13 21 22 22 14 23
REMARK SMILES IDX 16 24 21 25 23 26 15 27 17 28 20 29 18 30 19 31
REMARK H PARENT
REMARK Flexibility Score: inf
ROOT
ATOM      1  C   UNL     1       0.983  10.343  21.369  1.00  0.00     0.004 C 
ENDROOT
BRANCH   1   2
ATOM      2  C   UNL     1       1.823   9.266  22.126  1.00  0.00    -0.009 C 
BRANCH   2   3
ATOM      3  C   UNL     1       1.948   9.688  23.619  1.00  0.00     0.000 C 
ATOM      4  C   UNL     1       1.304  11.046  23.915  1.00  0.00     0.004 C 
ENDBRANCH   2   3
BRANCH   2   5
ATOM      5  C   UNL     1       1.286   7.792  22.008  1.00  0.00    -0.014 C 
ATOM      6  C   UNL     1       1.069   7.117  23.372  1.00  0.00     0.007 C 
ATOM      7  C   UNL     1       2.111   6.889  21.077  1.00  0.00     0.007 C 
ENDBRANCH   2   5
ENDBRANCH   1   2
BRANCH   1   8
ATOM      8  C   UNL     1      -0.261   9.849  20.599  1.00  0.00     0.004 C 
BRANCH   8   9
ATOM      9  C   UNL     1      -0.065   9.565  19.079  1.00  0.00    -0.011 C 
ATOM     10  C   UNL     1      -0.474   8.112  18.744  1.00  0.00     0.008 C 
BRANCH   9  11
ATOM     11  C   UNL     1       1.394   9.976  18.649  1.00  0.00    -0.002 C 
ATOM     12  C   UNL     1       2.099   8.973  17.687  1.00  0.00     0.005 C 
ATOM     13  C   UNL     1       1.611  11.386  17.987  1.00  0.00    -0.026 C 
ATOM     14  C   UNL     1       2.468   9.737  16.404  1.00  0.00     0.005 C 
ATOM     15  C   UNL     1       1.646  11.008  16.495  1.00  0.00    -0.001 C 
ATOM     16  C   UNL     1       0.525  12.473  18.186  1.00  0.00     0.007 C 
ATOM     17  C   UNL     1       2.961  11.939  18.557  1.00  0.00     0.012 C 
ATOM     18  C   UNL     1       1.863  12.151  15.473  1.00  0.00     0.004 C 
ATOM     19  C   UNL     1       0.724  13.680  17.227  1.00  0.00     0.005 C 
ATOM     20  C   UNL     1       0.794  13.268  15.722  1.00  0.00     0.003 C 
ATOM     21  C   UNL     1       3.310  12.667  15.365  1.00  0.00     0.085 C 
ATOM     22  C   UNL     1       0.905  14.465  14.685  1.00  0.00    -0.000 C 
ATOM     23  C   UNL     1       3.417  13.853  14.463  1.00  0.00     0.159 C 
ATOM     24  C   UNL     1       2.357  14.883  14.448  1.00  0.00     0.005 C 
ATOM     25  C   UNL     1       0.075  15.703  15.162  1.00  0.00     0.020 C 
ATOM     26  C   UNL     1       0.336  13.986  13.320  1.00  0.00     0.017 C 
ATOM     27  O   UNL     1       4.466  14.005  13.778  1.00  0.00    -0.295 OA
ATOM     28  C   UNL     1       2.662  16.136  14.052  1.00  0.00     0.055 C 
ATOM     29  C   UNL     1       0.201  16.911  14.227  1.00  0.00     0.081 C 
ATOM     30  C   UNL     1       1.642  17.190  13.923  1.00  0.00     0.156 C 
ATOM     31  O   UNL     1       1.980  18.333  13.516  1.00  0.00    -0.295 OA
ENDBRANCH   9  11
ENDBRANCH   8   9
ENDBRANCH   1   8
TORSDOF 6
ENDMDL
