MODEL 1
REMARK VINA RESULT:    -3.516      0.000      0.000
REMARK INTER + INTRA:          -5.160
REMARK INTER:                  -4.750
REMARK INTRA:                  -0.411
REMARK UNBOUND:                -0.411
REMARK SMILES [NH3+]CCCC[C@H]([NH3+])C(=O)[O-]
REMARK SMILES IDX 4 1 3 2 2 3 1 4 5 8 6 9 7 10 8 14 9 15 10 16
REMARK H PARENT 1 5 1 6 1 7 7 11 7 12 7 13
REMARK Flexibility Score: inf
ROOT
ATOM      1  C   UNL     1     133.343 126.615 120.618  1.00  0.00     0.012 C 
ENDROOT
BRANCH   1   2
ATOM      2  C   UNL     1     131.976 126.026 120.234  1.00  0.00     0.061 C 
BRANCH   2   3
ATOM      3  C   UNL     1     130.849 127.072 120.280  1.00  0.00     0.258 C 
BRANCH   3   4
ATOM      4  N   UNL     1     130.149 127.076 121.567  1.00  0.00    -0.358 N 
ATOM      5  H   UNL     1     130.732 126.615 122.302  1.00  0.00     0.344 HD
ATOM      6  H   UNL     1     129.917 128.054 121.855  1.00  0.00     0.344 HD
ATOM      7  H   UNL     1     129.259 126.536 121.470  1.00  0.00     0.344 HD
ENDBRANCH   3   4
ENDBRANCH   2   3
ENDBRANCH   1   2
BRANCH   1   8
ATOM      8  C   UNL     1     133.726 126.342 122.085  1.00  0.00     0.072 C 
BRANCH   8   9
ATOM      9  C   UNL     1     134.484 127.494 122.789  1.00  0.00     0.227 C 
BRANCH   9  10
ATOM     10  N   UNL     1     135.483 126.992 123.742  1.00  0.00    -0.350 N 
ATOM     11  H   UNL     1     135.785 126.028 123.470  1.00  0.00     0.345 HD
ATOM     12  H   UNL     1     135.068 126.932 124.699  1.00  0.00     0.345 HD
ATOM     13  H   UNL     1     136.322 127.619 123.765  1.00  0.00     0.345 HD
ENDBRANCH   9  10
BRANCH   9  14
ATOM     14  C   UNL     1     133.493 128.385 123.493  1.00  0.00     0.099 C 
ATOM     15  O   UNL     1     133.883 129.412 124.109  1.00  0.00    -0.544 OA
ATOM     16  O   UNL     1     132.143 128.058 123.492  1.00  0.00    -0.544 OA
ENDBRANCH   9  14
ENDBRANCH   8   9
ENDBRANCH   1   8
TORSDOF 7
ENDMDL
MODEL 2
REMARK VINA RESULT:    -3.502     10.195     10.952
REMARK INTER + INTRA:          -5.141
REMARK INTER:                  -4.599
REMARK INTRA:                  -0.542
REMARK UNBOUND:                -0.411
REMARK SMILES [NH3+]CCCC[C@H]([NH3+])C(=O)[O-]
REMARK SMILES IDX 4 1 3 2 2 3 1 4 5 8 6 9 7 10 8 14 9 15 10 16
REMARK H PARENT 1 5 1 6 1 7 7 11 7 12 7 13
REMARK Flexibility Score: inf
ROOT
ATOM      1  C   UNL     1     139.698 137.077 118.121  1.00  0.00     0.012 C 
ENDROOT
BRANCH   1   2
ATOM      2  C   UNL     1     138.279 136.691 117.674  1.00  0.00     0.061 C 
BRANCH   2   3
ATOM      3  C   UNL     1     138.260 136.013 116.292  1.00  0.00     0.258 C 
BRANCH   3   4
ATOM      4  N   UNL     1     137.924 134.590 116.378  1.00  0.00    -0.358 N 
ATOM      5  H   UNL     1     137.006 134.459 116.860  1.00  0.00     0.344 HD
ATOM      6  H   UNL     1     137.893 134.163 115.424  1.00  0.00     0.344 HD
ATOM      7  H   UNL     1     138.660 134.102 116.939  1.00  0.00     0.344 HD
ENDBRANCH   3   4
ENDBRANCH   2   3
ENDBRANCH   1   2
BRANCH   1   8
ATOM      8  C   UNL     1     140.374 135.993 118.983  1.00  0.00     0.072 C 
BRANCH   8   9
ATOM      9  C   UNL     1     139.402 135.022 119.695  1.00  0.00     0.227 C 
BRANCH   9  10
ATOM     10  N   UNL     1     139.383 135.231 121.149  1.00  0.00    -0.350 N 
ATOM     11  H   UNL     1     139.666 134.351 121.641  1.00  0.00     0.345 HD
ATOM     12  H   UNL     1     138.416 135.468 121.465  1.00  0.00     0.345 HD
ATOM     13  H   UNL     1     140.038 136.000 121.423  1.00  0.00     0.345 HD
ENDBRANCH   9  10
BRANCH   9  14
ATOM     14  C   UNL     1     139.793 133.602 119.376  1.00  0.00     0.099 C 
ATOM     15  O   UNL     1     140.066 133.265 118.194  1.00  0.00    -0.544 OA
ATOM     16  O   UNL     1     139.824 132.648 120.385  1.00  0.00    -0.544 OA
ENDBRANCH   9  14
ENDBRANCH   8   9
ENDBRANCH   1   8
TORSDOF 7
ENDMDL
MODEL 3
REMARK VINA RESULT:    -3.470     11.078     11.959
REMARK INTER + INTRA:          -5.098
REMARK INTER:                  -4.558
REMARK INTRA:                  -0.540
REMARK UNBOUND:                -0.411
REMARK SMILES [NH3+]CCCC[C@H]([NH3+])C(=O)[O-]
REMARK SMILES IDX 4 1 3 2 2 3 1 4 5 8 6 9 7 10 8 14 9 15 10 16
REMARK H PARENT 1 5 1 6 1 7 7 11 7 12 7 13
REMARK Flexibility Score: inf
ROOT
ATOM      1  C   UNL     1     126.487 136.359 117.841  1.00  0.00     0.012 C 
ENDROOT
BRANCH   1   2
ATOM      2  C   UNL     1     126.933 137.795 118.159  1.00  0.00     0.061 C 
BRANCH   2   3
ATOM      3  C   UNL     1     127.465 137.943 119.595  1.00  0.00     0.258 C 
BRANCH   3   4
ATOM      4  N   UNL     1     128.888 138.291 119.625  1.00  0.00    -0.358 N 
ATOM      5  H   UNL     1     129.181 138.555 120.593  1.00  0.00     0.344 HD
ATOM      6  H   UNL     1     129.468 137.492 119.280  1.00  0.00     0.344 HD
ATOM      7  H   UNL     1     129.048 139.115 119.000  1.00  0.00     0.344 HD
ENDBRANCH   3   4
ENDBRANCH   2   3
ENDBRANCH   1   2
BRANCH   1   8
ATOM      8  C   UNL     1     127.572 135.538 117.118  1.00  0.00     0.072 C 
BRANCH   8   9
ATOM      9  C   UNL     1     128.556 136.367 116.258  1.00  0.00     0.227 C 
BRANCH   9  10
ATOM     10  N   UNL     1     128.521 135.967 114.844  1.00  0.00    -0.350 N 
ATOM     11  H   UNL     1     128.817 134.968 114.747  1.00  0.00     0.345 HD
ATOM     12  H   UNL     1     129.192 136.546 114.291  1.00  0.00     0.345 HD
ATOM     13  H   UNL     1     127.557 136.078 114.450  1.00  0.00     0.345 HD
ENDBRANCH   9  10
BRANCH   9  14
ATOM     14  C   UNL     1     129.950 136.214 116.809  1.00  0.00     0.099 C 
ATOM     15  O   UNL     1     130.132 136.014 118.039  1.00  0.00    -0.544 OA
ATOM     16  O   UNL     1     131.046 136.325 115.963  1.00  0.00    -0.544 OA
ENDBRANCH   9  14
ENDBRANCH   8   9
ENDBRANCH   1   8
TORSDOF 7
ENDMDL
MODEL 4
REMARK VINA RESULT:    -3.456     11.358     11.922
REMARK INTER + INTRA:          -5.079
REMARK INTER:                  -4.542
REMARK INTRA:                  -0.537
REMARK UNBOUND:                -0.411
REMARK SMILES [NH3+]CCCC[C@H]([NH3+])C(=O)[O-]
REMARK SMILES IDX 4 1 3 2 2 3 1 4 5 8 6 9 7 10 8 14 9 15 10 16
REMARK H PARENT 1 5 1 6 1 7 7 11 7 12 7 13
REMARK Flexibility Score: inf
ROOT
ATOM      1  C   UNL     1     126.420 136.465 117.815  1.00  0.00     0.012 C 
ENDROOT
BRANCH   1   2
ATOM      2  C   UNL     1     127.536 135.542 117.299  1.00  0.00     0.061 C 
BRANCH   2   3
ATOM      3  C   UNL     1     128.186 136.067 116.007  1.00  0.00     0.258 C 
BRANCH   3   4
ATOM      4  N   UNL     1     129.555 136.540 116.229  1.00  0.00    -0.358 N 
ATOM      5  H   UNL     1     129.573 137.275 116.972  1.00  0.00     0.344 HD
ATOM      6  H   UNL     1     130.179 135.744 116.497  1.00  0.00     0.344 HD
ATOM      7  H   UNL     1     129.915 136.963 115.343  1.00  0.00     0.344 HD
ENDBRANCH   3   4
ENDBRANCH   2   3
ENDBRANCH   1   2
BRANCH   1   8
ATOM      8  C   UNL     1     126.957 137.689 118.580  1.00  0.00     0.072 C 
BRANCH   8   9
ATOM      9  C   UNL     1     128.142 137.398 119.533  1.00  0.00     0.227 C 
BRANCH   9  10
ATOM     10  N   UNL     1     127.717 137.345 120.939  1.00  0.00    -0.350 N 
ATOM     11  H   UNL     1     127.719 136.354 121.276  1.00  0.00     0.345 HD
ATOM     12  H   UNL     1     126.740 137.705 121.032  1.00  0.00     0.345 HD
ATOM     13  H   UNL     1     128.357 137.913 121.542  1.00  0.00     0.345 HD
ENDBRANCH   9  10
BRANCH   9  14
ATOM     14  C   UNL     1     129.201 138.453 119.347  1.00  0.00     0.099 C 
ATOM     15  O   UNL     1     129.501 138.862 118.195  1.00  0.00    -0.544 OA
ATOM     16  O   UNL     1     129.877 138.959 120.450  1.00  0.00    -0.544 OA
ENDBRANCH   9  14
ENDBRANCH   8   9
ENDBRANCH   1   8
TORSDOF 7
ENDMDL
MODEL 5
REMARK VINA RESULT:    -3.449      4.638      5.770
REMARK INTER + INTRA:          -5.070
REMARK INTER:                  -4.535
REMARK INTRA:                  -0.535
REMARK UNBOUND:                -0.411
REMARK SMILES [NH3+]CCCC[C@H]([NH3+])C(=O)[O-]
REMARK SMILES IDX 4 1 3 2 2 3 1 4 5 8 6 9 7 10 8 14 9 15 10 16
REMARK H PARENT 1 5 1 6 1 7 7 11 7 12 7 13
REMARK Flexibility Score: inf
ROOT
ATOM      1  C   UNL     1     133.730 125.746 117.783  1.00  0.00     0.012 C 
ENDROOT
BRANCH   1   2
ATOM      2  C   UNL     1     132.274 125.388 118.123  1.00  0.00     0.061 C 
BRANCH   2   3
ATOM      3  C   UNL     1     131.890 125.779 119.561  1.00  0.00     0.258 C 
BRANCH   3   4
ATOM      4  N   UNL     1     130.826 126.785 119.596  1.00  0.00    -0.358 N 
ATOM      5  H   UNL     1     130.369 126.867 118.659  1.00  0.00     0.344 HD
ATOM      6  H   UNL     1     130.114 126.540 120.322  1.00  0.00     0.344 HD
ATOM      7  H   UNL     1     131.244 127.712 119.837  1.00  0.00     0.344 HD
ENDBRANCH   3   4
ENDBRANCH   2   3
ENDBRANCH   1   2
BRANCH   1   8
ATOM      8  C   UNL     1     133.859 127.071 117.010  1.00  0.00     0.072 C 
BRANCH   8   9
ATOM      9  C   UNL     1     132.615 127.469 116.179  1.00  0.00     0.227 C 
BRANCH   9  10
ATOM     10  N   UNL     1     132.933 127.626 114.753  1.00  0.00    -0.350 N 
ATOM     11  H   UNL     1     132.177 127.198 114.168  1.00  0.00     0.345 HD
ATOM     12  H   UNL     1     133.823 127.128 114.527  1.00  0.00     0.345 HD
ATOM     13  H   UNL     1     133.026 128.638 114.503  1.00  0.00     0.345 HD
ENDBRANCH   9  10
BRANCH   9  14
ATOM     14  C   UNL     1     132.036 128.747 116.729  1.00  0.00     0.099 C 
ATOM     15  O   UNL     1     132.112 129.006 117.959  1.00  0.00    -0.544 OA
ATOM     16  O   UNL     1     131.386 129.635 115.881  1.00  0.00    -0.544 OA
ENDBRANCH   9  14
ENDBRANCH   8   9
ENDBRANCH   1   8
TORSDOF 7
ENDMDL
MODEL 6
REMARK VINA RESULT:    -3.403      3.385      5.116
REMARK INTER + INTRA:          -5.007
REMARK INTER:                  -4.876
REMARK INTRA:                  -0.131
REMARK UNBOUND:                -0.411
REMARK SMILES [NH3+]CCCC[C@H]([NH3+])C(=O)[O-]
REMARK SMILES IDX 4 1 3 2 2 3 1 4 5 8 6 9 7 10 8 14 9 15 10 16
REMARK H PARENT 1 5 1 6 1 7 7 11 7 12 7 13
REMARK Flexibility Score: inf
ROOT
ATOM      1  C   UNL     1     133.068 126.756 120.729  1.00  0.00     0.012 C 
ENDROOT
BRANCH   1   2
ATOM      2  C   UNL     1     133.829 126.217 121.951  1.00  0.00     0.061 C 
BRANCH   2   3
ATOM      3  C   UNL     1     134.208 127.327 122.947  1.00  0.00     0.258 C 
BRANCH   3   4
ATOM      4  N   UNL     1     135.390 126.979 123.741  1.00  0.00    -0.358 N 
ATOM      5  H   UNL     1     135.967 126.264 123.243  1.00  0.00     0.344 HD
ATOM      6  H   UNL     1     135.963 127.831 123.936  1.00  0.00     0.344 HD
ATOM      7  H   UNL     1     135.077 126.570 124.651  1.00  0.00     0.344 HD
ENDBRANCH   3   4
ENDBRANCH   2   3
ENDBRANCH   1   2
BRANCH   1   8
ATOM      8  C   UNL     1     131.876 125.869 120.324  1.00  0.00     0.072 C 
BRANCH   8   9
ATOM      9  C   UNL     1     131.731 125.622 118.803  1.00  0.00     0.227 C 
BRANCH   9  10
ATOM     10  N   UNL     1     133.034 125.442 118.148  1.00  0.00    -0.350 N 
ATOM     11  H   UNL     1     132.949 125.635 117.123  1.00  0.00     0.345 HD
ATOM     12  H   UNL     1     133.355 124.454 118.254  1.00  0.00     0.345 HD
ATOM     13  H   UNL     1     133.748 126.088 118.559  1.00  0.00     0.345 HD
ENDBRANCH   9  10
BRANCH   9  14
ATOM     14  C   UNL     1     130.988 126.775 118.179  1.00  0.00     0.099 C 
ATOM     15  O   UNL     1     129.770 126.963 118.434  1.00  0.00    -0.544 OA
ATOM     16  O   UNL     1     131.640 127.621 117.291  1.00  0.00    -0.544 OA
ENDBRANCH   9  14
ENDBRANCH   8   9
ENDBRANCH   1   8
TORSDOF 7
ENDMDL
MODEL 7
REMARK VINA RESULT:    -3.395     10.517     11.513
REMARK INTER + INTRA:          -4.997
REMARK INTER:                  -4.443
REMARK INTRA:                  -0.554
REMARK UNBOUND:                -0.411
REMARK SMILES [NH3+]CCCC[C@H]([NH3+])C(=O)[O-]
REMARK SMILES IDX 4 1 3 2 2 3 1 4 5 8 6 9 7 10 8 14 9 15 10 16
REMARK H PARENT 1 5 1 6 1 7 7 11 7 12 7 13
REMARK Flexibility Score: inf
ROOT
ATOM      1  C   UNL     1     139.475 137.249 117.990  1.00  0.00     0.012 C 
ENDROOT
BRANCH   1   2
ATOM      2  C   UNL     1     140.374 136.072 118.404  1.00  0.00     0.061 C 
BRANCH   2   3
ATOM      3  C   UNL     1     140.263 135.744 119.903  1.00  0.00     0.258 C 
BRANCH   3   4
ATOM      4  N   UNL     1     139.116 136.405 120.530  1.00  0.00    -0.358 N 
ATOM      5  H   UNL     1     138.221 136.051 120.123  1.00  0.00     0.344 HD
ATOM      6  H   UNL     1     139.125 136.251 121.565  1.00  0.00     0.344 HD
ATOM      7  H   UNL     1     139.174 137.433 120.345  1.00  0.00     0.344 HD
ENDBRANCH   3   4
ENDBRANCH   2   3
ENDBRANCH   1   2
BRANCH   1   8
ATOM      8  C   UNL     1     138.359 136.839 117.012  1.00  0.00     0.072 C 
BRANCH   8   9
ATOM      9  C   UNL     1     138.092 135.316 116.924  1.00  0.00     0.227 C 
BRANCH   9  10
ATOM     10  N   UNL     1     137.960 134.860 115.534  1.00  0.00    -0.350 N 
ATOM     11  H   UNL     1     138.517 133.986 115.389  1.00  0.00     0.345 HD
ATOM     12  H   UNL     1     138.338 135.583 114.882  1.00  0.00     0.345 HD
ATOM     13  H   UNL     1     136.958 134.668 115.299  1.00  0.00     0.345 HD
ENDBRANCH   9  10
BRANCH   9  14
ATOM     14  C   UNL     1     136.845 134.984 117.703  1.00  0.00     0.099 C 
ATOM     15  O   UNL     1     135.793 134.635 117.105  1.00  0.00    -0.544 OA
ATOM     16  O   UNL     1     136.842 135.092 119.088  1.00  0.00    -0.544 OA
ENDBRANCH   9  14
ENDBRANCH   8   9
ENDBRANCH   1   8
TORSDOF 7
ENDMDL
MODEL 8
REMARK VINA RESULT:    -3.391     10.756     11.702
REMARK INTER + INTRA:          -4.992
REMARK INTER:                  -4.393
REMARK INTRA:                  -0.599
REMARK UNBOUND:                -0.411
REMARK SMILES [NH3+]CCCC[C@H]([NH3+])C(=O)[O-]
REMARK SMILES IDX 4 1 3 2 2 3 1 4 5 8 6 9 7 10 8 14 9 15 10 16
REMARK H PARENT 1 5 1 6 1 7 7 11 7 12 7 13
REMARK Flexibility Score: inf
ROOT
ATOM      1  C   UNL     1     139.362 137.109 118.294  1.00  0.00     0.012 C 
ENDROOT
BRANCH   1   2
ATOM      2  C   UNL     1     140.465 136.046 118.171  1.00  0.00     0.061 C 
BRANCH   2   3
ATOM      3  C   UNL     1     140.147 134.770 118.971  1.00  0.00     0.258 C 
BRANCH   3   4
ATOM      4  N   UNL     1     139.584 133.714 118.126  1.00  0.00    -0.358 N 
ATOM      5  H   UNL     1     140.225 132.889 118.095  1.00  0.00     0.344 HD
ATOM      6  H   UNL     1     138.644 133.424 118.480  1.00  0.00     0.344 HD
ATOM      7  H   UNL     1     139.477 134.080 117.152  1.00  0.00     0.344 HD
ENDBRANCH   3   4
ENDBRANCH   2   3
ENDBRANCH   1   2
BRANCH   1   8
ATOM      8  C   UNL     1     138.449 137.175 117.055  1.00  0.00     0.072 C 
BRANCH   8   9
ATOM      9  C   UNL     1     137.048 136.544 117.239  1.00  0.00     0.227 C 
BRANCH   9  10
ATOM     10  N   UNL     1     136.834 136.070 118.613  1.00  0.00    -0.350 N 
ATOM     11  H   UNL     1     136.860 135.023 118.639  1.00  0.00     0.345 HD
ATOM     12  H   UNL     1     135.893 136.368 118.953  1.00  0.00     0.345 HD
ATOM     13  H   UNL     1     137.572 136.445 119.255  1.00  0.00     0.345 HD
ENDBRANCH   9  10
BRANCH   9  14
ATOM     14  C   UNL     1     136.880 135.409 116.263  1.00  0.00     0.099 C 
ATOM     15  O   UNL     1     135.732 135.051 115.889  1.00  0.00    -0.544 OA
ATOM     16  O   UNL     1     137.996 134.727 115.794  1.00  0.00    -0.544 OA
ENDBRANCH   9  14
ENDBRANCH   8   9
ENDBRANCH   1   8
TORSDOF 7
ENDMDL
MODEL 9
REMARK VINA RESULT:    -3.369      3.511      4.572
REMARK INTER + INTRA:          -4.961
REMARK INTER:                  -4.416
REMARK INTRA:                  -0.545
REMARK UNBOUND:                -0.411
REMARK SMILES [NH3+]CCCC[C@H]([NH3+])C(=O)[O-]
REMARK SMILES IDX 4 1 3 2 2 3 1 4 5 8 6 9 7 10 8 14 9 15 10 16
REMARK H PARENT 1 5 1 6 1 7 7 11 7 12 7 13
REMARK Flexibility Score: inf
ROOT
ATOM      1  C   UNL     1     132.946 125.430 118.146  1.00  0.00     0.012 C 
ENDROOT
BRANCH   1   2
ATOM      2  C   UNL     1     133.499 126.819 117.788  1.00  0.00     0.061 C 
BRANCH   2   3
ATOM      3  C   UNL     1     133.041 127.295 116.398  1.00  0.00     0.258 C 
BRANCH   3   4
ATOM      4  N   UNL     1     131.915 128.229 116.476  1.00  0.00    -0.358 N 
ATOM      5  H   UNL     1     131.178 127.861 117.119  1.00  0.00     0.344 HD
ATOM      6  H   UNL     1     132.239 129.168 116.802  1.00  0.00     0.344 HD
ATOM      7  H   UNL     1     131.495 128.332 115.524  1.00  0.00     0.344 HD
ENDBRANCH   3   4
ENDBRANCH   2   3
ENDBRANCH   1   2
BRANCH   1   8
ATOM      8  C   UNL     1     131.885 125.474 119.261  1.00  0.00     0.072 C 
BRANCH   8   9
ATOM      9  C   UNL     1     131.639 126.873 119.877  1.00  0.00     0.227 C 
BRANCH   9  10
ATOM     10  N   UNL     1     131.967 126.909 121.309  1.00  0.00    -0.350 N 
ATOM     11  H   UNL     1     131.411 127.658 121.785  1.00  0.00     0.345 HD
ATOM     12  H   UNL     1     132.978 127.140 121.439  1.00  0.00     0.345 HD
ATOM     13  H   UNL     1     131.758 125.988 121.761  1.00  0.00     0.345 HD
ENDBRANCH   9  10
BRANCH   9  14
ATOM     14  C   UNL     1     130.200 127.267 119.661  1.00  0.00     0.099 C 
ATOM     15  O   UNL     1     129.754 127.444 118.497  1.00  0.00    -0.544 OA
ATOM     16  O   UNL     1     129.365 127.467 120.753  1.00  0.00    -0.544 OA
ENDBRANCH   9  14
ENDBRANCH   8   9
ENDBRANCH   1   8
TORSDOF 7
ENDMDL
