MODEL 1
REMARK VINA RESULT:    -2.010      0.000      0.000
REMARK INTER + INTRA:          -2.245
REMARK INTER:                  -2.245
REMARK INTRA:                   0.000
REMARK UNBOUND:                 0.000
REMARK SMILES Oc1cc(O)c2c(c1)CCc1cc(O)c(O)cc1-2
REMARK SMILES IDX 10 1 9 2 7 3 6 4 18 5 17 6 15 7 13 8 12 9 11 10 4 11 3 12
REMARK SMILES IDX 2 13 8 14 14 15 5 17 1 19 16 21
REMARK H PARENT 14 16 5 18 1 20 16 22
REMARK Flexibility Score: inf
ROOT
ATOM      1  C   UNL     1      31.091  25.125  32.317  1.00  0.00     0.041 C 
ATOM      2  C   UNL     1      32.099  24.433  33.241  1.00  0.00     0.041 C 
ATOM      3  C   UNL     1      33.506  24.626  32.728  1.00  0.00    -0.032 A 
ATOM      4  C   UNL     1      33.757  24.643  31.335  1.00  0.00     0.027 A 
ATOM      5  C   UNL     1      32.598  24.436  30.408  1.00  0.00    -0.007 A 
ATOM      6  C   UNL     1      32.751  23.918  29.107  1.00  0.00     0.059 A 
ATOM      7  C   UNL     1      31.644  23.742  28.269  1.00  0.00     0.158 A 
ATOM      8  C   UNL     1      30.358  24.058  28.732  1.00  0.00     0.157 A 
ATOM      9  C   UNL     1      30.187  24.519  30.043  1.00  0.00     0.054 A 
ATOM     10  C   UNL     1      31.291  24.676  30.891  1.00  0.00    -0.036 A 
ATOM     11  C   UNL     1      35.070  24.928  30.885  1.00  0.00     0.127 A 
ATOM     12  C   UNL     1      36.114  25.058  31.811  1.00  0.00     0.093 A 
ATOM     13  C   UNL     1      35.868  24.959  33.181  1.00  0.00     0.119 A 
ATOM     14  C   UNL     1      34.565  24.751  33.639  1.00  0.00     0.050 A 
ENDROOT
BRANCH   8  15
ATOM     15  O   UNL     1      29.256  23.902  27.894  1.00  0.00    -0.504 OA
ATOM     16  H   UNL     1      29.363  23.731  26.901  1.00  0.00     0.293 HD
ENDBRANCH   8  15
BRANCH  11  17
ATOM     17  O   UNL     1      35.340  25.125  29.531  1.00  0.00    -0.507 OA
ATOM     18  H   UNL     1      35.768  24.404  28.961  1.00  0.00     0.293 HD
ENDBRANCH  11  17
BRANCH  13  19
ATOM     19  O   UNL     1      36.925  25.084  34.079  1.00  0.00    -0.508 OA
ATOM     20  H   UNL     1      37.492  25.923  34.117  1.00  0.00     0.293 HD
ENDBRANCH  13  19
BRANCH   7  21
ATOM     21  O   UNL     1      31.843  23.245  26.982  1.00  0.00    -0.504 OA
ATOM     22  H   UNL     1      31.150  22.673  26.512  1.00  0.00     0.293 HD
ENDBRANCH   7  21
TORSDOF 4
ENDMDL
MODEL 2
REMARK VINA RESULT:    -1.710      1.446      2.864
REMARK INTER + INTRA:          -1.910
REMARK INTER:                  -1.910
REMARK INTRA:                   0.000
REMARK UNBOUND:                 0.000
REMARK SMILES Oc1cc(O)c2c(c1)CCc1cc(O)c(O)cc1-2
REMARK SMILES IDX 10 1 9 2 7 3 6 4 18 5 17 6 15 7 13 8 12 9 11 10 4 11 3 12
REMARK SMILES IDX 2 13 8 14 14 15 5 17 1 19 16 21
REMARK H PARENT 14 16 5 18 1 20 16 22
REMARK Flexibility Score: inf
ROOT
ATOM      1  C   UNL     1      34.655  23.881  28.494  1.00  0.00     0.041 C 
ATOM      2  C   UNL     1      35.574  24.848  29.249  1.00  0.00     0.041 C 
ATOM      3  C   UNL     1      35.269  24.823  30.727  1.00  0.00    -0.032 A 
ATOM      4  C   UNL     1      33.935  24.660  31.173  1.00  0.00     0.027 A 
ATOM      5  C   UNL     1      32.856  24.545  30.140  1.00  0.00    -0.007 A 
ATOM      6  C   UNL     1      31.518  24.901  30.400  1.00  0.00     0.059 A 
ATOM      7  C   UNL     1      30.537  24.777  29.410  1.00  0.00     0.158 A 
ATOM      8  C   UNL     1      30.887  24.317  28.131  1.00  0.00     0.157 A 
ATOM      9  C   UNL     1      32.223  24.017  27.844  1.00  0.00     0.054 A 
ATOM     10  C   UNL     1      33.211  24.160  28.828  1.00  0.00    -0.036 A 
ATOM     11  C   UNL     1      33.695  24.537  32.565  1.00  0.00     0.127 A 
ATOM     12  C   UNL     1      34.748  24.709  33.475  1.00  0.00     0.093 A 
ATOM     13  C   UNL     1      36.047  24.950  33.025  1.00  0.00     0.119 A 
ATOM     14  C   UNL     1      36.307  24.999  31.653  1.00  0.00     0.050 A 
ENDROOT
BRANCH   8  15
ATOM     15  O   UNL     1      29.910  24.175  27.148  1.00  0.00    -0.504 OA
ATOM     16  H   UNL     1      29.928  24.724  26.297  1.00  0.00     0.293 HD
ENDBRANCH   8  15
BRANCH  11  17
ATOM     17  O   UNL     1      32.430  24.207  33.051  1.00  0.00    -0.507 OA
ATOM     18  H   UNL     1      31.583  24.548  32.611  1.00  0.00     0.293 HD
ENDBRANCH  11  17
BRANCH  13  19
ATOM     19  O   UNL     1      37.073  25.124  33.950  1.00  0.00    -0.508 OA
ATOM     20  H   UNL     1      37.018  24.730  34.882  1.00  0.00     0.293 HD
ENDBRANCH  13  19
BRANCH   7  21
ATOM     21  O   UNL     1      29.220  25.121  29.715  1.00  0.00    -0.504 OA
ATOM     22  H   UNL     1      28.476  25.063  29.030  1.00  0.00     0.293 HD
ENDBRANCH   7  21
TORSDOF 4
ENDMDL
MODEL 3
REMARK VINA RESULT:    -1.276      1.041      5.466
REMARK INTER + INTRA:          -1.425
REMARK INTER:                  -1.425
REMARK INTRA:                   0.000
REMARK UNBOUND:                 0.000
REMARK SMILES Oc1cc(O)c2c(c1)CCc1cc(O)c(O)cc1-2
REMARK SMILES IDX 10 1 9 2 7 3 6 4 18 5 17 6 15 7 13 8 12 9 11 10 4 11 3 12
REMARK SMILES IDX 2 13 8 14 14 15 5 17 1 19 16 21
REMARK H PARENT 14 16 5 18 1 20 16 22
REMARK Flexibility Score: inf
ROOT
ATOM      1  C   UNL     1      31.481  24.446  32.641  1.00  0.00     0.041 C 
ATOM      2  C   UNL     1      30.608  25.125  31.579  1.00  0.00     0.041 C 
ATOM      3  C   UNL     1      30.952  24.608  30.203  1.00  0.00    -0.032 A 
ATOM      4  C   UNL     1      32.292  24.284  29.881  1.00  0.00     0.027 A 
ATOM      5  C   UNL     1      33.340  24.499  30.930  1.00  0.00    -0.007 A 
ATOM      6  C   UNL     1      34.694  24.727  30.613  1.00  0.00     0.059 A 
ATOM      7  C   UNL     1      35.644  24.921  31.622  1.00  0.00     0.158 A 
ATOM      8  C   UNL     1      35.248  24.915  32.967  1.00  0.00     0.157 A 
ATOM      9  C   UNL     1      33.897  24.749  33.292  1.00  0.00     0.054 A 
ATOM     10  C   UNL     1      32.940  24.576  32.283  1.00  0.00    -0.036 A 
ATOM     11  C   UNL     1      32.566  23.705  28.617  1.00  0.00     0.127 A 
ATOM     12  C   UNL     1      31.543  23.584  27.666  1.00  0.00     0.093 A 
ATOM     13  C   UNL     1      30.239  23.981  27.967  1.00  0.00     0.119 A 
ATOM     14  C   UNL     1      29.944  24.485  29.236  1.00  0.00     0.050 A 
ENDROOT
BRANCH   8  15
ATOM     15  O   UNL     1      36.195  25.089  33.975  1.00  0.00    -0.504 OA
ATOM     16  H   UNL     1      36.806  25.898  33.997  1.00  0.00     0.293 HD
ENDBRANCH   8  15
BRANCH  11  17
ATOM     17  O   UNL     1      33.834  23.212  28.310  1.00  0.00    -0.507 OA
ATOM     18  H   UNL     1      34.536  23.062  29.025  1.00  0.00     0.293 HD
ENDBRANCH  11  17
BRANCH  13  19
ATOM     19  O   UNL     1      29.243  23.856  27.002  1.00  0.00    -0.508 OA
ATOM     20  H   UNL     1      28.480  24.520  26.939  1.00  0.00     0.293 HD
ENDBRANCH  13  19
BRANCH   7  21
ATOM     21  O   UNL     1      36.977  25.124  31.265  1.00  0.00    -0.504 OA
ATOM     22  H   UNL     1      37.447  26.008  31.419  1.00  0.00     0.293 HD
ENDBRANCH   7  21
TORSDOF 4
ENDMDL
MODEL 4
REMARK VINA RESULT:    -1.110      2.437      4.251
REMARK INTER + INTRA:          -1.239
REMARK INTER:                  -1.239
REMARK INTRA:                   0.000
REMARK UNBOUND:                 0.000
REMARK SMILES Oc1cc(O)c2c(c1)CCc1cc(O)c(O)cc1-2
REMARK SMILES IDX 10 1 9 2 7 3 6 4 18 5 17 6 15 7 13 8 12 9 11 10 4 11 3 12
REMARK SMILES IDX 2 13 8 14 14 15 5 17 1 19 16 21
REMARK H PARENT 14 16 5 18 1 20 16 22
REMARK Flexibility Score: inf
ROOT
ATOM      1  C   UNL     1      31.032  24.156  28.109  1.00  0.00     0.041 C 
ATOM      2  C   UNL     1      32.015  25.097  27.403  1.00  0.00     0.041 C 
ATOM      3  C   UNL     1      33.398  24.957  27.992  1.00  0.00    -0.032 A 
ATOM      4  C   UNL     1      33.557  24.717  29.378  1.00  0.00     0.027 A 
ATOM      5  C   UNL     1      32.324  24.641  30.227  1.00  0.00    -0.007 A 
ATOM      6  C   UNL     1      32.333  24.933  31.605  1.00  0.00     0.059 A 
ATOM      7  C   UNL     1      31.161  24.847  32.364  1.00  0.00     0.158 A 
ATOM      8  C   UNL     1      29.952  24.491  31.748  1.00  0.00     0.157 A 
ATOM      9  C   UNL     1      29.919  24.256  30.369  1.00  0.00     0.054 A 
ATOM     10  C   UNL     1      31.087  24.363  29.602  1.00  0.00    -0.036 A 
ATOM     11  C   UNL     1      34.862  24.488  29.883  1.00  0.00     0.127 A 
ATOM     12  C   UNL     1      35.973  24.630  29.039  1.00  0.00     0.093 A 
ATOM     13  C   UNL     1      35.807  24.945  27.690  1.00  0.00     0.119 A 
ATOM     14  C   UNL     1      34.521  25.100  27.166  1.00  0.00     0.050 A 
ENDROOT
BRANCH   8  15
ATOM     15  O   UNL     1      28.786  24.387  32.504  1.00  0.00    -0.504 OA
ATOM     16  H   UNL     1      28.671  24.891  33.376  1.00  0.00     0.293 HD
ENDBRANCH   8  15
BRANCH  11  17
ATOM     17  O   UNL     1      35.063  24.083  31.201  1.00  0.00    -0.507 OA
ATOM     18  H   UNL     1      34.551  23.308  31.606  1.00  0.00     0.293 HD
ENDBRANCH  11  17
BRANCH  13  19
ATOM     19  O   UNL     1      36.928  25.087  26.875  1.00  0.00    -0.508 OA
ATOM     20  H   UNL     1      37.063  25.908  26.297  1.00  0.00     0.293 HD
ENDBRANCH  13  19
BRANCH   7  21
ATOM     21  O   UNL     1      31.218  25.125  33.729  1.00  0.00    -0.504 OA
ATOM     22  H   UNL     1      31.706  24.522  34.382  1.00  0.00     0.293 HD
ENDBRANCH   7  21
TORSDOF 4
ENDMDL
MODEL 5
REMARK VINA RESULT:    -0.738      2.517      4.891
REMARK INTER + INTRA:          -0.825
REMARK INTER:                  -0.825
REMARK INTRA:                   0.000
REMARK UNBOUND:                 0.000
REMARK SMILES Oc1cc(O)c2c(c1)CCc1cc(O)c(O)cc1-2
REMARK SMILES IDX 10 1 9 2 7 3 6 4 18 5 17 6 15 7 13 8 12 9 11 10 4 11 3 12
REMARK SMILES IDX 2 13 8 14 14 15 5 17 1 19 16 21
REMARK H PARENT 14 16 5 18 1 20 16 22
REMARK Flexibility Score: inf
ROOT
ATOM      1  C   UNL     1      31.352  25.111  27.673  1.00  0.00     0.041 C 
ATOM      2  C   UNL     1      30.314  24.255  28.408  1.00  0.00     0.041 C 
ATOM      3  C   UNL     1      30.465  24.406  29.902  1.00  0.00    -0.032 A 
ATOM      4  C   UNL     1      31.752  24.558  30.472  1.00  0.00     0.027 A 
ATOM      5  C   UNL     1      32.937  24.532  29.555  1.00  0.00    -0.007 A 
ATOM      6  C   UNL     1      34.222  24.149  29.987  1.00  0.00     0.059 A 
ATOM      7  C   UNL     1      35.305  24.141  29.101  1.00  0.00     0.158 A 
ATOM      8  C   UNL     1      35.112  24.492  27.756  1.00  0.00     0.157 A 
ATOM      9  C   UNL     1      33.829  24.818  27.302  1.00  0.00     0.054 A 
ATOM     10  C   UNL     1      32.738  24.806  28.183  1.00  0.00    -0.036 A 
ATOM     11  C   UNL     1      31.854  24.800  31.865  1.00  0.00     0.127 A 
ATOM     12  C   UNL     1      30.705  24.756  32.668  1.00  0.00     0.093 A 
ATOM     13  C   UNL     1      29.450  24.526  32.105  1.00  0.00     0.119 A 
ATOM     14  C   UNL     1      29.330  24.360  30.723  1.00  0.00     0.050 A 
ENDROOT
BRANCH   8  15
ATOM     15  O   UNL     1      36.191  24.503  26.875  1.00  0.00    -0.504 OA
ATOM     16  H   UNL     1      36.588  25.370  26.532  1.00  0.00     0.293 HD
ENDBRANCH   8  15
BRANCH  11  17
ATOM     17  O   UNL     1      33.076  25.124  32.452  1.00  0.00    -0.507 OA
ATOM     18  H   UNL     1      33.548  25.999  32.257  1.00  0.00     0.293 HD
ENDBRANCH  11  17
BRANCH  13  19
ATOM     19  O   UNL     1      28.326  24.481  32.926  1.00  0.00    -0.508 OA
ATOM     20  H   UNL     1      27.930  23.601  33.234  1.00  0.00     0.293 HD
ENDBRANCH  13  19
BRANCH   7  21
ATOM     21  O   UNL     1      36.564  23.774  29.575  1.00  0.00    -0.504 OA
ATOM     22  H   UNL     1      37.186  23.176  29.043  1.00  0.00     0.293 HD
ENDBRANCH   7  21
TORSDOF 4
ENDMDL
MODEL 6
REMARK VINA RESULT:     0.316      1.613      5.570
REMARK INTER + INTRA:           0.353
REMARK INTER:                   0.353
REMARK INTRA:                   0.000
REMARK UNBOUND:                 0.000
REMARK SMILES Oc1cc(O)c2c(c1)CCc1cc(O)c(O)cc1-2
REMARK SMILES IDX 10 1 9 2 7 3 6 4 18 5 17 6 15 7 13 8 12 9 11 10 4 11 3 12
REMARK SMILES IDX 2 13 8 14 14 15 5 17 1 19 16 21
REMARK H PARENT 14 16 5 18 1 20 16 22
REMARK Flexibility Score: inf
ROOT
ATOM      1  C   UNL     1      32.236  24.132  34.804  1.00  0.00     0.041 C 
ATOM      2  C   UNL     1      31.096  25.081  34.415  1.00  0.00     0.041 C 
ATOM      3  C   UNL     1      30.783  24.957  32.944  1.00  0.00    -0.032 A 
ATOM      4  C   UNL     1      31.825  24.724  32.014  1.00  0.00     0.027 A 
ATOM      5  C   UNL     1      33.228  24.638  32.535  1.00  0.00    -0.007 A 
ATOM      6  C   UNL     1      34.351  24.935  31.738  1.00  0.00     0.059 A 
ATOM      7  C   UNL     1      35.646  24.839  32.260  1.00  0.00     0.158 A 
ATOM      8  C   UNL     1      35.836  24.469  33.600  1.00  0.00     0.157 A 
ATOM      9  C   UNL     1      34.725  24.229  34.417  1.00  0.00     0.054 A 
ATOM     10  C   UNL     1      33.427  24.344  33.903  1.00  0.00    -0.036 A 
ATOM     11  C   UNL     1      31.487  24.510  30.655  1.00  0.00     0.127 A 
ATOM     12  C   UNL     1      30.158  24.660  30.232  1.00  0.00     0.093 A 
ATOM     13  C   UNL     1      29.150  24.969  31.146  1.00  0.00     0.119 A 
ATOM     14  C   UNL     1      29.462  25.109  32.501  1.00  0.00     0.050 A 
ENDROOT
BRANCH   8  15
ATOM     15  O   UNL     1      37.125  24.355  34.118  1.00  0.00    -0.504 OA
ATOM     16  H   UNL     1      37.446  23.502  34.560  1.00  0.00     0.293 HD
ENDBRANCH   8  15
BRANCH  11  17
ATOM     17  O   UNL     1      32.449  24.111  29.728  1.00  0.00    -0.507 OA
ATOM     18  H   UNL     1      32.622  23.133  29.524  1.00  0.00     0.293 HD
ENDBRANCH  11  17
BRANCH  13  19
ATOM     19  O   UNL     1      27.840  25.119  30.699  1.00  0.00    -0.508 OA
ATOM     20  H   UNL     1      27.545  24.767  29.796  1.00  0.00     0.293 HD
ENDBRANCH  13  19
BRANCH   7  21
ATOM     21  O   UNL     1      36.732  25.122  31.431  1.00  0.00    -0.504 OA
ATOM     22  H   UNL     1      36.729  24.895  30.444  1.00  0.00     0.293 HD
ENDBRANCH   7  21
TORSDOF 4
ENDMDL
