MODEL 1
REMARK VINA RESULT:    -1.990      0.000      0.000
REMARK INTER + INTRA:          -2.164
REMARK INTER:                  -2.164
REMARK INTRA:                   0.000
REMARK UNBOUND:                 0.000
REMARK SMILES [NH3+]CC(=O)[O-]
REMARK SMILES IDX 2 1 1 2 3 6 4 7 5 8
REMARK H PARENT 1 3 1 4 1 5
REMARK Flexibility Score: inf
ROOT
ATOM      1  C   UNL     1     -25.053  60.652 -46.013  1.00  0.00     0.312 C 
ENDROOT
BRANCH   1   2
ATOM      2  N   UNL     1     -24.834  59.569 -46.971  1.00  0.00    -0.353 N 
ATOM      3  H   UNL     1     -24.521  59.961 -47.890  1.00  0.00     0.344 HD
ATOM      4  H   UNL     1     -25.716  59.022 -47.102  1.00  0.00     0.344 HD
ATOM      5  H   UNL     1     -24.090  58.933 -46.604  1.00  0.00     0.344 HD
ENDBRANCH   1   2
BRANCH   1   6
ATOM      6  C   UNL     1     -26.413  61.251 -46.196  1.00  0.00     0.096 C 
ATOM      7  O   UNL     1     -26.831  61.532 -47.350  1.00  0.00    -0.544 OA
ATOM      8  O   UNL     1     -27.199  61.544 -45.089  1.00  0.00    -0.544 OA
ENDBRANCH   1   6
TORSDOF 2
ENDMDL
MODEL 2
REMARK VINA RESULT:    -1.949     11.572     11.645
REMARK INTER + INTRA:          -2.120
REMARK INTER:                  -2.120
REMARK INTRA:                   0.000
REMARK UNBOUND:                 0.000
REMARK SMILES [NH3+]CC(=O)[O-]
REMARK SMILES IDX 2 1 1 2 3 6 4 7 5 8
REMARK H PARENT 1 3 1 4 1 5
REMARK Flexibility Score: inf
ROOT
ATOM      1  C   UNL     1     -36.123  55.247 -43.057  1.00  0.00     0.312 C 
ENDROOT
BRANCH   1   2
ATOM      2  N   UNL     1     -34.901  55.838 -42.513  1.00  0.00    -0.353 N 
ATOM      3  H   UNL     1     -34.586  56.631 -43.119  1.00  0.00     0.344 HD
ATOM      4  H   UNL     1     -34.147  55.115 -42.457  1.00  0.00     0.344 HD
ATOM      5  H   UNL     1     -35.095  56.203 -41.552  1.00  0.00     0.344 HD
ENDBRANCH   1   2
BRANCH   1   6
ATOM      6  C   UNL     1     -36.525  55.938 -44.323  1.00  0.00     0.096 C 
ATOM      7  O   UNL     1     -36.446  55.335 -45.425  1.00  0.00    -0.544 OA
ATOM      8  O   UNL     1     -36.942  57.263 -44.290  1.00  0.00    -0.544 OA
ENDBRANCH   1   6
TORSDOF 2
ENDMDL
MODEL 3
REMARK VINA RESULT:    -1.937      8.219      8.669
REMARK INTER + INTRA:          -2.106
REMARK INTER:                  -2.106
REMARK INTRA:                   0.000
REMARK UNBOUND:                 0.000
REMARK SMILES [NH3+]CC(=O)[O-]
REMARK SMILES IDX 2 1 1 2 3 6 4 7 5 8
REMARK H PARENT 1 3 1 4 1 5
REMARK Flexibility Score: inf
ROOT
ATOM      1  C   UNL     1     -34.442  63.762 -43.766  1.00  0.00     0.312 C 
ENDROOT
BRANCH   1   2
ATOM      2  N   UNL     1     -35.099  63.001 -44.828  1.00  0.00    -0.353 N 
ATOM      3  H   UNL     1     -36.002  62.602 -44.477  1.00  0.00     0.344 HD
ATOM      4  H   UNL     1     -34.475  62.228 -45.154  1.00  0.00     0.344 HD
ATOM      5  H   UNL     1     -35.301  63.638 -45.632  1.00  0.00     0.344 HD
ENDBRANCH   1   2
BRANCH   1   6
ATOM      6  C   UNL     1     -33.146  64.333 -44.251  1.00  0.00     0.096 C 
ATOM      7  O   UNL     1     -32.157  63.580 -44.450  1.00  0.00    -0.544 OA
ATOM      8  O   UNL     1     -33.016  65.704 -44.438  1.00  0.00    -0.544 OA
ENDBRANCH   1   6
TORSDOF 2
ENDMDL
MODEL 4
REMARK VINA RESULT:    -1.825      7.602      8.073
REMARK INTER + INTRA:          -1.985
REMARK INTER:                  -1.985
REMARK INTRA:                   0.000
REMARK UNBOUND:                 0.000
REMARK SMILES [NH3+]CC(=O)[O-]
REMARK SMILES IDX 2 1 1 2 3 6 4 7 5 8
REMARK H PARENT 1 3 1 4 1 5
REMARK Flexibility Score: inf
ROOT
ATOM      1  C   UNL     1     -32.888  65.776 -44.280  1.00  0.00     0.312 C 
ENDROOT
BRANCH   1   2
ATOM      2  N   UNL     1     -31.692  66.478 -44.744  1.00  0.00    -0.353 N 
ATOM      3  H   UNL     1     -30.937  66.418 -44.021  1.00  0.00     0.344 HD
ATOM      4  H   UNL     1     -31.917  67.482 -44.936  1.00  0.00     0.344 HD
ATOM      5  H   UNL     1     -31.352  66.031 -45.626  1.00  0.00     0.344 HD
ENDBRANCH   1   2
BRANCH   1   6
ATOM      6  C   UNL     1     -32.651  64.298 -44.244  1.00  0.00     0.096 C 
ATOM      7  O   UNL     1     -31.476  63.846 -44.228  1.00  0.00    -0.544 OA
ATOM      8  O   UNL     1     -33.727  63.420 -44.276  1.00  0.00    -0.544 OA
ENDBRANCH   1   6
TORSDOF 2
ENDMDL
MODEL 5
REMARK VINA RESULT:    -1.823      7.107      7.522
REMARK INTER + INTRA:          -1.983
REMARK INTER:                  -1.983
REMARK INTRA:                   0.000
REMARK UNBOUND:                 0.000
REMARK SMILES [NH3+]CC(=O)[O-]
REMARK SMILES IDX 2 1 1 2 3 6 4 7 5 8
REMARK H PARENT 1 3 1 4 1 5
REMARK Flexibility Score: inf
ROOT
ATOM      1  C   UNL     1     -31.864  66.000 -43.748  1.00  0.00     0.312 C 
ENDROOT
BRANCH   1   2
ATOM      2  N   UNL     1     -31.607  66.803 -44.943  1.00  0.00    -0.353 N 
ATOM      3  H   UNL     1     -32.319  66.587 -45.680  1.00  0.00     0.344 HD
ATOM      4  H   UNL     1     -30.648  66.604 -45.309  1.00  0.00     0.344 HD
ATOM      5  H   UNL     1     -31.674  67.817 -44.695  1.00  0.00     0.344 HD
ENDBRANCH   1   2
BRANCH   1   6
ATOM      6  C   UNL     1     -31.353  64.605 -43.929  1.00  0.00     0.096 C 
ATOM      7  O   UNL     1     -32.125  63.695 -44.332  1.00  0.00    -0.544 OA
ATOM      8  O   UNL     1     -30.037  64.299 -43.608  1.00  0.00    -0.544 OA
ENDBRANCH   1   6
TORSDOF 2
ENDMDL
MODEL 6
REMARK VINA RESULT:    -1.802      7.033      7.462
REMARK INTER + INTRA:          -1.960
REMARK INTER:                  -1.960
REMARK INTRA:                   0.000
REMARK UNBOUND:                 0.000
REMARK SMILES [NH3+]CC(=O)[O-]
REMARK SMILES IDX 2 1 1 2 3 6 4 7 5 8
REMARK H PARENT 1 3 1 4 1 5
REMARK Flexibility Score: inf
ROOT
ATOM      1  C   UNL     1     -28.809  59.144 -53.337  1.00  0.00     0.312 C 
ENDROOT
BRANCH   1   2
ATOM      2  N   UNL     1     -30.265  59.245 -53.253  1.00  0.00    -0.353 N 
ATOM      3  H   UNL     1     -30.622  58.646 -52.473  1.00  0.00     0.344 HD
ATOM      4  H   UNL     1     -30.699  58.944 -54.156  1.00  0.00     0.344 HD
ATOM      5  H   UNL     1     -30.529  60.239 -53.064  1.00  0.00     0.344 HD
ENDBRANCH   1   2
BRANCH   1   6
ATOM      6  C   UNL     1     -28.274  58.299 -52.223  1.00  0.00     0.096 C 
ATOM      7  O   UNL     1     -28.542  57.069 -52.176  1.00  0.00    -0.544 OA
ATOM      8  O   UNL     1     -27.518  58.878 -51.211  1.00  0.00    -0.544 OA
ENDBRANCH   1   6
TORSDOF 2
ENDMDL
MODEL 7
REMARK VINA RESULT:    -1.763      5.673      5.883
REMARK INTER + INTRA:          -1.918
REMARK INTER:                  -1.918
REMARK INTRA:                   0.000
REMARK UNBOUND:                 0.000
REMARK SMILES [NH3+]CC(=O)[O-]
REMARK SMILES IDX 2 1 1 2 3 6 4 7 5 8
REMARK H PARENT 1 3 1 4 1 5
REMARK Flexibility Score: inf
ROOT
ATOM      1  C   UNL     1     -23.264  57.746 -50.091  1.00  0.00     0.312 C 
ENDROOT
BRANCH   1   2
ATOM      2  N   UNL     1     -24.279  58.751 -49.776  1.00  0.00    -0.353 N 
ATOM      3  H   UNL     1     -23.873  59.488 -49.153  1.00  0.00     0.344 HD
ATOM      4  H   UNL     1     -25.096  58.300 -49.303  1.00  0.00     0.344 HD
ATOM      5  H   UNL     1     -24.604  59.199 -50.663  1.00  0.00     0.344 HD
ENDBRANCH   1   2
BRANCH   1   6
ATOM      6  C   UNL     1     -23.145  56.750 -48.980  1.00  0.00     0.096 C 
ATOM      7  O   UNL     1     -23.642  55.599 -49.105  1.00  0.00    -0.544 OA
ATOM      8  O   UNL     1     -22.529  57.107 -47.787  1.00  0.00    -0.544 OA
ENDBRANCH   1   6
TORSDOF 2
ENDMDL
MODEL 8
REMARK VINA RESULT:    -1.746      3.095      3.638
REMARK INTER + INTRA:          -1.899
REMARK INTER:                  -1.899
REMARK INTRA:                   0.000
REMARK UNBOUND:                 0.000
REMARK SMILES [NH3+]CC(=O)[O-]
REMARK SMILES IDX 2 1 1 2 3 6 4 7 5 8
REMARK H PARENT 1 3 1 4 1 5
REMARK Flexibility Score: inf
ROOT
ATOM      1  C   UNL     1     -26.598  61.167 -50.205  1.00  0.00     0.312 C 
ENDROOT
BRANCH   1   2
ATOM      2  N   UNL     1     -26.869  59.759 -49.918  1.00  0.00    -0.353 N 
ATOM      3  H   UNL     1     -27.720  59.444 -50.440  1.00  0.00     0.344 HD
ATOM      4  H   UNL     1     -27.014  59.623 -48.891  1.00  0.00     0.344 HD
ATOM      5  H   UNL     1     -26.051  59.184 -50.226  1.00  0.00     0.344 HD
ENDBRANCH   1   2
BRANCH   1   6
ATOM      6  C   UNL     1     -27.193  62.045 -49.147  1.00  0.00     0.096 C 
ATOM      7  O   UNL     1     -27.094  61.729 -47.933  1.00  0.00    -0.544 OA
ATOM      8  O   UNL     1     -27.900  63.186 -49.507  1.00  0.00    -0.544 OA
ENDBRANCH   1   6
TORSDOF 2
ENDMDL
MODEL 9
REMARK VINA RESULT:    -1.693      6.069      6.479
REMARK INTER + INTRA:          -1.842
REMARK INTER:                  -1.842
REMARK INTRA:                   0.000
REMARK UNBOUND:                 0.000
REMARK SMILES [NH3+]CC(=O)[O-]
REMARK SMILES IDX 2 1 1 2 3 6 4 7 5 8
REMARK H PARENT 1 3 1 4 1 5
REMARK Flexibility Score: inf
ROOT
ATOM      1  C   UNL     1     -26.019  57.231 -52.079  1.00  0.00     0.312 C 
ENDROOT
BRANCH   1   2
ATOM      2  N   UNL     1     -25.478  56.503 -50.932  1.00  0.00    -0.353 N 
ATOM      3  H   UNL     1     -26.151  55.761 -50.628  1.00  0.00     0.344 HD
ATOM      4  H   UNL     1     -25.298  57.163 -50.141  1.00  0.00     0.344 HD
ATOM      5  H   UNL     1     -24.577  56.049 -51.208  1.00  0.00     0.344 HD
ENDBRANCH   1   2
BRANCH   1   6
ATOM      6  C   UNL     1     -27.351  57.828 -51.745  1.00  0.00     0.096 C 
ATOM      7  O   UNL     1     -27.417  58.894 -51.079  1.00  0.00    -0.544 OA
ATOM      8  O   UNL     1     -28.519  57.180 -52.128  1.00  0.00    -0.544 OA
ENDBRANCH   1   6
TORSDOF 2
ENDMDL
