MODEL 1
REMARK VINA RESULT:    -7.931      0.000      0.000
REMARK INTER + INTRA:          -9.225
REMARK INTER:                  -9.090
REMARK INTRA:                  -0.135
REMARK UNBOUND:                -0.135
REMARK SMILES O=c1c(-c2ccc(O)cc2)coc2c(O)c(O)ccc12
REMARK SMILES IDX 3 1 11 2 12 3 13 4 20 5 2 6 1 7 19 8 18 9 16 10 14 11 4 12
REMARK SMILES IDX 5 13 6 14 7 15 10 16 9 17 8 18 15 20 17 22
REMARK H PARENT 8 19 15 21 17 23
REMARK Flexibility Score: inf
ROOT
ATOM      1  C   UNL     1     -37.682  39.821  44.757  1.00  0.00     0.065 A 
ATOM      2  C   UNL     1     -36.766  39.572  45.790  1.00  0.00     0.208 A 
ATOM      3  O   UNL     1     -37.164  39.054  46.947  1.00  0.00    -0.459 OA
ATOM      4  C   UNL     1     -38.431  38.743  47.198  1.00  0.00     0.183 A 
ATOM      5  C   UNL     1     -39.424  38.954  46.214  1.00  0.00     0.069 A 
ATOM      6  C   UNL     1     -39.035  39.496  44.976  1.00  0.00     0.200 A 
ATOM      7  O   UNL     1     -39.887  39.671  44.062  1.00  0.00    -0.288 OA
ATOM      8  C   UNL     1     -40.759  38.615  46.494  1.00  0.00     0.020 A 
ATOM      9  C   UNL     1     -41.100  38.076  47.736  1.00  0.00     0.051 A 
ATOM     10  C   UNL     1     -40.117  37.867  48.713  1.00  0.00     0.161 A 
ATOM     11  C   UNL     1     -38.779  38.200  48.444  1.00  0.00     0.201 A 
ENDROOT
BRANCH   1  12
ATOM     12  C   UNL     1     -37.212  40.407  43.476  1.00  0.00    -0.011 A 
ATOM     13  C   UNL     1     -36.720  41.724  43.429  1.00  0.00     0.013 A 
ATOM     14  C   UNL     1     -36.270  42.268  42.222  1.00  0.00     0.047 A 
ATOM     15  C   UNL     1     -36.303  41.506  41.051  1.00  0.00     0.115 A 
ATOM     16  C   UNL     1     -37.235  39.644  42.296  1.00  0.00     0.013 A 
ATOM     17  C   UNL     1     -36.786  40.191  41.090  1.00  0.00     0.047 A 
BRANCH  15  18
ATOM     18  O   UNL     1     -35.852  42.061  39.855  1.00  0.00    -0.508 OA
ATOM     19  H   UNL     1     -35.615  43.042  39.783  1.00  0.00     0.293 HD
ENDBRANCH  15  18
ENDBRANCH   1  12
BRANCH  11  20
ATOM     20  O   UNL     1     -37.784  38.000  49.401  1.00  0.00    -0.502 OA
ATOM     21  H   UNL     1     -37.997  37.706  50.346  1.00  0.00     0.293 HD
ENDBRANCH  11  20
BRANCH  10  22
ATOM     22  O   UNL     1     -40.467  37.328  49.952  1.00  0.00    -0.504 OA
ATOM     23  H   UNL     1     -40.530  37.905  50.782  1.00  0.00     0.293 HD
ENDBRANCH  10  22
TORSDOF 4
ENDMDL
MODEL 2
REMARK VINA RESULT:    -7.899      3.216      3.688
REMARK INTER + INTRA:          -9.189
REMARK INTER:                  -8.948
REMARK INTRA:                  -0.241
REMARK UNBOUND:                -0.135
REMARK SMILES O=c1c(-c2ccc(O)cc2)coc2c(O)c(O)ccc12
REMARK SMILES IDX 3 1 11 2 12 3 13 4 20 5 2 6 1 7 19 8 18 9 16 10 14 11 4 12
REMARK SMILES IDX 5 13 6 14 7 15 10 16 9 17 8 18 15 20 17 22
REMARK H PARENT 8 19 15 21 17 23
REMARK Flexibility Score: inf
ROOT
ATOM      1  C   UNL     1     -35.040  39.850  44.786  1.00  0.00     0.065 A 
ATOM      2  C   UNL     1     -35.138  39.550  46.153  1.00  0.00     0.208 A 
ATOM      3  O   UNL     1     -36.319  39.329  46.721  1.00  0.00    -0.459 OA
ATOM      4  C   UNL     1     -37.462  39.375  46.045  1.00  0.00     0.183 A 
ATOM      5  C   UNL     1     -37.460  39.664  44.662  1.00  0.00     0.069 A 
ATOM      6  C   UNL     1     -36.226  39.898  44.029  1.00  0.00     0.200 A 
ATOM      7  O   UNL     1     -36.181  40.129  42.789  1.00  0.00    -0.288 OA
ATOM      8  C   UNL     1     -38.678  39.704  43.962  1.00  0.00     0.020 A 
ATOM      9  C   UNL     1     -39.880  39.462  44.630  1.00  0.00     0.051 A 
ATOM     10  C   UNL     1     -39.884  39.176  46.002  1.00  0.00     0.161 A 
ATOM     11  C   UNL     1     -38.672  39.131  46.712  1.00  0.00     0.201 A 
ENDROOT
BRANCH   1  12
ATOM     12  C   UNL     1     -33.708  40.100  44.177  1.00  0.00    -0.011 A 
ATOM     13  C   UNL     1     -33.071  41.344  44.336  1.00  0.00     0.013 A 
ATOM     14  C   UNL     1     -31.814  41.571  43.768  1.00  0.00     0.047 A 
ATOM     15  C   UNL     1     -31.176  40.562  43.040  1.00  0.00     0.115 A 
ATOM     16  C   UNL     1     -33.059  39.087  43.450  1.00  0.00     0.013 A 
ATOM     17  C   UNL     1     -31.802  39.318  42.883  1.00  0.00     0.047 A 
BRANCH  15  18
ATOM     18  O   UNL     1     -29.924  40.803  42.480  1.00  0.00    -0.508 OA
ATOM     19  H   UNL     1     -29.242  40.062  42.369  1.00  0.00     0.293 HD
ENDBRANCH  15  18
ENDBRANCH   1  12
BRANCH  11  20
ATOM     20  O   UNL     1     -38.652  38.848  48.078  1.00  0.00    -0.502 OA
ATOM     21  H   UNL     1     -39.046  39.479  48.765  1.00  0.00     0.293 HD
ENDBRANCH  11  20
BRANCH  10  22
ATOM     22  O   UNL     1     -41.089  38.935  46.662  1.00  0.00    -0.504 OA
ATOM     23  H   UNL     1     -41.977  39.216  46.264  1.00  0.00     0.293 HD
ENDBRANCH  10  22
TORSDOF 4
ENDMDL
MODEL 3
REMARK VINA RESULT:    -7.868      2.887      8.803
REMARK INTER + INTRA:          -9.153
REMARK INTER:                  -8.960
REMARK INTRA:                  -0.193
REMARK UNBOUND:                -0.135
REMARK SMILES O=c1c(-c2ccc(O)cc2)coc2c(O)c(O)ccc12
REMARK SMILES IDX 3 1 11 2 12 3 13 4 20 5 2 6 1 7 19 8 18 9 16 10 14 11 4 12
REMARK SMILES IDX 5 13 6 14 7 15 10 16 9 17 8 18 15 20 17 22
REMARK H PARENT 8 19 15 21 17 23
REMARK Flexibility Score: inf
ROOT
ATOM      1  C   UNL     1     -35.613  42.256  42.329  1.00  0.00     0.065 A 
ATOM      2  C   UNL     1     -35.269  41.395  41.276  1.00  0.00     0.208 A 
ATOM      3  O   UNL     1     -34.907  41.875  40.091  1.00  0.00    -0.459 OA
ATOM      4  C   UNL     1     -34.848  43.177  39.830  1.00  0.00     0.183 A 
ATOM      5  C   UNL     1     -35.172  44.119  40.833  1.00  0.00     0.069 A 
ATOM      6  C   UNL     1     -35.554  43.643  42.100  1.00  0.00     0.200 A 
ATOM      7  O   UNL     1     -35.821  44.454  43.029  1.00  0.00    -0.288 OA
ATOM      8  C   UNL     1     -35.099  45.492  40.541  1.00  0.00     0.020 A 
ATOM      9  C   UNL     1     -34.712  45.920  39.269  1.00  0.00     0.051 A 
ATOM     10  C   UNL     1     -34.391  44.987  38.274  1.00  0.00     0.161 A 
ATOM     11  C   UNL     1     -34.458  43.612  38.554  1.00  0.00     0.201 A 
ENDROOT
BRANCH   1  12
ATOM     12  C   UNL     1     -36.022  41.693  43.642  1.00  0.00    -0.011 A 
ATOM     13  C   UNL     1     -35.156  41.756  44.748  1.00  0.00     0.013 A 
ATOM     14  C   UNL     1     -35.549  41.233  45.984  1.00  0.00     0.047 A 
ATOM     15  C   UNL     1     -36.809  40.645  46.132  1.00  0.00     0.115 A 
ATOM     16  C   UNL     1     -37.291  41.108  43.799  1.00  0.00     0.013 A 
ATOM     17  C   UNL     1     -37.680  40.585  45.035  1.00  0.00     0.047 A 
BRANCH  15  18
ATOM     18  O   UNL     1     -37.188  40.128  47.368  1.00  0.00    -0.508 OA
ATOM     19  H   UNL     1     -36.532  40.059  48.136  1.00  0.00     0.293 HD
ENDBRANCH  15  18
ENDBRANCH   1  12
BRANCH  11  20
ATOM     20  O   UNL     1     -34.143  42.665  37.579  1.00  0.00    -0.502 OA
ATOM     21  H   UNL     1     -34.381  42.796  36.604  1.00  0.00     0.293 HD
ENDBRANCH  11  20
BRANCH  10  22
ATOM     22  O   UNL     1     -34.005  45.422  37.006  1.00  0.00    -0.504 OA
ATOM     23  H   UNL     1     -33.041  45.645  36.793  1.00  0.00     0.293 HD
ENDBRANCH  10  22
TORSDOF 4
ENDMDL
MODEL 4
REMARK VINA RESULT:    -7.865      3.023      4.144
REMARK INTER + INTRA:          -9.149
REMARK INTER:                  -8.864
REMARK INTRA:                  -0.286
REMARK UNBOUND:                -0.135
REMARK SMILES O=c1c(-c2ccc(O)cc2)coc2c(O)c(O)ccc12
REMARK SMILES IDX 3 1 11 2 12 3 13 4 20 5 2 6 1 7 19 8 18 9 16 10 14 11 4 12
REMARK SMILES IDX 5 13 6 14 7 15 10 16 9 17 8 18 15 20 17 22
REMARK H PARENT 8 19 15 21 17 23
REMARK Flexibility Score: inf
ROOT
ATOM      1  C   UNL     1     -35.570  39.878  44.262  1.00  0.00     0.065 A 
ATOM      2  C   UNL     1     -36.565  40.246  43.344  1.00  0.00     0.208 A 
ATOM      3  O   UNL     1     -37.853  40.095  43.634  1.00  0.00    -0.459 OA
ATOM      4  C   UNL     1     -38.275  39.597  44.792  1.00  0.00     0.183 A 
ATOM      5  C   UNL     1     -37.345  39.204  45.780  1.00  0.00     0.069 A 
ATOM      6  C   UNL     1     -35.974  39.355  45.506  1.00  0.00     0.200 A 
ATOM      7  O   UNL     1     -35.113  39.044  46.375  1.00  0.00    -0.288 OA
ATOM      8  C   UNL     1     -37.809  38.683  47.000  1.00  0.00     0.020 A 
ATOM      9  C   UNL     1     -39.180  38.553  47.231  1.00  0.00     0.051 A 
ATOM     10  C   UNL     1     -40.105  38.941  46.252  1.00  0.00     0.161 A 
ATOM     11  C   UNL     1     -39.652  39.465  45.029  1.00  0.00     0.201 A 
ENDROOT
BRANCH   1  12
ATOM     12  C   UNL     1     -34.137  40.050  43.910  1.00  0.00    -0.011 A 
ATOM     13  C   UNL     1     -33.424  39.011  43.285  1.00  0.00     0.013 A 
ATOM     14  C   UNL     1     -32.078  39.181  42.948  1.00  0.00     0.047 A 
ATOM     15  C   UNL     1     -31.430  40.388  43.224  1.00  0.00     0.115 A 
ATOM     16  C   UNL     1     -33.482  41.264  44.178  1.00  0.00     0.013 A 
ATOM     17  C   UNL     1     -32.136  41.431  43.840  1.00  0.00     0.047 A 
BRANCH  15  18
ATOM     18  O   UNL     1     -30.088  40.544  42.882  1.00  0.00    -0.508 OA
ATOM     19  H   UNL     1     -29.488  41.192  43.378  1.00  0.00     0.293 HD
ENDBRANCH  15  18
ENDBRANCH   1  12
BRANCH  11  20
ATOM     20  O   UNL     1     -40.554  39.859  44.040  1.00  0.00    -0.502 OA
ATOM     21  H   UNL     1     -41.171  39.200  43.580  1.00  0.00     0.293 HD
ENDBRANCH  11  20
BRANCH  10  22
ATOM     22  O   UNL     1     -41.473  38.808  46.490  1.00  0.00    -0.504 OA
ATOM     23  H   UNL     1     -42.024  39.574  46.857  1.00  0.00     0.293 HD
ENDBRANCH  10  22
TORSDOF 4
ENDMDL
MODEL 5
REMARK VINA RESULT:    -7.849      2.581      2.769
REMARK INTER + INTRA:          -9.131
REMARK INTER:                  -8.851
REMARK INTRA:                  -0.280
REMARK UNBOUND:                -0.135
REMARK SMILES O=c1c(-c2ccc(O)cc2)coc2c(O)c(O)ccc12
REMARK SMILES IDX 3 1 11 2 12 3 13 4 20 5 2 6 1 7 19 8 18 9 16 10 14 11 4 12
REMARK SMILES IDX 5 13 6 14 7 15 10 16 9 17 8 18 15 20 17 22
REMARK H PARENT 8 19 15 21 17 23
REMARK Flexibility Score: inf
ROOT
ATOM      1  C   UNL     1     -35.713  39.343  45.583  1.00  0.00     0.065 A 
ATOM      2  C   UNL     1     -35.516  38.927  46.909  1.00  0.00     0.208 A 
ATOM      3  O   UNL     1     -36.545  38.601  47.683  1.00  0.00    -0.459 OA
ATOM      4  C   UNL     1     -37.805  38.645  47.261  1.00  0.00     0.183 A 
ATOM      5  C   UNL     1     -38.099  39.047  45.938  1.00  0.00     0.069 A 
ATOM      6  C   UNL     1     -37.031  39.395  45.091  1.00  0.00     0.200 A 
ATOM      7  O   UNL     1     -37.251  39.729  43.894  1.00  0.00    -0.288 OA
ATOM      8  C   UNL     1     -39.436  39.084  45.507  1.00  0.00     0.020 A 
ATOM      9  C   UNL     1     -40.465  38.728  46.381  1.00  0.00     0.051 A 
ATOM     10  C   UNL     1     -40.176  38.330  47.693  1.00  0.00     0.161 A 
ATOM     11  C   UNL     1     -38.843  38.287  48.135  1.00  0.00     0.201 A 
ENDROOT
BRANCH   1  12
ATOM     12  C   UNL     1     -34.545  39.710  44.742  1.00  0.00    -0.011 A 
ATOM     13  C   UNL     1     -34.027  41.017  44.765  1.00  0.00     0.013 A 
ATOM     14  C   UNL     1     -32.922  41.354  43.978  1.00  0.00     0.047 A 
ATOM     15  C   UNL     1     -32.319  40.392  43.162  1.00  0.00     0.115 A 
ATOM     16  C   UNL     1     -33.929  38.745  43.925  1.00  0.00     0.013 A 
ATOM     17  C   UNL     1     -32.824  39.086  43.138  1.00  0.00     0.047 A 
BRANCH  15  18
ATOM     18  O   UNL     1     -31.219  40.742  42.382  1.00  0.00    -0.508 OA
ATOM     19  H   UNL     1     -30.341  41.022  42.801  1.00  0.00     0.293 HD
ENDBRANCH  15  18
ENDBRANCH   1  12
BRANCH  11  20
ATOM     20  O   UNL     1     -38.531  37.894  49.436  1.00  0.00    -0.502 OA
ATOM     21  H   UNL     1     -39.192  37.398  50.022  1.00  0.00     0.293 HD
ENDBRANCH  11  20
BRANCH  10  22
ATOM     22  O   UNL     1     -41.210  37.976  48.560  1.00  0.00    -0.504 OA
ATOM     23  H   UNL     1     -41.735  38.674  49.072  1.00  0.00     0.293 HD
ENDBRANCH  10  22
TORSDOF 4
ENDMDL
MODEL 6
REMARK VINA RESULT:    -7.794      1.375      7.211
REMARK INTER + INTRA:          -9.069
REMARK INTER:                  -8.933
REMARK INTRA:                  -0.136
REMARK UNBOUND:                -0.135
REMARK SMILES O=c1c(-c2ccc(O)cc2)coc2c(O)c(O)ccc12
REMARK SMILES IDX 3 1 11 2 12 3 13 4 20 5 2 6 1 7 19 8 18 9 16 10 14 11 4 12
REMARK SMILES IDX 5 13 6 14 7 15 10 16 9 17 8 18 15 20 17 22
REMARK H PARENT 8 19 15 21 17 23
REMARK Flexibility Score: inf
ROOT
ATOM      1  C   UNL     1     -37.671  39.578  44.659  1.00  0.00     0.065 A 
ATOM      2  C   UNL     1     -37.983  38.901  43.470  1.00  0.00     0.208 A 
ATOM      3  O   UNL     1     -37.611  39.384  42.290  1.00  0.00    -0.459 OA
ATOM      4  C   UNL     1     -36.930  40.519  42.160  1.00  0.00     0.183 A 
ATOM      5  C   UNL     1     -36.567  41.266  43.303  1.00  0.00     0.069 A 
ATOM      6  C   UNL     1     -36.942  40.779  44.568  1.00  0.00     0.200 A 
ATOM      7  O   UNL     1     -36.609  41.402  45.614  1.00  0.00    -0.288 OA
ATOM      8  C   UNL     1     -35.844  42.461  43.147  1.00  0.00     0.020 A 
ATOM      9  C   UNL     1     -35.490  42.906  41.872  1.00  0.00     0.051 A 
ATOM     10  C   UNL     1     -35.850  42.167  40.737  1.00  0.00     0.161 A 
ATOM     11  C   UNL     1     -36.572  40.970  40.880  1.00  0.00     0.201 A 
ENDROOT
BRANCH   1  12
ATOM     12  C   UNL     1     -38.106  39.020  45.965  1.00  0.00    -0.011 A 
ATOM     13  C   UNL     1     -37.160  38.539  46.889  1.00  0.00     0.013 A 
ATOM     14  C   UNL     1     -37.575  38.023  48.120  1.00  0.00     0.047 A 
ATOM     15  C   UNL     1     -38.934  37.984  48.447  1.00  0.00     0.115 A 
ATOM     16  C   UNL     1     -39.470  38.984  46.302  1.00  0.00     0.013 A 
ATOM     17  C   UNL     1     -39.881  38.467  47.534  1.00  0.00     0.047 A 
BRANCH  15  18
ATOM     18  O   UNL     1     -39.332  37.466  49.677  1.00  0.00    -0.508 OA
ATOM     19  H   UNL     1     -40.254  37.069  49.810  1.00  0.00     0.293 HD
ENDBRANCH  15  18
ENDBRANCH   1  12
BRANCH  11  20
ATOM     20  O   UNL     1     -36.941  40.217  39.765  1.00  0.00    -0.502 OA
ATOM     21  H   UNL     1     -36.282  39.981  39.033  1.00  0.00     0.293 HD
ENDBRANCH  11  20
BRANCH  10  22
ATOM     22  O   UNL     1     -35.493  42.618  39.466  1.00  0.00    -0.504 OA
ATOM     23  H   UNL     1     -36.178  42.718  38.727  1.00  0.00     0.293 HD
ENDBRANCH  10  22
TORSDOF 4
ENDMDL
MODEL 7
REMARK VINA RESULT:    -7.740      4.606      7.176
REMARK INTER + INTRA:          -9.006
REMARK INTER:                  -8.764
REMARK INTRA:                  -0.242
REMARK UNBOUND:                -0.135
REMARK SMILES O=c1c(-c2ccc(O)cc2)coc2c(O)c(O)ccc12
REMARK SMILES IDX 3 1 11 2 12 3 13 4 20 5 2 6 1 7 19 8 18 9 16 10 14 11 4 12
REMARK SMILES IDX 5 13 6 14 7 15 10 16 9 17 8 18 15 20 17 22
REMARK H PARENT 8 19 15 21 17 23
REMARK Flexibility Score: inf
ROOT
ATOM      1  C   UNL     1     -33.661  43.213  40.232  1.00  0.00     0.065 A 
ATOM      2  C   UNL     1     -32.789  42.124  40.385  1.00  0.00     0.208 A 
ATOM      3  O   UNL     1     -32.895  41.304  41.425  1.00  0.00    -0.459 OA
ATOM      4  C   UNL     1     -33.817  41.458  42.371  1.00  0.00     0.183 A 
ATOM      5  C   UNL     1     -34.742  42.524  42.297  1.00  0.00     0.069 A 
ATOM      6  C   UNL     1     -34.659  43.407  41.205  1.00  0.00     0.200 A 
ATOM      7  O   UNL     1     -35.487  44.352  41.088  1.00  0.00    -0.288 OA
ATOM      8  C   UNL     1     -35.712  42.669  43.303  1.00  0.00     0.020 A 
ATOM      9  C   UNL     1     -35.759  41.767  44.368  1.00  0.00     0.051 A 
ATOM     10  C   UNL     1     -34.842  40.709  44.443  1.00  0.00     0.161 A 
ATOM     11  C   UNL     1     -33.868  40.554  43.442  1.00  0.00     0.201 A 
ENDROOT
BRANCH   1  12
ATOM     12  C   UNL     1     -33.516  44.118  39.063  1.00  0.00    -0.011 A 
ATOM     13  C   UNL     1     -34.361  43.987  37.946  1.00  0.00     0.013 A 
ATOM     14  C   UNL     1     -34.226  44.848  36.853  1.00  0.00     0.047 A 
ATOM     15  C   UNL     1     -33.252  45.851  36.862  1.00  0.00     0.115 A 
ATOM     16  C   UNL     1     -32.543  45.133  39.069  1.00  0.00     0.013 A 
ATOM     17  C   UNL     1     -32.410  45.992  37.974  1.00  0.00     0.047 A 
BRANCH  15  18
ATOM     18  O   UNL     1     -33.128  46.701  35.766  1.00  0.00    -0.508 OA
ATOM     19  H   UNL     1     -32.256  46.787  35.258  1.00  0.00     0.293 HD
ENDBRANCH  15  18
ENDBRANCH   1  12
BRANCH  11  20
ATOM     20  O   UNL     1     -32.946  39.509  43.497  1.00  0.00    -0.502 OA
ATOM     21  H   UNL     1     -31.970  39.638  43.256  1.00  0.00     0.293 HD
ENDBRANCH  11  20
BRANCH  10  22
ATOM     22  O   UNL     1     -34.895  39.813  45.511  1.00  0.00    -0.504 OA
ATOM     23  H   UNL     1     -34.060  39.533  46.010  1.00  0.00     0.293 HD
ENDBRANCH  10  22
TORSDOF 4
ENDMDL
MODEL 8
REMARK VINA RESULT:    -7.696      2.359      3.929
REMARK INTER + INTRA:          -8.955
REMARK INTER:                  -8.799
REMARK INTRA:                  -0.156
REMARK UNBOUND:                -0.135
REMARK SMILES O=c1c(-c2ccc(O)cc2)coc2c(O)c(O)ccc12
REMARK SMILES IDX 3 1 11 2 12 3 13 4 20 5 2 6 1 7 19 8 18 9 16 10 14 11 4 12
REMARK SMILES IDX 5 13 6 14 7 15 10 16 9 17 8 18 15 20 17 22
REMARK H PARENT 8 19 15 21 17 23
REMARK Flexibility Score: inf
ROOT
ATOM      1  C   UNL     1     -35.526  42.199  42.537  1.00  0.00     0.065 A 
ATOM      2  C   UNL     1     -34.867  42.534  43.729  1.00  0.00     0.208 A 
ATOM      3  O   UNL     1     -35.278  42.052  44.897  1.00  0.00    -0.459 OA
ATOM      4  C   UNL     1     -36.321  41.235  45.010  1.00  0.00     0.183 A 
ATOM      5  C   UNL     1     -37.043  40.839  43.862  1.00  0.00     0.069 A 
ATOM      6  C   UNL     1     -36.630  41.328  42.610  1.00  0.00     0.200 A 
ATOM      7  O   UNL     1     -37.231  40.973  41.558  1.00  0.00    -0.288 OA
ATOM      8  C   UNL     1     -38.140  39.972  44.000  1.00  0.00     0.020 A 
ATOM      9  C   UNL     1     -38.513  39.508  45.263  1.00  0.00     0.051 A 
ATOM     10  C   UNL     1     -37.799  39.900  46.403  1.00  0.00     0.161 A 
ATOM     11  C   UNL     1     -36.699  40.766  46.277  1.00  0.00     0.201 A 
ENDROOT
BRANCH   1  12
ATOM     12  C   UNL     1     -35.050  42.758  41.246  1.00  0.00    -0.011 A 
ATOM     13  C   UNL     1     -35.189  44.130  40.965  1.00  0.00     0.013 A 
ATOM     14  C   UNL     1     -34.731  44.652  39.751  1.00  0.00     0.047 A 
ATOM     15  C   UNL     1     -34.127  43.816  38.807  1.00  0.00     0.115 A 
ATOM     16  C   UNL     1     -34.435  41.924  40.295  1.00  0.00     0.013 A 
ATOM     17  C   UNL     1     -33.979  42.450  39.083  1.00  0.00     0.047 A 
BRANCH  15  18
ATOM     18  O   UNL     1     -33.676  44.350  37.603  1.00  0.00    -0.508 OA
ATOM     19  H   UNL     1     -34.199  44.234  36.743  1.00  0.00     0.293 HD
ENDBRANCH  15  18
ENDBRANCH   1  12
BRANCH  11  20
ATOM     20  O   UNL     1     -35.973  41.169  47.398  1.00  0.00    -0.502 OA
ATOM     21  H   UNL     1     -35.542  40.504  48.029  1.00  0.00     0.293 HD
ENDBRANCH  11  20
BRANCH  10  22
ATOM     22  O   UNL     1     -38.179  39.432  47.661  1.00  0.00    -0.504 OA
ATOM     23  H   UNL     1     -38.907  39.887  48.198  1.00  0.00     0.293 HD
ENDBRANCH  10  22
TORSDOF 4
ENDMDL
MODEL 9
REMARK VINA RESULT:    -7.685      4.293      8.467
REMARK INTER + INTRA:          -8.943
REMARK INTER:                  -8.659
REMARK INTRA:                  -0.284
REMARK UNBOUND:                -0.135
REMARK SMILES O=c1c(-c2ccc(O)cc2)coc2c(O)c(O)ccc12
REMARK SMILES IDX 3 1 11 2 12 3 13 4 20 5 2 6 1 7 19 8 18 9 16 10 14 11 4 12
REMARK SMILES IDX 5 13 6 14 7 15 10 16 9 17 8 18 15 20 17 22
REMARK H PARENT 8 19 15 21 17 23
REMARK Flexibility Score: inf
ROOT
ATOM      1  C   UNL     1     -35.040  40.322  41.497  1.00  0.00     0.065 A 
ATOM      2  C   UNL     1     -34.613  40.178  40.168  1.00  0.00     0.208 A 
ATOM      3  O   UNL     1     -34.444  41.238  39.385  1.00  0.00    -0.459 OA
ATOM      4  C   UNL     1     -34.663  42.481  39.802  1.00  0.00     0.183 A 
ATOM      5  C   UNL     1     -35.090  42.724  41.127  1.00  0.00     0.069 A 
ATOM      6  C   UNL     1     -35.274  41.623  41.983  1.00  0.00     0.200 A 
ATOM      7  O   UNL     1     -35.625  41.801  43.182  1.00  0.00    -0.288 OA
ATOM      8  C   UNL     1     -35.313  44.044  41.551  1.00  0.00     0.020 A 
ATOM      9  C   UNL     1     -35.115  45.108  40.668  1.00  0.00     0.051 A 
ATOM     10  C   UNL     1     -34.693  44.870  39.353  1.00  0.00     0.161 A 
ATOM     11  C   UNL     1     -34.465  43.553  38.918  1.00  0.00     0.201 A 
ENDROOT
BRANCH   1  12
ATOM     12  C   UNL     1     -35.228  39.120  42.349  1.00  0.00    -0.011 A 
ATOM     13  C   UNL     1     -36.465  38.450  42.380  1.00  0.00     0.013 A 
ATOM     14  C   UNL     1     -36.634  37.314  43.176  1.00  0.00     0.047 A 
ATOM     15  C   UNL     1     -35.573  36.829  43.946  1.00  0.00     0.115 A 
ATOM     16  C   UNL     1     -34.163  38.623  43.120  1.00  0.00     0.013 A 
ATOM     17  C   UNL     1     -34.335  37.486  43.916  1.00  0.00     0.047 A 
BRANCH  15  18
ATOM     18  O   UNL     1     -35.755  35.696  44.736  1.00  0.00    -0.508 OA
ATOM     19  H   UNL     1     -36.636  35.197  44.750  1.00  0.00     0.293 HD
ENDBRANCH  15  18
ENDBRANCH   1  12
BRANCH  11  20
ATOM     20  O   UNL     1     -34.043  43.292  37.614  1.00  0.00    -0.502 OA
ATOM     21  H   UNL     1     -33.186  43.678  37.238  1.00  0.00     0.293 HD
ENDBRANCH  11  20
BRANCH  10  22
ATOM     22  O   UNL     1     -34.498  45.938  38.477  1.00  0.00    -0.504 OA
ATOM     23  H   UNL     1     -35.163  46.699  38.413  1.00  0.00     0.293 HD
ENDBRANCH  10  22
TORSDOF 4
ENDMDL
