MODEL 1
REMARK VINA RESULT:    -4.692      0.000      0.000
REMARK INTER + INTRA:         -12.514
REMARK INTER:                 -10.177
REMARK INTRA:                  -2.337
REMARK UNBOUND:                -2.337
REMARK SMILES CCCCCCCCCCCCCCCCCCCCCC(=O)[O-]
REMARK SMILES IDX 12 1 11 2 10 3 9 4 8 5 7 6 6 7 5 8 4 9 3 10 2 11 1 12 13 13
REMARK SMILES IDX 14 14 15 15 16 16 17 17 18 18 19 19 20 20 21 21 22 22 23 23
REMARK SMILES IDX 24 24
REMARK H PARENT
REMARK Flexibility Score: inf
ROOT
ATOM      1  C   UNL     1     -12.083   3.978   6.830  1.00  0.00     0.000 C 
ENDROOT
BRANCH   1   2
ATOM      2  C   UNL     1     -13.036   5.004   6.187  1.00  0.00     0.000 C 
BRANCH   2   3
ATOM      3  C   UNL     1     -12.517   5.659   4.891  1.00  0.00     0.000 C 
BRANCH   3   4
ATOM      4  C   UNL     1     -13.570   5.850   3.784  1.00  0.00    -0.000 C 
BRANCH   4   5
ATOM      5  C   UNL     1     -13.960   7.325   3.578  1.00  0.00    -0.000 C 
BRANCH   5   6
ATOM      6  C   UNL     1     -14.813   7.885   4.732  1.00  0.00    -0.000 C 
BRANCH   6   7
ATOM      7  C   UNL     1     -14.310   9.216   5.330  1.00  0.00    -0.000 C 
BRANCH   7   8
ATOM      8  C   UNL     1     -12.789   9.292   5.568  1.00  0.00    -0.000 C 
BRANCH   8   9
ATOM      9  C   UNL     1     -12.105  10.557   5.012  1.00  0.00    -0.000 C 
BRANCH   9  10
ATOM     10  C   UNL     1     -12.960  11.379   4.029  1.00  0.00    -0.000 C 
BRANCH  10  11
ATOM     11  C   UNL     1     -12.447  11.297   2.584  1.00  0.00    -0.003 C 
ATOM     12  C   UNL     1     -13.402  10.489   1.708  1.00  0.00     0.004 C 
ENDBRANCH  10  11
ENDBRANCH   9  10
ENDBRANCH   8   9
ENDBRANCH   7   8
ENDBRANCH   6   7
ENDBRANCH   5   6
ENDBRANCH   4   5
ENDBRANCH   3   4
ENDBRANCH   2   3
ENDBRANCH   1   2
BRANCH   1  13
ATOM     13  C   UNL     1     -11.746   4.248   8.306  1.00  0.00     0.000 C 
BRANCH  13  14
ATOM     14  C   UNL     1     -10.261   4.589   8.524  1.00  0.00     0.000 C 
BRANCH  14  15
ATOM     15  C   UNL     1      -9.867   5.933   7.892  1.00  0.00     0.000 C 
BRANCH  15  16
ATOM     16  C   UNL     1      -9.153   5.762   6.540  1.00  0.00     0.000 C 
BRANCH  16  17
ATOM     17  C   UNL     1      -9.275   7.011   5.649  1.00  0.00     0.000 C 
BRANCH  17  18
ATOM     18  C   UNL     1      -8.418   8.180   6.156  1.00  0.00     0.000 C 
BRANCH  18  19
ATOM     19  C   UNL     1      -8.080   9.150   5.013  1.00  0.00     0.000 C 
BRANCH  19  20
ATOM     20  C   UNL     1      -7.735  10.562   5.516  1.00  0.00     0.006 C 
BRANCH  20  21
ATOM     21  C   UNL     1      -6.282  10.959   5.221  1.00  0.00     0.053 C 
BRANCH  21  22
ATOM     22  C   UNL     1      -5.462  10.905   6.471  1.00  0.00     0.041 C 
ATOM     23  O   UNL     1      -6.023  10.929   7.601  1.00  0.00    -0.550 OA
ATOM     24  O   UNL     1      -4.074  10.860   6.391  1.00  0.00    -0.550 OA
ENDBRANCH  21  22
ENDBRANCH  20  21
ENDBRANCH  19  20
ENDBRANCH  18  19
ENDBRANCH  17  18
ENDBRANCH  16  17
ENDBRANCH  15  16
ENDBRANCH  14  15
ENDBRANCH  13  14
ENDBRANCH   1  13
TORSDOF 20
ENDMDL
MODEL 2
REMARK VINA RESULT:    -4.583      0.882      1.991
REMARK INTER + INTRA:         -12.279
REMARK INTER:                 -10.311
REMARK INTRA:                  -1.968
REMARK UNBOUND:                -2.337
REMARK SMILES CCCCCCCCCCCCCCCCCCCCCC(=O)[O-]
REMARK SMILES IDX 12 1 11 2 10 3 9 4 8 5 7 6 6 7 5 8 4 9 3 10 2 11 1 12 13 13
REMARK SMILES IDX 14 14 15 15 16 16 17 17 18 18 19 19 20 20 21 21 22 22 23 23
REMARK SMILES IDX 24 24
REMARK H PARENT
REMARK Flexibility Score: inf
ROOT
ATOM      1  C   UNL     1     -11.506   4.032   6.826  1.00  0.00     0.000 C 
ENDROOT
BRANCH   1   2
ATOM      2  C   UNL     1     -12.894   4.691   6.703  1.00  0.00     0.000 C 
BRANCH   2   3
ATOM      3  C   UNL     1     -12.941   5.962   5.832  1.00  0.00     0.000 C 
BRANCH   3   4
ATOM      4  C   UNL     1     -14.169   6.081   4.910  1.00  0.00    -0.000 C 
BRANCH   4   5
ATOM      5  C   UNL     1     -13.910   5.535   3.495  1.00  0.00    -0.000 C 
BRANCH   5   6
ATOM      6  C   UNL     1     -14.061   6.610   2.402  1.00  0.00    -0.000 C 
BRANCH   6   7
ATOM      7  C   UNL     1     -13.973   8.067   2.900  1.00  0.00    -0.000 C 
BRANCH   7   8
ATOM      8  C   UNL     1     -13.636   9.110   1.816  1.00  0.00    -0.000 C 
BRANCH   8   9
ATOM      9  C   UNL     1     -13.614  10.573   2.301  1.00  0.00    -0.000 C 
BRANCH   9  10
ATOM     10  C   UNL     1     -13.959  10.768   3.790  1.00  0.00    -0.000 C 
BRANCH  10  11
ATOM     11  C   UNL     1     -12.734  11.130   4.642  1.00  0.00    -0.003 C 
ATOM     12  C   UNL     1     -12.369   9.990   5.590  1.00  0.00     0.004 C 
ENDBRANCH  10  11
ENDBRANCH   9  10
ENDBRANCH   8   9
ENDBRANCH   7   8
ENDBRANCH   6   7
ENDBRANCH   5   6
ENDBRANCH   4   5
ENDBRANCH   3   4
ENDBRANCH   2   3
ENDBRANCH   1   2
BRANCH   1  13
ATOM     13  C   UNL     1     -10.713   4.432   8.082  1.00  0.00     0.000 C 
BRANCH  13  14
ATOM     14  C   UNL     1      -9.888   5.716   7.878  1.00  0.00     0.000 C 
BRANCH  14  15
ATOM     15  C   UNL     1      -9.191   5.757   6.509  1.00  0.00     0.000 C 
BRANCH  15  16
ATOM     16  C   UNL     1      -9.399   7.097   5.781  1.00  0.00     0.000 C 
BRANCH  16  17
ATOM     17  C   UNL     1      -8.322   8.134   6.141  1.00  0.00     0.000 C 
BRANCH  17  18
ATOM     18  C   UNL     1      -8.122   9.181   5.036  1.00  0.00     0.000 C 
BRANCH  18  19
ATOM     19  C   UNL     1      -8.787  10.514   5.414  1.00  0.00     0.000 C 
BRANCH  19  20
ATOM     20  C   UNL     1      -7.764  11.623   5.715  1.00  0.00     0.006 C 
BRANCH  20  21
ATOM     21  C   UNL     1      -6.337  11.242   5.298  1.00  0.00     0.053 C 
BRANCH  21  22
ATOM     22  C   UNL     1      -5.506  10.930   6.503  1.00  0.00     0.041 C 
ATOM     23  O   UNL     1      -4.310  10.552   6.369  1.00  0.00    -0.550 OA
ATOM     24  O   UNL     1      -6.063  11.023   7.774  1.00  0.00    -0.550 OA
ENDBRANCH  21  22
ENDBRANCH  20  21
ENDBRANCH  19  20
ENDBRANCH  18  19
ENDBRANCH  17  18
ENDBRANCH  16  17
ENDBRANCH  15  16
ENDBRANCH  14  15
ENDBRANCH  13  14
ENDBRANCH   1  13
TORSDOF 20
ENDMDL
MODEL 3
REMARK VINA RESULT:    -4.538      2.815      5.946
REMARK INTER + INTRA:         -12.180
REMARK INTER:                  -9.637
REMARK INTRA:                  -2.543
REMARK UNBOUND:                -2.337
REMARK SMILES CCCCCCCCCCCCCCCCCCCCCC(=O)[O-]
REMARK SMILES IDX 12 1 11 2 10 3 9 4 8 5 7 6 6 7 5 8 4 9 3 10 2 11 1 12 13 13
REMARK SMILES IDX 14 14 15 15 16 16 17 17 18 18 19 19 20 20 21 21 22 22 23 23
REMARK SMILES IDX 24 24
REMARK H PARENT
REMARK Flexibility Score: inf
ROOT
ATOM      1  C   UNL     1     -10.933   4.149   8.225  1.00  0.00     0.000 C 
ENDROOT
BRANCH   1   2
ATOM      2  C   UNL     1     -10.617   5.642   8.448  1.00  0.00     0.000 C 
BRANCH   2   3
ATOM      3  C   UNL     1      -9.319   6.142   7.784  1.00  0.00     0.000 C 
BRANCH   3   4
ATOM      4  C   UNL     1      -9.114   5.696   6.324  1.00  0.00    -0.000 C 
BRANCH   4   5
ATOM      5  C   UNL     1      -8.993   6.879   5.348  1.00  0.00    -0.000 C 
BRANCH   5   6
ATOM      6  C   UNL     1      -8.408   8.142   6.010  1.00  0.00    -0.000 C 
BRANCH   6   7
ATOM      7  C   UNL     1      -8.129   9.315   5.047  1.00  0.00    -0.000 C 
BRANCH   7   8
ATOM      8  C   UNL     1      -8.499  10.709   5.591  1.00  0.00    -0.000 C 
BRANCH   8   9
ATOM      9  C   UNL     1      -7.315  11.684   5.748  1.00  0.00    -0.000 C 
BRANCH   9  10
ATOM     10  C   UNL     1      -5.964  11.154   5.231  1.00  0.00    -0.000 C 
BRANCH  10  11
ATOM     11  C   UNL     1      -4.895  11.077   6.330  1.00  0.00    -0.003 C 
ATOM     12  C   UNL     1      -5.373  11.758   7.610  1.00  0.00     0.004 C 
ENDBRANCH  10  11
ENDBRANCH   9  10
ENDBRANCH   8   9
ENDBRANCH   7   8
ENDBRANCH   6   7
ENDBRANCH   5   6
ENDBRANCH   4   5
ENDBRANCH   3   4
ENDBRANCH   2   3
ENDBRANCH   1   2
BRANCH   1  13
ATOM     13  C   UNL     1     -11.937   3.866   7.095  1.00  0.00     0.000 C 
BRANCH  13  14
ATOM     14  C   UNL     1     -12.854   5.068   6.801  1.00  0.00     0.000 C 
BRANCH  14  15
ATOM     15  C   UNL     1     -12.739   5.554   5.348  1.00  0.00     0.000 C 
BRANCH  15  16
ATOM     16  C   UNL     1     -12.999   7.065   5.210  1.00  0.00     0.000 C 
BRANCH  16  17
ATOM     17  C   UNL     1     -12.214   7.893   6.241  1.00  0.00     0.000 C 
BRANCH  17  18
ATOM     18  C   UNL     1     -12.754   9.323   6.380  1.00  0.00     0.000 C 
BRANCH  18  19
ATOM     19  C   UNL     1     -11.999  10.289   5.453  1.00  0.00     0.000 C 
BRANCH  19  20
ATOM     20  C   UNL     1     -12.818  10.681   4.211  1.00  0.00     0.006 C 
BRANCH  20  21
ATOM     21  C   UNL     1     -12.032  11.574   3.240  1.00  0.00     0.053 C 
BRANCH  21  22
ATOM     22  C   UNL     1     -12.518  11.375   1.839  1.00  0.00     0.041 C 
ATOM     23  O   UNL     1     -13.714  11.035   1.623  1.00  0.00    -0.550 OA
ATOM     24  O   UNL     1     -11.643  11.533   0.770  1.00  0.00    -0.550 OA
ENDBRANCH  21  22
ENDBRANCH  20  21
ENDBRANCH  19  20
ENDBRANCH  18  19
ENDBRANCH  17  18
ENDBRANCH  16  17
ENDBRANCH  15  16
ENDBRANCH  14  15
ENDBRANCH  13  14
ENDBRANCH   1  13
TORSDOF 20
ENDMDL
MODEL 4
REMARK VINA RESULT:    -4.537      1.186      2.667
REMARK INTER + INTRA:         -12.178
REMARK INTER:                  -9.591
REMARK INTRA:                  -2.587
REMARK UNBOUND:                -2.337
REMARK SMILES CCCCCCCCCCCCCCCCCCCCCC(=O)[O-]
REMARK SMILES IDX 12 1 11 2 10 3 9 4 8 5 7 6 6 7 5 8 4 9 3 10 2 11 1 12 13 13
REMARK SMILES IDX 14 14 15 15 16 16 17 17 18 18 19 19 20 20 21 21 22 22 23 23
REMARK SMILES IDX 24 24
REMARK H PARENT
REMARK Flexibility Score: inf
ROOT
ATOM      1  C   UNL     1     -12.768   6.034   5.849  1.00  0.00     0.000 C 
ENDROOT
BRANCH   1   2
ATOM      2  C   UNL     1     -13.979   6.375   4.958  1.00  0.00     0.000 C 
BRANCH   2   3
ATOM      3  C   UNL     1     -13.927   5.792   3.532  1.00  0.00     0.000 C 
BRANCH   3   4
ATOM      4  C   UNL     1     -13.994   6.829   2.396  1.00  0.00    -0.000 C 
BRANCH   4   5
ATOM      5  C   UNL     1     -13.889   8.278   2.903  1.00  0.00    -0.000 C 
BRANCH   5   6
ATOM      6  C   UNL     1     -13.636   9.292   1.769  1.00  0.00    -0.000 C 
BRANCH   6   7
ATOM      7  C   UNL     1     -13.609  10.770   2.207  1.00  0.00    -0.000 C 
BRANCH   7   8
ATOM      8  C   UNL     1     -12.211  11.418   2.236  1.00  0.00    -0.000 C 
BRANCH   8   9
ATOM      9  C   UNL     1     -11.844  12.120   3.559  1.00  0.00    -0.000 C 
BRANCH   9  10
ATOM     10  C   UNL     1     -11.163  11.217   4.606  1.00  0.00    -0.000 C 
BRANCH  10  11
ATOM     11  C   UNL     1     -11.995  11.061   5.887  1.00  0.00    -0.003 C 
ATOM     12  C   UNL     1     -12.432   9.612   6.085  1.00  0.00     0.004 C 
ENDBRANCH  10  11
ENDBRANCH   9  10
ENDBRANCH   8   9
ENDBRANCH   7   8
ENDBRANCH   6   7
ENDBRANCH   5   6
ENDBRANCH   4   5
ENDBRANCH   3   4
ENDBRANCH   2   3
ENDBRANCH   1   2
BRANCH   1  13
ATOM     13  C   UNL     1     -12.563   4.532   6.111  1.00  0.00     0.000 C 
BRANCH  13  14
ATOM     14  C   UNL     1     -12.298   4.219   7.595  1.00  0.00     0.000 C 
BRANCH  14  15
ATOM     15  C   UNL     1     -10.799   4.197   7.932  1.00  0.00     0.000 C 
BRANCH  15  16
ATOM     16  C   UNL     1     -10.344   5.463   8.680  1.00  0.00     0.000 C 
BRANCH  16  17
ATOM     17  C   UNL     1      -9.315   6.279   7.880  1.00  0.00     0.000 C 
BRANCH  17  18
ATOM     18  C   UNL     1      -9.110   5.736   6.458  1.00  0.00     0.000 C 
BRANCH  18  19
ATOM     19  C   UNL     1      -9.130   6.874   5.426  1.00  0.00     0.000 C 
BRANCH  19  20
ATOM     20  C   UNL     1      -8.685   8.221   6.020  1.00  0.00     0.006 C 
BRANCH  20  21
ATOM     21  C   UNL     1      -8.028   9.140   4.980  1.00  0.00     0.053 C 
BRANCH  21  22
ATOM     22  C   UNL     1      -7.062  10.071   5.643  1.00  0.00     0.041 C 
ATOM     23  O   UNL     1      -6.544  11.018   4.990  1.00  0.00    -0.550 OA
ATOM     24  O   UNL     1      -6.708   9.875   6.973  1.00  0.00    -0.550 OA
ENDBRANCH  21  22
ENDBRANCH  20  21
ENDBRANCH  19  20
ENDBRANCH  18  19
ENDBRANCH  17  18
ENDBRANCH  16  17
ENDBRANCH  15  16
ENDBRANCH  14  15
ENDBRANCH  13  14
ENDBRANCH   1  13
TORSDOF 20
ENDMDL
MODEL 5
REMARK VINA RESULT:    -4.506      2.696      5.738
REMARK INTER + INTRA:         -12.110
REMARK INTER:                  -9.834
REMARK INTRA:                  -2.276
REMARK UNBOUND:                -2.337
REMARK SMILES CCCCCCCCCCCCCCCCCCCCCC(=O)[O-]
REMARK SMILES IDX 12 1 11 2 10 3 9 4 8 5 7 6 6 7 5 8 4 9 3 10 2 11 1 12 13 13
REMARK SMILES IDX 14 14 15 15 16 16 17 17 18 18 19 19 20 20 21 21 22 22 23 23
REMARK SMILES IDX 24 24
REMARK H PARENT
REMARK Flexibility Score: inf
ROOT
ATOM      1  C   UNL     1     -11.007   4.211   7.991  1.00  0.00     0.000 C 
ENDROOT
BRANCH   1   2
ATOM      2  C   UNL     1     -10.659   5.689   8.261  1.00  0.00     0.000 C 
BRANCH   2   3
ATOM      3  C   UNL     1      -9.282   6.143   7.738  1.00  0.00     0.000 C 
BRANCH   3   4
ATOM      4  C   UNL     1      -9.094   6.047   6.212  1.00  0.00    -0.000 C 
BRANCH   4   5
ATOM      5  C   UNL     1      -9.131   7.419   5.517  1.00  0.00    -0.000 C 
BRANCH   5   6
ATOM      6  C   UNL     1      -8.064   8.391   6.055  1.00  0.00    -0.000 C 
BRANCH   6   7
ATOM      7  C   UNL     1      -7.706   9.557   5.110  1.00  0.00    -0.000 C 
BRANCH   7   8
ATOM      8  C   UNL     1      -7.220  10.841   5.812  1.00  0.00    -0.000 C 
BRANCH   8   9
ATOM      9  C   UNL     1      -8.204  12.026   5.758  1.00  0.00    -0.000 C 
BRANCH   9  10
ATOM     10  C   UNL     1      -9.565  11.772   6.434  1.00  0.00    -0.000 C 
BRANCH  10  11
ATOM     11  C   UNL     1     -10.676  11.440   5.428  1.00  0.00    -0.003 C 
ATOM     12  C   UNL     1     -11.544  10.289   5.929  1.00  0.00     0.004 C 
ENDBRANCH  10  11
ENDBRANCH   9  10
ENDBRANCH   8   9
ENDBRANCH   7   8
ENDBRANCH   6   7
ENDBRANCH   5   6
ENDBRANCH   4   5
ENDBRANCH   3   4
ENDBRANCH   2   3
ENDBRANCH   1   2
BRANCH   1  13
ATOM     13  C   UNL     1     -11.994   3.983   6.833  1.00  0.00     0.000 C 
BRANCH  13  14
ATOM     14  C   UNL     1     -12.796   5.249   6.480  1.00  0.00     0.000 C 
BRANCH  14  15
ATOM     15  C   UNL     1     -12.555   5.713   5.035  1.00  0.00     0.000 C 
BRANCH  15  16
ATOM     16  C   UNL     1     -13.865   6.023   4.289  1.00  0.00     0.000 C 
BRANCH  16  17
ATOM     17  C   UNL     1     -13.659   6.150   2.770  1.00  0.00     0.000 C 
BRANCH  17  18
ATOM     18  C   UNL     1     -13.932   7.571   2.257  1.00  0.00     0.000 C 
BRANCH  18  19
ATOM     19  C   UNL     1     -14.025   8.569   3.422  1.00  0.00     0.000 C 
BRANCH  19  20
ATOM     20  C   UNL     1     -13.699  10.010   2.996  1.00  0.00     0.006 C 
BRANCH  20  21
ATOM     21  C   UNL     1     -13.236  10.107   1.535  1.00  0.00     0.053 C 
BRANCH  21  22
ATOM     22  C   UNL     1     -12.280  11.245   1.364  1.00  0.00     0.041 C 
ATOM     23  O   UNL     1     -11.708  11.433   0.256  1.00  0.00    -0.550 OA
ATOM     24  O   UNL     1     -11.995  12.081   2.439  1.00  0.00    -0.550 OA
ENDBRANCH  21  22
ENDBRANCH  20  21
ENDBRANCH  19  20
ENDBRANCH  18  19
ENDBRANCH  17  18
ENDBRANCH  16  17
ENDBRANCH  15  16
ENDBRANCH  14  15
ENDBRANCH  13  14
ENDBRANCH   1  13
TORSDOF 20
ENDMDL
MODEL 6
REMARK VINA RESULT:    -4.431      1.206      2.128
REMARK INTER + INTRA:         -11.948
REMARK INTER:                  -9.610
REMARK INTRA:                  -2.338
REMARK UNBOUND:                -2.337
REMARK SMILES CCCCCCCCCCCCCCCCCCCCCC(=O)[O-]
REMARK SMILES IDX 12 1 11 2 10 3 9 4 8 5 7 6 6 7 5 8 4 9 3 10 2 11 1 12 13 13
REMARK SMILES IDX 14 14 15 15 16 16 17 17 18 18 19 19 20 20 21 21 22 22 23 23
REMARK SMILES IDX 24 24
REMARK H PARENT
REMARK Flexibility Score: inf
ROOT
ATOM      1  C   UNL     1     -10.622   3.855   7.895  1.00  0.00     0.000 C 
ENDROOT
BRANCH   1   2
ATOM      2  C   UNL     1     -11.597   3.820   6.702  1.00  0.00     0.000 C 
BRANCH   2   3
ATOM      3  C   UNL     1     -12.907   4.607   6.903  1.00  0.00     0.000 C 
BRANCH   3   4
ATOM      4  C   UNL     1     -13.078   5.839   5.996  1.00  0.00    -0.000 C 
BRANCH   4   5
ATOM      5  C   UNL     1     -12.558   5.607   4.567  1.00  0.00    -0.000 C 
BRANCH   5   6
ATOM      6  C   UNL     1     -13.635   5.849   3.491  1.00  0.00    -0.000 C 
BRANCH   6   7
ATOM      7  C   UNL     1     -14.603   7.013   3.785  1.00  0.00    -0.000 C 
BRANCH   7   8
ATOM      8  C   UNL     1     -14.002   8.422   3.614  1.00  0.00    -0.000 C 
BRANCH   8   9
ATOM      9  C   UNL     1     -14.041   9.306   4.877  1.00  0.00    -0.000 C 
BRANCH   9  10
ATOM     10  C   UNL     1     -12.667   9.594   5.510  1.00  0.00    -0.000 C 
BRANCH  10  11
ATOM     11  C   UNL     1     -12.360  11.096   5.607  1.00  0.00    -0.003 C 
ATOM     12  C   UNL     1     -10.855  11.350   5.609  1.00  0.00     0.004 C 
ENDBRANCH  10  11
ENDBRANCH   9  10
ENDBRANCH   8   9
ENDBRANCH   7   8
ENDBRANCH   6   7
ENDBRANCH   5   6
ENDBRANCH   4   5
ENDBRANCH   3   4
ENDBRANCH   2   3
ENDBRANCH   1   2
BRANCH   1  13
ATOM     13  C   UNL     1     -10.553   5.205   8.630  1.00  0.00     0.000 C 
BRANCH  13  14
ATOM     14  C   UNL     1      -9.836   6.292   7.809  1.00  0.00     0.000 C 
BRANCH  14  15
ATOM     15  C   UNL     1      -9.033   5.709   6.636  1.00  0.00     0.000 C 
BRANCH  15  16
ATOM     16  C   UNL     1      -9.083   6.604   5.385  1.00  0.00     0.000 C 
BRANCH  16  17
ATOM     17  C   UNL     1      -9.207   8.097   5.734  1.00  0.00     0.000 C 
BRANCH  17  18
ATOM     18  C   UNL     1      -8.025   8.923   5.207  1.00  0.00     0.000 C 
BRANCH  18  19
ATOM     19  C   UNL     1      -7.287   9.625   6.358  1.00  0.00     0.000 C 
BRANCH  19  20
ATOM     20  C   UNL     1      -7.038  11.117   6.081  1.00  0.00     0.006 C 
BRANCH  20  21
ATOM     21  C   UNL     1      -5.756  11.364   5.274  1.00  0.00     0.053 C 
BRANCH  21  22
ATOM     22  C   UNL     1      -4.581  11.509   6.190  1.00  0.00     0.041 C 
ATOM     23  O   UNL     1      -4.748  11.893   7.380  1.00  0.00    -0.550 OA
ATOM     24  O   UNL     1      -3.298  11.252   5.722  1.00  0.00    -0.550 OA
ENDBRANCH  21  22
ENDBRANCH  20  21
ENDBRANCH  19  20
ENDBRANCH  18  19
ENDBRANCH  17  18
ENDBRANCH  16  17
ENDBRANCH  15  16
ENDBRANCH  14  15
ENDBRANCH  13  14
ENDBRANCH   1  13
TORSDOF 20
ENDMDL
MODEL 7
REMARK VINA RESULT:    -4.338      2.477      6.229
REMARK INTER + INTRA:         -11.748
REMARK INTER:                 -10.073
REMARK INTRA:                  -1.674
REMARK UNBOUND:                -2.337
REMARK SMILES CCCCCCCCCCCCCCCCCCCCCC(=O)[O-]
REMARK SMILES IDX 12 1 11 2 10 3 9 4 8 5 7 6 6 7 5 8 4 9 3 10 2 11 1 12 13 13
REMARK SMILES IDX 14 14 15 15 16 16 17 17 18 18 19 19 20 20 21 21 22 22 23 23
REMARK SMILES IDX 24 24
REMARK H PARENT
REMARK Flexibility Score: inf
ROOT
ATOM      1  C   UNL     1     -10.517   4.387   8.309  1.00  0.00     0.000 C 
ENDROOT
BRANCH   1   2
ATOM      2  C   UNL     1      -9.891   5.748   7.944  1.00  0.00     0.000 C 
BRANCH   2   3
ATOM      3  C   UNL     1      -9.202   5.803   6.566  1.00  0.00     0.000 C 
BRANCH   3   4
ATOM      4  C   UNL     1      -9.393   7.119   5.789  1.00  0.00    -0.000 C 
BRANCH   4   5
ATOM      5  C   UNL     1      -8.195   8.075   5.927  1.00  0.00    -0.000 C 
BRANCH   5   6
ATOM      6  C   UNL     1      -8.282   9.284   4.975  1.00  0.00    -0.000 C 
BRANCH   6   7
ATOM      7  C   UNL     1      -9.130  10.464   5.491  1.00  0.00    -0.000 C 
BRANCH   7   8
ATOM      8  C   UNL     1      -8.340  11.750   5.802  1.00  0.00    -0.000 C 
BRANCH   8   9
ATOM      9  C   UNL     1      -6.811  11.629   5.652  1.00  0.00    -0.000 C 
BRANCH   9  10
ATOM     10  C   UNL     1      -6.049  11.350   6.962  1.00  0.00    -0.000 C 
BRANCH  10  11
ATOM     11  C   UNL     1      -4.714  10.628   6.731  1.00  0.00    -0.003 C 
ATOM     12  C   UNL     1      -3.841  11.392   5.740  1.00  0.00     0.004 C 
ENDBRANCH  10  11
ENDBRANCH   9  10
ENDBRANCH   8   9
ENDBRANCH   7   8
ENDBRANCH   6   7
ENDBRANCH   5   6
ENDBRANCH   4   5
ENDBRANCH   3   4
ENDBRANCH   2   3
ENDBRANCH   1   2
BRANCH   1  13
ATOM     13  C   UNL     1     -12.009   4.251   7.961  1.00  0.00     0.000 C 
BRANCH  13  14
ATOM     14  C   UNL     1     -12.269   4.273   6.444  1.00  0.00     0.000 C 
BRANCH  14  15
ATOM     15  C   UNL     1     -13.227   5.400   6.027  1.00  0.00     0.000 C 
BRANCH  15  16
ATOM     16  C   UNL     1     -12.865   6.006   4.659  1.00  0.00     0.000 C 
BRANCH  16  17
ATOM     17  C   UNL     1     -14.086   6.605   3.940  1.00  0.00     0.000 C 
BRANCH  17  18
ATOM     18  C   UNL     1     -14.788   7.685   4.776  1.00  0.00     0.000 C 
BRANCH  18  19
ATOM     19  C   UNL     1     -14.071   9.037   4.643  1.00  0.00     0.000 C 
BRANCH  19  20
ATOM     20  C   UNL     1     -13.611   9.326   3.205  1.00  0.00     0.006 C 
BRANCH  20  21
ATOM     21  C   UNL     1     -13.882  10.774   2.774  1.00  0.00     0.053 C 
BRANCH  21  22
ATOM     22  C   UNL     1     -12.596  11.479   2.476  1.00  0.00     0.041 C 
ATOM     23  O   UNL     1     -12.292  11.770   1.286  1.00  0.00    -0.550 OA
ATOM     24  O   UNL     1     -11.716  11.787   3.507  1.00  0.00    -0.550 OA
ENDBRANCH  21  22
ENDBRANCH  20  21
ENDBRANCH  19  20
ENDBRANCH  18  19
ENDBRANCH  17  18
ENDBRANCH  16  17
ENDBRANCH  15  16
ENDBRANCH  14  15
ENDBRANCH  13  14
ENDBRANCH   1  13
TORSDOF 20
ENDMDL
MODEL 8
REMARK VINA RESULT:    -4.332      2.696      6.275
REMARK INTER + INTRA:         -11.734
REMARK INTER:                 -10.209
REMARK INTRA:                  -1.525
REMARK UNBOUND:                -2.337
REMARK SMILES CCCCCCCCCCCCCCCCCCCCCC(=O)[O-]
REMARK SMILES IDX 12 1 11 2 10 3 9 4 8 5 7 6 6 7 5 8 4 9 3 10 2 11 1 12 13 13
REMARK SMILES IDX 14 14 15 15 16 16 17 17 18 18 19 19 20 20 21 21 22 22 23 23
REMARK SMILES IDX 24 24
REMARK H PARENT
REMARK Flexibility Score: inf
ROOT
ATOM      1  C   UNL     1     -10.998   3.852   7.889  1.00  0.00     0.000 C 
ENDROOT
BRANCH   1   2
ATOM      2  C   UNL     1     -10.870   5.234   8.559  1.00  0.00     0.000 C 
BRANCH   2   3
ATOM      3  C   UNL     1      -9.832   6.178   7.921  1.00  0.00     0.000 C 
BRANCH   3   4
ATOM      4  C   UNL     1      -9.066   5.595   6.719  1.00  0.00    -0.000 C 
BRANCH   4   5
ATOM      5  C   UNL     1      -9.110   6.508   5.481  1.00  0.00    -0.000 C 
BRANCH   5   6
ATOM      6  C   UNL     1      -9.175   8.004   5.844  1.00  0.00    -0.000 C 
BRANCH   6   7
ATOM      7  C   UNL     1      -7.970   8.845   5.373  1.00  0.00    -0.000 C 
BRANCH   7   8
ATOM      8  C   UNL     1      -8.248  10.353   5.215  1.00  0.00    -0.000 C 
BRANCH   8   9
ATOM      9  C   UNL     1      -7.352  11.274   6.067  1.00  0.00    -0.000 C 
BRANCH   9  10
ATOM     10  C   UNL     1      -6.458  10.547   7.089  1.00  0.00    -0.000 C 
BRANCH  10  11
ATOM     11  C   UNL     1      -5.015  11.071   7.097  1.00  0.00    -0.003 C 
ATOM     12  C   UNL     1      -4.514  11.321   5.677  1.00  0.00     0.004 C 
ENDBRANCH  10  11
ENDBRANCH   9  10
ENDBRANCH   8   9
ENDBRANCH   7   8
ENDBRANCH   6   7
ENDBRANCH   5   6
ENDBRANCH   4   5
ENDBRANCH   3   4
ENDBRANCH   2   3
ENDBRANCH   1   2
BRANCH   1  13
ATOM     13  C   UNL     1     -11.764   3.851   6.555  1.00  0.00     0.000 C 
BRANCH  13  14
ATOM     14  C   UNL     1     -12.859   4.932   6.499  1.00  0.00     0.000 C 
BRANCH  14  15
ATOM     15  C   UNL     1     -12.721   5.845   5.271  1.00  0.00     0.000 C 
BRANCH  15  16
ATOM     16  C   UNL     1     -14.070   6.435   4.821  1.00  0.00     0.000 C 
BRANCH  16  17
ATOM     17  C   UNL     1     -14.538   5.867   3.470  1.00  0.00     0.000 C 
BRANCH  17  18
ATOM     18  C   UNL     1     -14.046   6.703   2.280  1.00  0.00     0.000 C 
BRANCH  18  19
ATOM     19  C   UNL     1     -13.738   8.146   2.709  1.00  0.00     0.000 C 
BRANCH  19  20
ATOM     20  C   UNL     1     -13.897   9.153   1.558  1.00  0.00     0.006 C 
BRANCH  20  21
ATOM     21  C   UNL     1     -13.853  10.611   2.036  1.00  0.00     0.053 C 
BRANCH  21  22
ATOM     22  C   UNL     1     -12.451  11.132   1.997  1.00  0.00     0.041 C 
ATOM     23  O   UNL     1     -11.923  11.616   3.036  1.00  0.00    -0.550 OA
ATOM     24  O   UNL     1     -11.735  11.113   0.805  1.00  0.00    -0.550 OA
ENDBRANCH  21  22
ENDBRANCH  20  21
ENDBRANCH  19  20
ENDBRANCH  18  19
ENDBRANCH  17  18
ENDBRANCH  16  17
ENDBRANCH  15  16
ENDBRANCH  14  15
ENDBRANCH  13  14
ENDBRANCH   1  13
TORSDOF 20
ENDMDL
MODEL 9
REMARK VINA RESULT:    -4.195      2.887      6.044
REMARK INTER + INTRA:         -11.436
REMARK INTER:                  -9.099
REMARK INTRA:                  -2.337
REMARK UNBOUND:                -2.337
REMARK SMILES CCCCCCCCCCCCCCCCCCCCCC(=O)[O-]
REMARK SMILES IDX 12 1 11 2 10 3 9 4 8 5 7 6 6 7 5 8 4 9 3 10 2 11 1 12 13 13
REMARK SMILES IDX 14 14 15 15 16 16 17 17 18 18 19 19 20 20 21 21 22 22 23 23
REMARK SMILES IDX 24 24
REMARK H PARENT
REMARK Flexibility Score: inf
ROOT
ATOM      1  C   UNL     1      -8.841   7.846   5.377  1.00  0.00     0.000 C 
ENDROOT
BRANCH   1   2
ATOM      2  C   UNL     1      -8.673   7.274   6.798  1.00  0.00     0.000 C 
BRANCH   2   3
ATOM      3  C   UNL     1      -9.358   5.914   7.042  1.00  0.00     0.000 C 
BRANCH   3   4
ATOM      4  C   UNL     1      -9.870   5.684   8.476  1.00  0.00    -0.000 C 
BRANCH   4   5
ATOM      5  C   UNL     1     -10.830   4.487   8.584  1.00  0.00    -0.000 C 
BRANCH   5   6
ATOM      6  C   UNL     1     -11.248   3.929   7.209  1.00  0.00    -0.000 C 
BRANCH   6   7
ATOM      7  C   UNL     1     -12.692   4.260   6.780  1.00  0.00    -0.000 C 
BRANCH   7   8
ATOM      8  C   UNL     1     -12.953   5.744   6.454  1.00  0.00    -0.000 C 
BRANCH   8   9
ATOM      9  C   UNL     1     -12.443   6.209   5.076  1.00  0.00    -0.000 C 
BRANCH   9  10
ATOM     10  C   UNL     1     -12.916   5.354   3.886  1.00  0.00    -0.000 C 
BRANCH  10  11
ATOM     11  C   UNL     1     -14.189   5.904   3.226  1.00  0.00    -0.003 C 
ATOM     12  C   UNL     1     -14.021   7.373   2.849  1.00  0.00     0.004 C 
ENDBRANCH  10  11
ENDBRANCH   9  10
ENDBRANCH   8   9
ENDBRANCH   7   8
ENDBRANCH   6   7
ENDBRANCH   5   6
ENDBRANCH   4   5
ENDBRANCH   3   4
ENDBRANCH   2   3
ENDBRANCH   1   2
BRANCH   1  13
ATOM     13  C   UNL     1      -7.844   8.959   5.010  1.00  0.00     0.000 C 
BRANCH  13  14
ATOM     14  C   UNL     1      -7.575   9.925   6.178  1.00  0.00     0.000 C 
BRANCH  14  15
ATOM     15  C   UNL     1      -7.729  11.398   5.770  1.00  0.00     0.000 C 
BRANCH  15  16
ATOM     16  C   UNL     1      -8.825  12.121   6.573  1.00  0.00     0.000 C 
BRANCH  16  17
ATOM     17  C   UNL     1     -10.172  11.380   6.526  1.00  0.00     0.000 C 
BRANCH  17  18
ATOM     18  C   UNL     1     -10.816  11.418   5.133  1.00  0.00     0.000 C 
BRANCH  18  19
ATOM     19  C   UNL     1     -12.209  10.771   5.152  1.00  0.00     0.000 C 
BRANCH  19  20
ATOM     20  C   UNL     1     -13.013  11.056   3.872  1.00  0.00     0.006 C 
BRANCH  20  21
ATOM     21  C   UNL     1     -12.190  11.792   2.806  1.00  0.00     0.053 C 
BRANCH  21  22
ATOM     22  C   UNL     1     -12.361  11.139   1.470  1.00  0.00     0.041 C 
ATOM     23  O   UNL     1     -13.364  10.407   1.246  1.00  0.00    -0.550 OA
ATOM     24  O   UNL     1     -11.397  11.311   0.484  1.00  0.00    -0.550 OA
ENDBRANCH  21  22
ENDBRANCH  20  21
ENDBRANCH  19  20
ENDBRANCH  18  19
ENDBRANCH  17  18
ENDBRANCH  16  17
ENDBRANCH  15  16
ENDBRANCH  14  15
ENDBRANCH  13  14
ENDBRANCH   1  13
TORSDOF 20
ENDMDL
