MODEL 1
REMARK VINA RESULT:    -4.261      0.000      0.000
REMARK INTER + INTRA:          -9.864
REMARK INTER:                  -7.874
REMARK INTRA:                  -1.990
REMARK UNBOUND:                -1.990
REMARK SMILES CCCCCCCCCCCCCCCCO
REMARK SMILES IDX 9 1 8 2 7 3 6 4 5 5 4 6 3 7 2 8 1 9 10 10 11 11 12 12 13 13
REMARK SMILES IDX 14 14 15 15 16 16 17 17
REMARK H PARENT 17 18
REMARK Flexibility Score: inf
ROOT
ATOM      1  C   UNL     1     177.737 171.643 185.381  1.00  0.00     0.000 C 
ENDROOT
BRANCH   1   2
ATOM      2  C   UNL     1     177.455 171.355 183.898  1.00  0.00    -0.000 C 
BRANCH   2   3
ATOM      3  C   UNL     1     176.384 172.287 183.309  1.00  0.00    -0.000 C 
BRANCH   3   4
ATOM      4  C   UNL     1     176.169 173.514 184.210  1.00  0.00    -0.000 C 
BRANCH   4   5
ATOM      5  C   UNL     1     174.687 173.755 184.537  1.00  0.00    -0.000 C 
BRANCH   5   6
ATOM      6  C   UNL     1     174.378 173.602 186.035  1.00  0.00    -0.000 C 
BRANCH   6   7
ATOM      7  C   UNL     1     173.437 172.418 186.284  1.00  0.00    -0.000 C 
BRANCH   7   8
ATOM      8  C   UNL     1     174.210 171.094 186.292  1.00  0.00    -0.003 C 
ATOM      9  C   UNL     1     173.796 170.208 185.121  1.00  0.00     0.004 C 
ENDBRANCH   7   8
ENDBRANCH   6   7
ENDBRANCH   5   6
ENDBRANCH   4   5
ENDBRANCH   3   4
ENDBRANCH   2   3
ENDBRANCH   1   2
BRANCH   1  10
ATOM     10  C   UNL     1     177.796 170.361 186.232  1.00  0.00     0.000 C 
BRANCH  10  11
ATOM     11  C   UNL     1     177.429 169.103 185.428  1.00  0.00     0.000 C 
BRANCH  11  12
ATOM     12  C   UNL     1     178.566 168.070 185.396  1.00  0.00     0.000 C 
BRANCH  12  13
ATOM     13  C   UNL     1     179.397 168.209 184.114  1.00  0.00     0.000 C 
BRANCH  13  14
ATOM     14  C   UNL     1     178.558 167.860 182.876  1.00  0.00     0.002 C 
BRANCH  14  15
ATOM     15  C   UNL     1     178.721 166.395 182.445  1.00  0.00     0.028 C 
BRANCH  15  16
ATOM     16  C   UNL     1     180.133 165.854 182.701  1.00  0.00     0.156 C 
BRANCH  16  17
ATOM     17  O   UNL     1     180.066 164.548 183.207  1.00  0.00    -0.396 OA
ATOM     18  H   UNL     1     179.808 163.962 182.449  1.00  0.00     0.210 HD
ENDBRANCH  16  17
ENDBRANCH  15  16
ENDBRANCH  14  15
ENDBRANCH  13  14
ENDBRANCH  12  13
ENDBRANCH  11  12
ENDBRANCH  10  11
ENDBRANCH   1  10
TORSDOF 15
ENDMDL
MODEL 2
REMARK VINA RESULT:    -4.065      1.508      2.757
REMARK INTER + INTRA:          -9.501
REMARK INTER:                  -7.315
REMARK INTRA:                  -2.186
REMARK UNBOUND:                -1.990
REMARK SMILES CCCCCCCCCCCCCCCCO
REMARK SMILES IDX 9 1 8 2 7 3 6 4 5 5 4 6 3 7 2 8 1 9 10 10 11 11 12 12 13 13
REMARK SMILES IDX 14 14 15 15 16 16 17 17
REMARK H PARENT 17 18
REMARK Flexibility Score: inf
ROOT
ATOM      1  C   UNL     1     176.312 172.788 184.102  1.00  0.00     0.000 C 
ENDROOT
BRANCH   1   2
ATOM      2  C   UNL     1     175.773 172.229 182.776  1.00  0.00    -0.000 C 
BRANCH   2   3
ATOM      3  C   UNL     1     176.373 170.858 182.426  1.00  0.00    -0.000 C 
BRANCH   3   4
ATOM      4  C   UNL     1     175.435 169.722 182.861  1.00  0.00    -0.000 C 
BRANCH   4   5
ATOM      5  C   UNL     1     173.958 170.027 182.564  1.00  0.00    -0.000 C 
BRANCH   5   6
ATOM      6  C   UNL     1     173.057 169.849 183.796  1.00  0.00    -0.000 C 
BRANCH   6   7
ATOM      7  C   UNL     1     173.861 170.005 185.092  1.00  0.00    -0.000 C 
BRANCH   7   8
ATOM      8  C   UNL     1     173.386 171.223 185.891  1.00  0.00    -0.003 C 
ATOM      9  C   UNL     1     173.891 171.168 187.331  1.00  0.00     0.004 C 
ENDBRANCH   7   8
ENDBRANCH   6   7
ENDBRANCH   5   6
ENDBRANCH   4   5
ENDBRANCH   3   4
ENDBRANCH   2   3
ENDBRANCH   1   2
BRANCH   1  10
ATOM     10  C   UNL     1     177.470 171.949 184.671  1.00  0.00     0.000 C 
BRANCH  10  11
ATOM     11  C   UNL     1     177.156 171.377 186.063  1.00  0.00     0.000 C 
BRANCH  11  12
ATOM     12  C   UNL     1     177.993 170.132 186.393  1.00  0.00     0.000 C 
BRANCH  12  13
ATOM     13  C   UNL     1     177.585 168.947 185.510  1.00  0.00     0.000 C 
BRANCH  13  14
ATOM     14  C   UNL     1     178.809 168.102 185.124  1.00  0.00     0.002 C 
BRANCH  14  15
ATOM     15  C   UNL     1     179.167 168.226 183.635  1.00  0.00     0.028 C 
BRANCH  15  16
ATOM     16  C   UNL     1     180.447 167.464 183.267  1.00  0.00     0.156 C 
BRANCH  16  17
ATOM     17  O   UNL     1     181.330 167.449 184.355  1.00  0.00    -0.396 OA
ATOM     18  H   UNL     1     181.983 166.722 184.183  1.00  0.00     0.210 HD
ENDBRANCH  16  17
ENDBRANCH  15  16
ENDBRANCH  14  15
ENDBRANCH  13  14
ENDBRANCH  12  13
ENDBRANCH  11  12
ENDBRANCH  10  11
ENDBRANCH   1  10
TORSDOF 15
ENDMDL
MODEL 3
REMARK VINA RESULT:    -4.064      1.974      4.396
REMARK INTER + INTRA:          -9.500
REMARK INTER:                  -7.717
REMARK INTRA:                  -1.783
REMARK UNBOUND:                -1.990
REMARK SMILES CCCCCCCCCCCCCCCCO
REMARK SMILES IDX 9 1 8 2 7 3 6 4 5 5 4 6 3 7 2 8 1 9 10 10 11 11 12 12 13 13
REMARK SMILES IDX 14 14 15 15 16 16 17 17
REMARK H PARENT 17 18
REMARK Flexibility Score: inf
ROOT
ATOM      1  C   UNL     1     173.367 172.270 187.357  1.00  0.00     0.000 C 
ENDROOT
BRANCH   1   2
ATOM      2  C   UNL     1     171.961 172.101 187.953  1.00  0.00    -0.000 C 
BRANCH   2   3
ATOM      3  C   UNL     1     170.867 172.721 187.069  1.00  0.00    -0.000 C 
BRANCH   3   4
ATOM      4  C   UNL     1     170.691 171.918 185.770  1.00  0.00    -0.000 C 
BRANCH   4   5
ATOM      5  C   UNL     1     171.088 172.720 184.521  1.00  0.00    -0.000 C 
BRANCH   5   6
ATOM      6  C   UNL     1     171.332 174.207 184.822  1.00  0.00    -0.000 C 
BRANCH   6   7
ATOM      7  C   UNL     1     172.523 174.741 184.019  1.00  0.00    -0.000 C 
BRANCH   7   8
ATOM      8  C   UNL     1     173.820 174.650 184.831  1.00  0.00    -0.003 C 
ATOM      9  C   UNL     1     174.870 173.819 184.099  1.00  0.00     0.004 C 
ENDBRANCH   7   8
ENDBRANCH   6   7
ENDBRANCH   5   6
ENDBRANCH   4   5
ENDBRANCH   3   4
ENDBRANCH   2   3
ENDBRANCH   1   2
BRANCH   1  10
ATOM     10  C   UNL     1     174.085 170.925 187.145  1.00  0.00     0.000 C 
BRANCH  10  11
ATOM     11  C   UNL     1     174.197 170.544 185.659  1.00  0.00     0.000 C 
BRANCH  11  12
ATOM     12  C   UNL     1     175.633 170.190 185.246  1.00  0.00     0.000 C 
BRANCH  12  13
ATOM     13  C   UNL     1     176.644 170.710 186.275  1.00  0.00     0.000 C 
BRANCH  13  14
ATOM     14  C   UNL     1     177.976 169.953 186.167  1.00  0.00     0.002 C 
BRANCH  14  15
ATOM     15  C   UNL     1     177.816 168.559 185.543  1.00  0.00     0.028 C 
BRANCH  15  16
ATOM     16  C   UNL     1     178.829 168.290 184.423  1.00  0.00     0.156 C 
BRANCH  16  17
ATOM     17  O   UNL     1     179.832 167.422 184.877  1.00  0.00    -0.396 OA
ATOM     18  H   UNL     1     180.063 167.711 185.798  1.00  0.00     0.210 HD
ENDBRANCH  16  17
ENDBRANCH  15  16
ENDBRANCH  14  15
ENDBRANCH  13  14
ENDBRANCH  12  13
ENDBRANCH  11  12
ENDBRANCH  10  11
ENDBRANCH   1  10
TORSDOF 15
ENDMDL
MODEL 4
REMARK VINA RESULT:    -3.979      8.604     12.342
REMARK INTER + INTRA:          -9.343
REMARK INTER:                  -7.267
REMARK INTRA:                  -2.075
REMARK UNBOUND:                -1.990
REMARK SMILES CCCCCCCCCCCCCCCCO
REMARK SMILES IDX 9 1 8 2 7 3 6 4 5 5 4 6 3 7 2 8 1 9 10 10 11 11 12 12 13 13
REMARK SMILES IDX 14 14 15 15 16 16 17 17
REMARK H PARENT 17 18
REMARK Flexibility Score: inf
ROOT
ATOM      1  C   UNL     1     167.095 172.670 184.633  1.00  0.00     0.000 C 
ENDROOT
BRANCH   1   2
ATOM      2  C   UNL     1     167.118 172.871 183.110  1.00  0.00    -0.000 C 
BRANCH   2   3
ATOM      3  C   UNL     1     168.530 173.154 182.573  1.00  0.00    -0.000 C 
BRANCH   3   4
ATOM      4  C   UNL     1     169.048 174.508 183.082  1.00  0.00    -0.000 C 
BRANCH   4   5
ATOM      5  C   UNL     1     170.379 174.385 183.842  1.00  0.00    -0.000 C 
BRANCH   5   6
ATOM      6  C   UNL     1     170.207 174.518 185.363  1.00  0.00    -0.000 C 
BRANCH   6   7
ATOM      7  C   UNL     1     170.314 173.151 186.050  1.00  0.00    -0.000 C 
BRANCH   7   8
ATOM      8  C   UNL     1     171.274 172.228 185.290  1.00  0.00    -0.003 C 
ATOM      9  C   UNL     1     172.642 172.179 185.966  1.00  0.00     0.004 C 
ENDBRANCH   7   8
ENDBRANCH   6   7
ENDBRANCH   5   6
ENDBRANCH   4   5
ENDBRANCH   3   4
ENDBRANCH   2   3
ENDBRANCH   1   2
BRANCH   1  10
ATOM     10  C   UNL     1     166.001 173.505 185.323  1.00  0.00     0.000 C 
BRANCH  10  11
ATOM     11  C   UNL     1     166.579 174.660 186.158  1.00  0.00     0.000 C 
BRANCH  11  12
ATOM     12  C   UNL     1     166.571 175.997 185.403  1.00  0.00     0.000 C 
BRANCH  12  13
ATOM     13  C   UNL     1     165.290 176.152 184.575  1.00  0.00     0.000 C 
BRANCH  13  14
ATOM     14  C   UNL     1     165.618 176.480 183.111  1.00  0.00     0.002 C 
BRANCH  14  15
ATOM     15  C   UNL     1     164.695 177.559 182.525  1.00  0.00     0.028 C 
BRANCH  15  16
ATOM     16  C   UNL     1     165.409 178.900 182.313  1.00  0.00     0.156 C 
BRANCH  16  17
ATOM     17  O   UNL     1     164.877 179.871 183.173  1.00  0.00    -0.396 OA
ATOM     18  H   UNL     1     165.411 180.696 183.036  1.00  0.00     0.210 HD
ENDBRANCH  16  17
ENDBRANCH  15  16
ENDBRANCH  14  15
ENDBRANCH  13  14
ENDBRANCH  12  13
ENDBRANCH  11  12
ENDBRANCH  10  11
ENDBRANCH   1  10
TORSDOF 15
ENDMDL
MODEL 5
REMARK VINA RESULT:    -3.977     10.311     14.052
REMARK INTER + INTRA:          -9.339
REMARK INTER:                  -7.108
REMARK INTRA:                  -2.231
REMARK UNBOUND:                -1.990
REMARK SMILES CCCCCCCCCCCCCCCCO
REMARK SMILES IDX 9 1 8 2 7 3 6 4 5 5 4 6 3 7 2 8 1 9 10 10 11 11 12 12 13 13
REMARK SMILES IDX 14 14 15 15 16 16 17 17
REMARK H PARENT 17 18
REMARK Flexibility Score: inf
ROOT
ATOM      1  C   UNL     1     166.593 176.152 182.855  1.00  0.00     0.000 C 
ENDROOT
BRANCH   1   2
ATOM      2  C   UNL     1     165.642 175.576 183.916  1.00  0.00    -0.000 C 
BRANCH   2   3
ATOM      3  C   UNL     1     166.099 175.888 185.350  1.00  0.00    -0.000 C 
BRANCH   3   4
ATOM      4  C   UNL     1     166.293 174.596 186.157  1.00  0.00    -0.000 C 
BRANCH   4   5
ATOM      5  C   UNL     1     166.364 173.346 185.266  1.00  0.00    -0.000 C 
BRANCH   5   6
ATOM      6  C   UNL     1     167.788 172.779 185.152  1.00  0.00    -0.000 C 
BRANCH   6   7
ATOM      7  C   UNL     1     168.326 172.932 183.725  1.00  0.00    -0.000 C 
BRANCH   7   8
ATOM      8  C   UNL     1     169.451 173.972 183.669  1.00  0.00    -0.003 C 
ATOM      9  C   UNL     1     169.868 174.406 185.072  1.00  0.00     0.004 C 
ENDBRANCH   7   8
ENDBRANCH   6   7
ENDBRANCH   5   6
ENDBRANCH   4   5
ENDBRANCH   3   4
ENDBRANCH   2   3
ENDBRANCH   1   2
BRANCH   1  10
ATOM     10  C   UNL     1     166.525 175.386 181.522  1.00  0.00     0.000 C 
BRANCH  10  11
ATOM     11  C   UNL     1     165.179 174.671 181.319  1.00  0.00     0.000 C 
BRANCH  11  12
ATOM     12  C   UNL     1     164.188 175.503 180.491  1.00  0.00     0.000 C 
BRANCH  12  13
ATOM     13  C   UNL     1     162.964 175.891 181.329  1.00  0.00     0.000 C 
BRANCH  13  14
ATOM     14  C   UNL     1     162.767 177.415 181.341  1.00  0.00     0.002 C 
BRANCH  14  15
ATOM     15  C   UNL     1     163.434 178.087 182.550  1.00  0.00     0.028 C 
BRANCH  15  16
ATOM     16  C   UNL     1     164.512 179.102 182.147  1.00  0.00     0.156 C 
BRANCH  16  17
ATOM     17  O   UNL     1     164.701 180.039 183.172  1.00  0.00    -0.396 OA
ATOM     18  H   UNL     1     163.827 180.488 183.312  1.00  0.00     0.210 HD
ENDBRANCH  16  17
ENDBRANCH  15  16
ENDBRANCH  14  15
ENDBRANCH  13  14
ENDBRANCH  12  13
ENDBRANCH  11  12
ENDBRANCH  10  11
ENDBRANCH   1  10
TORSDOF 15
ENDMDL
MODEL 6
REMARK VINA RESULT:    -3.949      8.722     12.432
REMARK INTER + INTRA:          -9.288
REMARK INTER:                  -7.303
REMARK INTRA:                  -1.984
REMARK UNBOUND:                -1.990
REMARK SMILES CCCCCCCCCCCCCCCCO
REMARK SMILES IDX 9 1 8 2 7 3 6 4 5 5 4 6 3 7 2 8 1 9 10 10 11 11 12 12 13 13
REMARK SMILES IDX 14 14 15 15 16 16 17 17
REMARK H PARENT 17 18
REMARK Flexibility Score: inf
ROOT
ATOM      1  C   UNL     1     166.870 173.086 183.107  1.00  0.00     0.000 C 
ENDROOT
BRANCH   1   2
ATOM      2  C   UNL     1     167.835 172.140 182.374  1.00  0.00    -0.000 C 
BRANCH   2   3
ATOM      3  C   UNL     1     168.169 170.886 183.197  1.00  0.00    -0.000 C 
BRANCH   3   4
ATOM      4  C   UNL     1     169.645 170.888 183.624  1.00  0.00    -0.000 C 
BRANCH   4   5
ATOM      5  C   UNL     1     169.820 170.794 185.148  1.00  0.00    -0.000 C 
BRANCH   5   6
ATOM      6  C   UNL     1     170.758 171.877 185.705  1.00  0.00    -0.000 C 
BRANCH   6   7
ATOM      7  C   UNL     1     170.048 173.233 185.779  1.00  0.00    -0.000 C 
BRANCH   7   8
ATOM      8  C   UNL     1     170.843 174.312 185.035  1.00  0.00    -0.003 C 
ATOM      9  C   UNL     1     170.251 174.577 183.653  1.00  0.00     0.004 C 
ENDBRANCH   7   8
ENDBRANCH   6   7
ENDBRANCH   5   6
ENDBRANCH   4   5
ENDBRANCH   3   4
ENDBRANCH   2   3
ENDBRANCH   1   2
BRANCH   1  10
ATOM     10  C   UNL     1     166.607 172.654 184.560  1.00  0.00     0.000 C 
BRANCH  10  11
ATOM     11  C   UNL     1     166.293 173.843 185.482  1.00  0.00     0.000 C 
BRANCH  11  12
ATOM     12  C   UNL     1     166.739 175.187 184.887  1.00  0.00     0.000 C 
BRANCH  12  13
ATOM     13  C   UNL     1     165.572 176.180 184.837  1.00  0.00     0.000 C 
BRANCH  13  14
ATOM     14  C   UNL     1     165.082 176.380 183.395  1.00  0.00     0.002 C 
BRANCH  14  15
ATOM     15  C   UNL     1     165.543 177.717 182.794  1.00  0.00     0.028 C 
BRANCH  15  16
ATOM     16  C   UNL     1     164.382 178.692 182.556  1.00  0.00     0.156 C 
BRANCH  16  17
ATOM     17  O   UNL     1     164.683 179.945 183.108  1.00  0.00    -0.396 OA
ATOM     18  H   UNL     1     163.989 180.128 183.792  1.00  0.00     0.210 HD
ENDBRANCH  16  17
ENDBRANCH  15  16
ENDBRANCH  14  15
ENDBRANCH  13  14
ENDBRANCH  12  13
ENDBRANCH  11  12
ENDBRANCH  10  11
ENDBRANCH   1  10
TORSDOF 15
ENDMDL
MODEL 7
REMARK VINA RESULT:    -3.935      9.219     13.097
REMARK INTER + INTRA:          -9.260
REMARK INTER:                  -7.816
REMARK INTRA:                  -1.444
REMARK UNBOUND:                -1.990
REMARK SMILES CCCCCCCCCCCCCCCCO
REMARK SMILES IDX 9 1 8 2 7 3 6 4 5 5 4 6 3 7 2 8 1 9 10 10 11 11 12 12 13 13
REMARK SMILES IDX 14 14 15 15 16 16 17 17
REMARK H PARENT 17 18
REMARK Flexibility Score: inf
ROOT
ATOM      1  C   UNL     1     166.479 174.047 185.822  1.00  0.00     0.000 C 
ENDROOT
BRANCH   1   2
ATOM      2  C   UNL     1     166.914 172.955 184.831  1.00  0.00    -0.000 C 
BRANCH   2   3
ATOM      3  C   UNL     1     168.122 172.149 185.333  1.00  0.00    -0.000 C 
BRANCH   3   4
ATOM      4  C   UNL     1     168.982 172.988 186.290  1.00  0.00    -0.000 C 
BRANCH   4   5
ATOM      5  C   UNL     1     170.389 173.263 185.735  1.00  0.00    -0.000 C 
BRANCH   5   6
ATOM      6  C   UNL     1     170.496 174.630 185.042  1.00  0.00    -0.000 C 
BRANCH   6   7
ATOM      7  C   UNL     1     171.539 174.595 183.918  1.00  0.00    -0.000 C 
BRANCH   7   8
ATOM      8  C   UNL     1     170.889 174.863 182.556  1.00  0.00    -0.003 C 
ATOM      9  C   UNL     1     169.374 174.691 182.626  1.00  0.00     0.004 C 
ENDBRANCH   7   8
ENDBRANCH   6   7
ENDBRANCH   5   6
ENDBRANCH   4   5
ENDBRANCH   3   4
ENDBRANCH   2   3
ENDBRANCH   1   2
BRANCH   1  10
ATOM     10  C   UNL     1     166.734 175.467 185.286  1.00  0.00     0.000 C 
BRANCH  10  11
ATOM     11  C   UNL     1     165.458 176.130 184.742  1.00  0.00     0.000 C 
BRANCH  11  12
ATOM     12  C   UNL     1     165.237 175.849 183.248  1.00  0.00     0.000 C 
BRANCH  12  13
ATOM     13  C   UNL     1     166.277 176.581 182.392  1.00  0.00     0.000 C 
BRANCH  13  14
ATOM     14  C   UNL     1     165.617 177.678 181.543  1.00  0.00     0.002 C 
BRANCH  14  15
ATOM     15  C   UNL     1     165.302 178.944 182.354  1.00  0.00     0.028 C 
BRANCH  15  16
ATOM     16  C   UNL     1     163.799 179.242 182.430  1.00  0.00     0.156 C 
BRANCH  16  17
ATOM     17  O   UNL     1     163.449 180.207 181.474  1.00  0.00    -0.396 OA
ATOM     18  H   UNL     1     164.132 180.156 180.756  1.00  0.00     0.210 HD
ENDBRANCH  16  17
ENDBRANCH  15  16
ENDBRANCH  14  15
ENDBRANCH  13  14
ENDBRANCH  12  13
ENDBRANCH  11  12
ENDBRANCH  10  11
ENDBRANCH   1  10
TORSDOF 15
ENDMDL
MODEL 8
REMARK VINA RESULT:    -3.933     10.701     13.633
REMARK INTER + INTRA:          -9.258
REMARK INTER:                  -7.356
REMARK INTRA:                  -1.902
REMARK UNBOUND:                -1.990
REMARK SMILES CCCCCCCCCCCCCCCCO
REMARK SMILES IDX 9 1 8 2 7 3 6 4 5 5 4 6 3 7 2 8 1 9 10 10 11 11 12 12 13 13
REMARK SMILES IDX 14 14 15 15 16 16 17 17
REMARK H PARENT 17 18
REMARK Flexibility Score: inf
ROOT
ATOM      1  C   UNL     1     166.319 174.504 186.108  1.00  0.00     0.000 C 
ENDROOT
BRANCH   1   2
ATOM      2  C   UNL     1     167.601 173.668 185.970  1.00  0.00    -0.000 C 
BRANCH   2   3
ATOM      3  C   UNL     1     168.563 174.231 184.913  1.00  0.00    -0.000 C 
BRANCH   3   4
ATOM      4  C   UNL     1     168.579 173.345 183.657  1.00  0.00    -0.000 C 
BRANCH   4   5
ATOM      5  C   UNL     1     167.867 172.001 183.873  1.00  0.00    -0.000 C 
BRANCH   5   6
ATOM      6  C   UNL     1     166.690 171.791 182.906  1.00  0.00    -0.000 C 
BRANCH   6   7
ATOM      7  C   UNL     1     166.897 172.583 181.610  1.00  0.00    -0.000 C 
BRANCH   7   8
ATOM      8  C   UNL     1     165.568 172.794 180.876  1.00  0.00    -0.003 C 
ATOM      9  C   UNL     1     164.879 171.462 180.592  1.00  0.00     0.004 C 
ENDBRANCH   7   8
ENDBRANCH   6   7
ENDBRANCH   5   6
ENDBRANCH   4   5
ENDBRANCH   3   4
ENDBRANCH   2   3
ENDBRANCH   1   2
BRANCH   1  10
ATOM     10  C   UNL     1     166.425 175.870 185.407  1.00  0.00     0.000 C 
BRANCH  10  11
ATOM     11  C   UNL     1     165.161 176.222 184.606  1.00  0.00     0.000 C 
BRANCH  11  12
ATOM     12  C   UNL     1     165.215 175.709 183.159  1.00  0.00     0.000 C 
BRANCH  12  13
ATOM     13  C   UNL     1     166.369 176.361 182.388  1.00  0.00     0.000 C 
BRANCH  13  14
ATOM     14  C   UNL     1     166.162 177.878 182.270  1.00  0.00     0.002 C 
BRANCH  14  15
ATOM     15  C   UNL     1     164.875 178.242 181.514  1.00  0.00     0.028 C 
BRANCH  15  16
ATOM     16  C   UNL     1     163.961 179.179 182.315  1.00  0.00     0.156 C 
BRANCH  16  17
ATOM     17  O   UNL     1     163.452 180.185 181.482  1.00  0.00    -0.396 OA
ATOM     18  H   UNL     1     164.234 180.645 181.081  1.00  0.00     0.210 HD
ENDBRANCH  16  17
ENDBRANCH  15  16
ENDBRANCH  14  15
ENDBRANCH  13  14
ENDBRANCH  12  13
ENDBRANCH  11  12
ENDBRANCH  10  11
ENDBRANCH   1  10
TORSDOF 15
ENDMDL
MODEL 9
REMARK VINA RESULT:    -3.894      3.711      6.819
REMARK INTER + INTRA:          -9.184
REMARK INTER:                  -7.219
REMARK INTRA:                  -1.966
REMARK UNBOUND:                -1.990
REMARK SMILES CCCCCCCCCCCCCCCCO
REMARK SMILES IDX 9 1 8 2 7 3 6 4 5 5 4 6 3 7 2 8 1 9 10 10 11 11 12 12 13 13
REMARK SMILES IDX 14 14 15 15 16 16 17 17
REMARK H PARENT 17 18
REMARK Flexibility Score: inf
ROOT
ATOM      1  C   UNL     1     177.815 170.401 186.317  1.00  0.00     0.000 C 
ENDROOT
BRANCH   1   2
ATOM      2  C   UNL     1     177.883 169.004 185.680  1.00  0.00    -0.000 C 
BRANCH   2   3
ATOM      3  C   UNL     1     178.696 168.988 184.376  1.00  0.00    -0.000 C 
BRANCH   3   4
ATOM      4  C   UNL     1     177.786 169.210 183.159  1.00  0.00    -0.000 C 
BRANCH   4   5
ATOM      5  C   UNL     1     178.173 170.457 182.349  1.00  0.00    -0.000 C 
BRANCH   5   6
ATOM      6  C   UNL     1     177.175 171.612 182.525  1.00  0.00    -0.000 C 
BRANCH   6   7
ATOM      7  C   UNL     1     177.692 172.634 183.544  1.00  0.00    -0.000 C 
BRANCH   7   8
ATOM      8  C   UNL     1     176.601 173.647 183.909  1.00  0.00    -0.003 C 
ATOM      9  C   UNL     1     175.253 173.239 183.323  1.00  0.00     0.004 C 
ENDBRANCH   7   8
ENDBRANCH   6   7
ENDBRANCH   5   6
ENDBRANCH   4   5
ENDBRANCH   3   4
ENDBRANCH   2   3
ENDBRANCH   1   2
BRANCH   1  10
ATOM     10  C   UNL     1     176.370 170.890 186.520  1.00  0.00     0.000 C 
BRANCH  10  11
ATOM     11  C   UNL     1     175.385 170.248 185.530  1.00  0.00     0.000 C 
BRANCH  11  12
ATOM     12  C   UNL     1     173.934 170.694 185.765  1.00  0.00     0.000 C 
BRANCH  12  13
ATOM     13  C   UNL     1     173.885 171.983 186.594  1.00  0.00     0.000 C 
BRANCH  13  14
ATOM     14  C   UNL     1     172.512 172.156 187.260  1.00  0.00     0.002 C 
BRANCH  14  15
ATOM     15  C   UNL     1     171.422 172.583 186.265  1.00  0.00     0.028 C 
BRANCH  15  16
ATOM     16  C   UNL     1     170.168 173.132 186.958  1.00  0.00     0.156 C 
BRANCH  16  17
ATOM     17  O   UNL     1     170.162 172.761 188.310  1.00  0.00    -0.396 OA
ATOM     18  H   UNL     1     169.233 172.483 188.525  1.00  0.00     0.210 HD
ENDBRANCH  16  17
ENDBRANCH  15  16
ENDBRANCH  14  15
ENDBRANCH  13  14
ENDBRANCH  12  13
ENDBRANCH  11  12
ENDBRANCH  10  11
ENDBRANCH   1  10
TORSDOF 15
ENDMDL
