MODEL 1
REMARK VINA RESULT:    -3.477      0.000      0.000
REMARK INTER + INTRA:          -4.672
REMARK INTER:                  -4.900
REMARK INTRA:                   0.228
REMARK UNBOUND:                 0.228
REMARK SMILES CC1=CCC(=C(C)C)C(=O)CC(C)=CCC1
REMARK SMILES IDX 12 1 14 2 13 3 15 4 16 5 2 6 1 7 3 8 11 10 9 11 10 12 5 13
REMARK SMILES IDX 6 14 7 15 8 16 4 17
REMARK H PARENT
REMARK Flexibility Score: 60.00
ROOT
ATOM      1  C   UNL     1      -0.495 -10.084 -41.628  1.00  0.00    -0.070 C 
ATOM      2  C   UNL     1      -0.858 -11.307 -42.092  1.00  0.00    -0.027 C 
ATOM      3  C   UNL     1       0.942  -9.904 -41.205  1.00  0.00     0.039 C 
ENDROOT
BRANCH   2   4
ATOM      4  C   UNL     1      -2.254 -11.738 -42.471  1.00  0.00     0.032 C 
BRANCH   4   5
ATOM      5  C   UNL     1      -2.903 -12.670 -41.440  1.00  0.00     0.034 C 
BRANCH   5   6
ATOM      6  C   UNL     1      -4.009 -11.945 -40.699  1.00  0.00    -0.077 C 
ATOM      7  C   UNL     1      -5.422 -12.090 -41.203  1.00  0.00     0.039 C 
ATOM      8  C   UNL     1      -3.806 -11.237 -39.563  1.00  0.00    -0.023 CG0
ATOM      9  G   UNL     1      -2.466 -10.970 -38.918  1.00  0.00     0.000 G0
ENDBRANCH   5   6
ENDBRANCH   4   5
ENDBRANCH   2   4
BRANCH   1  10
ATOM     10  C   UNL     1      -1.417  -8.869 -41.582  1.00  0.00     0.111 C 
BRANCH  10  11
ATOM     11  C   UNL     1      -2.321  -8.833 -40.375  1.00  0.00     0.163 C 
ATOM     12  O   UNL     1      -3.422  -8.228 -40.489  1.00  0.00    -0.294 OA
BRANCH  11  13
ATOM     13  C   UNL     1      -1.987  -9.532 -39.089  1.00  0.00    -0.002 C 
ATOM     14  C   UNL     1      -1.237  -8.908 -38.129  1.00  0.00    -0.069 C 
ATOM     15  C   UNL     1      -0.804  -9.624 -36.867  1.00  0.00     0.039 C 
ATOM     16  C   UNL     1      -0.838  -7.454 -38.248  1.00  0.00     0.039 C 
BRANCH  13  17
ATOM     17  C   UNL     1      -2.453 -10.974 -38.895  1.00  0.00     0.066 CG0
ATOM     18  G   UNL     1      -3.790 -11.235 -39.549  1.00  0.00     0.000 G0
ENDBRANCH  13  17
ENDBRANCH  11  13
ENDBRANCH  10  11
ENDBRANCH   1  10
TORSDOF 0
ENDMDL
MODEL 2
REMARK VINA RESULT:    -3.257      2.423      4.955
REMARK INTER + INTRA:          -4.361
REMARK INTER:                  -4.592
REMARK INTRA:                   0.231
REMARK UNBOUND:                 0.228
REMARK SMILES CC1=CCC(=C(C)C)C(=O)CC(C)=CCC1
REMARK SMILES IDX 12 1 14 2 13 3 15 4 16 5 2 6 1 7 3 8 11 10 9 11 10 12 5 13
REMARK SMILES IDX 6 14 7 15 8 16 4 17
REMARK H PARENT
REMARK Flexibility Score: 60.00
ROOT
ATOM      1  C   UNL     1      -0.841  -8.341 -37.808  1.00  0.00    -0.070 C 
ATOM      2  C   UNL     1      -0.587  -8.336 -36.474  1.00  0.00    -0.027 C 
ATOM      3  C   UNL     1      -1.321  -7.050 -38.424  1.00  0.00     0.039 C 
ENDROOT
BRANCH   2   4
ATOM      4  C   UNL     1      -0.199  -9.531 -35.637  1.00  0.00     0.032 C 
BRANCH   4   5
ATOM      5  C   UNL     1      -1.402 -10.347 -35.149  1.00  0.00     0.034 C 
BRANCH   5   6
ATOM      6  C   UNL     1      -1.088 -11.830 -35.203  1.00  0.00    -0.077 C 
ATOM      7  C   UNL     1      -0.192 -12.410 -34.138  1.00  0.00     0.039 C 
ATOM      8  C   UNL     1      -1.631 -12.675 -36.110  1.00  0.00    -0.023 CG0
ATOM      9  G   UNL     1      -2.535 -12.278 -37.254  1.00  0.00     0.000 G0
ENDBRANCH   5   6
ENDBRANCH   4   5
ENDBRANCH   2   4
BRANCH   1  10
ATOM     10  C   UNL     1      -0.598  -9.533 -38.728  1.00  0.00     0.111 C 
BRANCH  10  11
ATOM     11  C   UNL     1      -1.799 -10.429 -38.899  1.00  0.00     0.163 C 
ATOM     12  O   UNL     1      -2.828  -9.933 -39.435  1.00  0.00    -0.294 OA
BRANCH  11  13
ATOM     13  C   UNL     1      -1.790 -11.880 -38.514  1.00  0.00    -0.002 C 
ATOM     14  C   UNL     1      -1.156 -12.808 -39.297  1.00  0.00    -0.069 C 
ATOM     15  C   UNL     1      -1.215 -14.287 -38.984  1.00  0.00     0.039 C 
ATOM     16  C   UNL     1      -0.320 -12.404 -40.491  1.00  0.00     0.039 C 
BRANCH  13  17
ATOM     17  C   UNL     1      -2.550 -12.312 -37.261  1.00  0.00     0.066 CG0
ATOM     18  G   UNL     1      -1.620 -12.660 -36.121  1.00  0.00     0.000 G0
ENDBRANCH  13  17
ENDBRANCH  11  13
ENDBRANCH  10  11
ENDBRANCH   1  10
TORSDOF 0
ENDMDL
MODEL 3
REMARK VINA RESULT:    -3.214      2.307      4.842
REMARK INTER + INTRA:          -4.301
REMARK INTER:                  -4.375
REMARK INTRA:                   0.074
REMARK UNBOUND:                 0.228
REMARK SMILES CC1=CCC(=C(C)C)C(=O)CC(C)=CCC1
REMARK SMILES IDX 12 1 14 2 13 3 15 4 16 5 2 6 1 7 3 8 11 10 9 11 10 12 5 13
REMARK SMILES IDX 6 14 7 15 8 16 4 17
REMARK H PARENT
REMARK Flexibility Score: 60.00
ROOT
ATOM      1  C   UNL     1      -2.065 -13.300 -40.231  1.00  0.00    -0.070 C 
ATOM      2  C   UNL     1      -0.853 -12.872 -39.791  1.00  0.00    -0.027 C 
ATOM      3  C   UNL     1      -2.760 -14.363 -39.416  1.00  0.00     0.039 C 
ENDROOT
BRANCH   2   4
ATOM      4  C   UNL     1       0.058 -11.898 -40.497  1.00  0.00     0.032 C 
BRANCH   4   5
ATOM      5  C   UNL     1      -0.375 -10.435 -40.336  1.00  0.00     0.034 C 
BRANCH   5   6
ATOM      6  C   UNL     1      -0.369  -9.735 -41.682  1.00  0.00    -0.077 C 
ATOM      7  C   UNL     1       0.918  -9.704 -42.466  1.00  0.00     0.039 C 
ATOM      8  C   UNL     1      -1.477  -9.206 -42.252  1.00  0.00    -0.023 CG0
ATOM      9  G   UNL     1      -2.845  -9.131 -41.616  1.00  0.00     0.000 G0
ENDBRANCH   5   6
ENDBRANCH   4   5
ENDBRANCH   2   4
BRANCH   1  10
ATOM     10  C   UNL     1      -2.797 -12.723 -41.438  1.00  0.00     0.111 C 
BRANCH  10  11
ATOM     11  C   UNL     1      -3.679 -11.543 -41.113  1.00  0.00     0.163 C 
ATOM     12  O   UNL     1      -4.333 -11.583 -40.035  1.00  0.00    -0.294 OA
BRANCH  11  13
ATOM     13  C   UNL     1      -3.756 -10.323 -41.984  1.00  0.00    -0.002 C 
ATOM     14  C   UNL     1      -4.560 -10.303 -43.093  1.00  0.00    -0.069 C 
ATOM     15  C   UNL     1      -4.581  -9.122 -44.039  1.00  0.00     0.039 C 
ATOM     16  C   UNL     1      -5.510 -11.437 -43.408  1.00  0.00     0.039 C 
BRANCH  13  17
ATOM     17  C   UNL     1      -2.876  -9.121 -41.642  1.00  0.00     0.066 CG0
ATOM     18  G   UNL     1      -1.504  -9.223 -42.267  1.00  0.00     0.000 G0
ENDBRANCH  13  17
ENDBRANCH  11  13
ENDBRANCH  10  11
ENDBRANCH   1  10
TORSDOF 0
ENDMDL
MODEL 4
REMARK VINA RESULT:    -3.068     13.094     14.987
REMARK INTER + INTRA:          -4.095
REMARK INTER:                  -4.211
REMARK INTRA:                   0.116
REMARK UNBOUND:                 0.228
REMARK SMILES CC1=CCC(=C(C)C)C(=O)CC(C)=CCC1
REMARK SMILES IDX 12 1 14 2 13 3 15 4 16 5 2 6 1 7 3 8 11 10 9 11 10 12 5 13
REMARK SMILES IDX 6 14 7 15 8 16 4 17
REMARK H PARENT
REMARK Flexibility Score: 60.00
ROOT
ATOM      1  C   UNL     1       0.181 -24.328 -45.962  1.00  0.00    -0.070 C 
ATOM      2  C   UNL     1      -0.723 -23.398 -45.561  1.00  0.00    -0.027 C 
ATOM      3  C   UNL     1      -0.328 -25.465 -46.812  1.00  0.00     0.039 C 
ENDROOT
BRANCH   2   4
ATOM      4  C   UNL     1      -0.458 -22.240 -44.629  1.00  0.00     0.032 C 
BRANCH   4   5
ATOM      5  C   UNL     1      -0.293 -22.666 -43.165  1.00  0.00     0.034 C 
BRANCH   5   6
ATOM      6  C   UNL     1       0.915 -21.984 -42.553  1.00  0.00    -0.077 C 
ATOM      7  C   UNL     1       0.894 -20.483 -42.414  1.00  0.00     0.039 C 
ATOM      8  C   UNL     1       1.978 -22.656 -42.052  1.00  0.00    -0.023 CG0
ATOM      9  G   UNL     1       2.183 -24.152 -42.111  1.00  0.00     0.000 G0
ENDBRANCH   5   6
ENDBRANCH   4   5
ENDBRANCH   2   4
BRANCH   1  10
ATOM     10  C   UNL     1       1.678 -24.255 -45.677  1.00  0.00     0.111 C 
BRANCH  10  11
ATOM     11  C   UNL     1       2.126 -25.124 -44.528  1.00  0.00     0.163 C 
ATOM     12  O   UNL     1       1.841 -26.351 -44.578  1.00  0.00    -0.294 OA
BRANCH  11  13
ATOM     13  C   UNL     1       2.936 -24.596 -43.379  1.00  0.00    -0.002 C 
ATOM     14  C   UNL     1       4.303 -24.560 -43.446  1.00  0.00    -0.069 C 
ATOM     15  C   UNL     1       5.146 -24.124 -42.266  1.00  0.00     0.039 C 
ATOM     16  C   UNL     1       5.048 -24.903 -44.716  1.00  0.00     0.039 C 
BRANCH  13  17
ATOM     17  C   UNL     1       2.209 -24.153 -42.110  1.00  0.00     0.066 CG0
ATOM     18  G   UNL     1       1.985 -22.660 -42.073  1.00  0.00     0.000 G0
ENDBRANCH  13  17
ENDBRANCH  11  13
ENDBRANCH  10  11
ENDBRANCH   1  10
TORSDOF 0
ENDMDL
MODEL 5
REMARK VINA RESULT:    -3.004     14.640     16.454
REMARK INTER + INTRA:          -4.005
REMARK INTER:                  -4.103
REMARK INTRA:                   0.098
REMARK UNBOUND:                 0.228
REMARK SMILES CC1=CCC(=C(C)C)C(=O)CC(C)=CCC1
REMARK SMILES IDX 12 1 14 2 13 3 15 4 16 5 2 6 1 7 3 8 11 10 9 11 10 12 5 13
REMARK SMILES IDX 6 14 7 15 8 16 4 17
REMARK H PARENT
REMARK Flexibility Score: 60.00
ROOT
ATOM      1  C   UNL     1      -1.800 -27.036 -46.821  1.00  0.00    -0.070 C 
ATOM      2  C   UNL     1      -0.550 -26.982 -47.350  1.00  0.00    -0.027 C 
ATOM      3  C   UNL     1      -2.956 -27.123 -47.787  1.00  0.00     0.039 C 
ENDROOT
BRANCH   2   4
ATOM      4  C   UNL     1       0.735 -26.791 -46.581  1.00  0.00     0.032 C 
BRANCH   4   5
ATOM      5  C   UNL     1       0.997 -25.331 -46.190  1.00  0.00     0.034 C 
BRANCH   5   6
ATOM      6  C   UNL     1       1.466 -25.250 -44.750  1.00  0.00    -0.077 C 
ATOM      7  C   UNL     1       2.843 -25.763 -44.417  1.00  0.00     0.039 C 
ATOM      8  C   UNL     1       0.745 -24.669 -43.762  1.00  0.00    -0.023 CG0
ATOM      9  G   UNL     1      -0.654 -24.115 -43.901  1.00  0.00     0.000 G0
ENDBRANCH   5   6
ENDBRANCH   4   5
ENDBRANCH   2   4
BRANCH   1  10
ATOM     10  C   UNL     1      -2.104 -27.093 -45.327  1.00  0.00     0.111 C 
BRANCH  10  11
ATOM     11  C   UNL     1      -2.490 -25.763 -44.729  1.00  0.00     0.163 C 
ATOM     12  O   UNL     1      -3.509 -25.185 -45.198  1.00  0.00    -0.294 OA
BRANCH  11  13
ATOM     13  C   UNL     1      -1.752 -25.146 -43.577  1.00  0.00    -0.002 C 
ATOM     14  C   UNL     1      -2.075 -25.468 -42.286  1.00  0.00    -0.069 C 
ATOM     15  C   UNL     1      -1.413 -24.788 -41.107  1.00  0.00     0.039 C 
ATOM     16  C   UNL     1      -3.074 -26.556 -41.963  1.00  0.00     0.039 C 
BRANCH  13  17
ATOM     17  C   UNL     1      -0.670 -24.107 -43.870  1.00  0.00     0.066 CG0
ATOM     18  G   UNL     1       0.721 -24.686 -43.763  1.00  0.00     0.000 G0
ENDBRANCH  13  17
ENDBRANCH  11  13
ENDBRANCH  10  11
ENDBRANCH   1  10
TORSDOF 0
ENDMDL
MODEL 6
REMARK VINA RESULT:    -2.991      1.914      4.455
REMARK INTER + INTRA:          -3.987
REMARK INTER:                  -4.315
REMARK INTRA:                   0.328
REMARK UNBOUND:                 0.228
REMARK SMILES CC1=CCC(=C(C)C)C(=O)CC(C)=CCC1
REMARK SMILES IDX 12 1 14 2 13 3 15 4 16 5 2 6 1 7 3 8 11 10 9 11 10 12 5 13
REMARK SMILES IDX 6 14 7 15 8 16 4 17
REMARK H PARENT
REMARK Flexibility Score: 60.00
ROOT
ATOM      1  C   UNL     1      -1.085  -8.905 -35.968  1.00  0.00    -0.070 C 
ATOM      2  C   UNL     1      -1.281  -9.939 -35.110  1.00  0.00    -0.027 C 
ATOM      3  C   UNL     1      -1.531  -7.537 -35.515  1.00  0.00     0.039 C 
ENDROOT
BRANCH   2   4
ATOM      4  C   UNL     1      -1.007 -11.396 -35.394  1.00  0.00     0.032 C 
BRANCH   4   5
ATOM      5  C   UNL     1      -2.237 -12.156 -35.909  1.00  0.00     0.034 C 
BRANCH   5   6
ATOM      6  C   UNL     1      -1.881 -12.949 -37.151  1.00  0.00    -0.077 C 
ATOM      7  C   UNL     1      -1.295 -14.327 -36.976  1.00  0.00     0.039 C 
ATOM      8  C   UNL     1      -2.134 -12.518 -38.409  1.00  0.00    -0.023 CG0
ATOM      9  G   UNL     1      -2.701 -11.168 -38.781  1.00  0.00     0.000 G0
ENDBRANCH   5   6
ENDBRANCH   4   5
ENDBRANCH   2   4
BRANCH   1  10
ATOM     10  C   UNL     1      -0.377  -9.023 -37.315  1.00  0.00     0.111 C 
BRANCH  10  11
ATOM     11  C   UNL     1      -1.308  -8.984 -38.501  1.00  0.00     0.163 C 
ATOM     12  O   UNL     1      -1.776  -7.862 -38.840  1.00  0.00    -0.294 OA
BRANCH  11  13
ATOM     13  C   UNL     1      -1.640 -10.202 -39.312  1.00  0.00    -0.002 C 
ATOM     14  C   UNL     1      -1.032 -10.427 -40.519  1.00  0.00    -0.069 C 
ATOM     15  C   UNL     1      -1.420 -11.595 -41.400  1.00  0.00     0.039 C 
ATOM     16  C   UNL     1       0.096  -9.552 -41.017  1.00  0.00     0.039 C 
BRANCH  13  17
ATOM     17  C   UNL     1      -2.712 -11.159 -38.793  1.00  0.00     0.066 CG0
ATOM     18  G   UNL     1      -2.137 -12.497 -38.392  1.00  0.00     0.000 G0
ENDBRANCH  13  17
ENDBRANCH  11  13
ENDBRANCH  10  11
ENDBRANCH   1  10
TORSDOF 0
ENDMDL
MODEL 7
REMARK VINA RESULT:    -2.852      2.337      3.233
REMARK INTER + INTRA:          -3.792
REMARK INTER:                  -4.041
REMARK INTRA:                   0.250
REMARK UNBOUND:                 0.228
REMARK SMILES CC1=CCC(=C(C)C)C(=O)CC(C)=CCC1
REMARK SMILES IDX 12 1 14 2 13 3 15 4 16 5 2 6 1 7 3 8 11 10 9 11 10 12 5 13
REMARK SMILES IDX 6 14 7 15 8 16 4 17
REMARK H PARENT
REMARK Flexibility Score: 60.00
ROOT
ATOM      1  C   UNL     1       0.242 -10.594 -41.349  1.00  0.00    -0.070 C 
ATOM      2  C   UNL     1      -0.181  -9.793 -42.362  1.00  0.00    -0.027 C 
ATOM      3  C   UNL     1       1.550 -11.321 -41.544  1.00  0.00     0.039 C 
ENDROOT
BRANCH   2   4
ATOM      4  C   UNL     1      -1.497  -9.057 -42.425  1.00  0.00     0.032 C 
BRANCH   4   5
ATOM      5  C   UNL     1      -2.705  -9.988 -42.597  1.00  0.00     0.034 C 
BRANCH   5   6
ATOM      6  C   UNL     1      -3.721  -9.736 -41.500  1.00  0.00    -0.077 C 
ATOM      7  C   UNL     1      -4.367  -8.377 -41.422  1.00  0.00     0.039 C 
ATOM      8  C   UNL     1      -4.139 -10.692 -40.637  1.00  0.00    -0.023 CG0
ATOM      9  G   UNL     1      -3.600 -12.101 -40.554  1.00  0.00     0.000 G0
ENDBRANCH   5   6
ENDBRANCH   4   5
ENDBRANCH   2   4
BRANCH   1  10
ATOM     10  C   UNL     1      -0.473 -10.743 -40.010  1.00  0.00     0.111 C 
BRANCH  10  11
ATOM     11  C   UNL     1      -1.104 -12.096 -39.800  1.00  0.00     0.163 C 
ATOM     12  O   UNL     1      -0.357 -13.109 -39.885  1.00  0.00    -0.294 OA
BRANCH  11  13
ATOM     13  C   UNL     1      -2.551 -12.270 -39.440  1.00  0.00    -0.002 C 
ATOM     14  C   UNL     1      -2.920 -12.605 -38.164  1.00  0.00    -0.069 C 
ATOM     15  C   UNL     1      -4.363 -12.881 -37.800  1.00  0.00     0.039 C 
ATOM     16  C   UNL     1      -1.915 -12.670 -37.036  1.00  0.00     0.039 C 
BRANCH  13  17
ATOM     17  C   UNL     1      -3.604 -12.121 -40.538  1.00  0.00     0.066 CG0
ATOM     18  G   UNL     1      -4.132 -10.709 -40.635  1.00  0.00     0.000 G0
ENDBRANCH  13  17
ENDBRANCH  11  13
ENDBRANCH  10  11
ENDBRANCH   1  10
TORSDOF 0
ENDMDL
MODEL 8
REMARK VINA RESULT:    -2.822      4.008      6.637
REMARK INTER + INTRA:          -3.749
REMARK INTER:                  -4.014
REMARK INTRA:                   0.265
REMARK UNBOUND:                 0.228
REMARK SMILES CC1=CCC(=C(C)C)C(=O)CC(C)=CCC1
REMARK SMILES IDX 12 1 14 2 13 3 15 4 16 5 2 6 1 7 3 8 11 10 9 11 10 12 5 13
REMARK SMILES IDX 6 14 7 15 8 16 4 17
REMARK H PARENT
REMARK Flexibility Score: 60.00
ROOT
ATOM      1  C   UNL     1      -5.786 -11.912 -41.954  1.00  0.00    -0.070 C 
ATOM      2  C   UNL     1      -4.983 -11.419 -40.976  1.00  0.00    -0.027 C 
ATOM      3  C   UNL     1      -7.007 -12.686 -41.520  1.00  0.00     0.039 C 
ENDROOT
BRANCH   2   4
ATOM      4  C   UNL     1      -3.666 -10.708 -41.178  1.00  0.00     0.032 C 
BRANCH   4   5
ATOM      5  C   UNL     1      -3.822  -9.205 -41.438  1.00  0.00     0.034 C 
BRANCH   5   6
ATOM      6  C   UNL     1      -3.136  -8.823 -42.736  1.00  0.00    -0.077 C 
ATOM      7  C   UNL     1      -1.634  -8.925 -42.807  1.00  0.00     0.039 C 
ATOM      8  C   UNL     1      -3.806  -8.472 -43.859  1.00  0.00    -0.023 CG0
ATOM      9  G   UNL     1      -5.302  -8.302 -43.976  1.00  0.00     0.000 G0
ENDBRANCH   5   6
ENDBRANCH   4   5
ENDBRANCH   2   4
BRANCH   1  10
ATOM     10  C   UNL     1      -5.578 -11.670 -43.445  1.00  0.00     0.111 C 
BRANCH  10  11
ATOM     11  C   UNL     1      -6.486 -10.614 -44.026  1.00  0.00     0.163 C 
ATOM     12  O   UNL     1      -7.724 -10.727 -43.814  1.00  0.00    -0.294 OA
BRANCH  11  13
ATOM     13  C   UNL     1      -5.967  -9.424 -44.780  1.00  0.00    -0.002 C 
ATOM     14  C   UNL     1      -6.038  -9.377 -46.147  1.00  0.00    -0.069 C 
ATOM     15  C   UNL     1      -5.435  -8.234 -46.936  1.00  0.00     0.039 C 
ATOM     16  C   UNL     1      -6.765 -10.437 -46.944  1.00  0.00     0.039 C 
BRANCH  13  17
ATOM     17  C   UNL     1      -5.307  -8.289 -43.998  1.00  0.00     0.066 CG0
ATOM     18  G   UNL     1      -3.816  -8.485 -43.859  1.00  0.00     0.000 G0
ENDBRANCH  13  17
ENDBRANCH  11  13
ENDBRANCH  10  11
ENDBRANCH   1  10
TORSDOF 0
ENDMDL
MODEL 9
REMARK VINA RESULT:    -2.757      2.794      4.895
REMARK INTER + INTRA:          -3.658
REMARK INTER:                  -4.020
REMARK INTRA:                   0.362
REMARK UNBOUND:                 0.228
REMARK SMILES CC1=CCC(=C(C)C)C(=O)CC(C)=CCC1
REMARK SMILES IDX 12 1 14 2 13 3 15 4 16 5 2 6 1 7 3 8 11 10 9 11 10 12 5 13
REMARK SMILES IDX 6 14 7 15 8 16 4 17
REMARK H PARENT
REMARK Flexibility Score: 60.00
ROOT
ATOM      1  C   UNL     1      -4.846 -11.235 -42.643  1.00  0.00    -0.070 C 
ATOM      2  C   UNL     1      -3.875 -12.176 -42.762  1.00  0.00    -0.027 C 
ATOM      3  C   UNL     1      -5.862 -11.146 -43.755  1.00  0.00     0.039 C 
ENDROOT
BRANCH   2   4
ATOM      4  C   UNL     1      -2.706 -12.373 -41.826  1.00  0.00     0.032 C 
BRANCH   4   5
ATOM      5  C   UNL     1      -1.475 -11.543 -42.210  1.00  0.00     0.034 C 
BRANCH   5   6
ATOM      6  C   UNL     1      -1.379 -10.311 -41.331  1.00  0.00    -0.077 C 
ATOM      7  C   UNL     1      -0.746 -10.452 -39.970  1.00  0.00     0.039 C 
ATOM      8  C   UNL     1      -1.758  -9.075 -41.733  1.00  0.00    -0.023 CG0
ATOM      9  G   UNL     1      -2.421  -8.742 -43.050  1.00  0.00     0.000 G0
ENDBRANCH   5   6
ENDBRANCH   4   5
ENDBRANCH   2   4
BRANCH   1  10
ATOM     10  C   UNL     1      -5.022 -10.324 -41.432  1.00  0.00     0.111 C 
BRANCH  10  11
ATOM     11  C   UNL     1      -4.614  -8.892 -41.679  1.00  0.00     0.163 C 
ATOM     12  O   UNL     1      -4.842  -8.054 -40.764  1.00  0.00    -0.294 OA
BRANCH  11  13
ATOM     13  C   UNL     1      -3.905  -8.454 -42.927  1.00  0.00    -0.002 C 
ATOM     14  C   UNL     1      -4.594  -7.865 -43.953  1.00  0.00    -0.069 C 
ATOM     15  C   UNL     1      -3.920  -7.503 -45.260  1.00  0.00     0.039 C 
ATOM     16  C   UNL     1      -6.055  -7.495 -43.823  1.00  0.00     0.039 C 
BRANCH  13  17
ATOM     17  C   UNL     1      -2.407  -8.730 -43.055  1.00  0.00     0.066 CG0
ATOM     18  G   UNL     1      -1.773  -9.069 -41.727  1.00  0.00     0.000 G0
ENDBRANCH  13  17
ENDBRANCH  11  13
ENDBRANCH  10  11
ENDBRANCH   1  10
TORSDOF 0
ENDMDL
