MODEL 1
REMARK VINA RESULT:    -6.431      0.000      0.000
REMARK INTER + INTRA:         -10.013
REMARK INTER:                  -8.875
REMARK INTRA:                  -1.137
REMARK UNBOUND:                -1.137
REMARK SMILES CC[C@H](CC[C@H](C)[C@H]1CC[C@H]2[C@H]3CC=C4C[C@@H](O)CC[C@@]4(C)[C@H]3CC[C@@]12C)C(C)C
REMARK SMILES IDX 5 1 4 2 3 3 2 4 1 5 28 6 29 7 30 8 6 9 7 10 8 11 9 12 26 13
REMARK SMILES IDX 10 14 11 15 25 16 27 17 12 18 24 19 23 20 13 21 21 22 14 23
REMARK SMILES IDX 15 24 20 25 22 26 16 27 19 28 17 29 18 30
REMARK H PARENT 18 31
REMARK Flexibility Score: inf
ROOT
ATOM      1  C   UNL     1     136.570 128.000 116.609  1.00  0.00     0.004 C 
ENDROOT
BRANCH   1   2
ATOM      2  C   UNL     1     137.393 127.254 115.537  1.00  0.00     0.004 C 
BRANCH   2   3
ATOM      3  C   UNL     1     138.827 127.833 115.367  1.00  0.00    -0.009 C 
BRANCH   3   4
ATOM      4  C   UNL     1     139.914 126.978 116.087  1.00  0.00     0.000 C 
ATOM      5  C   UNL     1     141.364 127.232 115.665  1.00  0.00     0.004 C 
ENDBRANCH   3   4
BRANCH   3   6
ATOM      6  C   UNL     1     139.137 128.225 113.882  1.00  0.00    -0.014 C 
ATOM      7  C   UNL     1     138.664 127.160 112.881  1.00  0.00     0.007 C 
ATOM      8  C   UNL     1     138.654 129.625 113.453  1.00  0.00     0.007 C 
ENDBRANCH   3   6
ENDBRANCH   2   3
ENDBRANCH   1   2
BRANCH   1   9
ATOM      9  C   UNL     1     135.522 128.980 116.014  1.00  0.00    -0.011 C 
ATOM     10  C   UNL     1     136.037 130.432 116.098  1.00  0.00     0.008 C 
BRANCH   9  11
ATOM     11  C   UNL     1     134.125 128.770 116.720  1.00  0.00    -0.002 C 
ATOM     12  C   UNL     1     133.706 129.775 117.804  1.00  0.00     0.005 C 
ATOM     13  C   UNL     1     132.883 128.725 115.785  1.00  0.00    -0.026 C 
ATOM     14  C   UNL     1     132.199 129.573 117.986  1.00  0.00     0.005 C 
ATOM     15  C   UNL     1     131.737 128.667 116.821  1.00  0.00    -0.001 C 
ATOM     16  C   UNL     1     132.792 130.008 114.878  1.00  0.00     0.007 C 
ATOM     17  C   UNL     1     132.885 127.451 114.910  1.00  0.00     0.012 C 
ATOM     18  C   UNL     1     130.306 128.930 116.248  1.00  0.00     0.000 C 
ATOM     19  C   UNL     1     131.513 130.840 115.039  1.00  0.00     0.005 C 
ATOM     20  C   UNL     1     130.249 129.954 115.048  1.00  0.00     0.003 C 
ATOM     21  C   UNL     1     129.277 129.184 117.388  1.00  0.00     0.031 C 
ATOM     22  C   UNL     1     128.903 130.782 115.002  1.00  0.00    -0.008 C 
ATOM     23  C   UNL     1     128.871 130.624 117.491  1.00  0.00    -0.027 C 
ATOM     24  C   UNL     1     128.666 131.386 116.400  1.00  0.00    -0.065 C 
ATOM     25  C   UNL     1     128.917 131.861 113.855  1.00  0.00     0.014 C 
ATOM     26  C   UNL     1     127.727 129.826 114.648  1.00  0.00     0.016 C 
ATOM     27  C   UNL     1     128.400 132.862 116.646  1.00  0.00     0.063 C 
ATOM     28  C   UNL     1     129.219 133.286 114.322  1.00  0.00     0.033 C 
ATOM     29  C   UNL     1     128.194 133.691 115.378  1.00  0.00     0.118 C 
BRANCH  29  30
ATOM     30  O   UNL     1     128.338 135.051 115.692  1.00  0.00    -0.393 OA
ATOM     31  H   UNL     1     127.786 135.557 115.041  1.00  0.00     0.210 HD
ENDBRANCH  29  30
ENDBRANCH   9  11
ENDBRANCH   1   9
TORSDOF 7
ENDMDL
MODEL 2
REMARK VINA RESULT:    -6.341      4.325      7.298
REMARK INTER + INTRA:          -9.888
REMARK INTER:                  -7.785
REMARK INTRA:                  -2.104
REMARK UNBOUND:                -1.137
REMARK SMILES CC[C@H](CC[C@H](C)[C@H]1CC[C@H]2[C@H]3CC=C4C[C@@H](O)CC[C@@]4(C)[C@H]3CC[C@@]12C)C(C)C
REMARK SMILES IDX 5 1 4 2 3 3 2 4 1 5 28 6 29 7 30 8 6 9 7 10 8 11 9 12 26 13
REMARK SMILES IDX 10 14 11 15 25 16 27 17 12 18 24 19 23 20 13 21 21 22 14 23
REMARK SMILES IDX 15 24 20 25 22 26 16 27 19 28 17 29 18 30
REMARK H PARENT 18 31
REMARK Flexibility Score: inf
ROOT
ATOM      1  C   UNL     1     133.394 128.810 116.556  1.00  0.00     0.004 C 
ENDROOT
BRANCH   1   2
ATOM      2  C   UNL     1     132.448 128.412 115.403  1.00  0.00     0.004 C 
BRANCH   2   3
ATOM      3  C   UNL     1     131.429 129.531 115.045  1.00  0.00    -0.009 C 
BRANCH   3   4
ATOM      4  C   UNL     1     131.985 130.544 113.998  1.00  0.00     0.000 C 
ATOM      5  C   UNL     1     131.678 132.022 114.257  1.00  0.00     0.004 C 
ENDBRANCH   3   4
BRANCH   3   6
ATOM      6  C   UNL     1     129.999 128.961 114.754  1.00  0.00    -0.014 C 
ATOM      7  C   UNL     1     129.894 127.457 115.046  1.00  0.00     0.007 C 
ATOM      8  C   UNL     1     128.836 129.725 115.417  1.00  0.00     0.007 C 
ENDBRANCH   3   6
ENDBRANCH   2   3
ENDBRANCH   1   2
BRANCH   1   9
ATOM      9  C   UNL     1     132.884 128.370 117.956  1.00  0.00    -0.011 C 
ATOM     10  C   UNL     1     133.191 126.875 118.193  1.00  0.00     0.008 C 
BRANCH   9  11
ATOM     11  C   UNL     1     131.353 128.727 118.109  1.00  0.00    -0.002 C 
ATOM     12  C   UNL     1     130.409 127.638 118.644  1.00  0.00     0.005 C 
ATOM     13  C   UNL     1     131.020 129.952 119.006  1.00  0.00    -0.026 C 
ATOM     14  C   UNL     1     129.137 128.377 119.070  1.00  0.00     0.005 C 
ATOM     15  C   UNL     1     129.476 129.885 119.033  1.00  0.00    -0.001 C 
ATOM     16  C   UNL     1     131.641 129.805 120.445  1.00  0.00     0.007 C 
ATOM     17  C   UNL     1     131.493 131.271 118.352  1.00  0.00     0.012 C 
ATOM     18  C   UNL     1     128.789 130.789 120.108  1.00  0.00     0.000 C 
ATOM     19  C   UNL     1     130.635 129.827 121.603  1.00  0.00     0.005 C 
ATOM     20  C   UNL     1     129.606 130.967 121.447  1.00  0.00     0.003 C 
ATOM     21  C   UNL     1     127.289 130.412 120.290  1.00  0.00     0.031 C 
ATOM     22  C   UNL     1     128.684 131.156 122.717  1.00  0.00    -0.008 C 
ATOM     23  C   UNL     1     127.027 129.682 121.574  1.00  0.00    -0.027 C 
ATOM     24  C   UNL     1     127.642 130.019 122.724  1.00  0.00    -0.065 C 
ATOM     25  C   UNL     1     129.524 131.232 124.047  1.00  0.00     0.014 C 
ATOM     26  C   UNL     1     127.952 132.525 122.619  1.00  0.00     0.016 C 
ATOM     27  C   UNL     1     127.395 129.109 123.915  1.00  0.00     0.063 C 
ATOM     28  C   UNL     1     129.559 129.934 124.856  1.00  0.00     0.033 C 
ATOM     29  C   UNL     1     128.128 129.519 125.192  1.00  0.00     0.118 C 
BRANCH  29  30
ATOM     30  O   UNL     1     128.138 128.435 126.083  1.00  0.00    -0.393 OA
ATOM     31  H   UNL     1     128.370 128.798 126.977  1.00  0.00     0.210 HD
ENDBRANCH  29  30
ENDBRANCH   9  11
ENDBRANCH   1   9
TORSDOF 7
ENDMDL
MODEL 3
REMARK VINA RESULT:    -6.323      4.458     11.188
REMARK INTER + INTRA:          -9.863
REMARK INTER:                  -8.782
REMARK INTRA:                  -1.081
REMARK UNBOUND:                -1.137
REMARK SMILES CC[C@H](CC[C@H](C)[C@H]1CC[C@H]2[C@H]3CC=C4C[C@@H](O)CC[C@@]4(C)[C@H]3CC[C@@]12C)C(C)C
REMARK SMILES IDX 5 1 4 2 3 3 2 4 1 5 28 6 29 7 30 8 6 9 7 10 8 11 9 12 26 13
REMARK SMILES IDX 10 14 11 15 25 16 27 17 12 18 24 19 23 20 13 21 21 22 14 23
REMARK SMILES IDX 15 24 20 25 22 26 16 27 19 28 17 29 18 30
REMARK H PARENT 18 31
REMARK Flexibility Score: inf
ROOT
ATOM      1  C   UNL     1     135.749 127.876 115.984  1.00  0.00     0.004 C 
ENDROOT
BRANCH   1   2
ATOM      2  C   UNL     1     134.741 126.901 116.630  1.00  0.00     0.004 C 
BRANCH   2   3
ATOM      3  C   UNL     1     133.274 127.408 116.547  1.00  0.00    -0.009 C 
BRANCH   3   4
ATOM      4  C   UNL     1     132.918 128.419 117.679  1.00  0.00     0.000 C 
ATOM      5  C   UNL     1     131.543 128.250 118.332  1.00  0.00     0.004 C 
ENDBRANCH   3   4
BRANCH   3   6
ATOM      6  C   UNL     1     132.874 127.838 115.095  1.00  0.00    -0.014 C 
ATOM      7  C   UNL     1     131.860 126.878 114.455  1.00  0.00     0.007 C 
ATOM      8  C   UNL     1     132.409 129.300 114.942  1.00  0.00     0.007 C 
ENDBRANCH   3   6
ENDBRANCH   2   3
ENDBRANCH   1   2
BRANCH   1   9
ATOM      9  C   UNL     1     137.017 128.119 116.849  1.00  0.00    -0.011 C 
ATOM     10  C   UNL     1     136.633 128.779 118.191  1.00  0.00     0.008 C 
BRANCH   9  11
ATOM     11  C   UNL     1     138.081 128.947 116.026  1.00  0.00    -0.002 C 
ATOM     12  C   UNL     1     138.682 130.201 116.680  1.00  0.00     0.005 C 
ATOM     13  C   UNL     1     139.337 128.166 115.547  1.00  0.00    -0.026 C 
ATOM     14  C   UNL     1     139.934 130.527 115.861  1.00  0.00     0.005 C 
ATOM     15  C   UNL     1     140.181 129.310 114.940  1.00  0.00    -0.001 C 
ATOM     16  C   UNL     1     140.076 127.462 116.745  1.00  0.00     0.007 C 
ATOM     17  C   UNL     1     138.972 127.129 114.460  1.00  0.00     0.012 C 
ATOM     18  C   UNL     1     141.671 128.950 114.633  1.00  0.00     0.000 C 
ATOM     19  C   UNL     1     141.535 127.883 116.959  1.00  0.00     0.005 C 
ATOM     20  C   UNL     1     142.324 127.917 115.633  1.00  0.00     0.003 C 
ATOM     21  C   UNL     1     142.516 130.226 114.349  1.00  0.00     0.031 C 
ATOM     22  C   UNL     1     143.876 128.142 115.832  1.00  0.00    -0.008 C 
ATOM     23  C   UNL     1     143.438 130.573 115.481  1.00  0.00    -0.027 C 
ATOM     24  C   UNL     1     144.103 129.629 116.173  1.00  0.00    -0.065 C 
ATOM     25  C   UNL     1     144.478 127.162 116.908  1.00  0.00     0.014 C 
ATOM     26  C   UNL     1     144.617 127.799 114.508  1.00  0.00     0.016 C 
ATOM     27  C   UNL     1     144.889 130.106 117.383  1.00  0.00     0.063 C 
ATOM     28  C   UNL     1     144.694 127.783 118.289  1.00  0.00     0.033 C 
ATOM     29  C   UNL     1     145.610 128.997 118.150  1.00  0.00     0.118 C 
BRANCH  29  30
ATOM     30  O   UNL     1     145.968 129.477 119.419  1.00  0.00    -0.393 OA
ATOM     31  H   UNL     1     146.931 129.270 119.544  1.00  0.00     0.210 HD
ENDBRANCH  29  30
ENDBRANCH   9  11
ENDBRANCH   1   9
TORSDOF 7
ENDMDL
MODEL 4
REMARK VINA RESULT:    -6.212      6.613     10.988
REMARK INTER + INTRA:          -9.710
REMARK INTER:                  -8.598
REMARK INTRA:                  -1.112
REMARK UNBOUND:                -1.137
REMARK SMILES CC[C@H](CC[C@H](C)[C@H]1CC[C@H]2[C@H]3CC=C4C[C@@H](O)CC[C@@]4(C)[C@H]3CC[C@@]12C)C(C)C
REMARK SMILES IDX 5 1 4 2 3 3 2 4 1 5 28 6 29 7 30 8 6 9 7 10 8 11 9 12 26 13
REMARK SMILES IDX 10 14 11 15 25 16 27 17 12 18 24 19 23 20 13 21 21 22 14 23
REMARK SMILES IDX 15 24 20 25 22 26 16 27 19 28 17 29 18 30
REMARK H PARENT 18 31
REMARK Flexibility Score: inf
ROOT
ATOM      1  C   UNL     1     128.703 134.534 116.849  1.00  0.00     0.004 C 
ENDROOT
BRANCH   1   2
ATOM      2  C   UNL     1     128.050 133.563 115.841  1.00  0.00     0.004 C 
BRANCH   2   3
ATOM      3  C   UNL     1     128.946 132.333 115.522  1.00  0.00    -0.009 C 
BRANCH   3   4
ATOM      4  C   UNL     1     128.374 131.002 116.096  1.00  0.00     0.000 C 
ATOM      5  C   UNL     1     128.818 129.715 115.395  1.00  0.00     0.004 C 
ENDBRANCH   3   4
BRANCH   3   6
ATOM      6  C   UNL     1     129.391 132.296 114.020  1.00  0.00    -0.014 C 
ATOM      7  C   UNL     1     128.207 132.442 113.053  1.00  0.00     0.007 C 
ATOM      8  C   UNL     1     130.525 133.269 113.641  1.00  0.00     0.007 C 
ENDBRANCH   3   6
ENDBRANCH   2   3
ENDBRANCH   1   2
BRANCH   1   9
ATOM      9  C   UNL     1     129.230 135.842 116.198  1.00  0.00    -0.011 C 
ATOM     10  C   UNL     1     130.772 135.884 116.250  1.00  0.00     0.008 C 
BRANCH   9  11
ATOM     11  C   UNL     1     128.546 137.095 116.874  1.00  0.00    -0.002 C 
ATOM     12  C   UNL     1     129.343 137.864 117.940  1.00  0.00     0.005 C 
ATOM     13  C   UNL     1     128.070 138.220 115.913  1.00  0.00    -0.026 C 
ATOM     14  C   UNL     1     128.628 139.210 118.090  1.00  0.00     0.005 C 
ATOM     15  C   UNL     1     127.617 139.298 116.924  1.00  0.00    -0.001 C 
ATOM     16  C   UNL     1     129.239 138.731 114.992  1.00  0.00     0.007 C 
ATOM     17  C   UNL     1     126.875 137.752 115.050  1.00  0.00     0.012 C 
ATOM     18  C   UNL     1     127.363 140.717 116.317  1.00  0.00     0.000 C 
ATOM     19  C   UNL     1     129.572 140.223 115.116  1.00  0.00     0.005 C 
ATOM     20  C   UNL     1     128.301 141.098 115.105  1.00  0.00     0.003 C 
ATOM     21  C   UNL     1     127.243 141.797 117.431  1.00  0.00     0.031 C 
ATOM     22  C   UNL     1     128.607 142.647 115.021  1.00  0.00    -0.008 C 
ATOM     23  C   UNL     1     128.451 142.683 117.511  1.00  0.00    -0.027 C 
ATOM     24  C   UNL     1     129.093 143.114 116.408  1.00  0.00    -0.065 C 
ATOM     25  C   UNL     1     129.622 142.983 113.865  1.00  0.00     0.014 C 
ATOM     26  C   UNL     1     127.301 143.407 114.650  1.00  0.00     0.016 C 
ATOM     27  C   UNL     1     130.383 143.884 116.634  1.00  0.00     0.063 C 
ATOM     28  C   UNL     1     131.063 143.208 114.325  1.00  0.00     0.033 C 
ATOM     29  C   UNL     1     131.086 144.336 115.354  1.00  0.00     0.118 C 
BRANCH  29  30
ATOM     30  O   UNL     1     132.412 144.683 115.658  1.00  0.00    -0.393 OA
ATOM     31  H   UNL     1     132.448 144.857 116.635  1.00  0.00     0.210 HD
ENDBRANCH  29  30
ENDBRANCH   9  11
ENDBRANCH   1   9
TORSDOF 7
ENDMDL
MODEL 5
REMARK VINA RESULT:    -6.145      9.251     13.121
REMARK INTER + INTRA:          -9.617
REMARK INTER:                  -7.998
REMARK INTRA:                  -1.620
REMARK UNBOUND:                -1.137
REMARK SMILES CC[C@H](CC[C@H](C)[C@H]1CC[C@H]2[C@H]3CC=C4C[C@@H](O)CC[C@@]4(C)[C@H]3CC[C@@]12C)C(C)C
REMARK SMILES IDX 5 1 4 2 3 3 2 4 1 5 28 6 29 7 30 8 6 9 7 10 8 11 9 12 26 13
REMARK SMILES IDX 10 14 11 15 25 16 27 17 12 18 24 19 23 20 13 21 21 22 14 23
REMARK SMILES IDX 15 24 20 25 22 26 16 27 19 28 17 29 18 30
REMARK H PARENT 18 31
REMARK Flexibility Score: inf
ROOT
ATOM      1  C   UNL     1     145.669 136.097 117.422  1.00  0.00     0.004 C 
ENDROOT
BRANCH   1   2
ATOM      2  C   UNL     1     146.647 136.434 116.275  1.00  0.00     0.004 C 
BRANCH   2   3
ATOM      3  C   UNL     1     146.024 137.378 115.208  1.00  0.00    -0.009 C 
BRANCH   3   4
ATOM      4  C   UNL     1     146.741 138.761 115.132  1.00  0.00     0.000 C 
ATOM      5  C   UNL     1     145.867 139.956 114.738  1.00  0.00     0.004 C 
ENDBRANCH   3   4
BRANCH   3   6
ATOM      6  C   UNL     1     145.787 136.654 113.840  1.00  0.00    -0.014 C 
ATOM      7  C   UNL     1     146.740 135.469 113.628  1.00  0.00     0.007 C 
ATOM      8  C   UNL     1     144.330 136.236 113.557  1.00  0.00     0.007 C 
ENDBRANCH   3   6
ENDBRANCH   2   3
ENDBRANCH   1   2
BRANCH   1   9
ATOM      9  C   UNL     1     144.607 135.031 117.037  1.00  0.00    -0.011 C 
ATOM     10  C   UNL     1     143.188 135.544 117.361  1.00  0.00     0.008 C 
BRANCH   9  11
ATOM     11  C   UNL     1     144.950 133.654 117.731  1.00  0.00    -0.002 C 
ATOM     12  C   UNL     1     143.977 133.121 118.795  1.00  0.00     0.005 C 
ATOM     13  C   UNL     1     145.136 132.435 116.785  1.00  0.00    -0.026 C 
ATOM     14  C   UNL     1     144.329 131.640 118.964  1.00  0.00     0.005 C 
ATOM     15  C   UNL     1     145.296 131.288 117.810  1.00  0.00    -0.001 C 
ATOM     16  C   UNL     1     143.883 132.223 115.856  1.00  0.00     0.007 C 
ATOM     17  C   UNL     1     146.417 132.578 115.930  1.00  0.00     0.012 C 
ATOM     18  C   UNL     1     145.191 129.845 117.218  1.00  0.00     0.000 C 
ATOM     19  C   UNL     1     143.186 130.863 115.989  1.00  0.00     0.005 C 
ATOM     20  C   UNL     1     144.197 129.698 116.000  1.00  0.00     0.003 C 
ATOM     21  C   UNL     1     145.027 128.781 118.342  1.00  0.00     0.031 C 
ATOM     22  C   UNL     1     143.513 128.274 115.926  1.00  0.00    -0.008 C 
ATOM     23  C   UNL     1     143.635 128.228 118.417  1.00  0.00    -0.027 C 
ATOM     24  C   UNL     1     142.914 127.959 117.312  1.00  0.00    -0.065 C 
ATOM     25  C   UNL     1     142.455 128.191 114.762  1.00  0.00     0.014 C 
ATOM     26  C   UNL     1     144.590 127.207 115.575  1.00  0.00     0.016 C 
ATOM     27  C   UNL     1     141.470 127.540 117.531  1.00  0.00     0.063 C 
ATOM     28  C   UNL     1     141.000 128.339 115.209  1.00  0.00     0.033 C 
ATOM     29  C   UNL     1     140.687 127.265 116.248  1.00  0.00     0.118 C 
BRANCH  29  30
ATOM     30  O   UNL     1     139.314 127.264 116.540  1.00  0.00    -0.393 OA
ATOM     31  H   UNL     1     138.933 128.088 116.139  1.00  0.00     0.210 HD
ENDBRANCH  29  30
ENDBRANCH   9  11
ENDBRANCH   1   9
TORSDOF 7
ENDMDL
MODEL 6
REMARK VINA RESULT:    -6.107      1.539      2.444
REMARK INTER + INTRA:          -9.565
REMARK INTER:                  -8.056
REMARK INTRA:                  -1.509
REMARK UNBOUND:                -1.137
REMARK SMILES CC[C@H](CC[C@H](C)[C@H]1CC[C@H]2[C@H]3CC=C4C[C@@H](O)CC[C@@]4(C)[C@H]3CC[C@@]12C)C(C)C
REMARK SMILES IDX 5 1 4 2 3 3 2 4 1 5 28 6 29 7 30 8 6 9 7 10 8 11 9 12 26 13
REMARK SMILES IDX 10 14 11 15 25 16 27 17 12 18 24 19 23 20 13 21 21 22 14 23
REMARK SMILES IDX 15 24 20 25 22 26 16 27 19 28 17 29 18 30
REMARK H PARENT 18 31
REMARK Flexibility Score: inf
ROOT
ATOM      1  C   UNL     1     138.670 128.212 117.625  1.00  0.00     0.004 C 
ENDROOT
BRANCH   1   2
ATOM      2  C   UNL     1     139.078 127.304 116.445  1.00  0.00     0.004 C 
BRANCH   2   3
ATOM      3  C   UNL     1     140.084 127.988 115.477  1.00  0.00    -0.009 C 
BRANCH   3   4
ATOM      4  C   UNL     1     141.473 127.279 115.446  1.00  0.00     0.000 C 
ATOM      5  C   UNL     1     142.677 128.161 115.103  1.00  0.00     0.004 C 
ENDBRANCH   3   4
BRANCH   3   6
ATOM      6  C   UNL     1     139.446 128.303 114.081  1.00  0.00    -0.014 C 
ATOM      7  C   UNL     1     138.683 127.104 113.499  1.00  0.00     0.007 C 
ATOM      8  C   UNL     1     138.581 129.577 114.022  1.00  0.00     0.007 C 
ENDBRANCH   3   6
ENDBRANCH   2   3
ENDBRANCH   1   2
BRANCH   1   9
ATOM      9  C   UNL     1     137.401 129.061 117.342  1.00  0.00    -0.011 C 
ATOM     10  C   UNL     1     137.560 130.478 117.935  1.00  0.00     0.008 C 
BRANCH   9  11
ATOM     11  C   UNL     1     136.118 128.304 117.866  1.00  0.00    -0.002 C 
ATOM     12  C   UNL     1     135.295 128.966 118.983  1.00  0.00     0.005 C 
ATOM     13  C   UNL     1     135.042 127.955 116.799  1.00  0.00    -0.026 C 
ATOM     14  C   UNL     1     133.944 128.244 118.976  1.00  0.00     0.005 C 
ATOM     15  C   UNL     1     133.916 127.385 117.691  1.00  0.00    -0.001 C 
ATOM     16  C   UNL     1     134.575 129.232 116.005  1.00  0.00     0.007 C 
ATOM     17  C   UNL     1     135.555 126.875 115.818  1.00  0.00     0.012 C 
ATOM     18  C   UNL     1     132.530 127.214 116.988  1.00  0.00     0.000 C 
ATOM     19  C   UNL     1     133.078 129.553 116.096  1.00  0.00     0.005 C 
ATOM     20  C   UNL     1     132.207 128.296 115.885  1.00  0.00     0.003 C 
ATOM     21  C   UNL     1     131.396 126.961 118.024  1.00  0.00     0.031 C 
ATOM     22  C   UNL     1     130.664 128.617 115.763  1.00  0.00    -0.008 C 
ATOM     23  C   UNL     1     130.505 128.154 118.209  1.00  0.00    -0.027 C 
ATOM     24  C   UNL     1     130.128 128.929 117.174  1.00  0.00    -0.065 C 
ATOM     25  C   UNL     1     130.383 129.769 114.726  1.00  0.00     0.014 C 
ATOM     26  C   UNL     1     129.926 127.370 115.195  1.00  0.00     0.016 C 
ATOM     27  C   UNL     1     129.344 130.184 117.520  1.00  0.00     0.063 C 
ATOM     28  C   UNL     1     130.133 131.143 115.349  1.00  0.00     0.033 C 
ATOM     29  C   UNL     1     128.955 131.043 116.316  1.00  0.00     0.118 C 
BRANCH  29  30
ATOM     30  O   UNL     1     128.591 132.322 116.765  1.00  0.00    -0.393 OA
ATOM     31  H   UNL     1     128.640 132.927 115.980  1.00  0.00     0.210 HD
ENDBRANCH  29  30
ENDBRANCH   9  11
ENDBRANCH   1   9
TORSDOF 7
ENDMDL
MODEL 7
REMARK VINA RESULT:    -6.089      5.829      9.239
REMARK INTER + INTRA:          -9.541
REMARK INTER:                  -8.033
REMARK INTRA:                  -1.508
REMARK UNBOUND:                -1.137
REMARK SMILES CC[C@H](CC[C@H](C)[C@H]1CC[C@H]2[C@H]3CC=C4C[C@@H](O)CC[C@@]4(C)[C@H]3CC[C@@]12C)C(C)C
REMARK SMILES IDX 5 1 4 2 3 3 2 4 1 5 28 6 29 7 30 8 6 9 7 10 8 11 9 12 26 13
REMARK SMILES IDX 10 14 11 15 25 16 27 17 12 18 24 19 23 20 13 21 21 22 14 23
REMARK SMILES IDX 15 24 20 25 22 26 16 27 19 28 17 29 18 30
REMARK H PARENT 18 31
REMARK Flexibility Score: inf
ROOT
ATOM      1  C   UNL     1     145.471 129.441 114.920  1.00  0.00     0.004 C 
ENDROOT
BRANCH   1   2
ATOM      2  C   UNL     1     146.137 130.599 115.693  1.00  0.00     0.004 C 
BRANCH   2   3
ATOM      3  C   UNL     1     145.119 131.442 116.513  1.00  0.00    -0.009 C 
BRANCH   3   4
ATOM      4  C   UNL     1     145.196 131.162 118.045  1.00  0.00     0.000 C 
ATOM      5  C   UNL     1     143.881 131.278 118.822  1.00  0.00     0.004 C 
ENDBRANCH   3   4
BRANCH   3   6
ATOM      6  C   UNL     1     145.121 132.950 116.092  1.00  0.00    -0.014 C 
ATOM      7  C   UNL     1     143.704 133.530 115.973  1.00  0.00     0.007 C 
ATOM      8  C   UNL     1     146.015 133.873 116.943  1.00  0.00     0.007 C 
ENDBRANCH   3   6
ENDBRANCH   2   3
ENDBRANCH   1   2
BRANCH   1   9
ATOM      9  C   UNL     1     144.621 128.503 115.820  1.00  0.00    -0.011 C 
ATOM     10  C   UNL     1     145.452 127.277 116.255  1.00  0.00     0.008 C 
BRANCH   9  11
ATOM     11  C   UNL     1     143.278 128.119 115.083  1.00  0.00    -0.002 C 
ATOM     12  C   UNL     1     142.515 126.878 115.574  1.00  0.00     0.005 C 
ATOM     13  C   UNL     1     142.176 129.215 115.047  1.00  0.00    -0.026 C 
ATOM     14  C   UNL     1     141.108 127.005 114.983  1.00  0.00     0.005 C 
ATOM     15  C   UNL     1     141.006 128.436 114.405  1.00  0.00    -0.001 C 
ATOM     16  C   UNL     1     141.819 129.729 116.491  1.00  0.00     0.007 C 
ATOM     17  C   UNL     1     142.594 130.401 114.147  1.00  0.00     0.012 C 
ATOM     18  C   UNL     1     139.610 129.134 114.495  1.00  0.00     0.000 C 
ATOM     19  C   UNL     1     140.355 129.550 116.912  1.00  0.00     0.005 C 
ATOM     20  C   UNL     1     139.380 129.993 115.800  1.00  0.00     0.003 C 
ATOM     21  C   UNL     1     138.459 128.150 114.135  1.00  0.00     0.031 C 
ATOM     22  C   UNL     1     137.869 130.021 116.266  1.00  0.00    -0.008 C 
ATOM     23  C   UNL     1     137.673 127.714 115.337  1.00  0.00    -0.027 C 
ATOM     24  C   UNL     1     137.363 128.566 116.332  1.00  0.00    -0.065 C 
ATOM     25  C   UNL     1     137.688 130.801 117.623  1.00  0.00     0.014 C 
ATOM     26  C   UNL     1     137.027 130.813 115.225  1.00  0.00     0.016 C 
ATOM     27  C   UNL     1     136.689 127.963 117.554  1.00  0.00     0.063 C 
ATOM     28  C   UNL     1     137.556 129.911 118.859  1.00  0.00     0.033 C 
ATOM     29  C   UNL     1     136.374 128.963 118.665  1.00  0.00     0.118 C 
BRANCH  29  30
ATOM     30  O   UNL     1     136.121 128.261 119.854  1.00  0.00    -0.393 OA
ATOM     31  H   UNL     1     136.998 127.948 120.197  1.00  0.00     0.210 HD
ENDBRANCH  29  30
ENDBRANCH   9  11
ENDBRANCH   1   9
TORSDOF 7
ENDMDL
MODEL 8
REMARK VINA RESULT:    -6.067      4.334      8.025
REMARK INTER + INTRA:          -9.509
REMARK INTER:                  -7.724
REMARK INTRA:                  -1.785
REMARK UNBOUND:                -1.137
REMARK SMILES CC[C@H](CC[C@H](C)[C@H]1CC[C@H]2[C@H]3CC=C4C[C@@H](O)CC[C@@]4(C)[C@H]3CC[C@@]12C)C(C)C
REMARK SMILES IDX 5 1 4 2 3 3 2 4 1 5 28 6 29 7 30 8 6 9 7 10 8 11 9 12 26 13
REMARK SMILES IDX 10 14 11 15 25 16 27 17 12 18 24 19 23 20 13 21 21 22 14 23
REMARK SMILES IDX 15 24 20 25 22 26 16 27 19 28 17 29 18 30
REMARK H PARENT 18 31
REMARK Flexibility Score: inf
ROOT
ATOM      1  C   UNL     1     130.542 130.298 123.623  1.00  0.00     0.004 C 
ENDROOT
BRANCH   1   2
ATOM      2  C   UNL     1     130.730 128.768 123.539  1.00  0.00     0.004 C 
BRANCH   2   3
ATOM      3  C   UNL     1     129.626 127.982 124.301  1.00  0.00    -0.009 C 
BRANCH   3   4
ATOM      4  C   UNL     1     130.208 126.916 125.280  1.00  0.00     0.000 C 
ATOM      5  C   UNL     1     131.589 127.218 125.867  1.00  0.00     0.004 C 
ENDBRANCH   3   4
BRANCH   3   6
ATOM      6  C   UNL     1     128.526 128.927 124.894  1.00  0.00    -0.014 C 
ATOM      7  C   UNL     1     127.234 128.918 124.064  1.00  0.00     0.007 C 
ATOM      8  C   UNL     1     128.211 128.719 126.389  1.00  0.00     0.007 C 
ENDBRANCH   3   6
ENDBRANCH   2   3
ENDBRANCH   1   2
BRANCH   1   9
ATOM      9  C   UNL     1     130.245 130.962 122.251  1.00  0.00    -0.011 C 
ATOM     10  C   UNL     1     128.982 131.845 122.344  1.00  0.00     0.008 C 
BRANCH   9  11
ATOM     11  C   UNL     1     130.155 129.858 121.125  1.00  0.00    -0.002 C 
ATOM     12  C   UNL     1     128.777 129.563 120.511  1.00  0.00     0.005 C 
ATOM     13  C   UNL     1     131.055 130.075 119.876  1.00  0.00    -0.026 C 
ATOM     14  C   UNL     1     129.063 128.800 119.215  1.00  0.00     0.005 C 
ATOM     15  C   UNL     1     130.585 128.914 118.970  1.00  0.00    -0.001 C 
ATOM     16  C   UNL     1     130.801 131.479 119.213  1.00  0.00     0.007 C 
ATOM     17  C   UNL     1     132.552 129.913 120.229  1.00  0.00     0.012 C 
ATOM     18  C   UNL     1     131.055 128.999 117.481  1.00  0.00     0.000 C 
ATOM     19  C   UNL     1     130.338 131.444 117.751  1.00  0.00     0.005 C 
ATOM     20  C   UNL     1     131.179 130.464 116.906  1.00  0.00     0.003 C 
ATOM     21  C   UNL     1     130.274 127.996 116.582  1.00  0.00     0.031 C 
ATOM     22  C   UNL     1     130.873 130.552 115.357  1.00  0.00    -0.008 C 
ATOM     23  C   UNL     1     129.268 128.673 115.698  1.00  0.00    -0.027 C 
ATOM     24  C   UNL     1     129.526 129.849 115.096  1.00  0.00    -0.065 C 
ATOM     25  C   UNL     1     130.908 132.037 114.834  1.00  0.00     0.014 C 
ATOM     26  C   UNL     1     131.998 129.817 114.572  1.00  0.00     0.016 C 
ATOM     27  C   UNL     1     128.371 130.493 114.347  1.00  0.00     0.063 C 
ATOM     28  C   UNL     1     129.534 132.685 114.658  1.00  0.00     0.033 C 
ATOM     29  C   UNL     1     128.704 131.835 113.697  1.00  0.00     0.118 C 
BRANCH  29  30
ATOM     30  O   UNL     1     127.509 132.499 113.377  1.00  0.00    -0.393 OA
ATOM     31  H   UNL     1     126.795 131.810 113.349  1.00  0.00     0.210 HD
ENDBRANCH  29  30
ENDBRANCH   9  11
ENDBRANCH   1   9
TORSDOF 7
ENDMDL
MODEL 9
REMARK VINA RESULT:    -6.061      5.032     11.921
REMARK INTER + INTRA:          -9.502
REMARK INTER:                  -8.493
REMARK INTRA:                  -1.009
REMARK UNBOUND:                -1.137
REMARK SMILES CC[C@H](CC[C@H](C)[C@H]1CC[C@H]2[C@H]3CC=C4C[C@@H](O)CC[C@@]4(C)[C@H]3CC[C@@]12C)C(C)C
REMARK SMILES IDX 5 1 4 2 3 3 2 4 1 5 28 6 29 7 30 8 6 9 7 10 8 11 9 12 26 13
REMARK SMILES IDX 10 14 11 15 25 16 27 17 12 18 24 19 23 20 13 21 21 22 14 23
REMARK SMILES IDX 15 24 20 25 22 26 16 27 19 28 17 29 18 30
REMARK H PARENT 18 31
REMARK Flexibility Score: inf
ROOT
ATOM      1  C   UNL     1     137.516 127.129 116.457  1.00  0.00     0.004 C 
ENDROOT
BRANCH   1   2
ATOM      2  C   UNL     1     136.099 127.289 115.864  1.00  0.00     0.004 C 
BRANCH   2   3
ATOM      3  C   UNL     1     135.022 127.579 116.948  1.00  0.00    -0.009 C 
BRANCH   3   4
ATOM      4  C   UNL     1     134.937 129.089 117.328  1.00  0.00     0.000 C 
ATOM      5  C   UNL     1     134.940 130.083 116.163  1.00  0.00     0.004 C 
ENDBRANCH   3   4
BRANCH   3   6
ATOM      6  C   UNL     1     133.658 126.875 116.634  1.00  0.00    -0.014 C 
ATOM      7  C   UNL     1     132.605 127.120 117.724  1.00  0.00     0.007 C 
ATOM      8  C   UNL     1     133.072 127.162 115.237  1.00  0.00     0.007 C 
ENDBRANCH   3   6
ENDBRANCH   2   3
ENDBRANCH   1   2
BRANCH   1   9
ATOM      9  C   UNL     1     138.551 128.123 115.864  1.00  0.00    -0.011 C 
ATOM     10  C   UNL     1     138.103 128.594 114.464  1.00  0.00     0.008 C 
BRANCH   9  11
ATOM     11  C   UNL     1     139.991 127.474 115.875  1.00  0.00    -0.002 C 
ATOM     12  C   UNL     1     140.880 127.671 114.637  1.00  0.00     0.005 C 
ATOM     13  C   UNL     1     140.924 127.892 117.046  1.00  0.00    -0.026 C 
ATOM     14  C   UNL     1     142.298 127.317 115.094  1.00  0.00     0.005 C 
ATOM     15  C   UNL     1     142.242 127.197 116.635  1.00  0.00    -0.001 C 
ATOM     16  C   UNL     1     141.085 129.455 117.133  1.00  0.00     0.007 C 
ATOM     17  C   UNL     1     140.416 127.331 118.395  1.00  0.00     0.012 C 
ATOM     18  C   UNL     1     143.512 127.654 117.424  1.00  0.00     0.000 C 
ATOM     19  C   UNL     1     142.521 129.978 116.999  1.00  0.00     0.005 C 
ATOM     20  C   UNL     1     143.510 129.170 117.865  1.00  0.00     0.003 C 
ATOM     21  C   UNL     1     144.817 127.165 116.731  1.00  0.00     0.031 C 
ATOM     22  C   UNL     1     144.958 129.803 117.919  1.00  0.00    -0.008 C 
ATOM     23  C   UNL     1     145.556 128.273 116.041  1.00  0.00    -0.027 C 
ATOM     24  C   UNL     1     145.660 129.503 116.579  1.00  0.00    -0.065 C 
ATOM     25  C   UNL     1     144.915 131.339 118.265  1.00  0.00     0.014 C 
ATOM     26  C   UNL     1     145.760 129.146 119.079  1.00  0.00     0.016 C 
ATOM     27  C   UNL     1     146.310 130.568 115.712  1.00  0.00     0.063 C 
ATOM     28  C   UNL     1     145.071 132.270 117.061  1.00  0.00     0.033 C 
ATOM     29  C   UNL     1     146.387 131.952 116.355  1.00  0.00     0.118 C 
BRANCH  29  30
ATOM     30  O   UNL     1     146.641 132.907 115.359  1.00  0.00    -0.393 OA
ATOM     31  H   UNL     1     147.544 133.277 115.537  1.00  0.00     0.210 HD
ENDBRANCH  29  30
ENDBRANCH   9  11
ENDBRANCH   1   9
TORSDOF 7
ENDMDL
