MODEL 1
REMARK VINA RESULT:    -4.451      0.000      0.000
REMARK INTER + INTRA:          -9.506
REMARK INTER:                  -8.094
REMARK INTRA:                  -1.412
REMARK UNBOUND:                -1.412
REMARK SMILES CCCCCCCCCCCCCCCC(=O)[O-]
REMARK SMILES IDX 9 1 10 2 11 3 12 4 13 5 14 6 15 7 16 8 17 9 18 10 8 11 7 12
REMARK SMILES IDX 6 13 5 14 4 15 3 16 2 17 1 18
REMARK H PARENT
REMARK Flexibility Score: inf
ROOT
ATOM      1  C   UNL     1      58.577  72.483  42.465  1.00  0.00     0.000 C 
ENDROOT
BRANCH   1   2
ATOM      2  C   UNL     1      59.497  72.325  43.688  1.00  0.00     0.000 C 
BRANCH   2   3
ATOM      3  C   UNL     1      59.246  73.404  44.754  1.00  0.00     0.000 C 
BRANCH   3   4
ATOM      4  C   UNL     1      60.317  74.508  44.737  1.00  0.00     0.000 C 
BRANCH   4   5
ATOM      5  C   UNL     1      61.206  74.495  45.993  1.00  0.00     0.000 C 
BRANCH   5   6
ATOM      6  C   UNL     1      62.714  74.615  45.687  1.00  0.00     0.006 C 
BRANCH   6   7
ATOM      7  C   UNL     1      63.045  74.225  44.240  1.00  0.00     0.053 C 
BRANCH   7   8
ATOM      8  C   UNL     1      64.393  74.746  43.853  1.00  0.00     0.041 C 
ATOM      9  O   UNL     1      64.494  75.710  43.050  1.00  0.00    -0.550 OA
ATOM     10  O   UNL     1      65.541  74.132  44.341  1.00  0.00    -0.550 OA
ENDBRANCH   7   8
ENDBRANCH   6   7
ENDBRANCH   5   6
ENDBRANCH   4   5
ENDBRANCH   3   4
ENDBRANCH   2   3
ENDBRANCH   1   2
BRANCH   1  11
ATOM     11  C   UNL     1      57.275  73.240  42.788  1.00  0.00     0.000 C 
BRANCH  11  12
ATOM     12  C   UNL     1      56.484  73.735  41.564  1.00  0.00    -0.000 C 
BRANCH  12  13
ATOM     13  C   UNL     1      57.378  74.383  40.493  1.00  0.00    -0.000 C 
BRANCH  13  14
ATOM     14  C   UNL     1      57.105  73.831  39.085  1.00  0.00    -0.000 C 
BRANCH  14  15
ATOM     15  C   UNL     1      55.935  72.837  39.052  1.00  0.00    -0.000 C 
BRANCH  15  16
ATOM     16  C   UNL     1      56.349  71.526  38.366  1.00  0.00    -0.000 C 
BRANCH  16  17
ATOM     17  C   UNL     1      56.754  70.436  39.369  1.00  0.00    -0.003 C 
ATOM     18  C   UNL     1      55.732  70.255  40.491  1.00  0.00     0.004 C 
ENDBRANCH  16  17
ENDBRANCH  15  16
ENDBRANCH  14  15
ENDBRANCH  13  14
ENDBRANCH  12  13
ENDBRANCH  11  12
ENDBRANCH   1  11
TORSDOF 14
ENDMDL
MODEL 2
REMARK VINA RESULT:    -4.187      5.291      7.684
REMARK INTER + INTRA:          -9.025
REMARK INTER:                  -7.908
REMARK INTRA:                  -1.117
REMARK UNBOUND:                -1.412
REMARK SMILES CCCCCCCCCCCCCCCC(=O)[O-]
REMARK SMILES IDX 9 1 10 2 11 3 12 4 13 5 14 6 15 7 16 8 17 9 18 10 8 11 7 12
REMARK SMILES IDX 6 13 5 14 4 15 3 16 2 17 1 18
REMARK H PARENT
REMARK Flexibility Score: inf
ROOT
ATOM      1  C   UNL     1      53.140  72.177  39.189  1.00  0.00     0.000 C 
ENDROOT
BRANCH   1   2
ATOM      2  C   UNL     1      54.140  72.094  38.024  1.00  0.00     0.000 C 
BRANCH   2   3
ATOM      3  C   UNL     1      55.574  72.444  38.456  1.00  0.00     0.000 C 
BRANCH   3   4
ATOM      4  C   UNL     1      56.390  71.199  38.844  1.00  0.00     0.000 C 
BRANCH   4   5
ATOM      5  C   UNL     1      56.353  70.909  40.354  1.00  0.00     0.000 C 
BRANCH   5   6
ATOM      6  C   UNL     1      56.223  72.176  41.226  1.00  0.00     0.006 C 
BRANCH   6   7
ATOM      7  C   UNL     1      57.576  72.636  41.786  1.00  0.00     0.053 C 
BRANCH   7   8
ATOM      8  C   UNL     1      57.676  74.129  41.755  1.00  0.00     0.041 C 
ATOM      9  O   UNL     1      57.226  74.774  40.772  1.00  0.00    -0.550 OA
ATOM     10  O   UNL     1      58.310  74.804  42.791  1.00  0.00    -0.550 OA
ENDBRANCH   7   8
ENDBRANCH   6   7
ENDBRANCH   5   6
ENDBRANCH   4   5
ENDBRANCH   3   4
ENDBRANCH   2   3
ENDBRANCH   1   2
BRANCH   1  11
ATOM     11  C   UNL     1      51.766  72.728  38.763  1.00  0.00     0.000 C 
BRANCH  11  12
ATOM     12  C   UNL     1      50.935  73.365  39.891  1.00  0.00    -0.000 C 
BRANCH  12  13
ATOM     13  C   UNL     1      51.454  73.006  41.294  1.00  0.00    -0.000 C 
BRANCH  13  14
ATOM     14  C   UNL     1      50.420  72.228  42.123  1.00  0.00    -0.000 C 
BRANCH  14  15
ATOM     15  C   UNL     1      49.124  73.020  42.353  1.00  0.00    -0.000 C 
BRANCH  15  16
ATOM     16  C   UNL     1      47.951  72.384  41.591  1.00  0.00    -0.000 C 
BRANCH  16  17
ATOM     17  C   UNL     1      46.965  73.428  41.045  1.00  0.00    -0.003 C 
ATOM     18  C   UNL     1      47.617  74.790  40.809  1.00  0.00     0.004 C 
ENDBRANCH  16  17
ENDBRANCH  15  16
ENDBRANCH  14  15
ENDBRANCH  13  14
ENDBRANCH  12  13
ENDBRANCH  11  12
ENDBRANCH   1  11
TORSDOF 14
ENDMDL
MODEL 3
REMARK VINA RESULT:    -4.185      5.884      9.219
REMARK INTER + INTRA:          -9.022
REMARK INTER:                  -7.796
REMARK INTRA:                  -1.227
REMARK UNBOUND:                -1.412
REMARK SMILES CCCCCCCCCCCCCCCC(=O)[O-]
REMARK SMILES IDX 9 1 10 2 11 3 12 4 13 5 14 6 15 7 16 8 17 9 18 10 8 11 7 12
REMARK SMILES IDX 6 13 5 14 4 15 3 16 2 17 1 18
REMARK H PARENT
REMARK Flexibility Score: inf
ROOT
ATOM      1  C   UNL     1      55.917  72.557  38.512  1.00  0.00     0.000 C 
ENDROOT
BRANCH   1   2
ATOM      2  C   UNL     1      56.096  71.346  39.442  1.00  0.00     0.000 C 
BRANCH   2   3
ATOM      3  C   UNL     1      54.817  71.017  40.230  1.00  0.00     0.000 C 
BRANCH   3   4
ATOM      4  C   UNL     1      54.018  72.277  40.605  1.00  0.00     0.000 C 
BRANCH   4   5
ATOM      5  C   UNL     1      52.628  72.319  39.949  1.00  0.00     0.000 C 
BRANCH   5   6
ATOM      6  C   UNL     1      51.537  72.944  40.844  1.00  0.00     0.006 C 
BRANCH   6   7
ATOM      7  C   UNL     1      50.378  73.529  40.025  1.00  0.00     0.053 C 
BRANCH   7   8
ATOM      8  C   UNL     1      49.396  74.214  40.922  1.00  0.00     0.041 C 
ATOM      9  O   UNL     1      48.196  74.344  40.566  1.00  0.00    -0.550 OA
ATOM     10  O   UNL     1      49.819  74.754  42.131  1.00  0.00    -0.550 OA
ENDBRANCH   7   8
ENDBRANCH   6   7
ENDBRANCH   5   6
ENDBRANCH   4   5
ENDBRANCH   3   4
ENDBRANCH   2   3
ENDBRANCH   1   2
BRANCH   1  11
ATOM     11  C   UNL     1      56.796  73.756  38.911  1.00  0.00     0.000 C 
BRANCH  11  12
ATOM     12  C   UNL     1      57.456  73.653  40.299  1.00  0.00    -0.000 C 
BRANCH  12  13
ATOM     13  C   UNL     1      57.344  74.952  41.114  1.00  0.00    -0.000 C 
BRANCH  13  14
ATOM     14  C   UNL     1      57.344  74.698  42.630  1.00  0.00    -0.000 C 
BRANCH  14  15
ATOM     15  C   UNL     1      57.352  73.203  42.983  1.00  0.00    -0.000 C 
BRANCH  15  16
ATOM     16  C   UNL     1      58.337  72.914  44.126  1.00  0.00    -0.000 C 
BRANCH  16  17
ATOM     17  C   UNL     1      59.678  72.357  43.625  1.00  0.00    -0.003 C 
ATOM     18  C   UNL     1      60.787  73.409  43.608  1.00  0.00     0.004 C 
ENDBRANCH  16  17
ENDBRANCH  15  16
ENDBRANCH  14  15
ENDBRANCH  13  14
ENDBRANCH  12  13
ENDBRANCH  11  12
ENDBRANCH   1  11
TORSDOF 14
ENDMDL
MODEL 4
REMARK VINA RESULT:    -4.181      6.981     10.390
REMARK INTER + INTRA:          -9.015
REMARK INTER:                  -8.121
REMARK INTRA:                  -0.894
REMARK UNBOUND:                -1.412
REMARK SMILES CCCCCCCCCCCCCCCC(=O)[O-]
REMARK SMILES IDX 9 1 10 2 11 3 12 4 13 5 14 6 15 7 16 8 17 9 18 10 8 11 7 12
REMARK SMILES IDX 6 13 5 14 4 15 3 16 2 17 1 18
REMARK H PARENT
REMARK Flexibility Score: inf
ROOT
ATOM      1  C   UNL     1      54.081  72.014  36.976  1.00  0.00     0.000 C 
ENDROOT
BRANCH   1   2
ATOM      2  C   UNL     1      52.670  72.233  37.547  1.00  0.00     0.000 C 
BRANCH   2   3
ATOM      3  C   UNL     1      52.510  71.645  38.959  1.00  0.00     0.000 C 
BRANCH   3   4
ATOM      4  C   UNL     1      52.055  72.696  39.985  1.00  0.00     0.000 C 
BRANCH   4   5
ATOM      5  C   UNL     1      50.810  73.476  39.527  1.00  0.00     0.000 C 
BRANCH   5   6
ATOM      6  C   UNL     1      49.996  74.082  40.690  1.00  0.00     0.006 C 
BRANCH   6   7
ATOM      7  C   UNL     1      49.189  73.019  41.449  1.00  0.00     0.053 C 
BRANCH   7   8
ATOM      8  C   UNL     1      47.746  73.081  41.061  1.00  0.00     0.041 C 
ATOM      9  O   UNL     1      47.197  74.192  40.836  1.00  0.00    -0.550 OA
ATOM     10  O   UNL     1      46.993  71.915  40.997  1.00  0.00    -0.550 OA
ENDBRANCH   7   8
ENDBRANCH   6   7
ENDBRANCH   5   6
ENDBRANCH   4   5
ENDBRANCH   3   4
ENDBRANCH   2   3
ENDBRANCH   1   2
BRANCH   1  11
ATOM     11  C   UNL     1      55.175  72.731  37.788  1.00  0.00     0.000 C 
BRANCH  11  12
ATOM     12  C   UNL     1      56.113  71.807  38.585  1.00  0.00    -0.000 C 
BRANCH  12  13
ATOM     13  C   UNL     1      56.162  72.149  40.084  1.00  0.00    -0.000 C 
BRANCH  13  14
ATOM     14  C   UNL     1      57.029  73.384  40.379  1.00  0.00    -0.000 C 
BRANCH  14  15
ATOM     15  C   UNL     1      56.972  73.812  41.853  1.00  0.00    -0.000 C 
BRANCH  15  16
ATOM     16  C   UNL     1      58.360  73.719  42.505  1.00  0.00    -0.000 C 
BRANCH  16  17
ATOM     17  C   UNL     1      58.722  72.286  42.924  1.00  0.00    -0.003 C 
ATOM     18  C   UNL     1      59.486  72.232  44.246  1.00  0.00     0.004 C 
ENDBRANCH  16  17
ENDBRANCH  15  16
ENDBRANCH  14  15
ENDBRANCH  13  14
ENDBRANCH  12  13
ENDBRANCH  11  12
ENDBRANCH   1  11
TORSDOF 14
ENDMDL
MODEL 5
REMARK VINA RESULT:    -4.181      4.742      8.672
REMARK INTER + INTRA:          -9.015
REMARK INTER:                  -7.556
REMARK INTRA:                  -1.459
REMARK UNBOUND:                -1.412
REMARK SMILES CCCCCCCCCCCCCCCC(=O)[O-]
REMARK SMILES IDX 9 1 10 2 11 3 12 4 13 5 14 6 15 7 16 8 17 9 18 10 8 11 7 12
REMARK SMILES IDX 6 13 5 14 4 15 3 16 2 17 1 18
REMARK H PARENT
REMARK Flexibility Score: inf
ROOT
ATOM      1  C   UNL     1      57.127  74.434  40.310  1.00  0.00     0.000 C 
ENDROOT
BRANCH   1   2
ATOM      2  C   UNL     1      57.223  73.862  38.886  1.00  0.00     0.000 C 
BRANCH   2   3
ATOM      3  C   UNL     1      56.082  72.882  38.569  1.00  0.00     0.000 C 
BRANCH   3   4
ATOM      4  C   UNL     1      56.418  71.438  38.978  1.00  0.00     0.000 C 
BRANCH   4   5
ATOM      5  C   UNL     1      55.740  71.017  40.294  1.00  0.00     0.000 C 
BRANCH   5   6
ATOM      6  C   UNL     1      54.469  71.828  40.623  1.00  0.00     0.006 C 
BRANCH   6   7
ATOM      7  C   UNL     1      53.193  71.131  40.131  1.00  0.00     0.053 C 
BRANCH   7   8
ATOM      8  C   UNL     1      52.442  72.018  39.190  1.00  0.00     0.041 C 
ATOM      9  O   UNL     1      52.655  71.952  37.950  1.00  0.00    -0.550 OA
ATOM     10  O   UNL     1      51.541  72.953  39.685  1.00  0.00    -0.550 OA
ENDBRANCH   7   8
ENDBRANCH   6   7
ENDBRANCH   5   6
ENDBRANCH   4   5
ENDBRANCH   3   4
ENDBRANCH   2   3
ENDBRANCH   1   2
BRANCH   1  11
ATOM     11  C   UNL     1      58.238  73.913  41.242  1.00  0.00     0.000 C 
BRANCH  11  12
ATOM     12  C   UNL     1      57.746  73.208  42.519  1.00  0.00    -0.000 C 
BRANCH  12  13
ATOM     13  C   UNL     1      58.671  72.063  42.966  1.00  0.00    -0.000 C 
BRANCH  13  14
ATOM     14  C   UNL     1      59.433  72.392  44.260  1.00  0.00    -0.000 C 
BRANCH  14  15
ATOM     15  C   UNL     1      60.753  73.134  44.001  1.00  0.00    -0.000 C 
BRANCH  15  16
ATOM     16  C   UNL     1      60.728  74.534  44.634  1.00  0.00    -0.000 C 
BRANCH  16  17
ATOM     17  C   UNL     1      62.134  75.123  44.823  1.00  0.00    -0.003 C 
ATOM     18  C   UNL     1      63.208  74.347  44.061  1.00  0.00     0.004 C 
ENDBRANCH  16  17
ENDBRANCH  15  16
ENDBRANCH  14  15
ENDBRANCH  13  14
ENDBRANCH  12  13
ENDBRANCH  11  12
ENDBRANCH   1  11
TORSDOF 14
ENDMDL
MODEL 6
REMARK VINA RESULT:    -4.169      7.207     10.116
REMARK INTER + INTRA:          -8.993
REMARK INTER:                  -7.716
REMARK INTRA:                  -1.277
REMARK UNBOUND:                -1.412
REMARK SMILES CCCCCCCCCCCCCCCC(=O)[O-]
REMARK SMILES IDX 9 1 10 2 11 3 12 4 13 5 14 6 15 7 16 8 17 9 18 10 8 11 7 12
REMARK SMILES IDX 6 13 5 14 4 15 3 16 2 17 1 18
REMARK H PARENT
REMARK Flexibility Score: inf
ROOT
ATOM      1  C   UNL     1      52.910  71.669  40.207  1.00  0.00     0.000 C 
ENDROOT
BRANCH   1   2
ATOM      2  C   UNL     1      52.973  72.526  41.482  1.00  0.00     0.000 C 
BRANCH   2   3
ATOM      3  C   UNL     1      51.602  72.664  42.165  1.00  0.00     0.000 C 
BRANCH   3   4
ATOM      4  C   UNL     1      51.487  73.953  42.997  1.00  0.00     0.000 C 
BRANCH   4   5
ATOM      5  C   UNL     1      50.417  74.918  42.457  1.00  0.00     0.000 C 
BRANCH   5   6
ATOM      6  C   UNL     1      49.791  74.465  41.121  1.00  0.00     0.006 C 
BRANCH   6   7
ATOM      7  C   UNL     1      48.282  74.740  41.065  1.00  0.00     0.053 C 
BRANCH   7   8
ATOM      8  C   UNL     1      47.513  73.462  41.165  1.00  0.00     0.041 C 
ATOM      9  O   UNL     1      48.045  72.439  41.671  1.00  0.00    -0.550 OA
ATOM     10  O   UNL     1      46.223  73.385  40.653  1.00  0.00    -0.550 OA
ENDBRANCH   7   8
ENDBRANCH   6   7
ENDBRANCH   5   6
ENDBRANCH   4   5
ENDBRANCH   3   4
ENDBRANCH   2   3
ENDBRANCH   1   2
BRANCH   1  11
ATOM     11  C   UNL     1      53.932  70.517  40.206  1.00  0.00     0.000 C 
BRANCH  11  12
ATOM     12  C   UNL     1      55.363  70.910  40.615  1.00  0.00    -0.000 C 
BRANCH  12  13
ATOM     13  C   UNL     1      56.403  70.610  39.522  1.00  0.00    -0.000 C 
BRANCH  13  14
ATOM     14  C   UNL     1      56.387  71.652  38.392  1.00  0.00    -0.000 C 
BRANCH  14  15
ATOM     15  C   UNL     1      56.056  73.067  38.891  1.00  0.00    -0.000 C 
BRANCH  15  16
ATOM     16  C   UNL     1      57.317  73.943  38.929  1.00  0.00    -0.000 C 
BRANCH  16  17
ATOM     17  C   UNL     1      57.455  74.725  40.244  1.00  0.00    -0.003 C 
ATOM     18  C   UNL     1      56.823  74.001  41.432  1.00  0.00     0.004 C 
ENDBRANCH  16  17
ENDBRANCH  15  16
ENDBRANCH  14  15
ENDBRANCH  13  14
ENDBRANCH  12  13
ENDBRANCH  11  12
ENDBRANCH   1  11
TORSDOF 14
ENDMDL
MODEL 7
REMARK VINA RESULT:    -4.160      4.464      8.128
REMARK INTER + INTRA:          -8.977
REMARK INTER:                  -7.215
REMARK INTRA:                  -1.762
REMARK UNBOUND:                -1.412
REMARK SMILES CCCCCCCCCCCCCCCC(=O)[O-]
REMARK SMILES IDX 9 1 10 2 11 3 12 4 13 5 14 6 15 7 16 8 17 9 18 10 8 11 7 12
REMARK SMILES IDX 6 13 5 14 4 15 3 16 2 17 1 18
REMARK H PARENT
REMARK Flexibility Score: inf
ROOT
ATOM      1  C   UNL     1      56.999  74.240  41.510  1.00  0.00     0.000 C 
ENDROOT
BRANCH   1   2
ATOM      2  C   UNL     1      57.219  74.896  40.136  1.00  0.00     0.000 C 
BRANCH   2   3
ATOM      3  C   UNL     1      57.429  73.860  39.019  1.00  0.00     0.000 C 
BRANCH   3   4
ATOM      4  C   UNL     1      56.135  73.106  38.666  1.00  0.00     0.000 C 
BRANCH   4   5
ATOM      5  C   UNL     1      56.340  71.585  38.566  1.00  0.00     0.000 C 
BRANCH   5   6
ATOM      6  C   UNL     1      56.413  70.877  39.935  1.00  0.00     0.006 C 
BRANCH   6   7
ATOM      7  C   UNL     1      55.251  71.274  40.856  1.00  0.00     0.053 C 
BRANCH   7   8
ATOM      8  C   UNL     1      53.980  70.625  40.405  1.00  0.00     0.041 C 
ATOM      9  O   UNL     1      53.057  71.320  39.905  1.00  0.00    -0.550 OA
ATOM     10  O   UNL     1      53.797  69.259  40.583  1.00  0.00    -0.550 OA
ENDBRANCH   7   8
ENDBRANCH   6   7
ENDBRANCH   5   6
ENDBRANCH   4   5
ENDBRANCH   3   4
ENDBRANCH   2   3
ENDBRANCH   1   2
BRANCH   1  11
ATOM     11  C   UNL     1      58.260  73.542  42.050  1.00  0.00     0.000 C 
BRANCH  11  12
ATOM     12  C   UNL     1      58.105  72.885  43.434  1.00  0.00    -0.000 C 
BRANCH  12  13
ATOM     13  C   UNL     1      59.453  72.538  44.088  1.00  0.00    -0.000 C 
BRANCH  13  14
ATOM     14  C   UNL     1      60.653  72.997  43.244  1.00  0.00    -0.000 C 
BRANCH  14  15
ATOM     15  C   UNL     1      61.568  73.977  43.993  1.00  0.00    -0.000 C 
BRANCH  15  16
ATOM     16  C   UNL     1      60.876  74.518  45.254  1.00  0.00    -0.000 C 
BRANCH  16  17
ATOM     17  C   UNL     1      60.564  76.019  45.158  1.00  0.00    -0.003 C 
ATOM     18  C   UNL     1      59.344  76.316  44.285  1.00  0.00     0.004 C 
ENDBRANCH  16  17
ENDBRANCH  15  16
ENDBRANCH  14  15
ENDBRANCH  13  14
ENDBRANCH  12  13
ENDBRANCH  11  12
ENDBRANCH   1  11
TORSDOF 14
ENDMDL
MODEL 8
REMARK VINA RESULT:    -4.147      1.549      2.085
REMARK INTER + INTRA:          -8.954
REMARK INTER:                  -7.911
REMARK INTRA:                  -1.043
REMARK UNBOUND:                -1.412
REMARK SMILES CCCCCCCCCCCCCCCC(=O)[O-]
REMARK SMILES IDX 9 1 10 2 11 3 12 4 13 5 14 6 15 7 16 8 17 9 18 10 8 11 7 12
REMARK SMILES IDX 6 13 5 14 4 15 3 16 2 17 1 18
REMARK H PARENT
REMARK Flexibility Score: inf
ROOT
ATOM      1  C   UNL     1      59.530  72.424  43.589  1.00  0.00     0.000 C 
ENDROOT
BRANCH   1   2
ATOM      2  C   UNL     1      60.676  73.407  43.292  1.00  0.00     0.000 C 
BRANCH   2   3
ATOM      3  C   UNL     1      61.524  73.711  44.538  1.00  0.00     0.000 C 
BRANCH   3   4
ATOM      4  C   UNL     1      61.809  75.214  44.702  1.00  0.00     0.000 C 
BRANCH   4   5
ATOM      5  C   UNL     1      63.313  75.538  44.718  1.00  0.00     0.000 C 
BRANCH   5   6
ATOM      6  C   UNL     1      64.170  74.541  43.910  1.00  0.00     0.006 C 
BRANCH   6   7
ATOM      7  C   UNL     1      65.495  74.213  44.613  1.00  0.00     0.053 C 
BRANCH   7   8
ATOM      8  C   UNL     1      65.387  72.919  45.356  1.00  0.00     0.041 C 
ATOM      9  O   UNL     1      64.676  72.840  46.393  1.00  0.00    -0.550 OA
ATOM     10  O   UNL     1      66.111  71.811  44.932  1.00  0.00    -0.550 OA
ENDBRANCH   7   8
ENDBRANCH   6   7
ENDBRANCH   5   6
ENDBRANCH   4   5
ENDBRANCH   3   4
ENDBRANCH   2   3
ENDBRANCH   1   2
BRANCH   1  11
ATOM     11  C   UNL     1      58.336  72.589  42.631  1.00  0.00     0.000 C 
BRANCH  11  12
ATOM     12  C   UNL     1      58.135  74.009  42.071  1.00  0.00    -0.000 C 
BRANCH  12  13
ATOM     13  C   UNL     1      56.912  74.121  41.145  1.00  0.00    -0.000 C 
BRANCH  13  14
ATOM     14  C   UNL     1      57.286  74.001  39.658  1.00  0.00    -0.000 C 
BRANCH  14  15
ATOM     15  C   UNL     1      56.425  72.973  38.910  1.00  0.00    -0.000 C 
BRANCH  15  16
ATOM     16  C   UNL     1      55.255  72.497  39.784  1.00  0.00    -0.000 C 
BRANCH  16  17
ATOM     17  C   UNL     1      55.500  71.109  40.396  1.00  0.00    -0.003 C 
ATOM     18  C   UNL     1      56.610  70.336  39.683  1.00  0.00     0.004 C 
ENDBRANCH  16  17
ENDBRANCH  15  16
ENDBRANCH  14  15
ENDBRANCH  13  14
ENDBRANCH  12  13
ENDBRANCH  11  12
ENDBRANCH   1  11
TORSDOF 14
ENDMDL
MODEL 9
REMARK VINA RESULT:    -4.127      4.302      6.122
REMARK INTER + INTRA:          -8.916
REMARK INTER:                  -8.110
REMARK INTRA:                  -0.807
REMARK UNBOUND:                -1.412
REMARK SMILES CCCCCCCCCCCCCCCC(=O)[O-]
REMARK SMILES IDX 9 1 10 2 11 3 12 4 13 5 14 6 15 7 16 8 17 9 18 10 8 11 7 12
REMARK SMILES IDX 6 13 5 14 4 15 3 16 2 17 1 18
REMARK H PARENT
REMARK Flexibility Score: inf
ROOT
ATOM      1  C   UNL     1      56.122  70.873  39.313  1.00  0.00     0.000 C 
ENDROOT
BRANCH   1   2
ATOM      2  C   UNL     1      56.686  71.974  38.399  1.00  0.00     0.000 C 
BRANCH   2   3
ATOM      3  C   UNL     1      56.293  73.384  38.870  1.00  0.00     0.000 C 
BRANCH   3   4
ATOM      4  C   UNL     1      57.482  74.158  39.463  1.00  0.00     0.000 C 
BRANCH   4   5
ATOM      5  C   UNL     1      57.362  74.363  40.983  1.00  0.00     0.000 C 
BRANCH   5   6
ATOM      6  C   UNL     1      57.933  73.194  41.814  1.00  0.00     0.006 C 
BRANCH   6   7
ATOM      7  C   UNL     1      58.172  73.586  43.279  1.00  0.00     0.053 C 
BRANCH   7   8
ATOM      8  C   UNL     1      59.618  73.889  43.511  1.00  0.00     0.041 C 
ATOM      9  O   UNL     1      60.509  73.205  42.941  1.00  0.00    -0.550 OA
ATOM     10  O   UNL     1      59.984  74.897  44.395  1.00  0.00    -0.550 OA
ENDBRANCH   7   8
ENDBRANCH   6   7
ENDBRANCH   5   6
ENDBRANCH   4   5
ENDBRANCH   3   4
ENDBRANCH   2   3
ENDBRANCH   1   2
BRANCH   1  11
ATOM     11  C   UNL     1      55.181  71.420  40.401  1.00  0.00     0.000 C 
BRANCH  11  12
ATOM     12  C   UNL     1      53.692  71.476  40.014  1.00  0.00    -0.000 C 
BRANCH  12  13
ATOM     13  C   UNL     1      52.870  72.405  40.923  1.00  0.00    -0.000 C 
BRANCH  13  14
ATOM     14  C   UNL     1      51.537  72.826  40.284  1.00  0.00    -0.000 C 
BRANCH  14  15
ATOM     15  C   UNL     1      50.492  73.265  41.321  1.00  0.00    -0.000 C 
BRANCH  15  16
ATOM     16  C   UNL     1      49.131  73.518  40.656  1.00  0.00    -0.000 C 
BRANCH  16  17
ATOM     17  C   UNL     1      47.968  72.872  41.424  1.00  0.00    -0.003 C 
ATOM     18  C   UNL     1      46.680  72.807  40.602  1.00  0.00     0.004 C 
ENDBRANCH  16  17
ENDBRANCH  15  16
ENDBRANCH  14  15
ENDBRANCH  13  14
ENDBRANCH  12  13
ENDBRANCH  11  12
ENDBRANCH   1  11
TORSDOF 14
ENDMDL
