MODEL 1
REMARK VINA RESULT:    -4.092      0.000      0.000
REMARK INTER + INTRA:          -5.014
REMARK INTER:                  -4.930
REMARK INTRA:                  -0.084
REMARK UNBOUND:                -0.084
REMARK SMILES OCCc1ccc(O)c(O)c1
REMARK SMILES IDX 3 1 4 2 5 3 6 4 7 5 11 6 9 7 8 8 10 10 2 12 1 13
REMARK H PARENT 8 9 10 11 1 14
REMARK Flexibility Score: inf
ROOT
ATOM      1  C   UNL     1      49.212  11.229  -2.762  1.00  0.00     0.064 C 
ENDROOT
BRANCH   1   2
ATOM      2  C   UNL     1      48.902  12.671  -3.070  1.00  0.00    -0.042 A 
ATOM      3  C   UNL     1      49.741  13.407  -3.922  1.00  0.00     0.008 A 
ATOM      4  C   UNL     1      49.440  14.735  -4.232  1.00  0.00     0.050 A 
ATOM      5  C   UNL     1      48.293  15.342  -3.702  1.00  0.00     0.157 A 
ATOM      6  C   UNL     1      47.748  13.277  -2.549  1.00  0.00     0.054 A 
ATOM      7  C   UNL     1      47.442  14.608  -2.857  1.00  0.00     0.157 A 
BRANCH   5   8
ATOM      8  O   UNL     1      47.995  16.668  -4.011  1.00  0.00    -0.504 OA
ATOM      9  H   UNL     1      48.695  17.295  -4.392  1.00  0.00     0.293 HD
ENDBRANCH   5   8
BRANCH   7  10
ATOM     10  O   UNL     1      46.291  15.181  -2.317  1.00  0.00    -0.504 OA
ATOM     11  H   UNL     1      45.376  15.037  -2.727  1.00  0.00     0.293 HD
ENDBRANCH   7  10
ENDBRANCH   1   2
BRANCH   1  12
ATOM     12  C   UNL     1      48.858  10.876  -1.315  1.00  0.00     0.161 C 
BRANCH  12  13
ATOM     13  O   UNL     1      50.002  10.904  -0.504  1.00  0.00    -0.396 OA
ATOM     14  H   UNL     1      50.468  10.037  -0.636  1.00  0.00     0.210 HD
ENDBRANCH  12  13
ENDBRANCH   1  12
TORSDOF 5
ENDMDL
MODEL 2
REMARK VINA RESULT:    -4.075     10.798     12.317
REMARK INTER + INTRA:          -4.994
REMARK INTER:                  -4.932
REMARK INTRA:                  -0.061
REMARK UNBOUND:                -0.084
REMARK SMILES OCCc1ccc(O)c(O)c1
REMARK SMILES IDX 3 1 4 2 5 3 6 4 7 5 11 6 9 7 8 8 10 10 2 12 1 13
REMARK H PARENT 8 9 10 11 1 14
REMARK Flexibility Score: inf
ROOT
ATOM      1  C   UNL     1      41.233  12.330   3.507  1.00  0.00     0.064 C 
ENDROOT
BRANCH   1   2
ATOM      2  C   UNL     1      41.079  12.231   5.002  1.00  0.00    -0.042 A 
ATOM      3  C   UNL     1      40.119  11.369   5.557  1.00  0.00     0.008 A 
ATOM      4  C   UNL     1      39.993  11.255   6.943  1.00  0.00     0.050 A 
ATOM      5  C   UNL     1      40.829  11.994   7.793  1.00  0.00     0.157 A 
ATOM      6  C   UNL     1      41.922  12.962   5.853  1.00  0.00     0.054 A 
ATOM      7  C   UNL     1      41.799  12.851   7.244  1.00  0.00     0.157 A 
BRANCH   5   8
ATOM      8  O   UNL     1      40.701  11.879   9.176  1.00  0.00    -0.504 OA
ATOM      9  H   UNL     1      41.476  11.587   9.759  1.00  0.00     0.293 HD
ENDBRANCH   5   8
BRANCH   7  10
ATOM     10  O   UNL     1      42.649  13.595   8.060  1.00  0.00    -0.504 OA
ATOM     11  H   UNL     1      43.378  13.162   8.615  1.00  0.00     0.293 HD
ENDBRANCH   7  10
ENDBRANCH   1   2
BRANCH   1  12
ATOM     12  C   UNL     1      39.876  12.303   2.799  1.00  0.00     0.161 C 
BRANCH  12  13
ATOM     13  O   UNL     1      39.902  13.100   1.645  1.00  0.00    -0.396 OA
ATOM     14  H   UNL     1      39.639  12.516   0.887  1.00  0.00     0.210 HD
ENDBRANCH  12  13
ENDBRANCH   1  12
TORSDOF 5
ENDMDL
MODEL 3
REMARK VINA RESULT:    -4.021      7.907      9.481
REMARK INTER + INTRA:          -4.928
REMARK INTER:                  -4.836
REMARK INTRA:                  -0.092
REMARK UNBOUND:                -0.084
REMARK SMILES OCCc1ccc(O)c(O)c1
REMARK SMILES IDX 3 1 4 2 5 3 6 4 7 5 11 6 9 7 8 8 10 10 2 12 1 13
REMARK H PARENT 8 9 10 11 1 14
REMARK Flexibility Score: inf
ROOT
ATOM      1  C   UNL     1      43.969  19.772  -4.614  1.00  0.00     0.064 C 
ENDROOT
BRANCH   1   2
ATOM      2  C   UNL     1      43.170  19.754  -3.338  1.00  0.00    -0.042 A 
ATOM      3  C   UNL     1      42.637  20.947  -2.823  1.00  0.00     0.008 A 
ATOM      4  C   UNL     1      41.871  20.929  -1.655  1.00  0.00     0.050 A 
ATOM      5  C   UNL     1      41.620  19.720  -0.992  1.00  0.00     0.157 A 
ATOM      6  C   UNL     1      42.909  18.543  -2.678  1.00  0.00     0.054 A 
ATOM      7  C   UNL     1      42.142  18.521  -1.508  1.00  0.00     0.157 A 
BRANCH   5   8
ATOM      8  O   UNL     1      40.856  19.705   0.174  1.00  0.00    -0.504 OA
ATOM      9  H   UNL     1      40.063  20.324   0.297  1.00  0.00     0.293 HD
ENDBRANCH   5   8
BRANCH   7  10
ATOM     10  O   UNL     1      41.907  17.300  -0.875  1.00  0.00    -0.504 OA
ATOM     11  H   UNL     1      41.036  17.102  -0.396  1.00  0.00     0.293 HD
ENDBRANCH   7  10
ENDBRANCH   1   2
BRANCH   1  12
ATOM     12  C   UNL     1      43.608  20.977  -5.487  1.00  0.00     0.161 C 
BRANCH  12  13
ATOM     13  O   UNL     1      44.743  21.759  -5.747  1.00  0.00    -0.396 OA
ATOM     14  H   UNL     1      45.061  22.103  -4.872  1.00  0.00     0.210 HD
ENDBRANCH  12  13
ENDBRANCH   1  12
TORSDOF 5
ENDMDL
MODEL 4
REMARK VINA RESULT:    -3.989      2.857      4.439
REMARK INTER + INTRA:          -4.889
REMARK INTER:                  -4.804
REMARK INTRA:                  -0.085
REMARK UNBOUND:                -0.084
REMARK SMILES OCCc1ccc(O)c(O)c1
REMARK SMILES IDX 3 1 4 2 5 3 6 4 7 5 11 6 9 7 8 8 10 10 2 12 1 13
REMARK H PARENT 8 9 10 11 1 14
REMARK Flexibility Score: inf
ROOT
ATOM      1  C   UNL     1      52.257  15.894  -5.562  1.00  0.00     0.064 C 
ENDROOT
BRANCH   1   2
ATOM      2  C   UNL     1      50.991  15.357  -4.949  1.00  0.00    -0.042 A 
ATOM      3  C   UNL     1      50.889  13.995  -4.620  1.00  0.00     0.008 A 
ATOM      4  C   UNL     1      49.726  13.500  -4.025  1.00  0.00     0.050 A 
ATOM      5  C   UNL     1      48.655  14.360  -3.743  1.00  0.00     0.157 A 
ATOM      6  C   UNL     1      49.922  16.217  -4.657  1.00  0.00     0.054 A 
ATOM      7  C   UNL     1      48.755  15.725  -4.060  1.00  0.00     0.157 A 
BRANCH   5   8
ATOM      8  O   UNL     1      47.495  13.863  -3.150  1.00  0.00    -0.504 OA
ATOM      9  H   UNL     1      46.668  13.652  -3.697  1.00  0.00     0.293 HD
ENDBRANCH   5   8
BRANCH   7  10
ATOM     10  O   UNL     1      47.710  16.607  -3.788  1.00  0.00    -0.504 OA
ATOM     11  H   UNL     1      47.537  16.967  -2.856  1.00  0.00     0.293 HD
ENDBRANCH   7  10
ENDBRANCH   1   2
BRANCH   1  12
ATOM     12  C   UNL     1      53.131  14.768  -6.125  1.00  0.00     0.161 C 
BRANCH  12  13
ATOM     13  O   UNL     1      54.473  14.953  -5.762  1.00  0.00    -0.396 OA
ATOM     14  H   UNL     1      54.636  15.932  -5.758  1.00  0.00     0.210 HD
ENDBRANCH  12  13
ENDBRANCH   1  12
TORSDOF 5
ENDMDL
MODEL 5
REMARK VINA RESULT:    -3.972      6.547      8.932
REMARK INTER + INTRA:          -4.869
REMARK INTER:                  -4.787
REMARK INTRA:                  -0.083
REMARK UNBOUND:                -0.084
REMARK SMILES OCCc1ccc(O)c(O)c1
REMARK SMILES IDX 3 1 4 2 5 3 6 4 7 5 11 6 9 7 8 8 10 10 2 12 1 13
REMARK H PARENT 8 9 10 11 1 14
REMARK Flexibility Score: inf
ROOT
ATOM      1  C   UNL     1      41.841  20.581  -2.005  1.00  0.00     0.064 C 
ENDROOT
BRANCH   1   2
ATOM      2  C   UNL     1      42.250  19.139  -2.151  1.00  0.00    -0.042 A 
ATOM      3  C   UNL     1      43.410  18.804  -2.869  1.00  0.00     0.008 A 
ATOM      4  C   UNL     1      43.807  17.470  -2.982  1.00  0.00     0.050 A 
ATOM      5  C   UNL     1      43.056  16.454  -2.373  1.00  0.00     0.157 A 
ATOM      6  C   UNL     1      41.506  18.122  -1.533  1.00  0.00     0.054 A 
ATOM      7  C   UNL     1      41.901  16.784  -1.643  1.00  0.00     0.157 A 
BRANCH   5   8
ATOM      8  O   UNL     1      43.454  15.124  -2.488  1.00  0.00    -0.504 OA
ATOM      9  H   UNL     1      43.961  14.789  -3.300  1.00  0.00     0.293 HD
ENDBRANCH   5   8
BRANCH   7  10
ATOM     10  O   UNL     1      41.135  15.798  -1.021  1.00  0.00    -0.504 OA
ATOM     11  H   UNL     1      41.364  14.814  -1.093  1.00  0.00     0.293 HD
ENDBRANCH   7  10
ENDBRANCH   1   2
BRANCH   1  12
ATOM     12  C   UNL     1      41.736  20.989  -0.532  1.00  0.00     0.161 C 
BRANCH  12  13
ATOM     13  O   UNL     1      40.400  21.230  -0.179  1.00  0.00    -0.396 OA
ATOM     14  H   UNL     1      39.973  21.674  -0.957  1.00  0.00     0.210 HD
ENDBRANCH  12  13
ENDBRANCH   1  12
TORSDOF 5
ENDMDL
MODEL 6
REMARK VINA RESULT:    -3.925      6.457      8.238
REMARK INTER + INTRA:          -4.813
REMARK INTER:                  -4.730
REMARK INTRA:                  -0.083
REMARK UNBOUND:                -0.084
REMARK SMILES OCCc1ccc(O)c(O)c1
REMARK SMILES IDX 3 1 4 2 5 3 6 4 7 5 11 6 9 7 8 8 10 10 2 12 1 13
REMARK H PARENT 8 9 10 11 1 14
REMARK Flexibility Score: inf
ROOT
ATOM      1  C   UNL     1      44.151  18.279  -4.395  1.00  0.00     0.064 C 
ENDROOT
BRANCH   1   2
ATOM      2  C   UNL     1      43.425  19.086  -3.351  1.00  0.00    -0.042 A 
ATOM      3  C   UNL     1      43.204  20.458  -3.547  1.00  0.00     0.008 A 
ATOM      4  C   UNL     1      42.506  21.203  -2.593  1.00  0.00     0.050 A 
ATOM      5  C   UNL     1      42.013  20.584  -1.435  1.00  0.00     0.157 A 
ATOM      6  C   UNL     1      42.922  18.466  -2.196  1.00  0.00     0.054 A 
ATOM      7  C   UNL     1      42.221  19.208  -1.237  1.00  0.00     0.157 A 
BRANCH   5   8
ATOM      8  O   UNL     1      41.318  21.329  -0.484  1.00  0.00    -0.504 OA
ATOM      9  H   UNL     1      40.365  21.101  -0.223  1.00  0.00     0.293 HD
ENDBRANCH   5   8
BRANCH   7  10
ATOM     10  O   UNL     1      41.740  18.561  -0.100  1.00  0.00    -0.504 OA
ATOM     11  H   UNL     1      41.426  19.072   0.717  1.00  0.00     0.293 HD
ENDBRANCH   7  10
ENDBRANCH   1   2
BRANCH   1  12
ATOM     12  C   UNL     1      44.531  16.892  -3.869  1.00  0.00     0.161 C 
BRANCH  12  13
ATOM     13  O   UNL     1      45.836  16.897  -3.356  1.00  0.00    -0.396 OA
ATOM     14  H   UNL     1      46.002  17.811  -3.006  1.00  0.00     0.210 HD
ENDBRANCH  12  13
ENDBRANCH   1  12
TORSDOF 5
ENDMDL
MODEL 7
REMARK VINA RESULT:    -3.878      1.377      2.363
REMARK INTER + INTRA:          -4.756
REMARK INTER:                  -4.684
REMARK INTRA:                  -0.072
REMARK UNBOUND:                -0.084
REMARK SMILES OCCc1ccc(O)c(O)c1
REMARK SMILES IDX 3 1 4 2 5 3 6 4 7 5 11 6 9 7 8 8 10 10 2 12 1 13
REMARK H PARENT 8 9 10 11 1 14
REMARK Flexibility Score: inf
ROOT
ATOM      1  C   UNL     1      49.283  11.713  -2.941  1.00  0.00     0.064 C 
ENDROOT
BRANCH   1   2
ATOM      2  C   UNL     1      49.135  13.131  -3.427  1.00  0.00    -0.042 A 
ATOM      3  C   UNL     1      47.987  13.872  -3.101  1.00  0.00     0.008 A 
ATOM      4  C   UNL     1      47.860  15.196  -3.527  1.00  0.00     0.050 A 
ATOM      5  C   UNL     1      48.881  15.799  -4.275  1.00  0.00     0.157 A 
ATOM      6  C   UNL     1      50.160  13.740  -4.167  1.00  0.00     0.054 A 
ATOM      7  C   UNL     1      50.037  15.067  -4.596  1.00  0.00     0.157 A 
BRANCH   5   8
ATOM      8  O   UNL     1      48.751  17.121  -4.700  1.00  0.00    -0.504 OA
ATOM      9  H   UNL     1      47.843  17.532  -4.886  1.00  0.00     0.293 HD
ENDBRANCH   5   8
BRANCH   7  10
ATOM     10  O   UNL     1      51.072  15.639  -5.334  1.00  0.00    -0.504 OA
ATOM     11  H   UNL     1      51.493  16.524  -5.075  1.00  0.00     0.293 HD
ENDBRANCH   7  10
ENDBRANCH   1   2
BRANCH   1  12
ATOM     12  C   UNL     1      48.713  11.540  -1.530  1.00  0.00     0.161 C 
BRANCH  12  13
ATOM     13  O   UNL     1      49.711  11.112  -0.642  1.00  0.00    -0.396 OA
ATOM     14  H   UNL     1      49.314  11.137   0.268  1.00  0.00     0.210 HD
ENDBRANCH  12  13
ENDBRANCH   1  12
TORSDOF 5
ENDMDL
MODEL 8
REMARK VINA RESULT:    -3.814      2.373      4.489
REMARK INTER + INTRA:          -4.679
REMARK INTER:                  -4.587
REMARK INTRA:                  -0.092
REMARK UNBOUND:                -0.084
REMARK SMILES OCCc1ccc(O)c(O)c1
REMARK SMILES IDX 3 1 4 2 5 3 6 4 7 5 11 6 9 7 8 8 10 10 2 12 1 13
REMARK H PARENT 8 9 10 11 1 14
REMARK Flexibility Score: inf
ROOT
ATOM      1  C   UNL     1      46.417  16.787  -4.392  1.00  0.00     0.064 C 
ENDROOT
BRANCH   1   2
ATOM      2  C   UNL     1      47.739  16.065  -4.383  1.00  0.00    -0.042 A 
ATOM      3  C   UNL     1      48.859  16.636  -5.008  1.00  0.00     0.008 A 
ATOM      4  C   UNL     1      50.093  15.981  -4.977  1.00  0.00     0.050 A 
ATOM      5  C   UNL     1      50.225  14.753  -4.315  1.00  0.00     0.157 A 
ATOM      6  C   UNL     1      47.875  14.840  -3.712  1.00  0.00     0.054 A 
ATOM      7  C   UNL     1      49.110  14.180  -3.678  1.00  0.00     0.157 A 
BRANCH   5   8
ATOM      8  O   UNL     1      51.457  14.101  -4.286  1.00  0.00    -0.504 OA
ATOM      9  H   UNL     1      51.649  13.356  -3.626  1.00  0.00     0.293 HD
ENDBRANCH   5   8
BRANCH   7  10
ATOM     10  O   UNL     1      49.209  12.962  -3.006  1.00  0.00    -0.504 OA
ATOM     11  H   UNL     1      49.811  12.840  -2.200  1.00  0.00     0.293 HD
ENDBRANCH   7  10
ENDBRANCH   1   2
BRANCH   1  12
ATOM     12  C   UNL     1      45.386  16.082  -3.504  1.00  0.00     0.161 C 
BRANCH  12  13
ATOM     13  O   UNL     1      45.127  16.836  -2.351  1.00  0.00    -0.396 OA
ATOM     14  H   UNL     1      45.353  17.779  -2.568  1.00  0.00     0.210 HD
ENDBRANCH  12  13
ENDBRANCH   1  12
TORSDOF 5
ENDMDL
MODEL 9
REMARK VINA RESULT:    -3.803      2.933      4.610
REMARK INTER + INTRA:          -4.666
REMARK INTER:                  -4.580
REMARK INTRA:                  -0.086
REMARK UNBOUND:                -0.084
REMARK SMILES OCCc1ccc(O)c(O)c1
REMARK SMILES IDX 3 1 4 2 5 3 6 4 7 5 11 6 9 7 8 8 10 10 2 12 1 13
REMARK H PARENT 8 9 10 11 1 14
REMARK Flexibility Score: inf
ROOT
ATOM      1  C   UNL     1      52.075  16.007  -5.652  1.00  0.00     0.064 C 
ENDROOT
BRANCH   1   2
ATOM      2  C   UNL     1      50.837  15.497  -4.963  1.00  0.00    -0.042 A 
ATOM      3  C   UNL     1      49.693  16.307  -4.876  1.00  0.00     0.008 A 
ATOM      4  C   UNL     1      48.534  15.826  -4.263  1.00  0.00     0.050 A 
ATOM      5  C   UNL     1      48.500  14.527  -3.736  1.00  0.00     0.157 A 
ATOM      6  C   UNL     1      50.797  14.193  -4.444  1.00  0.00     0.054 A 
ATOM      7  C   UNL     1      49.638  13.707  -3.829  1.00  0.00     0.157 A 
BRANCH   5   8
ATOM      8  O   UNL     1      47.343  14.050  -3.123  1.00  0.00    -0.504 OA
ATOM      9  H   UNL     1      47.308  13.131  -2.696  1.00  0.00     0.293 HD
ENDBRANCH   5   8
BRANCH   7  10
ATOM     10  O   UNL     1      49.635  12.409  -3.319  1.00  0.00    -0.504 OA
ATOM     11  H   UNL     1      48.820  12.009  -2.869  1.00  0.00     0.293 HD
ENDBRANCH   7  10
ENDBRANCH   1   2
BRANCH   1  12
ATOM     12  C   UNL     1      52.969  14.857  -6.125  1.00  0.00     0.161 C 
BRANCH  12  13
ATOM     13  O   UNL     1      54.295  15.059  -5.716  1.00  0.00    -0.396 OA
ATOM     14  H   UNL     1      54.351  14.769  -4.768  1.00  0.00     0.210 HD
ENDBRANCH  12  13
ENDBRANCH   1  12
TORSDOF 5
ENDMDL
