MODEL 1
REMARK VINA RESULT:    -2.928      0.000      0.000
REMARK INTER + INTRA:          -3.343
REMARK INTER:                  -3.271
REMARK INTRA:                  -0.072
REMARK UNBOUND:                -0.072
REMARK SMILES CCCC(=O)[O-]
REMARK SMILES IDX 3 1 4 2 5 3 6 4 2 5 1 6
REMARK H PARENT
REMARK Flexibility Score: inf
ROOT
ATOM      1  C   UNL     1     -19.670  45.461  -6.747  1.00  0.00     0.052 C 
ENDROOT
BRANCH   1   2
ATOM      2  C   UNL     1     -19.472  44.402  -5.710  1.00  0.00     0.041 C 
ATOM      3  O   UNL     1     -18.318  43.954  -5.474  1.00  0.00    -0.550 OA
ATOM      4  O   UNL     1     -20.552  43.944  -4.968  1.00  0.00    -0.550 OA
ENDBRANCH   1   2
BRANCH   1   5
ATOM      5  C   UNL     1     -20.739  45.031  -7.754  1.00  0.00     0.003 C 
ATOM      6  C   UNL     1     -20.282  43.818  -8.561  1.00  0.00     0.004 C 
ENDBRANCH   1   5
TORSDOF 2
ENDMDL
MODEL 2
REMARK VINA RESULT:    -2.918      2.123      2.572
REMARK INTER + INTRA:          -3.331
REMARK INTER:                  -3.267
REMARK INTRA:                  -0.064
REMARK UNBOUND:                -0.072
REMARK SMILES CCCC(=O)[O-]
REMARK SMILES IDX 3 1 4 2 5 3 6 4 2 5 1 6
REMARK H PARENT
REMARK Flexibility Score: inf
ROOT
ATOM      1  C   UNL     1     -18.850  44.200  -5.548  1.00  0.00     0.052 C 
ENDROOT
BRANCH   1   2
ATOM      2  C   UNL     1     -17.475  44.058  -6.120  1.00  0.00     0.041 C 
ATOM      3  O   UNL     1     -17.203  43.092  -6.881  1.00  0.00    -0.550 OA
ATOM      4  O   UNL     1     -16.508  45.017  -5.853  1.00  0.00    -0.550 OA
ENDBRANCH   1   2
BRANCH   1   5
ATOM      5  C   UNL     1     -19.855  44.549  -6.649  1.00  0.00     0.003 C 
ATOM      6  C   UNL     1     -19.699  46.000  -7.097  1.00  0.00     0.004 C 
ENDBRANCH   1   5
TORSDOF 2
ENDMDL
MODEL 3
REMARK VINA RESULT:    -2.877      2.115      2.914
REMARK INTER + INTRA:          -3.285
REMARK INTER:                  -3.223
REMARK INTRA:                  -0.062
REMARK UNBOUND:                -0.072
REMARK SMILES CCCC(=O)[O-]
REMARK SMILES IDX 3 1 4 2 5 3 6 4 2 5 1 6
REMARK H PARENT
REMARK Flexibility Score: inf
ROOT
ATOM      1  C   UNL     1     -19.156  44.285  -5.626  1.00  0.00     0.052 C 
ENDROOT
BRANCH   1   2
ATOM      2  C   UNL     1     -19.830  45.140  -6.652  1.00  0.00     0.041 C 
ATOM      3  O   UNL     1     -20.784  44.679  -7.332  1.00  0.00    -0.550 OA
ATOM      4  O   UNL     1     -19.438  46.461  -6.823  1.00  0.00    -0.550 OA
ENDBRANCH   1   2
BRANCH   1   5
ATOM      5  C   UNL     1     -17.645  44.252  -5.865  1.00  0.00     0.003 C 
ATOM      6  C   UNL     1     -17.287  43.298  -7.001  1.00  0.00     0.004 C 
ENDBRANCH   1   5
TORSDOF 2
ENDMDL
MODEL 4
REMARK VINA RESULT:    -2.845      2.354      3.012
REMARK INTER + INTRA:          -3.250
REMARK INTER:                  -3.184
REMARK INTRA:                  -0.065
REMARK UNBOUND:                -0.072
REMARK SMILES CCCC(=O)[O-]
REMARK SMILES IDX 3 1 4 2 5 3 6 4 2 5 1 6
REMARK H PARENT
REMARK Flexibility Score: inf
ROOT
ATOM      1  C   UNL     1     -20.251  44.621  -6.726  1.00  0.00     0.052 C 
ENDROOT
BRANCH   1   2
ATOM      2  C   UNL     1     -19.656  45.760  -7.491  1.00  0.00     0.041 C 
ATOM      3  O   UNL     1     -19.292  45.598  -8.686  1.00  0.00    -0.550 OA
ATOM      4  O   UNL     1     -19.548  47.013  -6.903  1.00  0.00    -0.550 OA
ENDBRANCH   1   2
BRANCH   1   5
ATOM      5  C   UNL     1     -19.421  44.325  -5.475  1.00  0.00     0.003 C 
ATOM      6  C   UNL     1     -17.976  43.995  -5.837  1.00  0.00     0.004 C 
ENDBRANCH   1   5
TORSDOF 2
ENDMDL
MODEL 5
REMARK VINA RESULT:    -2.835      1.369      2.325
REMARK INTER + INTRA:          -3.238
REMARK INTER:                  -3.180
REMARK INTRA:                  -0.058
REMARK UNBOUND:                -0.072
REMARK SMILES CCCC(=O)[O-]
REMARK SMILES IDX 3 1 4 2 5 3 6 4 2 5 1 6
REMARK H PARENT
REMARK Flexibility Score: inf
ROOT
ATOM      1  C   UNL     1     -18.983  45.402  -7.070  1.00  0.00     0.052 C 
ENDROOT
BRANCH   1   2
ATOM      2  C   UNL     1     -19.068  44.447  -5.922  1.00  0.00     0.041 C 
ATOM      3  O   UNL     1     -18.029  43.877  -5.495  1.00  0.00    -0.550 OA
ATOM      4  O   UNL     1     -20.284  44.222  -5.293  1.00  0.00    -0.550 OA
ENDBRANCH   1   2
BRANCH   1   5
ATOM      5  C   UNL     1     -19.362  46.815  -6.619  1.00  0.00     0.003 C 
ATOM      6  C   UNL     1     -18.389  47.337  -5.566  1.00  0.00     0.004 C 
ENDBRANCH   1   5
TORSDOF 2
ENDMDL
MODEL 6
REMARK VINA RESULT:    -2.830      1.390      2.701
REMARK INTER + INTRA:          -3.233
REMARK INTER:                  -3.169
REMARK INTRA:                  -0.064
REMARK UNBOUND:                -0.072
REMARK SMILES CCCC(=O)[O-]
REMARK SMILES IDX 3 1 4 2 5 3 6 4 2 5 1 6
REMARK H PARENT
REMARK Flexibility Score: inf
ROOT
ATOM      1  C   UNL     1     -19.003  45.503  -7.100  1.00  0.00     0.052 C 
ENDROOT
BRANCH   1   2
ATOM      2  C   UNL     1     -19.132  44.536  -5.966  1.00  0.00     0.041 C 
ATOM      3  O   UNL     1     -20.262  44.293  -5.466  1.00  0.00    -0.550 OA
ATOM      4  O   UNL     1     -18.012  43.866  -5.494  1.00  0.00    -0.550 OA
ENDBRANCH   1   2
BRANCH   1   5
ATOM      5  C   UNL     1     -19.310  46.926  -6.628  1.00  0.00     0.003 C 
ATOM      6  C   UNL     1     -18.356  47.357  -5.518  1.00  0.00     0.004 C 
ENDBRANCH   1   5
TORSDOF 2
ENDMDL
MODEL 7
REMARK VINA RESULT:    -2.797      2.163      2.534
REMARK INTER + INTRA:          -3.196
REMARK INTER:                  -3.156
REMARK INTRA:                  -0.040
REMARK UNBOUND:                -0.072
REMARK SMILES CCCC(=O)[O-]
REMARK SMILES IDX 3 1 4 2 5 3 6 4 2 5 1 6
REMARK H PARENT
REMARK Flexibility Score: inf
ROOT
ATOM      1  C   UNL     1     -17.900  44.048  -5.757  1.00  0.00     0.052 C 
ENDROOT
BRANCH   1   2
ATOM      2  C   UNL     1     -19.313  44.492  -5.964  1.00  0.00     0.041 C 
ATOM      3  O   UNL     1     -19.604  45.245  -6.931  1.00  0.00    -0.550 OA
ATOM      4  O   UNL     1     -20.317  44.036  -5.121  1.00  0.00    -0.550 OA
ENDBRANCH   1   2
BRANCH   1   5
ATOM      5  C   UNL     1     -17.131  44.072  -7.080  1.00  0.00     0.003 C 
ATOM      6  C   UNL     1     -17.063  42.681  -7.704  1.00  0.00     0.004 C 
ENDBRANCH   1   5
TORSDOF 2
ENDMDL
MODEL 8
REMARK VINA RESULT:    -2.770      2.547      3.308
REMARK INTER + INTRA:          -3.166
REMARK INTER:                  -3.114
REMARK INTRA:                  -0.051
REMARK UNBOUND:                -0.072
REMARK SMILES CCCC(=O)[O-]
REMARK SMILES IDX 3 1 4 2 5 3 6 4 2 5 1 6
REMARK H PARENT
REMARK Flexibility Score: inf
ROOT
ATOM      1  C   UNL     1     -19.447  45.693  -6.653  1.00  0.00     0.052 C 
ENDROOT
BRANCH   1   2
ATOM      2  C   UNL     1     -18.737  46.981  -6.384  1.00  0.00     0.041 C 
ATOM      3  O   UNL     1     -18.507  47.342  -5.199  1.00  0.00    -0.550 OA
ATOM      4  O   UNL     1     -18.285  47.760  -7.440  1.00  0.00    -0.550 OA
ENDBRANCH   1   2
BRANCH   1   5
ATOM      5  C   UNL     1     -19.013  44.622  -5.650  1.00  0.00     0.003 C 
ATOM      6  C   UNL     1     -17.696  43.974  -6.070  1.00  0.00     0.004 C 
ENDBRANCH   1   5
TORSDOF 2
ENDMDL
MODEL 9
REMARK VINA RESULT:    -2.740      2.284      2.965
REMARK INTER + INTRA:          -3.132
REMARK INTER:                  -3.061
REMARK INTRA:                  -0.071
REMARK UNBOUND:                -0.072
REMARK SMILES CCCC(=O)[O-]
REMARK SMILES IDX 3 1 4 2 5 3 6 4 2 5 1 6
REMARK H PARENT
REMARK Flexibility Score: inf
ROOT
ATOM      1  C   UNL     1     -19.853  45.511  -6.960  1.00  0.00     0.052 C 
ENDROOT
BRANCH   1   2
ATOM      2  C   UNL     1     -19.718  44.815  -8.276  1.00  0.00     0.041 C 
ATOM      3  O   UNL     1     -18.862  45.206  -9.114  1.00  0.00    -0.550 OA
ATOM      4  O   UNL     1     -20.502  43.705  -8.560  1.00  0.00    -0.550 OA
ENDBRANCH   1   2
BRANCH   1   5
ATOM      5  C   UNL     1     -19.651  44.524  -5.808  1.00  0.00     0.003 C 
ATOM      6  C   UNL     1     -18.194  44.080  -5.713  1.00  0.00     0.004 C 
ENDBRANCH   1   5
TORSDOF 2
ENDMDL
