MODEL 1
REMARK VINA RESULT:    -4.814      0.000      0.000
REMARK INTER + INTRA:          -5.450
REMARK INTER:                  -5.236
REMARK INTRA:                  -0.214
REMARK UNBOUND:                -0.214
REMARK SMILES O=C([O-])c1ccccc1O
REMARK SMILES IDX 4 1 9 2 5 3 8 4 6 5 7 6 2 7 1 8 3 9 10 10
REMARK H PARENT 10 11
REMARK Flexibility Score: inf
ROOT
ATOM      1  C   UNL     1      -8.441  -5.746   5.376  1.00  0.00     0.039 A 
ATOM      2  C   UNL     1      -8.526  -4.568   6.157  1.00  0.00     0.124 A 
ATOM      3  C   UNL     1      -9.192  -5.830   4.189  1.00  0.00     0.014 A 
ATOM      4  C   UNL     1      -9.350  -3.511   5.738  1.00  0.00     0.047 A 
ATOM      5  C   UNL     1     -10.008  -4.771   3.784  1.00  0.00     0.001 A 
ATOM      6  C   UNL     1     -10.087  -3.613   4.559  1.00  0.00     0.004 A 
ENDROOT
BRANCH   1   7
ATOM      7  C   UNL     1      -7.583  -6.892   5.775  1.00  0.00     0.075 C 
ATOM      8  O   UNL     1      -6.579  -6.725   6.515  1.00  0.00    -0.545 OA
ATOM      9  O   UNL     1      -7.881  -8.176   5.333  1.00  0.00    -0.545 OA
ENDBRANCH   1   7
BRANCH   2  10
ATOM     10  O   UNL     1      -7.799  -4.441   7.340  1.00  0.00    -0.507 OA
ATOM     11  H   UNL     1      -7.287  -3.595   7.562  1.00  0.00     0.293 HD
ENDBRANCH   2  10
TORSDOF 2
ENDMDL
MODEL 2
REMARK VINA RESULT:    -4.717      1.461      2.220
REMARK INTER + INTRA:          -5.345
REMARK INTER:                  -5.093
REMARK INTRA:                  -0.252
REMARK UNBOUND:                -0.214
REMARK SMILES O=C([O-])c1ccccc1O
REMARK SMILES IDX 4 1 9 2 5 3 8 4 6 5 7 6 2 7 1 8 3 9 10 10
REMARK H PARENT 10 11
REMARK Flexibility Score: inf
ROOT
ATOM      1  C   UNL     1      -8.587  -6.774   4.170  1.00  0.00     0.039 A 
ATOM      2  C   UNL     1      -9.299  -5.618   4.571  1.00  0.00     0.124 A 
ATOM      3  C   UNL     1      -8.544  -7.104   2.802  1.00  0.00     0.014 A 
ATOM      4  C   UNL     1      -9.944  -4.825   3.609  1.00  0.00     0.047 A 
ATOM      5  C   UNL     1      -9.190  -6.306   1.855  1.00  0.00     0.001 A 
ATOM      6  C   UNL     1      -9.889  -5.169   2.258  1.00  0.00     0.004 A 
ENDROOT
BRANCH   1   7
ATOM      7  C   UNL     1      -7.887  -7.645   5.149  1.00  0.00     0.075 C 
ATOM      8  O   UNL     1      -8.087  -8.888   5.171  1.00  0.00    -0.545 OA
ATOM      9  O   UNL     1      -6.993  -7.096   6.061  1.00  0.00    -0.545 OA
ENDBRANCH   1   7
BRANCH   2  10
ATOM     10  O   UNL     1      -9.368  -5.253   5.915  1.00  0.00    -0.507 OA
ATOM     11  H   UNL     1      -9.017  -4.360   6.243  1.00  0.00     0.293 HD
ENDBRANCH   2  10
TORSDOF 2
ENDMDL
MODEL 3
REMARK VINA RESULT:    -4.637      1.099      2.463
REMARK INTER + INTRA:          -5.258
REMARK INTER:                  -5.027
REMARK INTRA:                  -0.231
REMARK UNBOUND:                -0.214
REMARK SMILES O=C([O-])c1ccccc1O
REMARK SMILES IDX 4 1 9 2 5 3 8 4 6 5 7 6 2 7 1 8 3 9 10 10
REMARK H PARENT 10 11
REMARK Flexibility Score: inf
ROOT
ATOM      1  C   UNL     1      -8.040  -5.471   6.292  1.00  0.00     0.039 A 
ATOM      2  C   UNL     1      -8.142  -6.412   5.239  1.00  0.00     0.124 A 
ATOM      3  C   UNL     1      -8.780  -4.276   6.207  1.00  0.00     0.014 A 
ATOM      4  C   UNL     1      -8.970  -6.143   4.138  1.00  0.00     0.047 A 
ATOM      5  C   UNL     1      -9.600  -4.020   5.106  1.00  0.00     0.001 A 
ATOM      6  C   UNL     1      -9.695  -4.953   4.073  1.00  0.00     0.004 A 
ENDROOT
BRANCH   1   7
ATOM      7  C   UNL     1      -7.178  -5.709   7.478  1.00  0.00     0.075 C 
ATOM      8  O   UNL     1      -6.638  -4.751   8.091  1.00  0.00    -0.545 OA
ATOM      9  O   UNL     1      -6.955  -7.003   7.934  1.00  0.00    -0.545 OA
ENDBRANCH   1   7
BRANCH   2  10
ATOM     10  O   UNL     1      -7.428  -7.610   5.281  1.00  0.00    -0.507 OA
ATOM     11  H   UNL     1      -6.799  -7.881   4.534  1.00  0.00     0.293 HD
ENDBRANCH   2  10
TORSDOF 2
ENDMDL
MODEL 4
REMARK VINA RESULT:    -4.578      1.124      1.813
REMARK INTER + INTRA:          -5.194
REMARK INTER:                  -5.049
REMARK INTRA:                  -0.145
REMARK UNBOUND:                -0.214
REMARK SMILES O=C([O-])c1ccccc1O
REMARK SMILES IDX 4 1 9 2 5 3 8 4 6 5 7 6 2 7 1 8 3 9 10 10
REMARK H PARENT 10 11
REMARK Flexibility Score: inf
ROOT
ATOM      1  C   UNL     1      -8.310  -5.368   5.817  1.00  0.00     0.039 A 
ATOM      2  C   UNL     1      -9.111  -4.221   5.605  1.00  0.00     0.124 A 
ATOM      3  C   UNL     1      -8.318  -6.390   4.849  1.00  0.00     0.014 A 
ATOM      4  C   UNL     1      -9.894  -4.120   4.444  1.00  0.00     0.047 A 
ATOM      5  C   UNL     1      -9.101  -6.277   3.698  1.00  0.00     0.001 A 
ATOM      6  C   UNL     1      -9.888  -5.143   3.496  1.00  0.00     0.004 A 
ENDROOT
BRANCH   1   7
ATOM      7  C   UNL     1      -7.463  -5.523   7.028  1.00  0.00     0.075 C 
ATOM      8  O   UNL     1      -7.249  -4.551   7.799  1.00  0.00    -0.545 OA
ATOM      9  O   UNL     1      -6.893  -6.754   7.332  1.00  0.00    -0.545 OA
ENDBRANCH   1   7
BRANCH   2  10
ATOM     10  O   UNL     1      -9.133  -3.184   6.537  1.00  0.00    -0.507 OA
ATOM     11  H   UNL     1      -9.622  -2.315   6.355  1.00  0.00     0.293 HD
ENDBRANCH   2  10
TORSDOF 2
ENDMDL
MODEL 5
REMARK VINA RESULT:    -4.563      1.145      3.159
REMARK INTER + INTRA:          -5.177
REMARK INTER:                  -4.967
REMARK INTRA:                  -0.210
REMARK UNBOUND:                -0.214
REMARK SMILES O=C([O-])c1ccccc1O
REMARK SMILES IDX 4 1 9 2 5 3 8 4 6 5 7 6 2 7 1 8 3 9 10 10
REMARK H PARENT 10 11
REMARK Flexibility Score: inf
ROOT
ATOM      1  C   UNL     1      -8.500  -5.563   5.501  1.00  0.00     0.039 A 
ATOM      2  C   UNL     1      -7.693  -6.722   5.597  1.00  0.00     0.124 A 
ATOM      3  C   UNL     1      -9.510  -5.518   4.521  1.00  0.00     0.014 A 
ATOM      4  C   UNL     1      -7.909  -7.799   4.722  1.00  0.00     0.047 A 
ATOM      5  C   UNL     1      -9.714  -6.596   3.656  1.00  0.00     0.001 A 
ATOM      6  C   UNL     1      -8.915  -7.734   3.757  1.00  0.00     0.004 A 
ENDROOT
BRANCH   1   7
ATOM      7  C   UNL     1      -8.313  -4.398   6.403  1.00  0.00     0.075 C 
ATOM      8  O   UNL     1      -8.695  -3.247   6.066  1.00  0.00    -0.545 OA
ATOM      9  O   UNL     1      -7.708  -4.563   7.645  1.00  0.00    -0.545 OA
ENDBRANCH   1   7
BRANCH   2  10
ATOM     10  O   UNL     1      -6.682  -6.811   6.553  1.00  0.00    -0.507 OA
ATOM     11  H   UNL     1      -6.440  -7.692   6.992  1.00  0.00     0.293 HD
ENDBRANCH   2  10
TORSDOF 2
ENDMDL
MODEL 6
REMARK VINA RESULT:    -4.563      1.738      3.379
REMARK INTER + INTRA:          -5.177
REMARK INTER:                  -5.010
REMARK INTRA:                  -0.167
REMARK UNBOUND:                -0.214
REMARK SMILES O=C([O-])c1ccccc1O
REMARK SMILES IDX 4 1 9 2 5 3 8 4 6 5 7 6 2 7 1 8 3 9 10 10
REMARK H PARENT 10 11
REMARK Flexibility Score: inf
ROOT
ATOM      1  C   UNL     1      -8.901  -4.868   5.507  1.00  0.00     0.039 A 
ATOM      2  C   UNL     1      -7.816  -5.291   6.313  1.00  0.00     0.124 A 
ATOM      3  C   UNL     1      -9.400  -5.746   4.525  1.00  0.00     0.014 A 
ATOM      4  C   UNL     1      -7.259  -6.566   6.123  1.00  0.00     0.047 A 
ATOM      5  C   UNL     1      -8.836  -7.011   4.347  1.00  0.00     0.001 A 
ATOM      6  C   UNL     1      -7.767  -7.420   5.144  1.00  0.00     0.004 A 
ENDROOT
BRANCH   1   7
ATOM      7  C   UNL     1      -9.526  -3.530   5.669  1.00  0.00     0.075 C 
ATOM      8  O   UNL     1      -9.327  -2.842   6.705  1.00  0.00    -0.545 OA
ATOM      9  O   UNL     1     -10.344  -3.014   4.671  1.00  0.00    -0.545 OA
ENDBRANCH   1   7
BRANCH   2  10
ATOM     10  O   UNL     1      -7.291  -4.455   7.298  1.00  0.00    -0.507 OA
ATOM     11  H   UNL     1      -6.310  -4.480   7.550  1.00  0.00     0.293 HD
ENDBRANCH   2  10
TORSDOF 2
ENDMDL
MODEL 7
REMARK VINA RESULT:    -4.525      2.157      4.011
REMARK INTER + INTRA:          -5.136
REMARK INTER:                  -4.923
REMARK INTRA:                  -0.213
REMARK UNBOUND:                -0.214
REMARK SMILES O=C([O-])c1ccccc1O
REMARK SMILES IDX 4 1 9 2 5 3 8 4 6 5 7 6 2 7 1 8 3 9 10 10
REMARK H PARENT 10 11
REMARK Flexibility Score: inf
ROOT
ATOM      1  C   UNL     1      -8.759  -4.570   5.643  1.00  0.00     0.039 A 
ATOM      2  C   UNL     1      -9.071  -5.729   4.890  1.00  0.00     0.124 A 
ATOM      3  C   UNL     1      -7.594  -4.569   6.434  1.00  0.00     0.014 A 
ATOM      4  C   UNL     1      -8.223  -6.846   4.944  1.00  0.00     0.047 A 
ATOM      5  C   UNL     1      -6.760  -5.688   6.478  1.00  0.00     0.001 A 
ATOM      6  C   UNL     1      -7.074  -6.825   5.734  1.00  0.00     0.004 A 
ENDROOT
BRANCH   1   7
ATOM      7  C   UNL     1      -9.622  -3.362   5.620  1.00  0.00     0.075 C 
ATOM      8  O   UNL     1      -9.623  -2.546   6.579  1.00  0.00    -0.545 OA
ATOM      9  O   UNL     1     -10.448  -3.111   4.529  1.00  0.00    -0.545 OA
ENDBRANCH   1   7
BRANCH   2  10
ATOM     10  O   UNL     1     -10.214  -5.775   4.092  1.00  0.00    -0.507 OA
ATOM     11  H   UNL     1     -11.008  -5.169   4.265  1.00  0.00     0.293 HD
ENDBRANCH   2  10
TORSDOF 2
ENDMDL
MODEL 8
REMARK VINA RESULT:    -4.461      2.616      3.875
REMARK INTER + INTRA:          -5.066
REMARK INTER:                  -4.833
REMARK INTRA:                  -0.234
REMARK UNBOUND:                -0.214
REMARK SMILES O=C([O-])c1ccccc1O
REMARK SMILES IDX 4 1 9 2 5 3 8 4 6 5 7 6 2 7 1 8 3 9 10 10
REMARK H PARENT 10 11
REMARK Flexibility Score: inf
ROOT
ATOM      1  C   UNL     1      -7.252  -5.731   7.660  1.00  0.00     0.039 A 
ATOM      2  C   UNL     1      -8.194  -4.685   7.814  1.00  0.00     0.124 A 
ATOM      3  C   UNL     1      -6.980  -6.567   8.759  1.00  0.00     0.014 A 
ATOM      4  C   UNL     1      -8.838  -4.501   9.047  1.00  0.00     0.047 A 
ATOM      5  C   UNL     1      -7.628  -6.372   9.981  1.00  0.00     0.001 A 
ATOM      6  C   UNL     1      -8.555  -5.340  10.125  1.00  0.00     0.004 A 
ENDROOT
BRANCH   1   7
ATOM      7  C   UNL     1      -6.545  -5.969   6.375  1.00  0.00     0.075 C 
ATOM      8  O   UNL     1      -6.648  -7.068   5.770  1.00  0.00    -0.545 OA
ATOM      9  O   UNL     1      -5.753  -4.971   5.816  1.00  0.00    -0.545 OA
ENDBRANCH   1   7
BRANCH   2  10
ATOM     10  O   UNL     1      -8.494  -3.833   6.751  1.00  0.00    -0.507 OA
ATOM     11  H   UNL     1      -8.247  -2.850   6.771  1.00  0.00     0.293 HD
ENDBRANCH   2  10
TORSDOF 2
ENDMDL
MODEL 9
REMARK VINA RESULT:    -4.320      1.477      2.456
REMARK INTER + INTRA:          -4.913
REMARK INTER:                  -4.688
REMARK INTRA:                  -0.225
REMARK UNBOUND:                -0.214
REMARK SMILES O=C([O-])c1ccccc1O
REMARK SMILES IDX 4 1 9 2 5 3 8 4 6 5 7 6 2 7 1 8 3 9 10 10
REMARK H PARENT 10 11
REMARK Flexibility Score: inf
ROOT
ATOM      1  C   UNL     1      -8.120  -6.079   5.515  1.00  0.00     0.039 A 
ATOM      2  C   UNL     1      -9.150  -5.258   4.995  1.00  0.00     0.124 A 
ATOM      3  C   UNL     1      -7.764  -7.247   4.815  1.00  0.00     0.014 A 
ATOM      4  C   UNL     1      -9.794  -5.618   3.801  1.00  0.00     0.047 A 
ATOM      5  C   UNL     1      -8.413  -7.593   3.628  1.00  0.00     0.001 A 
ATOM      6  C   UNL     1      -9.427  -6.780   3.122  1.00  0.00     0.004 A 
ENDROOT
BRANCH   1   7
ATOM      7  C   UNL     1      -7.407  -5.741   6.774  1.00  0.00     0.075 C 
ATOM      8  O   UNL     1      -7.264  -4.544   7.139  1.00  0.00    -0.545 OA
ATOM      9  O   UNL     1      -6.884  -6.750   7.576  1.00  0.00    -0.545 OA
ENDBRANCH   1   7
BRANCH   2  10
ATOM     10  O   UNL     1      -9.535  -4.092   5.655  1.00  0.00    -0.507 OA
ATOM     11  H   UNL     1     -10.066  -3.366   5.187  1.00  0.00     0.293 HD
ENDBRANCH   2  10
TORSDOF 2
ENDMDL
