MODEL 1
REMARK VINA RESULT:    -1.016      0.000      0.000
REMARK INTER + INTRA:          -8.912
REMARK INTER:                  -2.561
REMARK INTRA:                  -6.351
REMARK UNBOUND:                -6.351
REMARK SMILES CCCCCCCCCCCCCCCCCCCCCCCCCCCC(=O)[O-]
REMARK SMILES IDX 15 1 16 2 17 3 18 4 19 5 20 6 21 7 22 8 23 9 24 10 25 11
REMARK SMILES IDX 26 12 27 13 28 14 29 15 30 16 14 17 13 18 12 19 11 20 10 21
REMARK SMILES IDX 9 22 8 23 7 24 6 25 5 26 4 27 3 28 2 29 1 30
REMARK H PARENT
REMARK Flexibility Score: inf
ROOT
ATOM      1  C   UNL     1     176.605 182.992 193.869  1.00  0.00     0.000 C 
ENDROOT
BRANCH   1   2
ATOM      2  C   UNL     1     176.081 182.447 195.219  1.00  0.00     0.000 C 
BRANCH   2   3
ATOM      3  C   UNL     1     177.216 182.099 196.198  1.00  0.00     0.000 C 
BRANCH   3   4
ATOM      4  C   UNL     1     177.171 180.632 196.665  1.00  0.00     0.000 C 
BRANCH   4   5
ATOM      5  C   UNL     1     176.576 179.647 195.641  1.00  0.00     0.000 C 
BRANCH   5   6
ATOM      6  C   UNL     1     177.361 178.324 195.561  1.00  0.00     0.000 C 
BRANCH   6   7
ATOM      7  C   UNL     1     176.450 177.095 195.717  1.00  0.00     0.000 C 
BRANCH   7   8
ATOM      8  C   UNL     1     175.366 177.267 196.808  1.00  0.00     0.000 C 
BRANCH   8   9
ATOM      9  C   UNL     1     173.957 176.878 196.332  1.00  0.00     0.000 C 
BRANCH   9  10
ATOM     10  C   UNL     1     173.058 178.101 196.098  1.00  0.00     0.000 C 
BRANCH  10  11
ATOM     11  C   UNL     1     173.152 179.084 197.271  1.00  0.00     0.000 C 
BRANCH  11  12
ATOM     12  C   UNL     1     173.161 180.538 196.774  1.00  0.00     0.006 C 
BRANCH  12  13
ATOM     13  C   UNL     1     172.929 180.635 195.260  1.00  0.00     0.053 C 
BRANCH  13  14
ATOM     14  C   UNL     1     172.367 181.967 194.865  1.00  0.00     0.041 C 
ATOM     15  O   UNL     1     172.368 182.926 195.681  1.00  0.00    -0.550 OA
ATOM     16  O   UNL     1     171.861 182.156 193.583  1.00  0.00    -0.550 OA
ENDBRANCH  13  14
ENDBRANCH  12  13
ENDBRANCH  11  12
ENDBRANCH  10  11
ENDBRANCH   9  10
ENDBRANCH   8   9
ENDBRANCH   7   8
ENDBRANCH   6   7
ENDBRANCH   5   6
ENDBRANCH   4   5
ENDBRANCH   3   4
ENDBRANCH   2   3
ENDBRANCH   1   2
BRANCH   1  17
ATOM     17  C   UNL     1     175.684 182.669 192.680  1.00  0.00     0.000 C 
BRANCH  17  18
ATOM     18  C   UNL     1     175.248 181.195 192.591  1.00  0.00     0.000 C 
BRANCH  18  19
ATOM     19  C   UNL     1     176.280 180.291 191.881  1.00  0.00     0.000 C 
BRANCH  19  20
ATOM     20  C   UNL     1     175.853 178.814 191.839  1.00  0.00     0.000 C 
BRANCH  20  21
ATOM     21  C   UNL     1     174.691 178.512 192.802  1.00  0.00     0.000 C 
BRANCH  21  22
ATOM     22  C   UNL     1     174.095 177.111 192.578  1.00  0.00    -0.000 C 
BRANCH  22  23
ATOM     23  C   UNL     1     172.678 177.161 191.983  1.00  0.00    -0.000 C 
BRANCH  23  24
ATOM     24  C   UNL     1     171.864 178.361 192.496  1.00  0.00    -0.000 C 
BRANCH  24  25
ATOM     25  C   UNL     1     171.312 179.230 191.351  1.00  0.00    -0.000 C 
BRANCH  25  26
ATOM     26  C   UNL     1     172.164 179.147 190.072  1.00  0.00    -0.000 C 
BRANCH  26  27
ATOM     27  C   UNL     1     172.914 180.466 189.786  1.00  0.00    -0.000 C 
BRANCH  27  28
ATOM     28  C   UNL     1     174.116 180.298 188.840  1.00  0.00    -0.000 C 
BRANCH  28  29
ATOM     29  C   UNL     1     174.891 181.604 188.627  1.00  0.00    -0.003 C 
ATOM     30  C   UNL     1     174.204 182.772 189.330  1.00  0.00     0.004 C 
ENDBRANCH  28  29
ENDBRANCH  27  28
ENDBRANCH  26  27
ENDBRANCH  25  26
ENDBRANCH  24  25
ENDBRANCH  23  24
ENDBRANCH  22  23
ENDBRANCH  21  22
ENDBRANCH  20  21
ENDBRANCH  19  20
ENDBRANCH  18  19
ENDBRANCH  17  18
ENDBRANCH   1  17
TORSDOF 26
ENDMDL
MODEL 2
REMARK VINA RESULT:    -0.961      2.956      4.903
REMARK INTER + INTRA:          -8.773
REMARK INTER:                  -3.030
REMARK INTRA:                  -5.743
REMARK UNBOUND:                -6.351
REMARK SMILES CCCCCCCCCCCCCCCCCCCCCCCCCCCC(=O)[O-]
REMARK SMILES IDX 15 1 16 2 17 3 18 4 19 5 20 6 21 7 22 8 23 9 24 10 25 11
REMARK SMILES IDX 26 12 27 13 28 14 29 15 30 16 14 17 13 18 12 19 11 20 10 21
REMARK SMILES IDX 9 22 8 23 7 24 6 25 5 26 4 27 3 28 2 29 1 30
REMARK H PARENT
REMARK Flexibility Score: inf
ROOT
ATOM      1  C   UNL     1     173.991 181.171 196.670  1.00  0.00     0.000 C 
ENDROOT
BRANCH   1   2
ATOM      2  C   UNL     1     173.357 181.971 197.833  1.00  0.00     0.000 C 
BRANCH   2   3
ATOM      3  C   UNL     1     174.086 181.750 199.170  1.00  0.00     0.000 C 
BRANCH   3   4
ATOM      4  C   UNL     1     173.234 180.977 200.194  1.00  0.00     0.000 C 
BRANCH   4   5
ATOM      5  C   UNL     1     171.853 180.530 199.678  1.00  0.00     0.000 C 
BRANCH   5   6
ATOM      6  C   UNL     1     171.262 179.363 200.490  1.00  0.00     0.000 C 
BRANCH   6   7
ATOM      7  C   UNL     1     172.177 178.127 200.485  1.00  0.00     0.000 C 
BRANCH   7   8
ATOM      8  C   UNL     1     172.536 177.632 199.063  1.00  0.00     0.000 C 
BRANCH   8   9
ATOM      9  C   UNL     1     173.949 177.035 198.966  1.00  0.00     0.000 C 
BRANCH   9  10
ATOM     10  C   UNL     1     174.825 177.399 200.174  1.00  0.00     0.000 C 
BRANCH  10  11
ATOM     11  C   UNL     1     175.855 178.473 199.801  1.00  0.00     0.000 C 
BRANCH  11  12
ATOM     12  C   UNL     1     176.320 178.309 198.345  1.00  0.00     0.006 C 
BRANCH  12  13
ATOM     13  C   UNL     1     177.101 179.532 197.844  1.00  0.00     0.053 C 
BRANCH  13  14
ATOM     14  C   UNL     1     178.563 179.239 197.695  1.00  0.00     0.041 C 
ATOM     15  O   UNL     1     179.158 178.523 198.543  1.00  0.00    -0.550 OA
ATOM     16  O   UNL     1     179.266 179.741 196.605  1.00  0.00    -0.550 OA
ENDBRANCH  13  14
ENDBRANCH  12  13
ENDBRANCH  11  12
ENDBRANCH  10  11
ENDBRANCH   9  10
ENDBRANCH   8   9
ENDBRANCH   7   8
ENDBRANCH   6   7
ENDBRANCH   5   6
ENDBRANCH   4   5
ENDBRANCH   3   4
ENDBRANCH   2   3
ENDBRANCH   1   2
BRANCH   1  17
ATOM     17  C   UNL     1     173.129 179.985 196.202  1.00  0.00     0.000 C 
BRANCH  17  18
ATOM     18  C   UNL     1     173.928 178.800 195.630  1.00  0.00     0.000 C 
BRANCH  18  19
ATOM     19  C   UNL     1     173.154 177.993 194.565  1.00  0.00     0.000 C 
BRANCH  19  20
ATOM     20  C   UNL     1     173.987 177.715 193.303  1.00  0.00     0.000 C 
BRANCH  20  21
ATOM     21  C   UNL     1     173.192 177.963 192.009  1.00  0.00     0.000 C 
BRANCH  21  22
ATOM     22  C   UNL     1     171.747 178.416 192.287  1.00  0.00    -0.000 C 
BRANCH  22  23
ATOM     23  C   UNL     1     171.315 179.590 191.393  1.00  0.00    -0.000 C 
BRANCH  23  24
ATOM     24  C   UNL     1     170.875 180.821 192.203  1.00  0.00    -0.000 C 
BRANCH  24  25
ATOM     25  C   UNL     1     172.003 181.374 193.090  1.00  0.00    -0.000 C 
BRANCH  25  26
ATOM     26  C   UNL     1     173.259 181.764 192.290  1.00  0.00    -0.000 C 
BRANCH  26  27
ATOM     27  C   UNL     1     174.559 181.309 192.987  1.00  0.00    -0.000 C 
BRANCH  27  28
ATOM     28  C   UNL     1     175.651 180.844 192.009  1.00  0.00    -0.000 C 
BRANCH  28  29
ATOM     29  C   UNL     1     176.826 180.155 192.716  1.00  0.00    -0.003 C 
ATOM     30  C   UNL     1     176.876 180.531 194.194  1.00  0.00     0.004 C 
ENDBRANCH  28  29
ENDBRANCH  27  28
ENDBRANCH  26  27
ENDBRANCH  25  26
ENDBRANCH  24  25
ENDBRANCH  23  24
ENDBRANCH  22  23
ENDBRANCH  21  22
ENDBRANCH  20  21
ENDBRANCH  19  20
ENDBRANCH  18  19
ENDBRANCH  17  18
ENDBRANCH   1  17
TORSDOF 26
ENDMDL
MODEL 3
REMARK VINA RESULT:    -0.946      2.617      7.131
REMARK INTER + INTRA:          -8.736
REMARK INTER:                  -2.829
REMARK INTRA:                  -5.907
REMARK UNBOUND:                -6.351
REMARK SMILES CCCCCCCCCCCCCCCCCCCCCCCCCCCC(=O)[O-]
REMARK SMILES IDX 15 1 16 2 17 3 18 4 19 5 20 6 21 7 22 8 23 9 24 10 25 11
REMARK SMILES IDX 26 12 27 13 28 14 29 15 30 16 14 17 13 18 12 19 11 20 10 21
REMARK SMILES IDX 9 22 8 23 7 24 6 25 5 26 4 27 3 28 2 29 1 30
REMARK H PARENT
REMARK Flexibility Score: inf
ROOT
ATOM      1  C   UNL     1     174.312 177.846 195.595  1.00  0.00     0.000 C 
ENDROOT
BRANCH   1   2
ATOM      2  C   UNL     1     172.872 177.985 195.048  1.00  0.00     0.000 C 
BRANCH   2   3
ATOM      3  C   UNL     1     172.588 177.029 193.878  1.00  0.00     0.000 C 
BRANCH   3   4
ATOM      4  C   UNL     1     172.775 177.697 192.502  1.00  0.00     0.000 C 
BRANCH   4   5
ATOM      5  C   UNL     1     171.567 178.521 192.017  1.00  0.00     0.000 C 
BRANCH   5   6
ATOM      6  C   UNL     1     171.940 179.974 191.665  1.00  0.00     0.000 C 
BRANCH   6   7
ATOM      7  C   UNL     1     171.016 180.994 192.350  1.00  0.00     0.000 C 
BRANCH   7   8
ATOM      8  C   UNL     1     171.671 181.705 193.558  1.00  0.00     0.000 C 
BRANCH   8   9
ATOM      9  C   UNL     1     173.138 181.301 193.778  1.00  0.00     0.000 C 
BRANCH   9  10
ATOM     10  C   UNL     1     174.115 182.445 193.468  1.00  0.00     0.000 C 
BRANCH  10  11
ATOM     11  C   UNL     1     175.485 181.896 193.048  1.00  0.00     0.000 C 
BRANCH  11  12
ATOM     12  C   UNL     1     175.403 180.398 192.721  1.00  0.00     0.006 C 
BRANCH  12  13
ATOM     13  C   UNL     1     176.602 179.615 193.274  1.00  0.00     0.053 C 
BRANCH  13  14
ATOM     14  C   UNL     1     177.830 179.808 192.438  1.00  0.00     0.041 C 
ATOM     15  O   UNL     1     177.739 179.901 191.185  1.00  0.00    -0.550 OA
ATOM     16  O   UNL     1     179.077 179.908 193.045  1.00  0.00    -0.550 OA
ENDBRANCH  13  14
ENDBRANCH  12  13
ENDBRANCH  11  12
ENDBRANCH  10  11
ENDBRANCH   9  10
ENDBRANCH   8   9
ENDBRANCH   7   8
ENDBRANCH   6   7
ENDBRANCH   5   6
ENDBRANCH   4   5
ENDBRANCH   3   4
ENDBRANCH   2   3
ENDBRANCH   1   2
BRANCH   1  17
ATOM     17  C   UNL     1     174.367 177.422 197.074  1.00  0.00     0.000 C 
BRANCH  17  18
ATOM     18  C   UNL     1     172.998 177.096 197.697  1.00  0.00     0.000 C 
BRANCH  18  19
ATOM     19  C   UNL     1     172.734 177.843 199.023  1.00  0.00     0.000 C 
BRANCH  19  20
ATOM     20  C   UNL     1     173.479 179.185 199.113  1.00  0.00     0.000 C 
BRANCH  20  21
ATOM     21  C   UNL     1     172.601 180.374 198.687  1.00  0.00     0.000 C 
BRANCH  21  22
ATOM     22  C   UNL     1     173.021 180.952 197.323  1.00  0.00    -0.000 C 
BRANCH  22  23
ATOM     23  C   UNL     1     173.636 182.356 197.442  1.00  0.00    -0.000 C 
BRANCH  23  24
ATOM     24  C   UNL     1     175.141 182.371 197.125  1.00  0.00    -0.000 C 
BRANCH  24  25
ATOM     25  C   UNL     1     175.647 181.012 196.611  1.00  0.00    -0.000 C 
BRANCH  25  26
ATOM     26  C   UNL     1     176.698 180.375 197.536  1.00  0.00    -0.000 C 
BRANCH  26  27
ATOM     27  C   UNL     1     177.737 179.546 196.752  1.00  0.00    -0.000 C 
BRANCH  27  28
ATOM     28  C   UNL     1     178.335 178.382 197.562  1.00  0.00    -0.000 C 
BRANCH  28  29
ATOM     29  C   UNL     1     177.987 177.009 196.973  1.00  0.00    -0.003 C 
ATOM     30  C   UNL     1     178.109 177.015 195.452  1.00  0.00     0.004 C 
ENDBRANCH  28  29
ENDBRANCH  27  28
ENDBRANCH  26  27
ENDBRANCH  25  26
ENDBRANCH  24  25
ENDBRANCH  23  24
ENDBRANCH  22  23
ENDBRANCH  21  22
ENDBRANCH  20  21
ENDBRANCH  19  20
ENDBRANCH  18  19
ENDBRANCH  17  18
ENDBRANCH   1  17
TORSDOF 26
ENDMDL
MODEL 4
REMARK VINA RESULT:    -0.916      2.413      5.969
REMARK INTER + INTRA:          -8.659
REMARK INTER:                  -2.308
REMARK INTRA:                  -6.351
REMARK UNBOUND:                -6.351
REMARK SMILES CCCCCCCCCCCCCCCCCCCCCCCCCCCC(=O)[O-]
REMARK SMILES IDX 15 1 16 2 17 3 18 4 19 5 20 6 21 7 22 8 23 9 24 10 25 11
REMARK SMILES IDX 26 12 27 13 28 14 29 15 30 16 14 17 13 18 12 19 11 20 10 21
REMARK SMILES IDX 9 22 8 23 7 24 6 25 5 26 4 27 3 28 2 29 1 30
REMARK H PARENT
REMARK Flexibility Score: inf
ROOT
ATOM      1  C   UNL     1     173.556 177.335 194.421  1.00  0.00     0.000 C 
ENDROOT
BRANCH   1   2
ATOM      2  C   UNL     1     172.655 176.894 195.599  1.00  0.00     0.000 C 
BRANCH   2   3
ATOM      3  C   UNL     1     173.334 177.079 196.967  1.00  0.00     0.000 C 
BRANCH   3   4
ATOM      4  C   UNL     1     173.027 178.446 197.606  1.00  0.00     0.000 C 
BRANCH   4   5
ATOM      5  C   UNL     1     174.267 179.307 197.914  1.00  0.00     0.000 C 
BRANCH   5   6
ATOM      6  C   UNL     1     174.221 180.685 197.228  1.00  0.00     0.000 C 
BRANCH   6   7
ATOM      7  C   UNL     1     173.449 180.648 195.898  1.00  0.00     0.000 C 
BRANCH   7   8
ATOM      8  C   UNL     1     172.683 181.958 195.594  1.00  0.00     0.000 C 
BRANCH   8   9
ATOM      9  C   UNL     1     171.911 181.916 194.266  1.00  0.00     0.000 C 
BRANCH   9  10
ATOM     10  C   UNL     1     172.267 180.685 193.418  1.00  0.00     0.000 C 
BRANCH  10  11
ATOM     11  C   UNL     1     171.457 180.664 192.115  1.00  0.00     0.000 C 
BRANCH  11  12
ATOM     12  C   UNL     1     172.239 179.971 190.990  1.00  0.00     0.006 C 
BRANCH  12  13
ATOM     13  C   UNL     1     173.669 179.607 191.415  1.00  0.00     0.053 C 
BRANCH  13  14
ATOM     14  C   UNL     1     174.081 178.262 190.897  1.00  0.00     0.041 C 
ATOM     15  O   UNL     1     173.219 177.365 190.698  1.00  0.00    -0.550 OA
ATOM     16  O   UNL     1     175.417 178.006 190.613  1.00  0.00    -0.550 OA
ENDBRANCH  13  14
ENDBRANCH  12  13
ENDBRANCH  11  12
ENDBRANCH  10  11
ENDBRANCH   9  10
ENDBRANCH   8   9
ENDBRANCH   7   8
ENDBRANCH   6   7
ENDBRANCH   5   6
ENDBRANCH   4   5
ENDBRANCH   3   4
ENDBRANCH   2   3
ENDBRANCH   1   2
BRANCH   1  17
ATOM     17  C   UNL     1     175.057 177.334 194.766  1.00  0.00     0.000 C 
BRANCH  17  18
ATOM     18  C   UNL     1     175.838 178.543 194.222  1.00  0.00     0.000 C 
BRANCH  18  19
ATOM     19  C   UNL     1     176.986 179.000 195.149  1.00  0.00     0.000 C 
BRANCH  19  20
ATOM     20  C   UNL     1     178.159 179.634 194.381  1.00  0.00     0.000 C 
BRANCH  20  21
ATOM     21  C   UNL     1     177.832 179.861 192.895  1.00  0.00     0.000 C 
BRANCH  21  22
ATOM     22  C   UNL     1     177.927 181.345 192.495  1.00  0.00    -0.000 C 
BRANCH  22  23
ATOM     23  C   UNL     1     176.573 181.924 192.053  1.00  0.00    -0.000 C 
BRANCH  23  24
ATOM     24  C   UNL     1     175.609 182.139 193.232  1.00  0.00    -0.000 C 
BRANCH  24  25
ATOM     25  C   UNL     1     175.449 183.624 193.597  1.00  0.00    -0.000 C 
BRANCH  25  26
ATOM     26  C   UNL     1     175.846 183.930 195.053  1.00  0.00    -0.000 C 
BRANCH  26  27
ATOM     27  C   UNL     1     176.675 182.790 195.681  1.00  0.00    -0.000 C 
BRANCH  27  28
ATOM     28  C   UNL     1     178.171 183.123 195.820  1.00  0.00    -0.000 C 
BRANCH  28  29
ATOM     29  C   UNL     1     178.856 182.323 196.936  1.00  0.00    -0.003 C 
ATOM     30  C   UNL     1     177.835 181.549 197.764  1.00  0.00     0.004 C 
ENDBRANCH  28  29
ENDBRANCH  27  28
ENDBRANCH  26  27
ENDBRANCH  25  26
ENDBRANCH  24  25
ENDBRANCH  23  24
ENDBRANCH  22  23
ENDBRANCH  21  22
ENDBRANCH  20  21
ENDBRANCH  19  20
ENDBRANCH  18  19
ENDBRANCH  17  18
ENDBRANCH   1  17
TORSDOF 26
ENDMDL
MODEL 5
REMARK VINA RESULT:    -0.899      2.410      6.563
REMARK INTER + INTRA:          -8.617
REMARK INTER:                  -2.764
REMARK INTRA:                  -5.854
REMARK UNBOUND:                -6.351
REMARK SMILES CCCCCCCCCCCCCCCCCCCCCCCCCCCC(=O)[O-]
REMARK SMILES IDX 15 1 16 2 17 3 18 4 19 5 20 6 21 7 22 8 23 9 24 10 25 11
REMARK SMILES IDX 26 12 27 13 28 14 29 15 30 16 14 17 13 18 12 19 11 20 10 21
REMARK SMILES IDX 9 22 8 23 7 24 6 25 5 26 4 27 3 28 2 29 1 30
REMARK H PARENT
REMARK Flexibility Score: inf
ROOT
ATOM      1  C   UNL     1     174.931 179.290 192.564  1.00  0.00     0.000 C 
ENDROOT
BRANCH   1   2
ATOM      2  C   UNL     1     175.584 178.658 191.312  1.00  0.00     0.000 C 
BRANCH   2   3
ATOM      3  C   UNL     1     174.548 178.088 190.328  1.00  0.00     0.000 C 
BRANCH   3   4
ATOM      4  C   UNL     1     173.357 177.417 191.038  1.00  0.00     0.000 C 
BRANCH   4   5
ATOM      5  C   UNL     1     171.974 177.957 190.628  1.00  0.00     0.000 C 
BRANCH   5   6
ATOM      6  C   UNL     1     171.315 178.806 191.731  1.00  0.00     0.000 C 
BRANCH   6   7
ATOM      7  C   UNL     1     171.019 180.241 191.263  1.00  0.00     0.000 C 
BRANCH   7   8
ATOM      8  C   UNL     1     171.968 180.733 190.145  1.00  0.00     0.000 C 
BRANCH   8   9
ATOM      9  C   UNL     1     172.722 182.021 190.512  1.00  0.00     0.000 C 
BRANCH   9  10
ATOM     10  C   UNL     1     174.196 181.984 190.081  1.00  0.00     0.000 C 
BRANCH  10  11
ATOM     11  C   UNL     1     175.059 182.852 191.004  1.00  0.00     0.000 C 
BRANCH  11  12
ATOM     12  C   UNL     1     176.487 182.295 191.109  1.00  0.00     0.006 C 
BRANCH  12  13
ATOM     13  C   UNL     1     177.046 182.395 192.535  1.00  0.00     0.053 C 
BRANCH  13  14
ATOM     14  C   UNL     1     178.394 181.752 192.654  1.00  0.00     0.041 C 
ATOM     15  O   UNL     1     179.431 182.459 192.757  1.00  0.00    -0.550 OA
ATOM     16  O   UNL     1     178.504 180.365 192.673  1.00  0.00    -0.550 OA
ENDBRANCH  13  14
ENDBRANCH  12  13
ENDBRANCH  11  12
ENDBRANCH  10  11
ENDBRANCH   9  10
ENDBRANCH   8   9
ENDBRANCH   7   8
ENDBRANCH   6   7
ENDBRANCH   5   6
ENDBRANCH   4   5
ENDBRANCH   3   4
ENDBRANCH   2   3
ENDBRANCH   1   2
BRANCH   1  17
ATOM     17  C   UNL     1     175.570 178.828 193.886  1.00  0.00     0.000 C 
BRANCH  17  18
ATOM     18  C   UNL     1     174.596 178.759 195.076  1.00  0.00     0.000 C 
BRANCH  18  19
ATOM     19  C   UNL     1     173.189 178.253 194.689  1.00  0.00     0.000 C 
BRANCH  19  20
ATOM     20  C   UNL     1     172.668 177.155 195.632  1.00  0.00     0.000 C 
BRANCH  20  21
ATOM     21  C   UNL     1     173.632 176.875 196.797  1.00  0.00     0.000 C 
BRANCH  21  22
ATOM     22  C   UNL     1     173.030 177.258 198.161  1.00  0.00    -0.000 C 
BRANCH  22  23
ATOM     23  C   UNL     1     173.592 178.583 198.703  1.00  0.00    -0.000 C 
BRANCH  23  24
ATOM     24  C   UNL     1     172.571 179.731 198.632  1.00  0.00    -0.000 C 
BRANCH  24  25
ATOM     25  C   UNL     1     173.062 180.901 197.763  1.00  0.00    -0.000 C 
BRANCH  25  26
ATOM     26  C   UNL     1     174.591 181.076 197.800  1.00  0.00    -0.000 C 
BRANCH  26  27
ATOM     27  C   UNL     1     175.099 181.998 196.672  1.00  0.00    -0.000 C 
BRANCH  27  28
ATOM     28  C   UNL     1     173.974 182.749 195.938  1.00  0.00    -0.000 C 
BRANCH  28  29
ATOM     29  C   UNL     1     173.819 182.307 194.477  1.00  0.00    -0.003 C 
ATOM     30  C   UNL     1     172.402 181.814 194.199  1.00  0.00     0.004 C 
ENDBRANCH  28  29
ENDBRANCH  27  28
ENDBRANCH  26  27
ENDBRANCH  25  26
ENDBRANCH  24  25
ENDBRANCH  23  24
ENDBRANCH  22  23
ENDBRANCH  21  22
ENDBRANCH  20  21
ENDBRANCH  19  20
ENDBRANCH  18  19
ENDBRANCH  17  18
ENDBRANCH   1  17
TORSDOF 26
ENDMDL
MODEL 6
REMARK VINA RESULT:    -0.890      2.105      3.699
REMARK INTER + INTRA:          -8.594
REMARK INTER:                  -3.145
REMARK INTRA:                  -5.448
REMARK UNBOUND:                -6.351
REMARK SMILES CCCCCCCCCCCCCCCCCCCCCCCCCCCC(=O)[O-]
REMARK SMILES IDX 15 1 16 2 17 3 18 4 19 5 20 6 21 7 22 8 23 9 24 10 25 11
REMARK SMILES IDX 26 12 27 13 28 14 29 15 30 16 14 17 13 18 12 19 11 20 10 21
REMARK SMILES IDX 9 22 8 23 7 24 6 25 5 26 4 27 3 28 2 29 1 30
REMARK H PARENT
REMARK Flexibility Score: inf
ROOT
ATOM      1  C   UNL     1     176.598 181.244 196.707  1.00  0.00     0.000 C 
ENDROOT
BRANCH   1   2
ATOM      2  C   UNL     1     177.018 180.899 198.156  1.00  0.00     0.000 C 
BRANCH   2   3
ATOM      3  C   UNL     1     176.135 179.808 198.785  1.00  0.00     0.000 C 
BRANCH   3   4
ATOM      4  C   UNL     1     176.933 178.556 199.194  1.00  0.00     0.000 C 
BRANCH   4   5
ATOM      5  C   UNL     1     176.165 177.566 200.090  1.00  0.00     0.000 C 
BRANCH   5   6
ATOM      6  C   UNL     1     174.747 178.054 200.439  1.00  0.00     0.000 C 
BRANCH   6   7
ATOM      7  C   UNL     1     173.661 177.071 199.972  1.00  0.00     0.000 C 
BRANCH   7   8
ATOM      8  C   UNL     1     172.317 177.755 199.628  1.00  0.00     0.000 C 
BRANCH   8   9
ATOM      9  C   UNL     1     172.026 178.994 200.490  1.00  0.00     0.000 C 
BRANCH   9  10
ATOM     10  C   UNL     1     171.539 180.189 199.658  1.00  0.00     0.000 C 
BRANCH  10  11
ATOM     11  C   UNL     1     172.416 180.385 198.414  1.00  0.00     0.000 C 
BRANCH  11  12
ATOM     12  C   UNL     1     173.082 181.770 198.422  1.00  0.00     0.006 C 
BRANCH  12  13
ATOM     13  C   UNL     1     173.174 182.378 197.016  1.00  0.00     0.053 C 
BRANCH  13  14
ATOM     14  C   UNL     1     172.113 183.410 196.783  1.00  0.00     0.041 C 
ATOM     15  O   UNL     1     171.989 184.385 197.570  1.00  0.00    -0.550 OA
ATOM     16  O   UNL     1     171.271 183.305 195.681  1.00  0.00    -0.550 OA
ENDBRANCH  13  14
ENDBRANCH  12  13
ENDBRANCH  11  12
ENDBRANCH  10  11
ENDBRANCH   9  10
ENDBRANCH   8   9
ENDBRANCH   7   8
ENDBRANCH   6   7
ENDBRANCH   5   6
ENDBRANCH   4   5
ENDBRANCH   3   4
ENDBRANCH   2   3
ENDBRANCH   1   2
BRANCH   1  17
ATOM     17  C   UNL     1     176.931 180.134 195.693  1.00  0.00     0.000 C 
BRANCH  17  18
ATOM     18  C   UNL     1     175.706 179.373 195.154  1.00  0.00     0.000 C 
BRANCH  18  19
ATOM     19  C   UNL     1     175.668 177.890 195.582  1.00  0.00     0.000 C 
BRANCH  19  20
ATOM     20  C   UNL     1     174.437 177.546 196.438  1.00  0.00     0.000 C 
BRANCH  20  21
ATOM     21  C   UNL     1     173.122 178.015 195.792  1.00  0.00     0.000 C 
BRANCH  21  22
ATOM     22  C   UNL     1     172.391 176.876 195.060  1.00  0.00    -0.000 C 
BRANCH  22  23
ATOM     23  C   UNL     1     172.125 177.200 193.580  1.00  0.00    -0.000 C 
BRANCH  23  24
ATOM     24  C   UNL     1     172.994 178.359 193.064  1.00  0.00    -0.000 C 
BRANCH  24  25
ATOM     25  C   UNL     1     172.164 179.608 192.720  1.00  0.00    -0.000 C 
BRANCH  25  26
ATOM     26  C   UNL     1     172.584 180.848 193.529  1.00  0.00    -0.000 C 
BRANCH  26  27
ATOM     27  C   UNL     1     173.337 181.880 192.663  1.00  0.00    -0.000 C 
BRANCH  27  28
ATOM     28  C   UNL     1     174.199 182.857 193.480  1.00  0.00    -0.000 C 
BRANCH  28  29
ATOM     29  C   UNL     1     175.703 182.613 193.302  1.00  0.00    -0.003 C 
ATOM     30  C   UNL     1     175.976 181.716 192.098  1.00  0.00     0.004 C 
ENDBRANCH  28  29
ENDBRANCH  27  28
ENDBRANCH  26  27
ENDBRANCH  25  26
ENDBRANCH  24  25
ENDBRANCH  23  24
ENDBRANCH  22  23
ENDBRANCH  21  22
ENDBRANCH  20  21
ENDBRANCH  19  20
ENDBRANCH  18  19
ENDBRANCH  17  18
ENDBRANCH   1  17
TORSDOF 26
ENDMDL
MODEL 7
REMARK VINA RESULT:    -0.882      2.787      7.018
REMARK INTER + INTRA:          -8.575
REMARK INTER:                  -3.561
REMARK INTRA:                  -5.013
REMARK UNBOUND:                -6.351
REMARK SMILES CCCCCCCCCCCCCCCCCCCCCCCCCCCC(=O)[O-]
REMARK SMILES IDX 15 1 16 2 17 3 18 4 19 5 20 6 21 7 22 8 23 9 24 10 25 11
REMARK SMILES IDX 26 12 27 13 28 14 29 15 30 16 14 17 13 18 12 19 11 20 10 21
REMARK SMILES IDX 9 22 8 23 7 24 6 25 5 26 4 27 3 28 2 29 1 30
REMARK H PARENT
REMARK Flexibility Score: inf
ROOT
ATOM      1  C   UNL     1     175.047 181.576 196.039  1.00  0.00     0.000 C 
ENDROOT
BRANCH   1   2
ATOM      2  C   UNL     1     174.231 181.251 194.765  1.00  0.00     0.000 C 
BRANCH   2   3
ATOM      3  C   UNL     1     172.715 181.401 194.978  1.00  0.00     0.000 C 
BRANCH   3   4
ATOM      4  C   UNL     1     172.149 182.689 194.352  1.00  0.00     0.000 C 
BRANCH   4   5
ATOM      5  C   UNL     1     170.976 182.471 193.377  1.00  0.00     0.000 C 
BRANCH   5   6
ATOM      6  C   UNL     1     171.325 182.857 191.928  1.00  0.00     0.000 C 
BRANCH   6   7
ATOM      7  C   UNL     1     171.378 181.635 190.996  1.00  0.00     0.000 C 
BRANCH   7   8
ATOM      8  C   UNL     1     170.875 180.331 191.661  1.00  0.00     0.000 C 
BRANCH   8   9
ATOM      9  C   UNL     1     171.974 179.269 191.822  1.00  0.00     0.000 C 
BRANCH   9  10
ATOM     10  C   UNL     1     173.243 179.609 191.027  1.00  0.00     0.000 C 
BRANCH  10  11
ATOM     11  C   UNL     1     173.829 178.355 190.365  1.00  0.00     0.000 C 
BRANCH  11  12
ATOM     12  C   UNL     1     172.759 177.609 189.554  1.00  0.00     0.006 C 
BRANCH  12  13
ATOM     13  C   UNL     1     172.907 177.843 188.044  1.00  0.00     0.053 C 
BRANCH  13  14
ATOM     14  C   UNL     1     171.770 178.648 187.489  1.00  0.00     0.041 C 
ATOM     15  O   UNL     1     171.074 179.373 188.248  1.00  0.00    -0.550 OA
ATOM     16  O   UNL     1     171.493 178.613 186.127  1.00  0.00    -0.550 OA
ENDBRANCH  13  14
ENDBRANCH  12  13
ENDBRANCH  11  12
ENDBRANCH  10  11
ENDBRANCH   9  10
ENDBRANCH   8   9
ENDBRANCH   7   8
ENDBRANCH   6   7
ENDBRANCH   5   6
ENDBRANCH   4   5
ENDBRANCH   3   4
ENDBRANCH   2   3
ENDBRANCH   1   2
BRANCH   1  17
ATOM     17  C   UNL     1     175.272 180.355 196.949  1.00  0.00     0.000 C 
BRANCH  17  18
ATOM     18  C   UNL     1     175.099 180.638 198.453  1.00  0.00     0.000 C 
BRANCH  18  19
ATOM     19  C   UNL     1     173.767 181.341 198.796  1.00  0.00     0.000 C 
BRANCH  19  20
ATOM     20  C   UNL     1     172.542 180.433 198.594  1.00  0.00     0.000 C 
BRANCH  20  21
ATOM     21  C   UNL     1     171.854 180.071 199.921  1.00  0.00     0.000 C 
BRANCH  21  22
ATOM     22  C   UNL     1     172.596 178.956 200.680  1.00  0.00    -0.000 C 
BRANCH  22  23
ATOM     23  C   UNL     1     172.666 177.644 199.881  1.00  0.00    -0.000 C 
BRANCH  23  24
ATOM     24  C   UNL     1     174.111 177.199 199.598  1.00  0.00    -0.000 C 
BRANCH  24  25
ATOM     25  C   UNL     1     174.358 176.923 198.105  1.00  0.00    -0.000 C 
BRANCH  25  26
ATOM     26  C   UNL     1     173.060 176.887 197.278  1.00  0.00    -0.000 C 
BRANCH  26  27
ATOM     27  C   UNL     1     173.126 177.819 196.050  1.00  0.00    -0.000 C 
BRANCH  27  28
ATOM     28  C   UNL     1     172.631 177.160 194.751  1.00  0.00    -0.000 C 
BRANCH  28  29
ATOM     29  C   UNL     1     173.767 176.875 193.759  1.00  0.00    -0.003 C 
ATOM     30  C   UNL     1     175.023 177.663 194.120  1.00  0.00     0.004 C 
ENDBRANCH  28  29
ENDBRANCH  27  28
ENDBRANCH  26  27
ENDBRANCH  25  26
ENDBRANCH  24  25
ENDBRANCH  23  24
ENDBRANCH  22  23
ENDBRANCH  21  22
ENDBRANCH  20  21
ENDBRANCH  19  20
ENDBRANCH  18  19
ENDBRANCH  17  18
ENDBRANCH   1  17
TORSDOF 26
ENDMDL
MODEL 8
REMARK VINA RESULT:    -0.880      2.004      5.068
REMARK INTER + INTRA:          -8.568
REMARK INTER:                  -1.851
REMARK INTRA:                  -6.717
REMARK UNBOUND:                -6.351
REMARK SMILES CCCCCCCCCCCCCCCCCCCCCCCCCCCC(=O)[O-]
REMARK SMILES IDX 15 1 16 2 17 3 18 4 19 5 20 6 21 7 22 8 23 9 24 10 25 11
REMARK SMILES IDX 26 12 27 13 28 14 29 15 30 16 14 17 13 18 12 19 11 20 10 21
REMARK SMILES IDX 9 22 8 23 7 24 6 25 5 26 4 27 3 28 2 29 1 30
REMARK H PARENT
REMARK Flexibility Score: inf
ROOT
ATOM      1  C   UNL     1     176.903 182.548 190.697  1.00  0.00     0.000 C 
ENDROOT
BRANCH   1   2
ATOM      2  C   UNL     1     178.283 181.859 190.587  1.00  0.00     0.000 C 
BRANCH   2   3
ATOM      3  C   UNL     1     178.512 181.207 189.213  1.00  0.00     0.000 C 
BRANCH   3   4
ATOM      4  C   UNL     1     178.672 179.677 189.298  1.00  0.00     0.000 C 
BRANCH   4   5
ATOM      5  C   UNL     1     177.595 178.874 188.544  1.00  0.00     0.000 C 
BRANCH   5   6
ATOM      6  C   UNL     1     176.692 178.056 189.487  1.00  0.00     0.000 C 
BRANCH   6   7
ATOM      7  C   UNL     1     177.184 178.096 190.943  1.00  0.00     0.000 C 
BRANCH   7   8
ATOM      8  C   UNL     1     176.152 178.701 191.925  1.00  0.00     0.000 C 
BRANCH   8   9
ATOM      9  C   UNL     1     176.790 179.582 193.011  1.00  0.00     0.000 C 
BRANCH   9  10
ATOM     10  C   UNL     1     175.793 180.579 193.620  1.00  0.00     0.000 C 
BRANCH  10  11
ATOM     11  C   UNL     1     174.440 180.511 192.900  1.00  0.00     0.000 C 
BRANCH  11  12
ATOM     12  C   UNL     1     173.417 181.449 193.558  1.00  0.00     0.006 C 
BRANCH  12  13
ATOM     13  C   UNL     1     172.042 181.377 192.879  1.00  0.00     0.053 C 
BRANCH  13  14
ATOM     14  C   UNL     1     171.951 182.298 191.701  1.00  0.00     0.041 C 
ATOM     15  O   UNL     1     171.179 182.031 190.742  1.00  0.00    -0.550 OA
ATOM     16  O   UNL     1     172.705 183.466 191.671  1.00  0.00    -0.550 OA
ENDBRANCH  13  14
ENDBRANCH  12  13
ENDBRANCH  11  12
ENDBRANCH  10  11
ENDBRANCH   9  10
ENDBRANCH   8   9
ENDBRANCH   7   8
ENDBRANCH   6   7
ENDBRANCH   5   6
ENDBRANCH   4   5
ENDBRANCH   3   4
ENDBRANCH   2   3
ENDBRANCH   1   2
BRANCH   1  17
ATOM     17  C   UNL     1     176.042 182.400 189.430  1.00  0.00     0.000 C 
BRANCH  17  18
ATOM     18  C   UNL     1     174.917 181.354 189.540  1.00  0.00     0.000 C 
BRANCH  18  19
ATOM     19  C   UNL     1     174.277 180.996 188.181  1.00  0.00     0.000 C 
BRANCH  19  20
ATOM     20  C   UNL     1     173.498 179.670 188.219  1.00  0.00     0.000 C 
BRANCH  20  21
ATOM     21  C   UNL     1     173.219 179.194 189.654  1.00  0.00     0.000 C 
BRANCH  21  22
ATOM     22  C   UNL     1     172.961 177.678 189.729  1.00  0.00    -0.000 C 
BRANCH  22  23
ATOM     23  C   UNL     1     173.024 177.139 191.168  1.00  0.00    -0.000 C 
BRANCH  23  24
ATOM     24  C   UNL     1     172.005 177.819 192.099  1.00  0.00    -0.000 C 
BRANCH  24  25
ATOM     25  C   UNL     1     172.139 177.351 193.558  1.00  0.00    -0.000 C 
BRANCH  25  26
ATOM     26  C   UNL     1     173.560 176.876 193.908  1.00  0.00    -0.000 C 
BRANCH  26  27
ATOM     27  C   UNL     1     174.147 177.637 195.116  1.00  0.00    -0.000 C 
BRANCH  27  28
ATOM     28  C   UNL     1     173.136 178.570 195.805  1.00  0.00    -0.000 C 
BRANCH  28  29
ATOM     29  C   UNL     1     173.650 179.118 197.143  1.00  0.00    -0.003 C 
ATOM     30  C   UNL     1     175.136 179.458 197.063  1.00  0.00     0.004 C 
ENDBRANCH  28  29
ENDBRANCH  27  28
ENDBRANCH  26  27
ENDBRANCH  25  26
ENDBRANCH  24  25
ENDBRANCH  23  24
ENDBRANCH  22  23
ENDBRANCH  21  22
ENDBRANCH  20  21
ENDBRANCH  19  20
ENDBRANCH  18  19
ENDBRANCH  17  18
ENDBRANCH   1  17
TORSDOF 26
ENDMDL
