MODEL 1
REMARK VINA RESULT:    -4.462      0.000      0.000
REMARK INTER + INTRA:          -5.136
REMARK INTER:                  -4.853
REMARK INTRA:                  -0.283
REMARK UNBOUND:                -0.283
REMARK SMILES C=C1C[C@]2(O)O[C@]3(C[C@H]2C(C)C)[C@H](C)CC[C@H]13
REMARK SMILES IDX 14 1 13 2 15 3 16 4 17 5 7 6 8 7 9 8 4 9 6 10 3 11 2 12 1 13
REMARK SMILES IDX 10 14 11 15 12 16 5 17
REMARK H PARENT 5 18
REMARK Flexibility Score: inf
ROOT
ATOM      1  C   UNL     1       4.697   3.121  -3.525  1.00  0.00     0.011 C 
ATOM      2  C   UNL     1       5.910   2.295  -3.981  1.00  0.00     0.019 C 
ATOM      3  C   UNL     1       6.905   3.125  -4.805  1.00  0.00     0.007 C 
ATOM      4  C   UNL     1       7.412   2.224  -5.935  1.00  0.00     0.011 C 
ATOM      5  C   UNL     1       6.838   0.833  -5.667  1.00  0.00     0.047 C 
ATOM      6  C   UNL     1       5.550   1.094  -4.868  1.00  0.00     0.081 C 
ATOM      7  C   UNL     1       5.093  -0.150  -4.097  1.00  0.00     0.046 C 
ATOM      8  C   UNL     1       4.100  -0.804  -5.058  1.00  0.00     0.054 C 
ATOM      9  C   UNL     1       4.107   0.167  -6.277  1.00  0.00     0.173 C 
ATOM     10  O   UNL     1       4.511   1.414  -5.771  1.00  0.00    -0.342 OA
ATOM     11  C   UNL     1       5.138  -0.258  -7.362  1.00  0.00     0.096 C 
ATOM     12  C   UNL     1       6.563   0.050  -6.941  1.00  0.00    -0.066 C 
ATOM     13  C   UNL     1       7.583  -0.366  -7.705  1.00  0.00     0.008 C 
ENDROOT
BRANCH   8  14
ATOM     14  C   UNL     1       2.694  -1.069  -4.424  1.00  0.00    -0.009 C 
ATOM     15  C   UNL     1       2.176   0.064  -3.515  1.00  0.00     0.008 C 
ATOM     16  C   UNL     1       2.672  -2.406  -3.667  1.00  0.00     0.008 C 
ENDBRANCH   8  14
BRANCH   9  17
ATOM     17  O   UNL     1       2.835   0.299  -6.864  1.00  0.00    -0.365 OA
ATOM     18  H   UNL     1       2.282  -0.462  -6.548  1.00  0.00     0.214 HD
ENDBRANCH   9  17
TORSDOF 2
ENDMDL
MODEL 2
REMARK VINA RESULT:    -4.247      1.606      4.485
REMARK INTER + INTRA:          -4.903
REMARK INTER:                  -4.634
REMARK INTRA:                  -0.269
REMARK UNBOUND:                -0.283
REMARK SMILES C=C1C[C@]2(O)O[C@]3(C[C@H]2C(C)C)[C@H](C)CC[C@H]13
REMARK SMILES IDX 14 1 13 2 15 3 16 4 17 5 7 6 8 7 9 8 4 9 6 10 3 11 2 12 1 13
REMARK SMILES IDX 10 14 11 15 12 16 5 17
REMARK H PARENT 5 18
REMARK Flexibility Score: inf
ROOT
ATOM      1  C   UNL     1       6.462  -0.272  -2.875  1.00  0.00     0.011 C 
ATOM      2  C   UNL     1       5.106   0.114  -3.484  1.00  0.00     0.019 C 
ATOM      3  C   UNL     1       4.060  -1.000  -3.333  1.00  0.00     0.007 C 
ATOM      4  C   UNL     1       3.252  -1.035  -4.634  1.00  0.00     0.011 C 
ATOM      5  C   UNL     1       3.721   0.159  -5.465  1.00  0.00     0.047 C 
ATOM      6  C   UNL     1       5.160   0.420  -4.988  1.00  0.00     0.081 C 
ATOM      7  C   UNL     1       5.628   1.839  -5.331  1.00  0.00     0.046 C 
ATOM      8  C   UNL     1       6.341   1.651  -6.670  1.00  0.00     0.054 C 
ATOM      9  C   UNL     1       6.197   0.121  -6.928  1.00  0.00     0.173 C 
ATOM     10  O   UNL     1       6.030  -0.467  -5.662  1.00  0.00    -0.342 OA
ATOM     11  C   UNL     1       4.936  -0.217  -7.775  1.00  0.00     0.096 C 
ATOM     12  C   UNL     1       3.660  -0.100  -6.962  1.00  0.00    -0.066 C 
ATOM     13  C   UNL     1       2.473  -0.234  -7.571  1.00  0.00     0.008 C 
ENDROOT
BRANCH   8  14
ATOM     14  C   UNL     1       7.809   2.194  -6.681  1.00  0.00    -0.009 C 
ATOM     15  C   UNL     1       8.245   2.890  -5.376  1.00  0.00     0.008 C 
ATOM     16  C   UNL     1       8.045   3.125  -7.881  1.00  0.00     0.008 C 
ENDBRANCH   8  14
BRANCH   9  17
ATOM     17  O   UNL     1       7.337  -0.429  -7.543  1.00  0.00    -0.365 OA
ATOM     18  H   UNL     1       7.043  -1.230  -8.049  1.00  0.00     0.214 HD
ENDBRANCH   9  17
TORSDOF 2
ENDMDL
MODEL 3
REMARK VINA RESULT:    -4.161      1.635      3.200
REMARK INTER + INTRA:          -4.809
REMARK INTER:                  -4.507
REMARK INTRA:                  -0.302
REMARK UNBOUND:                -0.283
REMARK SMILES C=C1C[C@]2(O)O[C@]3(C[C@H]2C(C)C)[C@H](C)CC[C@H]13
REMARK SMILES IDX 14 1 13 2 15 3 16 4 17 5 7 6 8 7 9 8 4 9 6 10 3 11 2 12 1 13
REMARK SMILES IDX 10 14 11 15 12 16 5 17
REMARK H PARENT 5 18
REMARK Flexibility Score: inf
ROOT
ATOM      1  C   UNL     1       4.856  -0.249  -7.748  1.00  0.00     0.011 C 
ATOM      2  C   UNL     1       5.494   0.934  -7.004  1.00  0.00     0.019 C 
ATOM      3  C   UNL     1       6.985   1.095  -7.335  1.00  0.00     0.007 C 
ATOM      4  C   UNL     1       7.694   1.477  -6.033  1.00  0.00     0.011 C 
ATOM      5  C   UNL     1       6.595   1.697  -4.993  1.00  0.00     0.047 C 
ATOM      6  C   UNL     1       5.427   0.820  -5.474  1.00  0.00     0.081 C 
ATOM      7  C   UNL     1       4.092   1.260  -4.863  1.00  0.00     0.046 C 
ATOM      8  C   UNL     1       3.966   0.364  -3.632  1.00  0.00     0.054 C 
ATOM      9  C   UNL     1       5.262  -0.497  -3.695  1.00  0.00     0.173 C 
ATOM     10  O   UNL     1       5.649  -0.508  -5.047  1.00  0.00    -0.342 OA
ATOM     11  C   UNL     1       6.428   0.131  -2.877  1.00  0.00     0.096 C 
ATOM     12  C   UNL     1       7.032   1.331  -3.583  1.00  0.00    -0.066 C 
ATOM     13  C   UNL     1       7.962   2.067  -2.958  1.00  0.00     0.008 C 
ENDROOT
BRANCH   8  14
ATOM     14  C   UNL     1       2.628  -0.447  -3.579  1.00  0.00    -0.009 C 
ATOM     15  C   UNL     1       2.140  -0.967  -4.946  1.00  0.00     0.008 C 
ATOM     16  C   UNL     1       1.517   0.363  -2.894  1.00  0.00     0.008 C 
ENDBRANCH   8  14
BRANCH   9  17
ATOM     17  O   UNL     1       5.049  -1.820  -3.267  1.00  0.00    -0.365 OA
ATOM     18  H   UNL     1       4.238  -1.820  -2.696  1.00  0.00     0.214 HD
ENDBRANCH   9  17
TORSDOF 2
ENDMDL
MODEL 4
REMARK VINA RESULT:    -3.794      1.605      4.574
REMARK INTER + INTRA:          -4.409
REMARK INTER:                  -4.093
REMARK INTRA:                  -0.317
REMARK UNBOUND:                -0.283
REMARK SMILES C=C1C[C@]2(O)O[C@]3(C[C@H]2C(C)C)[C@H](C)CC[C@H]13
REMARK SMILES IDX 14 1 13 2 15 3 16 4 17 5 7 6 8 7 9 8 4 9 6 10 3 11 2 12 1 13
REMARK SMILES IDX 10 14 11 15 12 16 5 17
REMARK H PARENT 5 18
REMARK Flexibility Score: inf
ROOT
ATOM      1  C   UNL     1       3.371   3.122  -3.531  1.00  0.00     0.011 C 
ATOM      2  C   UNL     1       2.478   1.948  -3.962  1.00  0.00     0.019 C 
ATOM      3  C   UNL     1       1.461   1.561  -2.878  1.00  0.00     0.007 C 
ATOM      4  C   UNL     1       1.370   0.033  -2.875  1.00  0.00     0.011 C 
ATOM      5  C   UNL     1       2.205  -0.451  -4.060  1.00  0.00     0.047 C 
ATOM      6  C   UNL     1       3.250   0.658  -4.275  1.00  0.00     0.081 C 
ATOM      7  C   UNL     1       3.857   0.607  -5.681  1.00  0.00     0.046 C 
ATOM      8  C   UNL     1       5.118  -0.234  -5.480  1.00  0.00     0.054 C 
ATOM      9  C   UNL     1       5.078  -0.560  -3.958  1.00  0.00     0.173 C 
ATOM     10  O   UNL     1       4.314   0.462  -3.367  1.00  0.00    -0.342 OA
ATOM     11  C   UNL     1       4.365  -1.911  -3.663  1.00  0.00     0.096 C 
ATOM     12  C   UNL     1       2.859  -1.802  -3.812  1.00  0.00    -0.066 C 
ATOM     13  C   UNL     1       2.103  -2.904  -3.718  1.00  0.00     0.008 C 
ENDROOT
BRANCH   8  14
ATOM     14  C   UNL     1       6.426   0.466  -5.979  1.00  0.00    -0.009 C 
ATOM     15  C   UNL     1       6.306   1.992  -6.164  1.00  0.00     0.008 C 
ATOM     16  C   UNL     1       6.941  -0.184  -7.273  1.00  0.00     0.008 C 
ENDBRANCH   8  14
BRANCH   9  17
ATOM     17  O   UNL     1       6.360  -0.569  -3.378  1.00  0.00    -0.365 OA
ATOM     18  H   UNL     1       6.975  -0.113  -4.009  1.00  0.00     0.214 HD
ENDBRANCH   9  17
TORSDOF 2
ENDMDL
MODEL 5
REMARK VINA RESULT:    -3.235      1.699      4.680
REMARK INTER + INTRA:          -3.801
REMARK INTER:                  -3.859
REMARK INTRA:                   0.058
REMARK UNBOUND:                -0.283
REMARK SMILES C=C1C[C@]2(O)O[C@]3(C[C@H]2C(C)C)[C@H](C)CC[C@H]13
REMARK SMILES IDX 14 1 13 2 15 3 16 4 17 5 7 6 8 7 9 8 4 9 6 10 3 11 2 12 1 13
REMARK SMILES IDX 10 14 11 15 12 16 5 17
REMARK H PARENT 5 18
REMARK Flexibility Score: inf
ROOT
ATOM      1  C   UNL     1       6.091   1.310  -7.542  1.00  0.00     0.011 C 
ATOM      2  C   UNL     1       5.391   0.153  -6.814  1.00  0.00     0.019 C 
ATOM      3  C   UNL     1       3.953  -0.063  -7.307  1.00  0.00     0.007 C 
ATOM      4  C   UNL     1       3.102  -0.393  -6.077  1.00  0.00     0.011 C 
ATOM      5  C   UNL     1       4.074  -0.530  -4.905  1.00  0.00     0.047 C 
ATOM      6  C   UNL     1       5.275   0.349  -5.295  1.00  0.00     0.081 C 
ATOM      7  C   UNL     1       6.537  -0.025  -4.508  1.00  0.00     0.046 C 
ATOM      8  C   UNL     1       6.499   0.939  -3.322  1.00  0.00     0.054 C 
ATOM      9  C   UNL     1       5.204   1.763  -3.585  1.00  0.00     0.173 C 
ATOM     10  O   UNL     1       4.980   1.693  -4.971  1.00  0.00    -0.342 OA
ATOM     11  C   UNL     1       3.962   1.150  -2.875  1.00  0.00     0.096 C 
ATOM     12  C   UNL     1       3.467  -0.101  -3.579  1.00  0.00    -0.066 C 
ATOM     13  C   UNL     1       2.483  -0.825  -3.027  1.00  0.00     0.008 C 
ENDROOT
BRANCH   8  14
ATOM     14  C   UNL     1       7.806   1.785  -3.159  1.00  0.00    -0.009 C 
ATOM     15  C   UNL     1       8.111   2.728  -4.340  1.00  0.00     0.008 C 
ATOM     16  C   UNL     1       9.017   0.882  -2.877  1.00  0.00     0.008 C 
ENDBRANCH   8  14
BRANCH   9  17
ATOM     17  O   UNL     1       5.340   3.112  -3.209  1.00  0.00    -0.365 OA
ATOM     18  H   UNL     1       5.771   3.129  -2.315  1.00  0.00     0.214 HD
ENDBRANCH   9  17
TORSDOF 2
ENDMDL
MODEL 6
REMARK VINA RESULT:    -3.186      1.463      4.162
REMARK INTER + INTRA:          -3.748
REMARK INTER:                  -4.354
REMARK INTRA:                   0.606
REMARK UNBOUND:                -0.283
REMARK SMILES C=C1C[C@]2(O)O[C@]3(C[C@H]2C(C)C)[C@H](C)CC[C@H]13
REMARK SMILES IDX 14 1 13 2 15 3 16 4 17 5 7 6 8 7 9 8 4 9 6 10 3 11 2 12 1 13
REMARK SMILES IDX 10 14 11 15 12 16 5 17
REMARK H PARENT 5 18
REMARK Flexibility Score: inf
ROOT
ATOM      1  C   UNL     1       3.018   0.679  -2.876  1.00  0.00     0.011 C 
ATOM      2  C   UNL     1       2.761   0.651  -4.390  1.00  0.00     0.019 C 
ATOM      3  C   UNL     1       2.162  -0.684  -4.856  1.00  0.00     0.007 C 
ATOM      4  C   UNL     1       2.816  -1.026  -6.197  1.00  0.00     0.011 C 
ATOM      5  C   UNL     1       3.666   0.185  -6.583  1.00  0.00     0.047 C 
ATOM      6  C   UNL     1       4.024   0.848  -5.242  1.00  0.00     0.081 C 
ATOM      7  C   UNL     1       4.446   2.311  -5.422  1.00  0.00     0.046 C 
ATOM      8  C   UNL     1       5.968   2.218  -5.529  1.00  0.00     0.054 C 
ATOM      9  C   UNL     1       6.233   0.690  -5.388  1.00  0.00     0.173 C 
ATOM     10  O   UNL     1       5.132   0.173  -4.682  1.00  0.00    -0.342 OA
ATOM     11  C   UNL     1       6.288  -0.028  -6.768  1.00  0.00     0.096 C 
ATOM     12  C   UNL     1       4.907  -0.190  -7.377  1.00  0.00    -0.066 C 
ATOM     13  C   UNL     1       4.786  -0.675  -8.620  1.00  0.00     0.008 C 
ENDROOT
BRANCH   8  14
ATOM     14  C   UNL     1       6.726   3.125  -4.503  1.00  0.00    -0.009 C 
ATOM     15  C   UNL     1       8.240   2.848  -4.399  1.00  0.00     0.008 C 
ATOM     16  C   UNL     1       6.078   3.047  -3.112  1.00  0.00     0.008 C 
ENDBRANCH   8  14
BRANCH   9  17
ATOM     17  O   UNL     1       7.411   0.414  -4.669  1.00  0.00    -0.365 OA
ATOM     18  H   UNL     1       8.148   0.915  -5.104  1.00  0.00     0.214 HD
ENDBRANCH   9  17
TORSDOF 2
ENDMDL
MODEL 7
REMARK VINA RESULT:    -3.037      1.975      5.067
REMARK INTER + INTRA:          -3.587
REMARK INTER:                  -3.869
REMARK INTRA:                   0.282
REMARK UNBOUND:                -0.283
REMARK SMILES C=C1C[C@]2(O)O[C@]3(C[C@H]2C(C)C)[C@H](C)CC[C@H]13
REMARK SMILES IDX 14 1 13 2 15 3 16 4 17 5 7 6 8 7 9 8 4 9 6 10 3 11 2 12 1 13
REMARK SMILES IDX 10 14 11 15 12 16 5 17
REMARK H PARENT 5 18
REMARK Flexibility Score: inf
ROOT
ATOM      1  C   UNL     1       5.098  -2.089  -4.314  1.00  0.00     0.011 C 
ATOM      2  C   UNL     1       4.357  -1.192  -3.310  1.00  0.00     0.019 C 
ATOM      3  C   UNL     1       2.834  -1.386  -3.367  1.00  0.00     0.007 C 
ATOM      4  C   UNL     1       2.200  -0.002  -3.205  1.00  0.00     0.011 C 
ATOM      5  C   UNL     1       3.344   0.962  -2.892  1.00  0.00     0.047 C 
ATOM      6  C   UNL     1       4.583   0.311  -3.529  1.00  0.00     0.081 C 
ATOM      7  C   UNL     1       5.886   0.851  -2.927  1.00  0.00     0.046 C 
ATOM      8  C   UNL     1       6.263   1.982  -3.883  1.00  0.00     0.054 C 
ATOM      9  C   UNL     1       5.115   1.944  -4.935  1.00  0.00     0.173 C 
ATOM     10  O   UNL     1       4.610   0.632  -4.904  1.00  0.00    -0.342 OA
ATOM     11  C   UNL     1       3.948   2.907  -4.568  1.00  0.00     0.096 C 
ATOM     12  C   UNL     1       3.102   2.363  -3.430  1.00  0.00    -0.066 C 
ATOM     13  C   UNL     1       2.132   3.125  -2.905  1.00  0.00     0.008 C 
ENDROOT
BRANCH   8  14
ATOM     14  C   UNL     1       7.709   1.853  -4.469  1.00  0.00    -0.009 C 
ATOM     15  C   UNL     1       8.791   1.492  -3.433  1.00  0.00     0.008 C 
ATOM     16  C   UNL     1       8.111   3.125  -5.232  1.00  0.00     0.008 C 
ENDBRANCH   8  14
BRANCH   9  17
ATOM     17  O   UNL     1       5.568   2.232  -6.235  1.00  0.00    -0.365 OA
ATOM     18  H   UNL     1       5.941   1.393  -6.612  1.00  0.00     0.214 HD
ENDBRANCH   9  17
TORSDOF 2
ENDMDL
MODEL 8
REMARK VINA RESULT:    -2.752      1.579      3.792
REMARK INTER + INTRA:          -3.276
REMARK INTER:                  -2.953
REMARK INTRA:                  -0.323
REMARK UNBOUND:                -0.283
REMARK SMILES C=C1C[C@]2(O)O[C@]3(C[C@H]2C(C)C)[C@H](C)CC[C@H]13
REMARK SMILES IDX 14 1 13 2 15 3 16 4 17 5 7 6 8 7 9 8 4 9 6 10 3 11 2 12 1 13
REMARK SMILES IDX 10 14 11 15 12 16 5 17
REMARK H PARENT 5 18
REMARK Flexibility Score: inf
ROOT
ATOM      1  C   UNL     1       8.324   1.586  -5.481  1.00  0.00     0.011 C 
ATOM      2  C   UNL     1       7.150   2.507  -5.118  1.00  0.00     0.019 C 
ATOM      3  C   UNL     1       7.298   3.118  -3.717  1.00  0.00     0.007 C 
ATOM      4  C   UNL     1       5.904   3.125  -3.083  1.00  0.00     0.011 C 
ATOM      5  C   UNL     1       4.932   2.675  -4.173  1.00  0.00     0.047 C 
ATOM      6  C   UNL     1       5.783   1.807  -5.115  1.00  0.00     0.081 C 
ATOM      7  C   UNL     1       5.139   1.663  -6.499  1.00  0.00     0.046 C 
ATOM      8  C   UNL     1       4.348   0.361  -6.376  1.00  0.00     0.054 C 
ATOM      9  C   UNL     1       4.647  -0.090  -4.915  1.00  0.00     0.173 C 
ATOM     10  O   UNL     1       5.875   0.504  -4.575  1.00  0.00    -0.342 OA
ATOM     11  C   UNL     1       3.578   0.427  -3.909  1.00  0.00     0.096 C 
ATOM     12  C   UNL     1       3.739   1.909  -3.623  1.00  0.00    -0.066 C 
ATOM     13  C   UNL     1       2.823   2.541  -2.875  1.00  0.00     0.008 C 
ENDROOT
BRANCH   8  14
ATOM     14  C   UNL     1       4.692  -0.690  -7.483  1.00  0.00    -0.009 C 
ATOM     15  C   UNL     1       6.099  -0.539  -8.095  1.00  0.00     0.008 C 
ATOM     16  C   UNL     1       3.630  -0.691  -8.593  1.00  0.00     0.008 C 
ENDBRANCH   8  14
BRANCH   9  17
ATOM     17  O   UNL     1       4.764  -1.487  -4.799  1.00  0.00    -0.365 OA
ATOM     18  H   UNL     1       3.857  -1.847  -4.617  1.00  0.00     0.214 HD
ENDBRANCH   9  17
TORSDOF 2
ENDMDL
