MODEL 1
REMARK VINA RESULT:    -3.247      0.000      0.000
REMARK INTER + INTRA:          -3.883
REMARK INTER:                  -3.817
REMARK INTRA:                  -0.066
REMARK UNBOUND:                -0.066
REMARK SMILES O=C([O-])CCC(=O)[O-]
REMARK SMILES IDX 4 1 2 2 1 3 3 4 5 5 6 6 7 7 8 8
REMARK H PARENT
REMARK Flexibility Score: inf
ROOT
ATOM      1  C   UNL     1     133.052 134.011 120.804  1.00  0.00     0.059 C 
ENDROOT
BRANCH   1   2
ATOM      2  C   UNL     1     133.414 133.786 119.370  1.00  0.00     0.042 C 
ATOM      3  O   UNL     1     132.891 132.840 118.725  1.00  0.00    -0.550 OA
ATOM      4  O   UNL     1     134.365 134.593 118.758  1.00  0.00    -0.550 OA
ENDBRANCH   1   2
BRANCH   1   5
ATOM      5  C   UNL     1     132.913 132.674 121.536  1.00  0.00     0.059 C 
BRANCH   5   6
ATOM      6  C   UNL     1     134.110 132.423 122.397  1.00  0.00     0.042 C 
ATOM      7  O   UNL     1     133.996 131.761 123.462  1.00  0.00    -0.550 OA
ATOM      8  O   UNL     1     135.361 132.879 122.001  1.00  0.00    -0.550 OA
ENDBRANCH   5   6
ENDBRANCH   1   5
TORSDOF 3
ENDMDL
MODEL 2
REMARK VINA RESULT:    -3.244      2.087      2.501
REMARK INTER + INTRA:          -3.879
REMARK INTER:                  -3.796
REMARK INTRA:                  -0.083
REMARK UNBOUND:                -0.066
REMARK SMILES O=C([O-])CCC(=O)[O-]
REMARK SMILES IDX 4 1 2 2 1 3 3 4 5 5 6 6 7 7 8 8
REMARK H PARENT
REMARK Flexibility Score: inf
ROOT
ATOM      1  C   UNL     1     133.239 133.331 120.832  1.00  0.00     0.059 C 
ENDROOT
BRANCH   1   2
ATOM      2  C   UNL     1     133.506 133.619 119.388  1.00  0.00     0.042 C 
ATOM      3  O   UNL     1     132.759 134.406 118.750  1.00  0.00    -0.550 OA
ATOM      4  O   UNL     1     134.551 132.980 118.734  1.00  0.00    -0.550 OA
ENDBRANCH   1   2
BRANCH   1   5
ATOM      5  C   UNL     1     132.459 134.483 121.470  1.00  0.00     0.059 C 
BRANCH   5   6
ATOM      6  C   UNL     1     133.311 135.200 122.470  1.00  0.00     0.042 C 
ATOM      7  O   UNL     1     134.518 135.449 122.210  1.00  0.00    -0.550 OA
ATOM      8  O   UNL     1     132.761 135.635 123.668  1.00  0.00    -0.550 OA
ENDBRANCH   5   6
ENDBRANCH   1   5
TORSDOF 3
ENDMDL
MODEL 3
REMARK VINA RESULT:    -3.239      1.266      2.004
REMARK INTER + INTRA:          -3.874
REMARK INTER:                  -3.795
REMARK INTRA:                  -0.078
REMARK UNBOUND:                -0.066
REMARK SMILES O=C([O-])CCC(=O)[O-]
REMARK SMILES IDX 4 1 2 2 1 3 3 4 5 5 6 6 7 7 8 8
REMARK H PARENT
REMARK Flexibility Score: inf
ROOT
ATOM      1  C   UNL     1     133.257 134.147 120.884  1.00  0.00     0.059 C 
ENDROOT
BRANCH   1   2
ATOM      2  C   UNL     1     133.539 133.842 119.447  1.00  0.00     0.042 C 
ATOM      3  O   UNL     1     134.324 134.571 118.786  1.00  0.00    -0.550 OA
ATOM      4  O   UNL     1     132.896 132.780 118.823  1.00  0.00    -0.550 OA
ENDBRANCH   1   2
BRANCH   1   5
ATOM      5  C   UNL     1     134.427 134.912 121.507  1.00  0.00     0.059 C 
BRANCH   5   6
ATOM      6  C   UNL     1     135.161 134.042 122.479  1.00  0.00     0.042 C 
ATOM      7  O   UNL     1     135.408 132.842 122.193  1.00  0.00    -0.550 OA
ATOM      8  O   UNL     1     135.612 134.571 123.682  1.00  0.00    -0.550 OA
ENDBRANCH   5   6
ENDBRANCH   1   5
TORSDOF 3
ENDMDL
MODEL 4
REMARK VINA RESULT:    -3.239      1.741      1.820
REMARK INTER + INTRA:          -3.874
REMARK INTER:                  -3.792
REMARK INTRA:                  -0.082
REMARK UNBOUND:                -0.066
REMARK SMILES O=C([O-])CCC(=O)[O-]
REMARK SMILES IDX 4 1 2 2 1 3 3 4 5 5 6 6 7 7 8 8
REMARK H PARENT
REMARK Flexibility Score: inf
ROOT
ATOM      1  C   UNL     1     134.049 133.206 120.872  1.00  0.00     0.059 C 
ENDROOT
BRANCH   1   2
ATOM      2  C   UNL     1     133.729 133.488 119.437  1.00  0.00     0.042 C 
ATOM      3  O   UNL     1     132.940 132.738 118.805  1.00  0.00    -0.550 OA
ATOM      4  O   UNL     1     134.339 134.552 118.786  1.00  0.00    -0.550 OA
ENDBRANCH   1   2
BRANCH   1   5
ATOM      5  C   UNL     1     132.900 132.442 121.535  1.00  0.00     0.059 C 
BRANCH   5   6
ATOM      6  C   UNL     1     132.204 133.311 122.535  1.00  0.00     0.042 C 
ATOM      7  O   UNL     1     131.746 132.812 123.596  1.00  0.00    -0.550 OA
ATOM      8  O   UNL     1     132.104 134.679 122.317  1.00  0.00    -0.550 OA
ENDBRANCH   5   6
ENDBRANCH   1   5
TORSDOF 3
ENDMDL
MODEL 5
REMARK VINA RESULT:    -3.239      1.770      3.664
REMARK INTER + INTRA:          -3.873
REMARK INTER:                  -3.787
REMARK INTRA:                  -0.086
REMARK UNBOUND:                -0.066
REMARK SMILES O=C([O-])CCC(=O)[O-]
REMARK SMILES IDX 4 1 2 2 1 3 3 4 5 5 6 6 7 7 8 8
REMARK H PARENT
REMARK Flexibility Score: inf
ROOT
ATOM      1  C   UNL     1     132.862 132.492 121.475  1.00  0.00     0.059 C 
ENDROOT
BRANCH   1   2
ATOM      2  C   UNL     1     132.183 133.360 122.487  1.00  0.00     0.042 C 
ATOM      3  O   UNL     1     131.698 132.854 123.532  1.00  0.00    -0.550 OA
ATOM      4  O   UNL     1     132.045 134.722 122.254  1.00  0.00    -0.550 OA
ENDBRANCH   1   2
BRANCH   1   5
ATOM      5  C   UNL     1     134.042 133.233 120.842  1.00  0.00     0.059 C 
BRANCH   5   6
ATOM      6  C   UNL     1     133.765 133.519 119.399  1.00  0.00     0.042 C 
ATOM      7  O   UNL     1     132.949 132.806 118.758  1.00  0.00    -0.550 OA
ATOM      8  O   UNL     1     134.371 134.602 118.776  1.00  0.00    -0.550 OA
ENDBRANCH   5   6
ENDBRANCH   1   5
TORSDOF 3
ENDMDL
MODEL 6
REMARK VINA RESULT:    -3.239      2.054      3.773
REMARK INTER + INTRA:          -3.873
REMARK INTER:                  -3.790
REMARK INTRA:                  -0.084
REMARK UNBOUND:                -0.066
REMARK SMILES O=C([O-])CCC(=O)[O-]
REMARK SMILES IDX 4 1 2 2 1 3 3 4 5 5 6 6 7 7 8 8
REMARK H PARENT
REMARK Flexibility Score: inf
ROOT
ATOM      1  C   UNL     1     132.491 134.440 121.468  1.00  0.00     0.059 C 
ENDROOT
BRANCH   1   2
ATOM      2  C   UNL     1     133.380 135.174 122.422  1.00  0.00     0.042 C 
ATOM      3  O   UNL     1     134.604 135.316 122.165  1.00  0.00    -0.550 OA
ATOM      4  O   UNL     1     132.867 135.659 123.617  1.00  0.00    -0.550 OA
ENDBRANCH   1   2
BRANCH   1   5
ATOM      5  C   UNL     1     133.246 133.275 120.824  1.00  0.00     0.059 C 
BRANCH   5   6
ATOM      6  C   UNL     1     133.479 133.544 119.370  1.00  0.00     0.042 C 
ATOM      7  O   UNL     1     132.746 134.359 118.752  1.00  0.00    -0.550 OA
ATOM      8  O   UNL     1     134.535 132.929 118.710  1.00  0.00    -0.550 OA
ENDBRANCH   5   6
ENDBRANCH   1   5
TORSDOF 3
ENDMDL
MODEL 7
REMARK VINA RESULT:    -3.236      0.100      3.812
REMARK INTER + INTRA:          -3.869
REMARK INTER:                  -3.811
REMARK INTRA:                  -0.059
REMARK UNBOUND:                -0.066
REMARK SMILES O=C([O-])CCC(=O)[O-]
REMARK SMILES IDX 4 1 2 2 1 3 3 4 5 5 6 6 7 7 8 8
REMARK H PARENT
REMARK Flexibility Score: inf
ROOT
ATOM      1  C   UNL     1     133.013 132.634 121.565  1.00  0.00     0.059 C 
ENDROOT
BRANCH   1   2
ATOM      2  C   UNL     1     134.215 132.414 122.428  1.00  0.00     0.042 C 
ATOM      3  O   UNL     1     135.342 132.839 122.064  1.00  0.00    -0.550 OA
ATOM      4  O   UNL     1     134.099 131.698 123.612  1.00  0.00    -0.550 OA
ENDBRANCH   1   2
BRANCH   1   5
ATOM      5  C   UNL     1     133.123 133.970 120.826  1.00  0.00     0.059 C 
BRANCH   5   6
ATOM      6  C   UNL     1     133.447 133.743 119.383  1.00  0.00     0.042 C 
ATOM      7  O   UNL     1     132.879 132.819 118.744  1.00  0.00    -0.550 OA
ATOM      8  O   UNL     1     134.342 134.581 118.731  1.00  0.00    -0.550 OA
ENDBRANCH   5   6
ENDBRANCH   1   5
TORSDOF 3
ENDMDL
MODEL 8
REMARK VINA RESULT:    -3.188     15.359     17.031
REMARK INTER + INTRA:          -3.814
REMARK INTER:                  -3.773
REMARK INTRA:                  -0.040
REMARK UNBOUND:                -0.066
REMARK SMILES O=C([O-])CCC(=O)[O-]
REMARK SMILES IDX 4 1 2 2 1 3 3 4 5 5 6 6 7 7 8 8
REMARK H PARENT
REMARK Flexibility Score: inf
ROOT
ATOM      1  C   UNL     1     144.125 129.358 133.510  1.00  0.00     0.059 C 
ENDROOT
BRANCH   1   2
ATOM      2  C   UNL     1     143.782 128.528 132.314  1.00  0.00     0.042 C 
ATOM      3  O   UNL     1     144.123 127.317 132.263  1.00  0.00    -0.550 OA
ATOM      4  O   UNL     1     143.127 129.104 131.233  1.00  0.00    -0.550 OA
ENDBRANCH   1   2
BRANCH   1   5
ATOM      5  C   UNL     1     144.028 128.521 134.787  1.00  0.00     0.059 C 
BRANCH   5   6
ATOM      6  C   UNL     1     143.191 129.223 135.810  1.00  0.00     0.042 C 
ATOM      7  O   UNL     1     143.620 130.264 136.371  1.00  0.00    -0.550 OA
ATOM      8  O   UNL     1     141.918 128.754 136.108  1.00  0.00    -0.550 OA
ENDBRANCH   5   6
ENDBRANCH   1   5
TORSDOF 3
ENDMDL
MODEL 9
REMARK VINA RESULT:    -3.160      2.408      3.417
REMARK INTER + INTRA:          -3.780
REMARK INTER:                  -3.606
REMARK INTRA:                  -0.174
REMARK UNBOUND:                -0.066
REMARK SMILES O=C([O-])CCC(=O)[O-]
REMARK SMILES IDX 4 1 2 2 1 3 3 4 5 5 6 6 7 7 8 8
REMARK H PARENT
REMARK Flexibility Score: inf
ROOT
ATOM      1  C   UNL     1     134.151 132.146 123.094  1.00  0.00     0.059 C 
ENDROOT
BRANCH   1   2
ATOM      2  C   UNL     1     132.780 132.388 122.546  1.00  0.00     0.042 C 
ATOM      3  O   UNL     1     132.527 132.135 121.339  1.00  0.00    -0.550 OA
ATOM      4  O   UNL     1     131.795 132.938 123.355  1.00  0.00    -0.550 OA
ENDBRANCH   1   2
BRANCH   1   5
ATOM      5  C   UNL     1     135.200 132.878 122.254  1.00  0.00     0.059 C 
BRANCH   5   6
ATOM      6  C   UNL     1     135.054 134.359 122.410  1.00  0.00     0.042 C 
ATOM      7  O   UNL     1     134.730 135.071 121.424  1.00  0.00    -0.550 OA
ATOM      8  O   UNL     1     135.229 134.947 123.656  1.00  0.00    -0.550 OA
ENDBRANCH   5   6
ENDBRANCH   1   5
TORSDOF 3
ENDMDL
