MODEL 1
REMARK VINA RESULT:    -4.016      0.000      0.000
REMARK INTER + INTRA:          -6.321
REMARK INTER:                  -6.129
REMARK INTRA:                  -0.192
REMARK UNBOUND:                -0.192
REMARK SMILES CC1=CCC[C@@H](C)C(=O)C[C@H](C(C)C)C(=O)C1
REMARK SMILES IDX 8 1 9 2 6 3 7 4 5 5 4 6 3 7 2 8 1 9 10 11 11 12 15 13 16 14
REMARK SMILES IDX 17 15 12 17 13 18 14 19
REMARK H PARENT
REMARK Flexibility Score: 70.00
ROOT
ATOM      1  C   UNL     1      16.636 -11.360  66.793  1.00  0.00     0.136 C 
ATOM      2  O   UNL     1      16.303 -12.073  67.730  1.00  0.00    -0.299 OA
ENDROOT
BRANCH   1   3
ATOM      3  C   UNL     1      15.802 -11.351  65.527  1.00  0.00     0.053 C 
ATOM      4  C   UNL     1      16.053 -12.626  64.711  1.00  0.00     0.016 C 
BRANCH   3   5
ATOM      5  C   UNL     1      16.104 -10.090  64.686  1.00  0.00     0.015 C 
BRANCH   5   6
ATOM      6  C   UNL     1      16.840 -10.441  63.379  1.00  0.00     0.028 C 
BRANCH   6   7
ATOM      7  C   UNL     1      18.158  -9.723  63.226  1.00  0.00    -0.028 C 
ATOM      8  C   UNL     1      19.330 -10.102  63.793  1.00  0.00    -0.070 CG0
ATOM      9  C   UNL     1      20.523  -9.198  63.605  1.00  0.00     0.039 C 
ATOM     10  G   UNL     1      19.513 -11.406  64.562  1.00  0.00     0.000 G0
ENDBRANCH   6   7
ENDBRANCH   5   6
ENDBRANCH   3   5
ENDBRANCH   1   3
BRANCH   1  11
ATOM     11  C   UNL     1      17.868 -10.493  66.935  1.00  0.00     0.087 C 
BRANCH  11  12
ATOM     12  C   UNL     1      19.155 -11.332  67.158  1.00  0.00     0.066 C 
BRANCH  12  13
ATOM     13  C   UNL     1      20.089 -11.238  65.960  1.00  0.00     0.140 C 
ATOM     14  O   UNL     1      21.290 -11.068  66.122  1.00  0.00    -0.299 OA
BRANCH  13  15
ATOM     15  C   UNL     1      19.544 -11.415  64.563  1.00  0.00     0.106 CG0
ATOM     16  G   UNL     1      19.358 -10.108  63.802  1.00  0.00     0.000 G0
ENDBRANCH  13  15
ENDBRANCH  12  13
BRANCH  12  17
ATOM     17  C   UNL     1      19.891 -10.997  68.497  1.00  0.00    -0.006 C 
ATOM     18  C   UNL     1      20.224 -12.271  69.291  1.00  0.00     0.008 C 
ATOM     19  C   UNL     1      19.126 -10.009  69.398  1.00  0.00     0.008 C 
ENDBRANCH  12  17
ENDBRANCH  11  12
ENDBRANCH   1  11
TORSDOF 1
ENDMDL
MODEL 2
REMARK VINA RESULT:    -3.769      3.477      5.844
REMARK INTER + INTRA:          -5.944
REMARK INTER:                  -5.784
REMARK INTRA:                  -0.160
REMARK UNBOUND:                -0.192
REMARK SMILES CC1=CCC[C@@H](C)C(=O)C[C@H](C(C)C)C(=O)C1
REMARK SMILES IDX 8 1 9 2 6 3 7 4 5 5 4 6 3 7 2 8 1 9 10 11 11 12 15 13 16 14
REMARK SMILES IDX 17 15 12 17 13 18 14 19
REMARK H PARENT
REMARK Flexibility Score: 70.00
ROOT
ATOM      1  C   UNL     1      13.691 -11.146  61.723  1.00  0.00     0.136 C 
ATOM      2  O   UNL     1      12.581 -11.267  61.225  1.00  0.00    -0.299 OA
ENDROOT
BRANCH   1   3
ATOM      3  C   UNL     1      14.246 -12.258  62.593  1.00  0.00     0.053 C 
ATOM      4  C   UNL     1      14.270 -13.583  61.819  1.00  0.00     0.016 C 
BRANCH   3   5
ATOM      5  C   UNL     1      13.421 -12.393  63.893  1.00  0.00     0.015 C 
BRANCH   5   6
ATOM      6  C   UNL     1      14.183 -11.837  65.111  1.00  0.00     0.028 C 
BRANCH   6   7
ATOM      7  C   UNL     1      15.656 -12.165  65.092  1.00  0.00    -0.028 C 
ATOM      8  C   UNL     1      16.654 -11.283  64.839  1.00  0.00    -0.070 CG0
ATOM      9  C   UNL     1      18.062 -11.822  64.765  1.00  0.00     0.039 C 
ATOM     10  G   UNL     1      16.435  -9.784  64.676  1.00  0.00     0.000 G0
ENDBRANCH   6   7
ENDBRANCH   5   6
ENDBRANCH   3   5
ENDBRANCH   1   3
BRANCH   1  11
ATOM     11  C   UNL     1      14.487  -9.890  61.443  1.00  0.00     0.087 C 
BRANCH  11  12
ATOM     12  C   UNL     1      14.783  -9.081  62.734  1.00  0.00     0.066 C 
BRANCH  12  13
ATOM     13  C   UNL     1      16.200  -9.334  63.231  1.00  0.00     0.140 C 
ATOM     14  O   UNL     1      17.158  -9.139  62.497  1.00  0.00    -0.299 OA
BRANCH  13  15
ATOM     15  C   UNL     1      16.431  -9.773  64.657  1.00  0.00     0.106 CG0
ATOM     16  G   UNL     1      16.655 -11.272  64.814  1.00  0.00     0.000 G0
ENDBRANCH  13  15
ENDBRANCH  12  13
BRANCH  12  17
ATOM     17  C   UNL     1      14.480  -7.553  62.594  1.00  0.00    -0.006 C 
ATOM     18  C   UNL     1      13.012  -7.236  62.924  1.00  0.00     0.008 C 
ATOM     19  C   UNL     1      14.839  -6.971  61.214  1.00  0.00     0.008 C 
ENDBRANCH  12  17
ENDBRANCH  11  12
ENDBRANCH   1  11
TORSDOF 1
ENDMDL
MODEL 3
REMARK VINA RESULT:    -3.738      6.843      8.743
REMARK INTER + INTRA:          -5.898
REMARK INTER:                  -5.585
REMARK INTRA:                  -0.313
REMARK UNBOUND:                -0.192
REMARK SMILES CC1=CCC[C@@H](C)C(=O)C[C@H](C(C)C)C(=O)C1
REMARK SMILES IDX 8 1 9 2 6 3 7 4 5 5 4 6 3 7 2 8 1 9 10 11 11 12 15 13 16 14
REMARK SMILES IDX 17 15 12 17 13 18 14 19
REMARK H PARENT
REMARK Flexibility Score: 70.00
ROOT
ATOM      1  C   UNL     1      12.004  -6.307  63.125  1.00  0.00     0.136 C 
ATOM      2  O   UNL     1      11.134  -6.931  63.717  1.00  0.00    -0.299 OA
ENDROOT
BRANCH   1   3
ATOM      3  C   UNL     1      11.718  -4.897  62.645  1.00  0.00     0.053 C 
ATOM      4  C   UNL     1      11.251  -4.018  63.813  1.00  0.00     0.016 C 
BRANCH   3   5
ATOM      5  C   UNL     1      10.668  -4.911  61.511  1.00  0.00     0.015 C 
BRANCH   5   6
ATOM      6  C   UNL     1      11.333  -4.891  60.121  1.00  0.00     0.028 C 
BRANCH   6   7
ATOM      7  C   UNL     1      12.650  -4.156  60.102  1.00  0.00    -0.028 C 
ATOM      8  C   UNL     1      13.864  -4.724  59.891  1.00  0.00    -0.070 CG0
ATOM      9  C   UNL     1      15.080  -3.839  60.009  1.00  0.00     0.039 C 
ATOM     10  G   UNL     1      14.056  -6.183  59.498  1.00  0.00     0.000 G0
ENDBRANCH   6   7
ENDBRANCH   5   6
ENDBRANCH   3   5
ENDBRANCH   1   3
BRANCH   1  11
ATOM     11  C   UNL     1      13.350  -6.962  62.900  1.00  0.00     0.087 C 
BRANCH  11  12
ATOM     12  C   UNL     1      13.426  -7.696  61.535  1.00  0.00     0.066 C 
BRANCH  12  13
ATOM     13  C   UNL     1      14.480  -7.073  60.631  1.00  0.00     0.140 C 
ATOM     14  O   UNL     1      15.666  -7.329  60.792  1.00  0.00    -0.299 OA
BRANCH  13  15
ATOM     15  C   UNL     1      14.061  -6.177  59.490  1.00  0.00     0.106 CG0
ATOM     16  G   UNL     1      13.867  -4.719  59.888  1.00  0.00     0.000 G0
ENDBRANCH  13  15
ENDBRANCH  12  13
BRANCH  12  17
ATOM     17  C   UNL     1      13.617  -9.243  61.671  1.00  0.00    -0.006 C 
ATOM     18  C   UNL     1      12.318 -10.001  61.355  1.00  0.00     0.008 C 
ATOM     19  C   UNL     1      14.156  -9.686  63.044  1.00  0.00     0.008 C 
ENDBRANCH  12  17
ENDBRANCH  11  12
ENDBRANCH   1  11
TORSDOF 1
ENDMDL
MODEL 4
REMARK VINA RESULT:    -3.604     12.109     14.370
REMARK INTER + INTRA:          -5.692
REMARK INTER:                  -5.370
REMARK INTRA:                  -0.322
REMARK UNBOUND:                -0.192
REMARK SMILES CC1=CCC[C@@H](C)C(=O)C[C@H](C(C)C)C(=O)C1
REMARK SMILES IDX 8 1 9 2 6 3 7 4 5 5 4 6 3 7 2 8 1 9 10 11 11 12 15 13 16 14
REMARK SMILES IDX 17 15 12 17 13 18 14 19
REMARK H PARENT
REMARK Flexibility Score: 70.00
ROOT
ATOM      1  C   UNL     1       7.483  -6.002  57.575  1.00  0.00     0.136 C 
ATOM      2  O   UNL     1       7.601  -5.312  58.578  1.00  0.00    -0.299 OA
ENDROOT
BRANCH   1   3
ATOM      3  C   UNL     1       6.161  -6.690  57.293  1.00  0.00     0.053 C 
ATOM      4  C   UNL     1       5.027  -5.659  57.210  1.00  0.00     0.016 C 
BRANCH   3   5
ATOM      5  C   UNL     1       5.861  -7.754  58.373  1.00  0.00     0.015 C 
BRANCH   5   6
ATOM      6  C   UNL     1       6.554  -9.094  58.059  1.00  0.00     0.028 C 
BRANCH   6   7
ATOM      7  C   UNL     1       6.374  -9.536  56.628  1.00  0.00    -0.028 C 
ATOM      8  C   UNL     1       7.377  -9.763  55.744  1.00  0.00    -0.070 CG0
ATOM      9  C   UNL     1       6.994 -10.104  54.325  1.00  0.00     0.039 C 
ATOM     10  G   UNL     1       8.854  -9.740  56.118  1.00  0.00     0.000 G0
ENDBRANCH   6   7
ENDBRANCH   5   6
ENDBRANCH   3   5
ENDBRANCH   1   3
BRANCH   1  11
ATOM     11  C   UNL     1       8.660  -6.136  56.635  1.00  0.00     0.087 C 
BRANCH  11  12
ATOM     12  C   UNL     1       9.556  -7.356  56.984  1.00  0.00     0.066 C 
BRANCH  12  13
ATOM     13  C   UNL     1       9.527  -8.398  55.874  1.00  0.00     0.140 C 
ATOM     14  O   UNL     1      10.082  -8.181  54.806  1.00  0.00    -0.299 OA
BRANCH  13  15
ATOM     15  C   UNL     1       8.860  -9.732  56.110  1.00  0.00     0.106 CG0
ATOM     16  G   UNL     1       7.379  -9.755  55.751  1.00  0.00     0.000 G0
ENDBRANCH  13  15
ENDBRANCH  12  13
BRANCH  12  17
ATOM     17  C   UNL     1      11.018  -6.962  57.374  1.00  0.00    -0.006 C 
ATOM     18  C   UNL     1      11.179  -6.829  58.898  1.00  0.00     0.008 C 
ATOM     19  C   UNL     1      11.523  -5.680  56.686  1.00  0.00     0.008 C 
ENDBRANCH  12  17
ENDBRANCH  11  12
ENDBRANCH   1  11
TORSDOF 1
ENDMDL
MODEL 5
REMARK VINA RESULT:    -3.597      4.062      6.825
REMARK INTER + INTRA:          -5.681
REMARK INTER:                  -5.713
REMARK INTRA:                   0.031
REMARK UNBOUND:                -0.192
REMARK SMILES CC1=CCC[C@@H](C)C(=O)C[C@H](C(C)C)C(=O)C1
REMARK SMILES IDX 8 1 9 2 6 3 7 4 5 5 4 6 3 7 2 8 1 9 10 11 11 12 15 13 16 14
REMARK SMILES IDX 17 15 12 17 13 18 14 19
REMARK H PARENT
REMARK Flexibility Score: 70.00
ROOT
ATOM      1  C   UNL     1      16.582 -10.972  63.461  1.00  0.00     0.136 C 
ATOM      2  O   UNL     1      17.514 -10.572  62.777  1.00  0.00    -0.299 OA
ENDROOT
BRANCH   1   3
ATOM      3  C   UNL     1      16.725 -12.268  64.236  1.00  0.00     0.053 C 
ATOM      4  C   UNL     1      17.966 -12.218  65.139  1.00  0.00     0.016 C 
BRANCH   3   5
ATOM      5  C   UNL     1      16.794 -13.473  63.271  1.00  0.00     0.015 C 
BRANCH   5   6
ATOM      6  C   UNL     1      15.857 -13.287  62.062  1.00  0.00     0.028 C 
BRANCH   6   7
ATOM      7  C   UNL     1      14.484 -13.875  62.276  1.00  0.00    -0.028 C 
ATOM      8  C   UNL     1      13.313 -13.271  61.958  1.00  0.00    -0.070 CG0
ATOM      9  C   UNL     1      12.035 -13.977  62.341  1.00  0.00     0.039 C 
ATOM     10  G   UNL     1      13.221 -11.953  61.199  1.00  0.00     0.000 G0
ENDBRANCH   6   7
ENDBRANCH   5   6
ENDBRANCH   3   5
ENDBRANCH   1   3
BRANCH   1  11
ATOM     11  C   UNL     1      15.314 -10.150  63.523  1.00  0.00     0.087 C 
BRANCH  11  12
ATOM     12  C   UNL     1      14.660  -9.971  62.126  1.00  0.00     0.066 C 
BRANCH  12  13
ATOM     13  C   UNL     1      13.334 -10.715  62.038  1.00  0.00     0.140 C 
ATOM     14  O   UNL     1      12.346 -10.292  62.623  1.00  0.00    -0.299 OA
BRANCH  13  15
ATOM     15  C   UNL     1      13.219 -11.951  61.179  1.00  0.00     0.106 CG0
ATOM     16  G   UNL     1      13.298 -13.257  61.960  1.00  0.00     0.000 G0
ENDBRANCH  13  15
ENDBRANCH  12  13
BRANCH  12  17
ATOM     17  C   UNL     1      14.517  -8.475  61.693  1.00  0.00    -0.006 C 
ATOM     18  C   UNL     1      15.754  -7.992  60.918  1.00  0.00     0.008 C 
ATOM     19  C   UNL     1      14.228  -7.513  62.860  1.00  0.00     0.008 C 
ENDBRANCH  12  17
ENDBRANCH  11  12
ENDBRANCH   1  11
TORSDOF 1
ENDMDL
MODEL 6
REMARK VINA RESULT:    -3.589     14.738     16.676
REMARK INTER + INTRA:          -5.669
REMARK INTER:                  -5.488
REMARK INTRA:                  -0.181
REMARK UNBOUND:                -0.192
REMARK SMILES CC1=CCC[C@@H](C)C(=O)C[C@H](C(C)C)C(=O)C1
REMARK SMILES IDX 8 1 9 2 6 3 7 4 5 5 4 6 3 7 2 8 1 9 10 11 11 12 15 13 16 14
REMARK SMILES IDX 17 15 12 17 13 18 14 19
REMARK H PARENT
REMARK Flexibility Score: 70.00
ROOT
ATOM      1  C   UNL     1      11.672   1.617  59.451  1.00  0.00     0.136 C 
ATOM      2  O   UNL     1      11.261   2.005  60.535  1.00  0.00    -0.299 OA
ENDROOT
BRANCH   1   3
ATOM      3  C   UNL     1      12.766   0.568  59.397  1.00  0.00     0.053 C 
ATOM      4  C   UNL     1      12.583  -0.456  60.525  1.00  0.00     0.016 C 
BRANCH   3   5
ATOM      5  C   UNL     1      14.159   1.234  59.477  1.00  0.00     0.015 C 
BRANCH   5   6
ATOM      6  C   UNL     1      15.024   0.891  58.248  1.00  0.00     0.028 C 
BRANCH   6   7
ATOM      7  C   UNL     1      14.334  -0.031  57.274  1.00  0.00    -0.028 C 
ATOM      8  C   UNL     1      13.650   0.361  56.171  1.00  0.00    -0.070 CG0
ATOM      9  C   UNL     1      12.942  -0.705  55.370  1.00  0.00     0.039 C 
ATOM     10  G   UNL     1      13.601   1.801  55.675  1.00  0.00     0.000 G0
ENDBRANCH   6   7
ENDBRANCH   5   6
ENDBRANCH   3   5
ENDBRANCH   1   3
BRANCH   1  11
ATOM     11  C   UNL     1      11.060   2.187  58.189  1.00  0.00     0.087 C 
BRANCH  11  12
ATOM     12  C   UNL     1      12.063   3.067  57.396  1.00  0.00     0.066 C 
BRANCH  12  13
ATOM     13  C   UNL     1      12.295   2.514  55.996  1.00  0.00     0.140 C 
ATOM     14  O   UNL     1      11.455   2.673  55.120  1.00  0.00    -0.299 OA
BRANCH  13  15
ATOM     15  C   UNL     1      13.592   1.815  55.666  1.00  0.00     0.106 CG0
ATOM     16  G   UNL     1      13.654   0.370  56.144  1.00  0.00     0.000 G0
ENDBRANCH  13  15
ENDBRANCH  12  13
BRANCH  12  17
ATOM     17  C   UNL     1      11.673   4.581  57.366  1.00  0.00    -0.006 C 
ATOM     18  C   UNL     1      12.786   5.438  56.741  1.00  0.00     0.008 C 
ATOM     19  C   UNL     1      11.291   5.153  58.744  1.00  0.00     0.008 C 
ENDBRANCH  12  17
ENDBRANCH  11  12
ENDBRANCH   1  11
TORSDOF 1
ENDMDL
MODEL 7
REMARK VINA RESULT:    -3.566     11.764     14.004
REMARK INTER + INTRA:          -5.634
REMARK INTER:                  -5.250
REMARK INTRA:                  -0.384
REMARK UNBOUND:                -0.192
REMARK SMILES CC1=CCC[C@@H](C)C(=O)C[C@H](C(C)C)C(=O)C1
REMARK SMILES IDX 8 1 9 2 6 3 7 4 5 5 4 6 3 7 2 8 1 9 10 11 11 12 15 13 16 14
REMARK SMILES IDX 17 15 12 17 13 18 14 19
REMARK H PARENT
REMARK Flexibility Score: 70.00
ROOT
ATOM      1  C   UNL     1      12.290  -0.076  59.020  1.00  0.00     0.136 C 
ATOM      2  O   UNL     1      11.305   0.646  58.952  1.00  0.00    -0.299 OA
ENDROOT
BRANCH   1   3
ATOM      3  C   UNL     1      13.257   0.087  60.176  1.00  0.00     0.053 C 
ATOM      4  C   UNL     1      14.308   1.158  59.850  1.00  0.00     0.016 C 
BRANCH   3   5
ATOM      5  C   UNL     1      13.931  -1.262  60.514  1.00  0.00     0.015 C 
BRANCH   5   6
ATOM      6  C   UNL     1      15.460  -1.196  60.330  1.00  0.00     0.028 C 
BRANCH   6   7
ATOM      7  C   UNL     1      16.031  -2.417  59.652  1.00  0.00    -0.028 C 
ATOM      8  C   UNL     1      16.166  -2.581  58.312  1.00  0.00    -0.070 CG0
ATOM      9  C   UNL     1      16.667  -3.915  57.818  1.00  0.00     0.039 C 
ATOM     10  G   UNL     1      15.886  -1.481  57.295  1.00  0.00     0.000 G0
ENDBRANCH   6   7
ENDBRANCH   5   6
ENDBRANCH   3   5
ENDBRANCH   1   3
BRANCH   1  11
ATOM     11  C   UNL     1      12.506  -1.124  57.950  1.00  0.00     0.087 C 
BRANCH  11  12
ATOM     12  C   UNL     1      13.444  -0.624  56.818  1.00  0.00     0.066 C 
BRANCH  12  13
ATOM     13  C   UNL     1      14.571  -1.615  56.559  1.00  0.00     0.140 C 
ATOM     14  O   UNL     1      14.438  -2.500  55.725  1.00  0.00    -0.299 OA
BRANCH  13  15
ATOM     15  C   UNL     1      15.884  -1.472  57.290  1.00  0.00     0.106 CG0
ATOM     16  G   UNL     1      16.140  -2.565  58.321  1.00  0.00     0.000 G0
ENDBRANCH  13  15
ENDBRANCH  12  13
BRANCH  12  17
ATOM     17  C   UNL     1      12.686  -0.247  55.503  1.00  0.00    -0.006 C 
ATOM     18  C   UNL     1      12.581   1.277  55.331  1.00  0.00     0.008 C 
ATOM     19  C   UNL     1      11.287  -0.880  55.387  1.00  0.00     0.008 C 
ENDBRANCH  12  17
ENDBRANCH  11  12
ENDBRANCH   1  11
TORSDOF 1
ENDMDL
MODEL 8
REMARK VINA RESULT:    -3.531     12.160     14.047
REMARK INTER + INTRA:          -5.581
REMARK INTER:                  -5.598
REMARK INTRA:                   0.016
REMARK UNBOUND:                -0.192
REMARK SMILES CC1=CCC[C@@H](C)C(=O)C[C@H](C(C)C)C(=O)C1
REMARK SMILES IDX 8 1 9 2 6 3 7 4 5 5 4 6 3 7 2 8 1 9 10 11 11 12 15 13 16 14
REMARK SMILES IDX 17 15 12 17 13 18 14 19
REMARK H PARENT
REMARK Flexibility Score: 70.00
ROOT
ATOM      1  C   UNL     1      14.320  -3.431  56.236  1.00  0.00     0.136 C 
ATOM      2  O   UNL     1      15.229  -4.197  55.944  1.00  0.00    -0.299 OA
ENDROOT
BRANCH   1   3
ATOM      3  C   UNL     1      13.138  -3.282  55.297  1.00  0.00     0.053 C 
ATOM      4  C   UNL     1      13.121  -4.424  54.271  1.00  0.00     0.016 C 
BRANCH   3   5
ATOM      5  C   UNL     1      13.175  -1.907  54.592  1.00  0.00     0.015 C 
BRANCH   5   6
ATOM      6  C   UNL     1      12.127  -0.940  55.175  1.00  0.00     0.028 C 
BRANCH   6   7
ATOM      7  C   UNL     1      12.636   0.472  55.321  1.00  0.00    -0.028 C 
ATOM      8  C   UNL     1      13.304   0.960  56.395  1.00  0.00    -0.070 CG0
ATOM      9  C   UNL     1      13.646   2.429  56.399  1.00  0.00     0.039 C 
ATOM     10  G   UNL     1      13.765   0.098  57.565  1.00  0.00     0.000 G0
ENDBRANCH   6   7
ENDBRANCH   5   6
ENDBRANCH   3   5
ENDBRANCH   1   3
BRANCH   1  11
ATOM     11  C   UNL     1      14.398  -2.663  57.537  1.00  0.00     0.087 C 
BRANCH  11  12
ATOM     12  C   UNL     1      15.639  -1.733  57.598  1.00  0.00     0.066 C 
BRANCH  12  13
ATOM     13  C   UNL     1      15.233  -0.267  57.529  1.00  0.00     0.140 C 
ATOM     14  O   UNL     1      16.080   0.605  57.391  1.00  0.00    -0.299 OA
BRANCH  13  15
ATOM     15  C   UNL     1      13.773   0.114  57.572  1.00  0.00     0.106 CG0
ATOM     16  G   UNL     1      13.321   0.968  56.394  1.00  0.00     0.000 G0
ENDBRANCH  13  15
ENDBRANCH  12  13
BRANCH  12  17
ATOM     17  C   UNL     1      16.574  -2.021  58.817  1.00  0.00    -0.006 C 
ATOM     18  C   UNL     1      17.617  -3.101  58.486  1.00  0.00     0.008 C 
ATOM     19  C   UNL     1      15.819  -2.407  60.103  1.00  0.00     0.008 C 
ENDBRANCH  12  17
ENDBRANCH  11  12
ENDBRANCH   1  11
TORSDOF 1
ENDMDL
MODEL 9
REMARK VINA RESULT:    -3.497     10.030     11.627
REMARK INTER + INTRA:          -5.529
REMARK INTER:                  -5.479
REMARK INTRA:                  -0.050
REMARK UNBOUND:                -0.192
REMARK SMILES CC1=CCC[C@@H](C)C(=O)C[C@H](C(C)C)C(=O)C1
REMARK SMILES IDX 8 1 9 2 6 3 7 4 5 5 4 6 3 7 2 8 1 9 10 11 11 12 15 13 16 14
REMARK SMILES IDX 17 15 12 17 13 18 14 19
REMARK H PARENT
REMARK Flexibility Score: 70.00
ROOT
ATOM      1  C   UNL     1      10.765  -1.755  61.461  1.00  0.00     0.136 C 
ATOM      2  O   UNL     1      10.548  -0.729  62.092  1.00  0.00    -0.299 OA
ENDROOT
BRANCH   1   3
ATOM      3  C   UNL     1      10.107  -3.051  61.894  1.00  0.00     0.053 C 
ATOM      4  C   UNL     1       8.593  -2.857  62.054  1.00  0.00     0.016 C 
BRANCH   3   5
ATOM      5  C   UNL     1      10.739  -3.569  63.206  1.00  0.00     0.015 C 
BRANCH   5   6
ATOM      6  C   UNL     1      11.705  -4.742  62.948  1.00  0.00     0.028 C 
BRANCH   6   7
ATOM      7  C   UNL     1      11.305  -5.593  61.768  1.00  0.00    -0.028 C 
ATOM      8  C   UNL     1      11.966  -5.655  60.586  1.00  0.00    -0.070 CG0
ATOM      9  C   UNL     1      11.356  -6.491  59.487  1.00  0.00     0.039 C 
ATOM     10  G   UNL     1      13.304  -4.972  60.329  1.00  0.00     0.000 G0
ENDBRANCH   6   7
ENDBRANCH   5   6
ENDBRANCH   3   5
ENDBRANCH   1   3
BRANCH   1  11
ATOM     11  C   UNL     1      11.676  -1.694  60.255  1.00  0.00     0.087 C 
BRANCH  11  12
ATOM     12  C   UNL     1      13.048  -2.371  60.520  1.00  0.00     0.066 C 
BRANCH  12  13
ATOM     13  C   UNL     1      13.217  -3.625  59.672  1.00  0.00     0.140 C 
ATOM     14  O   UNL     1      13.327  -3.540  58.456  1.00  0.00    -0.299 OA
BRANCH  13  15
ATOM     15  C   UNL     1      13.309  -4.977  60.336  1.00  0.00     0.106 CG0
ATOM     16  G   UNL     1      11.958  -5.636  60.587  1.00  0.00     0.000 G0
ENDBRANCH  13  15
ENDBRANCH  12  13
BRANCH  12  17
ATOM     17  C   UNL     1      14.262  -1.397  60.367  1.00  0.00    -0.006 C 
ATOM     18  C   UNL     1      14.057  -0.419  59.199  1.00  0.00     0.008 C 
ATOM     19  C   UNL     1      15.618  -2.111  60.214  1.00  0.00     0.008 C 
ENDBRANCH  12  17
ENDBRANCH  11  12
ENDBRANCH   1  11
TORSDOF 1
ENDMDL
