MODEL 1
REMARK VINA RESULT:    -4.481      0.000      0.000
REMARK INTER + INTRA:          -5.654
REMARK INTER:                  -5.398
REMARK INTRA:                  -0.256
REMARK UNBOUND:                -0.256
REMARK SMILES NC(=O)C[C@H]([NH3+])C(=O)[O-]
REMARK SMILES IDX 4 1 5 2 6 3 7 7 8 8 9 9 2 10 3 11 1 12
REMARK H PARENT 6 4 6 5 6 6 1 13 1 14
REMARK Flexibility Score: inf
ROOT
ATOM      1  C   UNL     1     -32.169  52.740 -51.612  1.00  0.00     0.171 C 
ENDROOT
BRANCH   1   2
ATOM      2  C   UNL     1     -32.877  51.422 -51.237  1.00  0.00     0.237 C 
BRANCH   2   3
ATOM      3  N   UNL     1     -31.892  50.387 -50.896  1.00  0.00    -0.350 N 
ATOM      4  H   UNL     1     -31.602  50.469 -49.895  1.00  0.00     0.345 HD
ATOM      5  H   UNL     1     -31.049  50.485 -51.508  1.00  0.00     0.345 HD
ATOM      6  H   UNL     1     -32.304  49.440 -51.057  1.00  0.00     0.345 HD
ENDBRANCH   2   3
BRANCH   2   7
ATOM      7  C   UNL     1     -33.766  50.947 -52.358  1.00  0.00     0.100 C 
ATOM      8  O   UNL     1     -33.513  51.260 -53.551  1.00  0.00    -0.544 OA
ATOM      9  O   UNL     1     -34.885  50.174 -52.075  1.00  0.00    -0.544 OA
ENDBRANCH   2   7
ENDBRANCH   1   2
BRANCH   1  10
ATOM     10  C   UNL     1     -31.903  53.588 -50.401  1.00  0.00     0.223 C 
ATOM     11  O   UNL     1     -31.871  53.057 -49.260  1.00  0.00    -0.275 OA
ATOM     12  N   UNL     1     -31.723  54.998 -50.530  1.00  0.00    -0.369 N 
ATOM     13  H   UNL     1     -31.765  55.458 -51.466  1.00  0.00     0.159 HD
ATOM     14  H   UNL     1     -31.553  55.587 -49.684  1.00  0.00     0.159 HD
ENDBRANCH   1  10
TORSDOF 4
ENDMDL
MODEL 2
REMARK VINA RESULT:    -4.150      1.932      3.945
REMARK INTER + INTRA:          -5.256
REMARK INTER:                  -5.026
REMARK INTRA:                  -0.229
REMARK UNBOUND:                -0.256
REMARK SMILES NC(=O)C[C@H]([NH3+])C(=O)[O-]
REMARK SMILES IDX 4 1 5 2 6 3 7 7 8 8 9 9 2 10 3 11 1 12
REMARK H PARENT 6 4 6 5 6 6 1 13 1 14
REMARK Flexibility Score: inf
ROOT
ATOM      1  C   UNL     1     -33.757  51.389 -51.752  1.00  0.00     0.171 C 
ENDROOT
BRANCH   1   2
ATOM      2  C   UNL     1     -32.312  51.690 -51.306  1.00  0.00     0.237 C 
BRANCH   2   3
ATOM      3  N   UNL     1     -32.310  52.453 -50.051  1.00  0.00    -0.350 N 
ATOM      4  H   UNL     1     -31.855  51.903 -49.286  1.00  0.00     0.345 HD
ATOM      5  H   UNL     1     -33.292  52.682 -49.773  1.00  0.00     0.345 HD
ATOM      6  H   UNL     1     -31.790  53.350 -50.183  1.00  0.00     0.345 HD
ENDBRANCH   2   3
BRANCH   2   7
ATOM      7  C   UNL     1     -31.560  52.443 -52.375  1.00  0.00     0.100 C 
ATOM      8  O   UNL     1     -31.188  53.630 -52.178  1.00  0.00    -0.544 OA
ATOM      9  O   UNL     1     -31.290  51.833 -53.593  1.00  0.00    -0.544 OA
ENDBRANCH   2   7
ENDBRANCH   1   2
BRANCH   1  10
ATOM     10  C   UNL     1     -33.895  49.984 -52.266  1.00  0.00     0.223 C 
ATOM     11  O   UNL     1     -35.041  49.499 -52.462  1.00  0.00    -0.275 OA
ATOM     12  N   UNL     1     -32.738  49.181 -52.499  1.00  0.00    -0.369 N 
ATOM     13  H   UNL     1     -31.781  49.560 -52.324  1.00  0.00     0.159 HD
ATOM     14  H   UNL     1     -32.838  48.199 -52.842  1.00  0.00     0.159 HD
ENDBRANCH   1  10
TORSDOF 4
ENDMDL
MODEL 3
REMARK VINA RESULT:    -4.135      2.058      2.481
REMARK INTER + INTRA:          -5.236
REMARK INTER:                  -4.726
REMARK INTRA:                  -0.511
REMARK UNBOUND:                -0.256
REMARK SMILES NC(=O)C[C@H]([NH3+])C(=O)[O-]
REMARK SMILES IDX 4 1 5 2 6 3 7 7 8 8 9 9 2 10 3 11 1 12
REMARK H PARENT 6 4 6 5 6 6 1 13 1 14
REMARK Flexibility Score: inf
ROOT
ATOM      1  C   UNL     1     -33.849  51.185 -51.770  1.00  0.00     0.171 C 
ENDROOT
BRANCH   1   2
ATOM      2  C   UNL     1     -33.771  50.018 -52.775  1.00  0.00     0.237 C 
BRANCH   2   3
ATOM      3  N   UNL     1     -32.689  49.095 -52.407  1.00  0.00    -0.350 N 
ATOM      4  H   UNL     1     -32.017  49.556 -51.752  1.00  0.00     0.345 HD
ATOM      5  H   UNL     1     -32.177  48.788 -53.267  1.00  0.00     0.345 HD
ATOM      6  H   UNL     1     -33.090  48.247 -51.945  1.00  0.00     0.345 HD
ENDBRANCH   2   3
BRANCH   2   7
ATOM      7  C   UNL     1     -33.569  50.525 -54.180  1.00  0.00     0.100 C 
ATOM      8  O   UNL     1     -34.383  50.222 -55.092  1.00  0.00    -0.544 OA
ATOM      9  O   UNL     1     -32.468  51.316 -54.481  1.00  0.00    -0.544 OA
ENDBRANCH   2   7
ENDBRANCH   1   2
BRANCH   1  10
ATOM     10  C   UNL     1     -32.533  51.414 -51.084  1.00  0.00     0.223 C 
ATOM     11  O   UNL     1     -32.291  50.842 -49.988  1.00  0.00    -0.275 OA
ATOM     12  N   UNL     1     -31.568  52.303 -51.645  1.00  0.00    -0.369 N 
ATOM     13  H   UNL     1     -31.759  52.801 -52.543  1.00  0.00     0.159 HD
ATOM     14  H   UNL     1     -30.660  52.472 -51.157  1.00  0.00     0.159 HD
ENDBRANCH   1  10
TORSDOF 4
ENDMDL
MODEL 4
REMARK VINA RESULT:    -4.106      2.787      4.617
REMARK INTER + INTRA:          -5.202
REMARK INTER:                  -4.941
REMARK INTRA:                  -0.261
REMARK UNBOUND:                -0.256
REMARK SMILES NC(=O)C[C@H]([NH3+])C(=O)[O-]
REMARK SMILES IDX 4 1 5 2 6 3 7 7 8 8 9 9 2 10 3 11 1 12
REMARK H PARENT 6 4 6 5 6 6 1 13 1 14
REMARK Flexibility Score: inf
ROOT
ATOM      1  C   UNL     1     -34.708  50.454 -52.228  1.00  0.00     0.171 C 
ENDROOT
BRANCH   1   2
ATOM      2  C   UNL     1     -33.177  50.501 -52.407  1.00  0.00     0.237 C 
BRANCH   2   3
ATOM      3  N   UNL     1     -32.620  49.142 -52.426  1.00  0.00    -0.350 N 
ATOM      4  H   UNL     1     -32.362  48.862 -53.400  1.00  0.00     0.345 HD
ATOM      5  H   UNL     1     -33.322  48.465 -52.047  1.00  0.00     0.345 HD
ATOM      6  H   UNL     1     -31.767  49.101 -51.821  1.00  0.00     0.345 HD
ENDBRANCH   2   3
BRANCH   2   7
ATOM      7  C   UNL     1     -32.528  51.315 -51.317  1.00  0.00     0.100 C 
ATOM      8  O   UNL     1     -32.245  50.790 -50.208  1.00  0.00    -0.544 OA
ATOM      9  O   UNL     1     -32.256  52.662 -51.526  1.00  0.00    -0.544 OA
ENDBRANCH   2   7
ENDBRANCH   1   2
BRANCH   1  10
ATOM     10  C   UNL     1     -35.331  49.381 -53.075  1.00  0.00     0.223 C 
ATOM     11  O   UNL     1     -35.702  48.301 -52.543  1.00  0.00    -0.275 OA
ATOM     12  N   UNL     1     -35.472  49.561 -54.484  1.00  0.00    -0.369 N 
ATOM     13  H   UNL     1     -35.153  50.442 -54.944  1.00  0.00     0.159 HD
ATOM     14  H   UNL     1     -35.892  48.807 -55.072  1.00  0.00     0.159 HD
ENDBRANCH   1  10
TORSDOF 4
ENDMDL
MODEL 5
REMARK VINA RESULT:    -4.088      1.723      2.197
REMARK INTER + INTRA:          -5.180
REMARK INTER:                  -4.930
REMARK INTRA:                  -0.250
REMARK UNBOUND:                -0.256
REMARK SMILES NC(=O)C[C@H]([NH3+])C(=O)[O-]
REMARK SMILES IDX 4 1 5 2 6 3 7 7 8 8 9 9 2 10 3 11 1 12
REMARK H PARENT 6 4 6 5 6 6 1 13 1 14
REMARK Flexibility Score: inf
ROOT
ATOM      1  C   UNL     1     -33.461  51.485 -51.910  1.00  0.00     0.171 C 
ENDROOT
BRANCH   1   2
ATOM      2  C   UNL     1     -33.722  49.968 -52.010  1.00  0.00     0.237 C 
BRANCH   2   3
ATOM      3  N   UNL     1     -32.556  49.282 -52.579  1.00  0.00    -0.350 N 
ATOM      4  H   UNL     1     -32.711  48.247 -52.603  1.00  0.00     0.345 HD
ATOM      5  H   UNL     1     -31.706  49.489 -52.004  1.00  0.00     0.345 HD
ATOM      6  H   UNL     1     -32.383  49.624 -53.552  1.00  0.00     0.345 HD
ENDBRANCH   2   3
BRANCH   2   7
ATOM      7  C   UNL     1     -34.950  49.682 -52.837  1.00  0.00     0.100 C 
ATOM      8  O   UNL     1     -36.034  49.361 -52.281  1.00  0.00    -0.544 OA
ATOM      9  O   UNL     1     -34.886  49.755 -54.223  1.00  0.00    -0.544 OA
ENDBRANCH   2   7
ENDBRANCH   1   2
BRANCH   1  10
ATOM     10  C   UNL     1     -32.657  51.828 -50.689  1.00  0.00     0.223 C 
ATOM     11  O   UNL     1     -32.308  50.916 -49.893  1.00  0.00    -0.275 OA
ATOM     12  N   UNL     1     -32.317  53.184 -50.403  1.00  0.00    -0.369 N 
ATOM     13  H   UNL     1     -32.614  53.954 -51.041  1.00  0.00     0.159 HD
ATOM     14  H   UNL     1     -31.770  53.421 -49.545  1.00  0.00     0.159 HD
ENDBRANCH   1  10
TORSDOF 4
ENDMDL
MODEL 6
REMARK VINA RESULT:    -4.014     13.408     14.987
REMARK INTER + INTRA:          -5.091
REMARK INTER:                  -5.011
REMARK INTRA:                  -0.080
REMARK UNBOUND:                -0.256
REMARK SMILES NC(=O)C[C@H]([NH3+])C(=O)[O-]
REMARK SMILES IDX 4 1 5 2 6 3 7 7 8 8 9 9 2 10 3 11 1 12
REMARK H PARENT 6 4 6 5 6 6 1 13 1 14
REMARK Flexibility Score: inf
ROOT
ATOM      1  C   UNL     1     -40.760  40.578 -50.940  1.00  0.00     0.171 C 
ENDROOT
BRANCH   1   2
ATOM      2  C   UNL     1     -41.468  39.711 -49.879  1.00  0.00     0.237 C 
BRANCH   2   3
ATOM      3  N   UNL     1     -40.672  39.656 -48.646  1.00  0.00    -0.350 N 
ATOM      4  H   UNL     1     -41.250  39.939 -47.821  1.00  0.00     0.345 HD
ATOM      5  H   UNL     1     -39.849  40.296 -48.726  1.00  0.00     0.345 HD
ATOM      6  H   UNL     1     -40.317  38.684 -48.497  1.00  0.00     0.345 HD
ENDBRANCH   2   3
BRANCH   2   7
ATOM      7  C   UNL     1     -41.722  38.319 -50.399  1.00  0.00     0.100 C 
ATOM      8  O   UNL     1     -41.175  37.924 -51.462  1.00  0.00    -0.544 OA
ATOM      9  O   UNL     1     -42.581  37.469 -49.713  1.00  0.00    -0.544 OA
ENDBRANCH   2   7
ENDBRANCH   1   2
BRANCH   1  10
ATOM     10  C   UNL     1     -41.414  41.923 -51.082  1.00  0.00     0.223 C 
ATOM     11  O   UNL     1     -41.949  42.245 -52.176  1.00  0.00    -0.275 OA
ATOM     12  N   UNL     1     -41.403  42.852 -49.999  1.00  0.00    -0.369 N 
ATOM     13  H   UNL     1     -40.947  42.609 -49.092  1.00  0.00     0.159 HD
ATOM     14  H   UNL     1     -41.846  43.792 -50.106  1.00  0.00     0.159 HD
ENDBRANCH   1  10
TORSDOF 4
ENDMDL
MODEL 7
REMARK VINA RESULT:    -4.000     13.448     14.428
REMARK INTER + INTRA:          -5.074
REMARK INTER:                  -4.668
REMARK INTRA:                  -0.407
REMARK UNBOUND:                -0.256
REMARK SMILES NC(=O)C[C@H]([NH3+])C(=O)[O-]
REMARK SMILES IDX 4 1 5 2 6 3 7 7 8 8 9 9 2 10 3 11 1 12
REMARK H PARENT 6 4 6 5 6 6 1 13 1 14
REMARK Flexibility Score: inf
ROOT
ATOM      1  C   UNL     1     -40.251  40.506 -50.655  1.00  0.00     0.171 C 
ENDROOT
BRANCH   1   2
ATOM      2  C   UNL     1     -40.931  41.835 -51.043  1.00  0.00     0.237 C 
BRANCH   2   3
ATOM      3  N   UNL     1     -41.390  42.547 -49.844  1.00  0.00    -0.350 N 
ATOM      4  H   UNL     1     -40.576  42.904 -49.292  1.00  0.00     0.345 HD
ATOM      5  H   UNL     1     -41.957  41.904 -49.244  1.00  0.00     0.345 HD
ATOM      6  H   UNL     1     -41.995  43.354 -50.121  1.00  0.00     0.345 HD
ENDBRANCH   2   3
BRANCH   2   7
ATOM      7  C   UNL     1     -42.085  41.599 -51.984  1.00  0.00     0.100 C 
ATOM      8  O   UNL     1     -42.681  42.570 -52.520  1.00  0.00    -0.544 OA
ATOM      9  O   UNL     1     -42.510  40.303 -52.249  1.00  0.00    -0.544 OA
ENDBRANCH   2   7
ENDBRANCH   1   2
BRANCH   1  10
ATOM     10  C   UNL     1     -40.901  39.882 -49.453  1.00  0.00     0.223 C 
ATOM     11  O   UNL     1     -40.648  40.328 -48.303  1.00  0.00    -0.275 OA
ATOM     12  N   UNL     1     -41.775  38.764 -49.602  1.00  0.00    -0.369 N 
ATOM     13  H   UNL     1     -41.982  38.369 -50.546  1.00  0.00     0.159 HD
ATOM     14  H   UNL     1     -42.214  38.323 -48.762  1.00  0.00     0.159 HD
ENDBRANCH   1  10
TORSDOF 4
ENDMDL
MODEL 8
REMARK VINA RESULT:    -3.998      1.790      4.141
REMARK INTER + INTRA:          -5.072
REMARK INTER:                  -4.616
REMARK INTRA:                  -0.456
REMARK UNBOUND:                -0.256
REMARK SMILES NC(=O)C[C@H]([NH3+])C(=O)[O-]
REMARK SMILES IDX 4 1 5 2 6 3 7 7 8 8 9 9 2 10 3 11 1 12
REMARK H PARENT 6 4 6 5 6 6 1 13 1 14
REMARK Flexibility Score: inf
ROOT
ATOM      1  C   UNL     1     -33.882  51.231 -52.004  1.00  0.00     0.171 C 
ENDROOT
BRANCH   1   2
ATOM      2  C   UNL     1     -32.814  52.245 -51.549  1.00  0.00     0.237 C 
BRANCH   2   3
ATOM      3  N   UNL     1     -31.664  52.226 -52.463  1.00  0.00    -0.350 N 
ATOM      4  H   UNL     1     -31.268  53.187 -52.578  1.00  0.00     0.345 HD
ATOM      5  H   UNL     1     -31.959  51.860 -53.398  1.00  0.00     0.345 HD
ATOM      6  H   UNL     1     -30.922  51.593 -52.084  1.00  0.00     0.345 HD
ENDBRANCH   2   3
BRANCH   2   7
ATOM      7  C   UNL     1     -32.363  51.963 -50.138  1.00  0.00     0.100 C 
ATOM      8  O   UNL     1     -32.317  50.781 -49.707  1.00  0.00    -0.544 OA
ATOM      9  O   UNL     1     -32.015  53.013 -49.298  1.00  0.00    -0.544 OA
ENDBRANCH   2   7
ENDBRANCH   1   2
BRANCH   1  10
ATOM     10  C   UNL     1     -33.306  50.197 -52.929  1.00  0.00     0.223 C 
ATOM     11  O   UNL     1     -33.373  50.365 -54.175  1.00  0.00    -0.275 OA
ATOM     12  N   UNL     1     -32.715  49.008 -52.407  1.00  0.00    -0.369 N 
ATOM     13  H   UNL     1     -32.667  48.843 -51.377  1.00  0.00     0.159 HD
ATOM     14  H   UNL     1     -32.328  48.283 -53.053  1.00  0.00     0.159 HD
ENDBRANCH   1  10
TORSDOF 4
ENDMDL
MODEL 9
REMARK VINA RESULT:    -3.924      2.670      3.723
REMARK INTER + INTRA:          -4.983
REMARK INTER:                  -4.732
REMARK INTRA:                  -0.250
REMARK UNBOUND:                -0.256
REMARK SMILES NC(=O)C[C@H]([NH3+])C(=O)[O-]
REMARK SMILES IDX 4 1 5 2 6 3 7 7 8 8 9 9 2 10 3 11 1 12
REMARK H PARENT 6 4 6 5 6 6 1 13 1 14
REMARK Flexibility Score: inf
ROOT
ATOM      1  C   UNL     1     -34.905  50.751 -52.055  1.00  0.00     0.171 C 
ENDROOT
BRANCH   1   2
ATOM      2  C   UNL     1     -35.075  49.430 -52.833  1.00  0.00     0.237 C 
BRANCH   2   3
ATOM      3  N   UNL     1     -35.039  49.676 -54.280  1.00  0.00    -0.350 N 
ATOM      4  H   UNL     1     -35.213  50.687 -54.487  1.00  0.00     0.345 HD
ATOM      5  H   UNL     1     -35.767  49.096 -54.757  1.00  0.00     0.345 HD
ATOM      6  H   UNL     1     -34.104  49.405 -54.662  1.00  0.00     0.345 HD
ENDBRANCH   2   3
BRANCH   2   7
ATOM      7  C   UNL     1     -36.359  48.738 -52.453  1.00  0.00     0.100 C 
ATOM      8  O   UNL     1     -37.453  49.362 -52.481  1.00  0.00    -0.544 OA
ATOM      9  O   UNL     1     -36.339  47.409 -52.050  1.00  0.00    -0.544 OA
ENDBRANCH   2   7
ENDBRANCH   1   2
BRANCH   1  10
ATOM     10  C   UNL     1     -33.457  51.112 -51.888  1.00  0.00     0.223 C 
ATOM     11  O   UNL     1     -32.570  50.422 -52.458  1.00  0.00    -0.275 OA
ATOM     12  N   UNL     1     -33.075  52.208 -51.058  1.00  0.00    -0.369 N 
ATOM     13  H   UNL     1     -33.794  52.779 -50.563  1.00  0.00     0.159 HD
ATOM     14  H   UNL     1     -32.065  52.447 -50.931  1.00  0.00     0.159 HD
ENDBRANCH   1  10
TORSDOF 4
ENDMDL
