MODEL 1
REMARK VINA RESULT:    -4.760      0.000      0.000
REMARK INTER + INTRA:          -7.560
REMARK INTER:                  -7.264
REMARK INTRA:                  -0.295
REMARK UNBOUND:                -0.295
REMARK SMILES O=C([O-])CCCCCCCCC(=O)[O-]
REMARK SMILES IDX 7 1 6 2 5 3 4 4 2 5 1 6 3 7 8 8 9 9 10 10 11 11 12 12 13 13
REMARK SMILES IDX 14 14
REMARK H PARENT
REMARK Flexibility Score: inf
ROOT
ATOM      1  C   UNL     1      58.831 144.136 -30.705  1.00  0.00     0.000 C 
ENDROOT
BRANCH   1   2
ATOM      2  C   UNL     1      57.393 143.752 -30.320  1.00  0.00     0.000 C 
BRANCH   2   3
ATOM      3  C   UNL     1      57.047 144.129 -28.870  1.00  0.00     0.006 C 
BRANCH   3   4
ATOM      4  C   UNL     1      55.596 143.783 -28.512  1.00  0.00     0.053 C 
BRANCH   4   5
ATOM      5  C   UNL     1      55.315 144.004 -27.056  1.00  0.00     0.041 C 
ATOM      6  O   UNL     1      55.988 143.399 -26.181  1.00  0.00    -0.550 OA
ATOM      7  O   UNL     1      54.289 144.857 -26.668  1.00  0.00    -0.550 OA
ENDBRANCH   4   5
ENDBRANCH   3   4
ENDBRANCH   2   3
ENDBRANCH   1   2
BRANCH   1   8
ATOM      8  C   UNL     1      59.572 143.005 -31.432  1.00  0.00     0.000 C 
BRANCH   8   9
ATOM      9  C   UNL     1      59.980 143.440 -32.848  1.00  0.00     0.000 C 
BRANCH   9  10
ATOM     10  C   UNL     1      59.619 144.905 -33.146  1.00  0.00     0.006 C 
BRANCH  10  11
ATOM     11  C   UNL     1      60.118 145.368 -34.520  1.00  0.00     0.053 C 
BRANCH  11  12
ATOM     12  C   UNL     1      61.318 146.249 -34.370  1.00  0.00     0.041 C 
ATOM     13  O   UNL     1      61.451 147.267 -35.097  1.00  0.00    -0.550 OA
ATOM     14  O   UNL     1      62.265 145.973 -33.392  1.00  0.00    -0.550 OA
ENDBRANCH  11  12
ENDBRANCH  10  11
ENDBRANCH   9  10
ENDBRANCH   8   9
ENDBRANCH   1   8
TORSDOF 9
ENDMDL
MODEL 2
REMARK VINA RESULT:    -4.708      1.168      7.745
REMARK INTER + INTRA:          -7.481
REMARK INTER:                  -7.183
REMARK INTRA:                  -0.298
REMARK UNBOUND:                -0.295
REMARK SMILES O=C([O-])CCCCCCCCC(=O)[O-]
REMARK SMILES IDX 7 1 6 2 5 3 4 4 2 5 1 6 3 7 8 8 9 9 10 10 11 11 12 12 13 13
REMARK SMILES IDX 14 14
REMARK H PARENT
REMARK Flexibility Score: inf
ROOT
ATOM      1  C   UNL     1      58.378 144.124 -31.620  1.00  0.00     0.000 C 
ENDROOT
BRANCH   1   2
ATOM      2  C   UNL     1      59.629 143.468 -32.228  1.00  0.00     0.000 C 
BRANCH   2   3
ATOM      3  C   UNL     1      60.144 144.212 -33.472  1.00  0.00     0.006 C 
BRANCH   3   4
ATOM      4  C   UNL     1      59.492 145.592 -33.632  1.00  0.00     0.053 C 
BRANCH   4   5
ATOM      5  C   UNL     1      60.486 146.700 -33.459  1.00  0.00     0.041 C 
ATOM      6  O   UNL     1      60.389 147.493 -32.487  1.00  0.00    -0.550 OA
ATOM      7  O   UNL     1      61.503 146.871 -34.390  1.00  0.00    -0.550 OA
ENDBRANCH   4   5
ENDBRANCH   3   4
ENDBRANCH   2   3
ENDBRANCH   1   2
BRANCH   1   8
ATOM      8  C   UNL     1      58.369 144.075 -30.085  1.00  0.00     0.000 C 
BRANCH   8   9
ATOM      9  C   UNL     1      56.960 143.766 -29.557  1.00  0.00     0.000 C 
BRANCH   9  10
ATOM     10  C   UNL     1      56.650 144.490 -28.236  1.00  0.00     0.006 C 
BRANCH  10  11
ATOM     11  C   UNL     1      55.271 144.125 -27.672  1.00  0.00     0.053 C 
BRANCH  11  12
ATOM     12  C   UNL     1      55.415 143.341 -26.407  1.00  0.00     0.041 C 
ATOM     13  O   UNL     1      54.743 142.291 -26.232  1.00  0.00    -0.550 OA
ATOM     14  O   UNL     1      56.330 143.741 -25.442  1.00  0.00    -0.550 OA
ENDBRANCH  11  12
ENDBRANCH  10  11
ENDBRANCH   9  10
ENDBRANCH   8   9
ENDBRANCH   1   8
TORSDOF 9
ENDMDL
MODEL 3
REMARK VINA RESULT:    -4.598      1.468      8.477
REMARK INTER + INTRA:          -7.312
REMARK INTER:                  -7.158
REMARK INTRA:                  -0.154
REMARK UNBOUND:                -0.295
REMARK SMILES O=C([O-])CCCCCCCCC(=O)[O-]
REMARK SMILES IDX 7 1 6 2 5 3 4 4 2 5 1 6 3 7 8 8 9 9 10 10 11 11 12 12 13 13
REMARK SMILES IDX 14 14
REMARK H PARENT
REMARK Flexibility Score: inf
ROOT
ATOM      1  C   UNL     1      58.235 144.077 -30.140  1.00  0.00     0.000 C 
ENDROOT
BRANCH   1   2
ATOM      2  C   UNL     1      58.198 144.102 -31.677  1.00  0.00     0.000 C 
BRANCH   2   3
ATOM      3  C   UNL     1      59.602 144.167 -32.303  1.00  0.00     0.006 C 
BRANCH   3   4
ATOM      4  C   UNL     1      59.702 145.245 -33.389  1.00  0.00     0.053 C 
BRANCH   4   5
ATOM      5  C   UNL     1      61.034 145.221 -34.074  1.00  0.00     0.041 C 
ATOM      6  O   UNL     1      61.351 144.253 -34.813  1.00  0.00    -0.550 OA
ATOM      7  O   UNL     1      61.938 146.258 -33.873  1.00  0.00    -0.550 OA
ENDBRANCH   4   5
ENDBRANCH   3   4
ENDBRANCH   2   3
ENDBRANCH   1   2
BRANCH   1   8
ATOM      8  C   UNL     1      56.881 143.704 -29.520  1.00  0.00     0.000 C 
BRANCH   8   9
ATOM      9  C   UNL     1      56.685 144.410 -28.170  1.00  0.00     0.000 C 
BRANCH   9  10
ATOM     10  C   UNL     1      55.944 143.535 -27.145  1.00  0.00     0.006 C 
BRANCH  10  11
ATOM     11  C   UNL     1      56.266 143.922 -25.696  1.00  0.00     0.053 C 
BRANCH  11  12
ATOM     12  C   UNL     1      55.017 143.954 -24.874  1.00  0.00     0.041 C 
ATOM     13  O   UNL     1      54.464 145.052 -24.604  1.00  0.00    -0.550 OA
ATOM     14  O   UNL     1      54.434 142.767 -24.449  1.00  0.00    -0.550 OA
ENDBRANCH  11  12
ENDBRANCH  10  11
ENDBRANCH   9  10
ENDBRANCH   8   9
ENDBRANCH   1   8
TORSDOF 9
ENDMDL
MODEL 4
REMARK VINA RESULT:    -4.515      2.259      8.436
REMARK INTER + INTRA:          -7.186
REMARK INTER:                  -6.917
REMARK INTRA:                  -0.269
REMARK UNBOUND:                -0.295
REMARK SMILES O=C([O-])CCCCCCCCC(=O)[O-]
REMARK SMILES IDX 7 1 6 2 5 3 4 4 2 5 1 6 3 7 8 8 9 9 10 10 11 11 12 12 13 13
REMARK SMILES IDX 14 14
REMARK H PARENT
REMARK Flexibility Score: inf
ROOT
ATOM      1  C   UNL     1      56.292 143.917 -28.334  1.00  0.00     0.000 C 
ENDROOT
BRANCH   1   2
ATOM      2  C   UNL     1      56.606 143.795 -29.834  1.00  0.00     0.000 C 
BRANCH   2   3
ATOM      3  C   UNL     1      58.109 143.917 -30.136  1.00  0.00     0.006 C 
BRANCH   3   4
ATOM      4  C   UNL     1      58.379 144.236 -31.613  1.00  0.00     0.053 C 
BRANCH   4   5
ATOM      5  C   UNL     1      59.581 143.503 -32.128  1.00  0.00     0.041 C 
ATOM      6  O   UNL     1      60.127 142.609 -31.431  1.00  0.00    -0.550 OA
ATOM      7  O   UNL     1      60.113 143.830 -33.370  1.00  0.00    -0.550 OA
ENDBRANCH   4   5
ENDBRANCH   3   4
ENDBRANCH   2   3
ENDBRANCH   1   2
BRANCH   1   8
ATOM      8  C   UNL     1      55.062 143.098 -27.917  1.00  0.00     0.000 C 
BRANCH   8   9
ATOM      9  C   UNL     1      55.147 142.697 -26.437  1.00  0.00     0.000 C 
BRANCH   9  10
ATOM     10  C   UNL     1      55.996 143.673 -25.606  1.00  0.00     0.006 C 
BRANCH  10  11
ATOM     11  C   UNL     1      55.437 143.886 -24.193  1.00  0.00     0.053 C 
BRANCH  11  12
ATOM     12  C   UNL     1      54.314 144.874 -24.220  1.00  0.00     0.041 C 
ATOM     13  O   UNL     1      53.657 145.114 -23.174  1.00  0.00    -0.550 OA
ATOM     14  O   UNL     1      54.026 145.568 -25.388  1.00  0.00    -0.550 OA
ENDBRANCH  11  12
ENDBRANCH  10  11
ENDBRANCH   9  10
ENDBRANCH   8   9
ENDBRANCH   1   8
TORSDOF 9
ENDMDL
MODEL 5
REMARK VINA RESULT:    -4.205      6.010      8.509
REMARK INTER + INTRA:          -6.712
REMARK INTER:                  -5.966
REMARK INTRA:                  -0.746
REMARK UNBOUND:                -0.295
REMARK SMILES O=C([O-])CCCCCCCCC(=O)[O-]
REMARK SMILES IDX 7 1 6 2 5 3 4 4 2 5 1 6 3 7 8 8 9 9 10 10 11 11 12 12 13 13
REMARK SMILES IDX 14 14
REMARK H PARENT
REMARK Flexibility Score: inf
ROOT
ATOM      1  C   UNL     1      56.547 140.876 -23.712  1.00  0.00     0.000 C 
ENDROOT
BRANCH   1   2
ATOM      2  C   UNL     1      57.029 141.749 -22.542  1.00  0.00     0.000 C 
BRANCH   2   3
ATOM      3  C   UNL     1      58.558 141.916 -22.518  1.00  0.00     0.006 C 
BRANCH   3   4
ATOM      4  C   UNL     1      58.979 143.391 -22.506  1.00  0.00     0.053 C 
BRANCH   4   5
ATOM      5  C   UNL     1      59.079 143.929 -21.111  1.00  0.00     0.041 C 
ATOM      6  O   UNL     1      59.149 145.170 -20.913  1.00  0.00    -0.550 OA
ATOM      7  O   UNL     1      59.124 143.056 -20.031  1.00  0.00    -0.550 OA
ENDBRANCH   4   5
ENDBRANCH   3   4
ENDBRANCH   2   3
ENDBRANCH   1   2
BRANCH   1   8
ATOM      8  C   UNL     1      55.532 141.597 -24.611  1.00  0.00     0.000 C 
BRANCH   8   9
ATOM      9  C   UNL     1      55.001 142.866 -23.928  1.00  0.00     0.000 C 
BRANCH   9  10
ATOM     10  C   UNL     1      55.230 144.133 -24.769  1.00  0.00     0.006 C 
BRANCH  10  11
ATOM     11  C   UNL     1      56.173 143.892 -25.955  1.00  0.00     0.053 C 
BRANCH  11  12
ATOM     12  C   UNL     1      55.481 144.200 -27.244  1.00  0.00     0.041 C 
ATOM     13  O   UNL     1      56.079 144.840 -28.148  1.00  0.00    -0.550 OA
ATOM     14  O   UNL     1      54.192 143.735 -27.469  1.00  0.00    -0.550 OA
ENDBRANCH  11  12
ENDBRANCH  10  11
ENDBRANCH   9  10
ENDBRANCH   8   9
ENDBRANCH   1   8
TORSDOF 9
ENDMDL
MODEL 6
REMARK VINA RESULT:    -4.193      1.841      2.944
REMARK INTER + INTRA:          -6.694
REMARK INTER:                  -6.456
REMARK INTRA:                  -0.239
REMARK UNBOUND:                -0.295
REMARK SMILES O=C([O-])CCCCCCCCC(=O)[O-]
REMARK SMILES IDX 7 1 6 2 5 3 4 4 2 5 1 6 3 7 8 8 9 9 10 10 11 11 12 12 13 13
REMARK SMILES IDX 14 14
REMARK H PARENT
REMARK Flexibility Score: inf
ROOT
ATOM      1  C   UNL     1      56.845 144.356 -28.236  1.00  0.00     0.000 C 
ENDROOT
BRANCH   1   2
ATOM      2  C   UNL     1      55.449 144.234 -27.603  1.00  0.00     0.000 C 
BRANCH   2   3
ATOM      3  C   UNL     1      55.503 144.109 -26.071  1.00  0.00     0.006 C 
BRANCH   3   4
ATOM      4  C   UNL     1      55.895 142.697 -25.618  1.00  0.00     0.053 C 
BRANCH   4   5
ATOM      5  C   UNL     1      54.695 141.821 -25.428  1.00  0.00     0.041 C 
ATOM      6  O   UNL     1      54.201 141.200 -26.404  1.00  0.00    -0.550 OA
ATOM      7  O   UNL     1      54.105 141.713 -24.174  1.00  0.00    -0.550 OA
ENDBRANCH   4   5
ENDBRANCH   3   4
ENDBRANCH   2   3
ENDBRANCH   1   2
BRANCH   1   8
ATOM      8  C   UNL     1      56.903 143.779 -29.658  1.00  0.00     0.000 C 
BRANCH   8   9
ATOM      9  C   UNL     1      58.310 143.936 -30.255  1.00  0.00     0.000 C 
BRANCH   9  10
ATOM     10  C   UNL     1      58.286 144.191 -31.771  1.00  0.00     0.006 C 
BRANCH  10  11
ATOM     11  C   UNL     1      59.625 143.863 -32.446  1.00  0.00     0.053 C 
BRANCH  11  12
ATOM     12  C   UNL     1      59.956 144.894 -33.477  1.00  0.00     0.041 C 
ATOM     13  O   UNL     1      59.067 145.680 -33.897  1.00  0.00    -0.550 OA
ATOM     14  O   UNL     1      61.260 145.022 -33.937  1.00  0.00    -0.550 OA
ENDBRANCH  11  12
ENDBRANCH  10  11
ENDBRANCH   9  10
ENDBRANCH   8   9
ENDBRANCH   1   8
TORSDOF 9
ENDMDL
MODEL 7
REMARK VINA RESULT:    -4.138      7.161      8.932
REMARK INTER + INTRA:          -6.611
REMARK INTER:                  -5.919
REMARK INTRA:                  -0.692
REMARK UNBOUND:                -0.295
REMARK SMILES O=C([O-])CCCCCCCCC(=O)[O-]
REMARK SMILES IDX 7 1 6 2 5 3 4 4 2 5 1 6 3 7 8 8 9 9 10 10 11 11 12 12 13 13
REMARK SMILES IDX 14 14
REMARK H PARENT
REMARK Flexibility Score: inf
ROOT
ATOM      1  C   UNL     1      56.267 141.890 -23.123  1.00  0.00     0.000 C 
ENDROOT
BRANCH   1   2
ATOM      2  C   UNL     1      55.373 141.470 -24.301  1.00  0.00     0.000 C 
BRANCH   2   3
ATOM      3  C   UNL     1      55.797 142.123 -25.628  1.00  0.00     0.006 C 
BRANCH   3   4
ATOM      4  C   UNL     1      56.133 143.610 -25.461  1.00  0.00     0.053 C 
BRANCH   4   5
ATOM      5  C   UNL     1      54.945 144.482 -25.732  1.00  0.00     0.041 C 
ATOM      6  O   UNL     1      54.530 144.642 -26.910  1.00  0.00    -0.550 OA
ATOM      7  O   UNL     1      54.312 145.141 -24.685  1.00  0.00    -0.550 OA
ENDBRANCH   4   5
ENDBRANCH   3   4
ENDBRANCH   2   3
ENDBRANCH   1   2
BRANCH   1   8
ATOM      8  C   UNL     1      57.287 140.808 -22.739  1.00  0.00     0.000 C 
BRANCH   8   9
ATOM      9  C   UNL     1      58.682 141.418 -22.538  1.00  0.00     0.000 C 
BRANCH   9  10
ATOM     10  C   UNL     1      58.712 142.932 -22.808  1.00  0.00     0.006 C 
BRANCH  10  11
ATOM     11  C   UNL     1      60.109 143.538 -22.620  1.00  0.00     0.053 C 
BRANCH  11  12
ATOM     12  C   UNL     1      60.042 144.742 -21.736  1.00  0.00     0.041 C 
ATOM     13  O   UNL     1      60.929 145.632 -21.809  1.00  0.00    -0.550 OA
ATOM     14  O   UNL     1      58.971 144.908 -20.867  1.00  0.00    -0.550 OA
ENDBRANCH  11  12
ENDBRANCH  10  11
ENDBRANCH   9  10
ENDBRANCH   8   9
ENDBRANCH   1   8
TORSDOF 9
ENDMDL
MODEL 8
REMARK VINA RESULT:    -4.077      6.109      9.036
REMARK INTER + INTRA:          -6.517
REMARK INTER:                  -5.928
REMARK INTRA:                  -0.589
REMARK UNBOUND:                -0.295
REMARK SMILES O=C([O-])CCCCCCCCC(=O)[O-]
REMARK SMILES IDX 7 1 6 2 5 3 4 4 2 5 1 6 3 7 8 8 9 9 10 10 11 11 12 12 13 13
REMARK SMILES IDX 14 14
REMARK H PARENT
REMARK Flexibility Score: inf
ROOT
ATOM      1  C   UNL     1      56.110 141.192 -24.222  1.00  0.00     0.000 C 
ENDROOT
BRANCH   1   2
ATOM      2  C   UNL     1      54.917 142.161 -24.255  1.00  0.00     0.000 C 
BRANCH   2   3
ATOM      3  C   UNL     1      55.320 143.582 -24.686  1.00  0.00     0.006 C 
BRANCH   3   4
ATOM      4  C   UNL     1      56.223 143.576 -25.926  1.00  0.00     0.053 C 
BRANCH   4   5
ATOM      5  C   UNL     1      55.448 143.847 -27.179  1.00  0.00     0.041 C 
ATOM      6  O   UNL     1      54.426 143.166 -27.453  1.00  0.00    -0.550 OA
ATOM      7  O   UNL     1      55.873 144.835 -28.059  1.00  0.00    -0.550 OA
ENDBRANCH   4   5
ENDBRANCH   3   4
ENDBRANCH   2   3
ENDBRANCH   1   2
BRANCH   1   8
ATOM      8  C   UNL     1      56.623 140.932 -22.798  1.00  0.00     0.000 C 
BRANCH   8   9
ATOM      9  C   UNL     1      58.102 141.329 -22.670  1.00  0.00     0.000 C 
BRANCH   9  10
ATOM     10  C   UNL     1      58.297 142.657 -21.920  1.00  0.00     0.006 C 
BRANCH  10  11
ATOM     11  C   UNL     1      59.514 143.445 -22.422  1.00  0.00     0.053 C 
BRANCH  11  12
ATOM     12  C   UNL     1      59.676 144.710 -21.640  1.00  0.00     0.041 C 
ATOM     13  O   UNL     1      58.970 144.919 -20.619  1.00  0.00    -0.550 OA
ATOM     14  O   UNL     1      60.643 145.635 -22.009  1.00  0.00    -0.550 OA
ENDBRANCH  11  12
ENDBRANCH  10  11
ENDBRANCH   9  10
ENDBRANCH   8   9
ENDBRANCH   1   8
TORSDOF 9
ENDMDL
MODEL 9
REMARK VINA RESULT:    -4.051     12.708     14.966
REMARK INTER + INTRA:          -6.479
REMARK INTER:                  -5.580
REMARK INTRA:                  -0.898
REMARK UNBOUND:                -0.295
REMARK SMILES O=C([O-])CCCCCCCCC(=O)[O-]
REMARK SMILES IDX 7 1 6 2 5 3 4 4 2 5 1 6 3 7 8 8 9 9 10 10 11 11 12 12 13 13
REMARK SMILES IDX 14 14
REMARK H PARENT
REMARK Flexibility Score: inf
ROOT
ATOM      1  C   UNL     1      51.572 157.650 -26.168  1.00  0.00     0.000 C 
ENDROOT
BRANCH   1   2
ATOM      2  C   UNL     1      53.066 157.573 -26.522  1.00  0.00     0.000 C 
BRANCH   2   3
ATOM      3  C   UNL     1      53.959 157.376 -25.285  1.00  0.00     0.006 C 
BRANCH   3   4
ATOM      4  C   UNL     1      54.872 156.151 -25.419  1.00  0.00     0.053 C 
BRANCH   4   5
ATOM      5  C   UNL     1      56.318 156.519 -25.285  1.00  0.00     0.041 C 
ATOM      6  O   UNL     1      56.648 157.636 -24.807  1.00  0.00    -0.550 OA
ATOM      7  O   UNL     1      57.302 155.636 -25.714  1.00  0.00    -0.550 OA
ENDBRANCH   4   5
ENDBRANCH   3   4
ENDBRANCH   2   3
ENDBRANCH   1   2
BRANCH   1   8
ATOM      8  C   UNL     1      51.040 156.347 -25.553  1.00  0.00     0.000 C 
BRANCH   8   9
ATOM      9  C   UNL     1      51.156 155.185 -26.551  1.00  0.00     0.000 C 
BRANCH   9  10
ATOM     10  C   UNL     1      51.887 153.967 -25.961  1.00  0.00     0.006 C 
BRANCH  10  11
ATOM     11  C   UNL     1      51.985 154.022 -24.431  1.00  0.00     0.053 C 
BRANCH  11  12
ATOM     12  C   UNL     1      50.989 153.094 -23.811  1.00  0.00     0.041 C 
ATOM     13  O   UNL     1      50.211 153.508 -22.912  1.00  0.00    -0.550 OA
ATOM     14  O   UNL     1      50.884 151.785 -24.262  1.00  0.00    -0.550 OA
ENDBRANCH  11  12
ENDBRANCH  10  11
ENDBRANCH   9  10
ENDBRANCH   8   9
ENDBRANCH   1   8
TORSDOF 9
ENDMDL
