MODEL 1
REMARK VINA RESULT:    -5.999      0.000      0.000
REMARK INTER + INTRA:          -7.451
REMARK INTER:                  -7.226
REMARK INTRA:                  -0.224
REMARK UNBOUND:                -0.224
REMARK SMILES O=c1c(O)c(-c2ccc(O)cc2O)oc2cc(O)cc(O)c12
REMARK SMILES IDX 5 1 3 2 2 3 1 4 22 5 20 6 19 7 17 8 16 9 15 10 14 11 6 12
REMARK SMILES IDX 8 13 7 14 9 15 11 16 12 17 10 18 13 20 4 22 21 24 18 26
REMARK H PARENT 10 19 13 21 4 23 21 25 18 27
REMARK Flexibility Score: inf
ROOT
ATOM      1  C   UNL     1     117.979  73.629  44.350  1.00  0.00     0.184 A 
ATOM      2  C   UNL     1     117.763  73.855  42.982  1.00  0.00     0.208 A 
ATOM      3  C   UNL     1     118.792  73.556  42.074  1.00  0.00     0.238 A 
ATOM      4  O   UNL     1     118.566  73.691  40.843  1.00  0.00    -0.285 OA
ATOM      5  C   UNL     1     120.040  73.088  42.551  1.00  0.00     0.111 A 
ATOM      6  C   UNL     1     121.167  72.794  41.725  1.00  0.00     0.134 A 
ATOM      7  C   UNL     1     122.317  72.236  42.300  1.00  0.00     0.093 A 
ATOM      8  C   UNL     1     122.404  72.019  43.673  1.00  0.00     0.123 A 
ATOM      9  C   UNL     1     121.329  72.353  44.497  1.00  0.00     0.094 A 
ATOM     10  C   UNL     1     120.154  72.876  43.951  1.00  0.00     0.146 A 
ATOM     11  O   UNL     1     119.147  73.160  44.768  1.00  0.00    -0.451 OA
ENDROOT
BRANCH   1  12
ATOM     12  C   UNL     1     116.936  73.915  45.358  1.00  0.00     0.063 A 
ATOM     13  C   UNL     1     116.252  75.125  47.352  1.00  0.00     0.047 A 
ATOM     14  C   UNL     1     117.213  74.836  46.380  1.00  0.00     0.020 A 
ATOM     15  C   UNL     1     115.008  74.488  47.324  1.00  0.00     0.119 A 
ATOM     16  C   UNL     1     114.731  73.549  46.321  1.00  0.00     0.093 A 
ATOM     17  C   UNL     1     115.693  73.249  45.345  1.00  0.00     0.130 A 
BRANCH  15  18
ATOM     18  O   UNL     1     114.060  74.789  48.297  1.00  0.00    -0.508 OA
ATOM     19  H   UNL     1     113.503  75.634  48.250  1.00  0.00     0.293 HD
ENDBRANCH  15  18
BRANCH  17  20
ATOM     20  O   UNL     1     115.424  72.277  44.381  1.00  0.00    -0.507 OA
ATOM     21  H   UNL     1     116.152  71.907  43.783  1.00  0.00     0.293 HD
ENDBRANCH  17  20
ENDBRANCH   1  12
BRANCH   2  22
ATOM     22  O   UNL     1     116.548  74.385  42.543  1.00  0.00    -0.502 OA
ATOM     23  H   UNL     1     115.722  73.813  42.410  1.00  0.00     0.293 HD
ENDBRANCH   2  22
BRANCH   6  24
ATOM     24  O   UNL     1     121.222  73.053  40.353  1.00  0.00    -0.507 OA
ATOM     25  H   UNL     1     121.250  72.348  39.632  1.00  0.00     0.293 HD
ENDBRANCH   6  24
BRANCH   8  26
ATOM     26  O   UNL     1     123.569  71.479  44.211  1.00  0.00    -0.508 OA
ATOM     27  H   UNL     1     123.685  70.479  44.331  1.00  0.00     0.293 HD
ENDBRANCH   8  26
TORSDOF 6
ENDMDL
MODEL 2
REMARK VINA RESULT:    -5.528      3.200      5.978
REMARK INTER + INTRA:          -6.884
REMARK INTER:                  -6.484
REMARK INTRA:                  -0.400
REMARK UNBOUND:                -0.224
REMARK SMILES O=c1c(O)c(-c2ccc(O)cc2O)oc2cc(O)cc(O)c12
REMARK SMILES IDX 5 1 3 2 2 3 1 4 22 5 20 6 19 7 17 8 16 9 15 10 14 11 6 12
REMARK SMILES IDX 8 13 7 14 9 15 11 16 12 17 10 18 13 20 4 22 21 24 18 26
REMARK H PARENT 10 19 13 21 4 23 21 25 18 27
REMARK Flexibility Score: inf
ROOT
ATOM      1  C   UNL     1     121.084  70.747  44.895  1.00  0.00     0.184 A 
ATOM      2  C   UNL     1     122.161  71.033  44.043  1.00  0.00     0.208 A 
ATOM      3  C   UNL     1     122.064  72.127  43.168  1.00  0.00     0.238 A 
ATOM      4  O   UNL     1     123.061  72.422  42.460  1.00  0.00    -0.285 OA
ATOM      5  C   UNL     1     120.869  72.886  43.119  1.00  0.00     0.111 A 
ATOM      6  C   UNL     1     120.643  73.988  42.240  1.00  0.00     0.134 A 
ATOM      7  C   UNL     1     119.460  74.730  42.353  1.00  0.00     0.093 A 
ATOM      8  C   UNL     1     118.471  74.374  43.267  1.00  0.00     0.123 A 
ATOM      9  C   UNL     1     118.657  73.266  44.094  1.00  0.00     0.094 A 
ATOM     10  C   UNL     1     119.841  72.527  44.032  1.00  0.00     0.146 A 
ATOM     11  O   UNL     1     119.987  71.492  44.851  1.00  0.00    -0.451 OA
ENDROOT
BRANCH   1  12
ATOM     12  C   UNL     1     121.124  69.615  45.845  1.00  0.00     0.063 A 
ATOM     13  C   UNL     1     121.638  68.791  48.073  1.00  0.00     0.047 A 
ATOM     14  C   UNL     1     121.582  69.840  47.152  1.00  0.00     0.020 A 
ATOM     15  C   UNL     1     121.251  67.502  47.697  1.00  0.00     0.119 A 
ATOM     16  C   UNL     1     120.815  67.262  46.387  1.00  0.00     0.093 A 
ATOM     17  C   UNL     1     120.761  68.309  45.454  1.00  0.00     0.130 A 
BRANCH  15  18
ATOM     18  O   UNL     1     121.308  66.468  48.627  1.00  0.00    -0.508 OA
ATOM     19  H   UNL     1     120.469  66.014  48.968  1.00  0.00     0.293 HD
ENDBRANCH  15  18
BRANCH  17  20
ATOM     20  O   UNL     1     120.372  68.048  44.140  1.00  0.00    -0.507 OA
ATOM     21  H   UNL     1     119.646  67.376  43.925  1.00  0.00     0.293 HD
ENDBRANCH  17  20
ENDBRANCH   1  12
BRANCH   2  22
ATOM     22  O   UNL     1     123.301  70.225  44.062  1.00  0.00    -0.502 OA
ATOM     23  H   UNL     1     123.979  70.261  44.813  1.00  0.00     0.293 HD
ENDBRANCH   2  22
BRANCH   6  24
ATOM     24  O   UNL     1     121.526  74.378  41.229  1.00  0.00    -0.507 OA
ATOM     25  H   UNL     1     121.499  74.045  40.277  1.00  0.00     0.293 HD
ENDBRANCH   6  24
BRANCH   8  26
ATOM     26  O   UNL     1     117.300  75.125  43.341  1.00  0.00    -0.508 OA
ATOM     27  H   UNL     1     116.738  75.152  44.184  1.00  0.00     0.293 HD
ENDBRANCH   8  26
TORSDOF 6
ENDMDL
MODEL 3
REMARK VINA RESULT:    -5.460      1.643      6.403
REMARK INTER + INTRA:          -6.802
REMARK INTER:                  -6.385
REMARK INTRA:                  -0.418
REMARK UNBOUND:                -0.224
REMARK SMILES O=c1c(O)c(-c2ccc(O)cc2O)oc2cc(O)cc(O)c12
REMARK SMILES IDX 5 1 3 2 2 3 1 4 22 5 20 6 19 7 17 8 16 9 15 10 14 11 6 12
REMARK SMILES IDX 8 13 7 14 9 15 11 16 12 17 10 18 13 20 4 22 21 24 18 26
REMARK H PARENT 10 19 13 21 4 23 21 25 18 27
REMARK Flexibility Score: inf
ROOT
ATOM      1  C   UNL     1     119.048  72.850  44.192  1.00  0.00     0.184 A 
ATOM      2  C   UNL     1     118.671  73.608  43.073  1.00  0.00     0.208 A 
ATOM      3  C   UNL     1     117.392  74.185  43.042  1.00  0.00     0.238 A 
ATOM      4  O   UNL     1     117.087  74.923  42.070  1.00  0.00    -0.285 OA
ATOM      5  C   UNL     1     116.487  73.950  44.106  1.00  0.00     0.111 A 
ATOM      6  C   UNL     1     115.150  74.448  44.160  1.00  0.00     0.134 A 
ATOM      7  C   UNL     1     114.381  74.238  45.313  1.00  0.00     0.093 A 
ATOM      8  C   UNL     1     114.876  73.498  46.384  1.00  0.00     0.123 A 
ATOM      9  C   UNL     1     116.162  72.961  46.320  1.00  0.00     0.094 A 
ATOM     10  C   UNL     1     116.967  73.183  45.201  1.00  0.00     0.146 A 
ATOM     11  O   UNL     1     118.192  72.671  45.189  1.00  0.00    -0.451 OA
ENDROOT
BRANCH   1  12
ATOM     12  C   UNL     1     120.382  72.222  44.291  1.00  0.00     0.063 A 
ATOM     13  C   UNL     1     121.782  70.259  43.982  1.00  0.00     0.047 A 
ATOM     14  C   UNL     1     120.536  70.885  43.895  1.00  0.00     0.020 A 
ATOM     15  C   UNL     1     122.887  70.955  44.478  1.00  0.00     0.119 A 
ATOM     16  C   UNL     1     122.738  72.284  44.898  1.00  0.00     0.093 A 
ATOM     17  C   UNL     1     121.489  72.918  44.820  1.00  0.00     0.130 A 
BRANCH  15  18
ATOM     18  O   UNL     1     124.123  70.320  44.554  1.00  0.00    -0.508 OA
ATOM     19  H   UNL     1     124.248  69.364  44.242  1.00  0.00     0.293 HD
ENDBRANCH  15  18
BRANCH  17  20
ATOM     20  O   UNL     1     121.344  74.224  45.287  1.00  0.00    -0.507 OA
ATOM     21  H   UNL     1     122.145  74.799  45.516  1.00  0.00     0.293 HD
ENDBRANCH  17  20
ENDBRANCH   1  12
BRANCH   2  22
ATOM     22  O   UNL     1     119.558  73.765  42.004  1.00  0.00    -0.502 OA
ATOM     23  H   UNL     1     119.417  74.460  41.280  1.00  0.00     0.293 HD
ENDBRANCH   2  22
BRANCH   6  24
ATOM     24  O   UNL     1     114.523  75.125  43.110  1.00  0.00    -0.507 OA
ATOM     25  H   UNL     1     114.568  74.856  42.139  1.00  0.00     0.293 HD
ENDBRANCH   6  24
BRANCH   8  26
ATOM     26  O   UNL     1     114.077  73.296  47.507  1.00  0.00    -0.508 OA
ATOM     27  H   UNL     1     113.789  74.066  48.101  1.00  0.00     0.293 HD
ENDBRANCH   8  26
TORSDOF 6
ENDMDL
MODEL 4
REMARK VINA RESULT:    -5.310      1.750      6.994
REMARK INTER + INTRA:          -6.621
REMARK INTER:                  -6.232
REMARK INTRA:                  -0.390
REMARK UNBOUND:                -0.224
REMARK SMILES O=c1c(O)c(-c2ccc(O)cc2O)oc2cc(O)cc(O)c12
REMARK SMILES IDX 5 1 3 2 2 3 1 4 22 5 20 6 19 7 17 8 16 9 15 10 14 11 6 12
REMARK SMILES IDX 8 13 7 14 9 15 11 16 12 17 10 18 13 20 4 22 21 24 18 26
REMARK H PARENT 10 19 13 21 4 23 21 25 18 27
REMARK Flexibility Score: inf
ROOT
ATOM      1  C   UNL     1     118.479  73.316  44.913  1.00  0.00     0.184 A 
ATOM      2  C   UNL     1     118.313  73.556  46.285  1.00  0.00     0.208 A 
ATOM      3  C   UNL     1     117.042  73.911  46.765  1.00  0.00     0.238 A 
ATOM      4  O   UNL     1     116.885  74.053  48.005  1.00  0.00    -0.285 OA
ATOM      5  C   UNL     1     115.967  74.075  45.858  1.00  0.00     0.111 A 
ATOM      6  C   UNL     1     114.647  74.476  46.226  1.00  0.00     0.134 A 
ATOM      7  C   UNL     1     113.637  74.503  45.255  1.00  0.00     0.093 A 
ATOM      8  C   UNL     1     113.911  74.206  43.922  1.00  0.00     0.123 A 
ATOM      9  C   UNL     1     115.209  73.866  43.540  1.00  0.00     0.094 A 
ATOM     10  C   UNL     1     116.231  73.793  44.490  1.00  0.00     0.146 A 
ATOM     11  O   UNL     1     117.448  73.446  44.088  1.00  0.00    -0.451 OA
ENDROOT
BRANCH   1  12
ATOM     12  C   UNL     1     119.787  72.931  44.344  1.00  0.00     0.063 A 
ATOM     13  C   UNL     1     121.561  71.282  44.144  1.00  0.00     0.047 A 
ATOM     14  C   UNL     1     120.324  71.674  44.660  1.00  0.00     0.020 A 
ATOM     15  C   UNL     1     122.285  72.145  43.317  1.00  0.00     0.119 A 
ATOM     16  C   UNL     1     121.769  73.412  43.014  1.00  0.00     0.093 A 
ATOM     17  C   UNL     1     120.530  73.816  43.533  1.00  0.00     0.130 A 
BRANCH  15  18
ATOM     18  O   UNL     1     123.514  71.738  42.806  1.00  0.00    -0.508 OA
ATOM     19  H   UNL     1     123.760  70.757  42.735  1.00  0.00     0.293 HD
ENDBRANCH  15  18
BRANCH  17  20
ATOM     20  O   UNL     1     120.049  75.098  43.265  1.00  0.00    -0.507 OA
ATOM     21  H   UNL     1     120.249  75.879  43.878  1.00  0.00     0.293 HD
ENDBRANCH  17  20
ENDBRANCH   1  12
BRANCH   2  22
ATOM     22  O   UNL     1     119.407  73.457  47.149  1.00  0.00    -0.502 OA
ATOM     23  H   UNL     1     120.297  73.899  46.951  1.00  0.00     0.293 HD
ENDBRANCH   2  22
BRANCH   6  24
ATOM     24  O   UNL     1     114.281  74.879  47.514  1.00  0.00    -0.507 OA
ATOM     25  H   UNL     1     114.884  75.363  48.161  1.00  0.00     0.293 HD
ENDBRANCH   6  24
BRANCH   8  26
ATOM     26  O   UNL     1     112.886  74.259  42.981  1.00  0.00    -0.508 OA
ATOM     27  H   UNL     1     112.077  74.857  43.109  1.00  0.00     0.293 HD
ENDBRANCH   8  26
TORSDOF 6
ENDMDL
MODEL 5
REMARK VINA RESULT:    -5.306      2.223      3.848
REMARK INTER + INTRA:          -6.616
REMARK INTER:                  -6.192
REMARK INTRA:                  -0.424
REMARK UNBOUND:                -0.224
REMARK SMILES O=c1c(O)c(-c2ccc(O)cc2O)oc2cc(O)cc(O)c12
REMARK SMILES IDX 5 1 3 2 2 3 1 4 22 5 20 6 19 7 17 8 16 9 15 10 14 11 6 12
REMARK SMILES IDX 8 13 7 14 9 15 11 16 12 17 10 18 13 20 4 22 21 24 18 26
REMARK H PARENT 10 19 13 21 4 23 21 25 18 27
REMARK Flexibility Score: inf
ROOT
ATOM      1  C   UNL     1     118.613  73.592  45.215  1.00  0.00     0.184 A 
ATOM      2  C   UNL     1     119.030  74.206  46.405  1.00  0.00     0.208 A 
ATOM      3  C   UNL     1     120.347  74.005  46.849  1.00  0.00     0.238 A 
ATOM      4  O   UNL     1     120.736  74.616  47.877  1.00  0.00    -0.285 OA
ATOM      5  C   UNL     1     121.211  73.149  46.125  1.00  0.00     0.111 A 
ATOM      6  C   UNL     1     122.552  72.837  46.505  1.00  0.00     0.134 A 
ATOM      7  C   UNL     1     123.348  72.060  45.653  1.00  0.00     0.093 A 
ATOM      8  C   UNL     1     122.837  71.533  44.470  1.00  0.00     0.123 A 
ATOM      9  C   UNL     1     121.511  71.785  44.115  1.00  0.00     0.094 A 
ATOM     10  C   UNL     1     120.702  72.587  44.923  1.00  0.00     0.146 A 
ATOM     11  O   UNL     1     119.452  72.820  44.538  1.00  0.00    -0.451 OA
ENDROOT
BRANCH   1  12
ATOM     12  C   UNL     1     117.243  73.769  44.688  1.00  0.00     0.063 A 
ATOM     13  C   UNL     1     114.872  73.260  44.856  1.00  0.00     0.047 A 
ATOM     14  C   UNL     1     116.178  73.120  45.331  1.00  0.00     0.020 A 
ATOM     15  C   UNL     1     114.615  74.039  43.724  1.00  0.00     0.119 A 
ATOM     16  C   UNL     1     115.674  74.671  43.061  1.00  0.00     0.093 A 
ATOM     17  C   UNL     1     116.990  74.530  43.528  1.00  0.00     0.130 A 
BRANCH  15  18
ATOM     18  O   UNL     1     113.308  74.173  43.265  1.00  0.00    -0.508 OA
ATOM     19  H   UNL     1     112.516  74.111  43.894  1.00  0.00     0.293 HD
ENDBRANCH  15  18
BRANCH  17  20
ATOM     20  O   UNL     1     118.042  75.124  42.831  1.00  0.00    -0.507 OA
ATOM     21  H   UNL     1     118.287  74.834  41.892  1.00  0.00     0.293 HD
ENDBRANCH  17  20
ENDBRANCH   1  12
BRANCH   2  22
ATOM     22  O   UNL     1     118.135  74.988  47.139  1.00  0.00    -0.502 OA
ATOM     23  H   UNL     1     118.384  75.901  47.503  1.00  0.00     0.293 HD
ENDBRANCH   2  22
BRANCH   6  24
ATOM     24  O   UNL     1     123.138  73.238  47.708  1.00  0.00    -0.507 OA
ATOM     25  H   UNL     1     123.094  74.171  48.091  1.00  0.00     0.293 HD
ENDBRANCH   6  24
BRANCH   8  26
ATOM     26  O   UNL     1     123.652  70.750  43.656  1.00  0.00    -0.508 OA
ATOM     27  H   UNL     1     123.292  69.940  43.165  1.00  0.00     0.293 HD
ENDBRANCH   8  26
TORSDOF 6
ENDMDL
MODEL 6
REMARK VINA RESULT:    -5.278      1.602      6.592
REMARK INTER + INTRA:          -6.582
REMARK INTER:                  -6.232
REMARK INTRA:                  -0.350
REMARK UNBOUND:                -0.224
REMARK SMILES O=c1c(O)c(-c2ccc(O)cc2O)oc2cc(O)cc(O)c12
REMARK SMILES IDX 5 1 3 2 2 3 1 4 22 5 20 6 19 7 17 8 16 9 15 10 14 11 6 12
REMARK SMILES IDX 8 13 7 14 9 15 11 16 12 17 10 18 13 20 4 22 21 24 18 26
REMARK H PARENT 10 19 13 21 4 23 21 25 18 27
REMARK Flexibility Score: inf
ROOT
ATOM      1  C   UNL     1     117.853  73.590  44.096  1.00  0.00     0.184 A 
ATOM      2  C   UNL     1     116.879  74.254  43.335  1.00  0.00     0.208 A 
ATOM      3  C   UNL     1     115.607  74.461  43.892  1.00  0.00     0.238 A 
ATOM      4  O   UNL     1     114.762  75.121  43.233  1.00  0.00    -0.285 OA
ATOM      5  C   UNL     1     115.310  73.954  45.180  1.00  0.00     0.111 A 
ATOM      6  C   UNL     1     114.041  74.067  45.826  1.00  0.00     0.134 A 
ATOM      7  C   UNL     1     113.895  73.619  47.145  1.00  0.00     0.093 A 
ATOM      8  C   UNL     1     114.949  73.007  47.819  1.00  0.00     0.123 A 
ATOM      9  C   UNL     1     116.178  72.841  47.180  1.00  0.00     0.094 A 
ATOM     10  C   UNL     1     116.368  73.311  45.878  1.00  0.00     0.146 A 
ATOM     11  O   UNL     1     117.559  73.152  45.313  1.00  0.00    -0.451 OA
ENDROOT
BRANCH   1  12
ATOM     12  C   UNL     1     119.214  73.346  43.573  1.00  0.00     0.063 A 
ATOM     13  C   UNL     1     120.644  72.273  41.926  1.00  0.00     0.047 A 
ATOM     14  C   UNL     1     119.372  72.530  42.443  1.00  0.00     0.020 A 
ATOM     15  C   UNL     1     121.776  72.817  42.540  1.00  0.00     0.119 A 
ATOM     16  C   UNL     1     121.631  73.614  43.683  1.00  0.00     0.093 A 
ATOM     17  C   UNL     1     120.357  73.871  44.212  1.00  0.00     0.130 A 
BRANCH  15  18
ATOM     18  O   UNL     1     123.037  72.556  42.011  1.00  0.00    -0.508 OA
ATOM     19  H   UNL     1     123.876  72.943  42.426  1.00  0.00     0.293 HD
ENDBRANCH  15  18
BRANCH  17  20
ATOM     20  O   UNL     1     120.229  74.625  45.378  1.00  0.00    -0.507 OA
ATOM     21  H   UNL     1     120.761  75.474  45.523  1.00  0.00     0.293 HD
ENDBRANCH  17  20
ENDBRANCH   1  12
BRANCH   2  22
ATOM     22  O   UNL     1     117.176  74.681  42.039  1.00  0.00    -0.502 OA
ATOM     23  H   UNL     1     116.572  75.312  41.524  1.00  0.00     0.293 HD
ENDBRANCH   2  22
BRANCH   6  24
ATOM     24  O   UNL     1     112.895  74.583  45.215  1.00  0.00    -0.507 OA
ATOM     25  H   UNL     1     112.742  74.631  44.219  1.00  0.00     0.293 HD
ENDBRANCH   6  24
BRANCH   8  26
ATOM     26  O   UNL     1     114.763  72.558  49.124  1.00  0.00    -0.508 OA
ATOM     27  H   UNL     1     115.450  72.731  49.849  1.00  0.00     0.293 HD
ENDBRANCH   8  26
TORSDOF 6
ENDMDL
MODEL 7
REMARK VINA RESULT:    -5.196      1.551      6.966
REMARK INTER + INTRA:          -6.484
REMARK INTER:                  -6.529
REMARK INTRA:                   0.045
REMARK UNBOUND:                -0.224
REMARK SMILES O=c1c(O)c(-c2ccc(O)cc2O)oc2cc(O)cc(O)c12
REMARK SMILES IDX 5 1 3 2 2 3 1 4 22 5 20 6 19 7 17 8 16 9 15 10 14 11 6 12
REMARK SMILES IDX 8 13 7 14 9 15 11 16 12 17 10 18 13 20 4 22 21 24 18 26
REMARK H PARENT 10 19 13 21 4 23 21 25 18 27
REMARK Flexibility Score: inf
ROOT
ATOM      1  C   UNL     1     118.269  73.697  44.478  1.00  0.00     0.184 A 
ATOM      2  C   UNL     1     118.858  74.126  45.676  1.00  0.00     0.208 A 
ATOM      3  C   UNL     1     118.035  74.395  46.781  1.00  0.00     0.238 A 
ATOM      4  O   UNL     1     118.575  74.708  47.873  1.00  0.00    -0.285 OA
ATOM      5  C   UNL     1     116.628  74.284  46.655  1.00  0.00     0.111 A 
ATOM      6  C   UNL     1     115.694  74.574  47.696  1.00  0.00     0.134 A 
ATOM      7  C   UNL     1     114.331  74.327  47.488  1.00  0.00     0.093 A 
ATOM      8  C   UNL     1     113.861  73.861  46.261  1.00  0.00     0.123 A 
ATOM      9  C   UNL     1     114.759  73.626  45.219  1.00  0.00     0.094 A 
ATOM     10  C   UNL     1     116.129  73.827  45.406  1.00  0.00     0.146 A 
ATOM     11  O   UNL     1     116.951  73.571  44.395  1.00  0.00    -0.451 OA
ENDROOT
BRANCH   1  12
ATOM     12  C   UNL     1     119.079  73.390  43.280  1.00  0.00     0.063 A 
ATOM     13  C   UNL     1     121.134  72.502  42.335  1.00  0.00     0.047 A 
ATOM     14  C   UNL     1     120.341  72.800  43.445  1.00  0.00     0.020 A 
ATOM     15  C   UNL     1     120.684  72.803  41.046  1.00  0.00     0.119 A 
ATOM     16  C   UNL     1     119.435  73.414  40.872  1.00  0.00     0.093 A 
ATOM     17  C   UNL     1     118.635  73.722  41.983  1.00  0.00     0.130 A 
BRANCH  15  18
ATOM     18  O   UNL     1     121.484  72.496  39.949  1.00  0.00    -0.508 OA
ATOM     19  H   UNL     1     121.169  72.662  39.001  1.00  0.00     0.293 HD
ENDBRANCH  15  18
BRANCH  17  20
ATOM     20  O   UNL     1     117.416  74.374  41.800  1.00  0.00    -0.507 OA
ATOM     21  H   UNL     1     116.821  74.618  42.583  1.00  0.00     0.293 HD
ENDBRANCH  17  20
ENDBRANCH   1  12
BRANCH   2  22
ATOM     22  O   UNL     1     120.243  74.296  45.753  1.00  0.00    -0.502 OA
ATOM     23  H   UNL     1     120.766  74.112  46.601  1.00  0.00     0.293 HD
ENDBRANCH   2  22
BRANCH   6  24
ATOM     24  O   UNL     1     116.044  75.125  48.931  1.00  0.00    -0.507 OA
ATOM     25  H   UNL     1     116.607  74.666  49.631  1.00  0.00     0.293 HD
ENDBRANCH   6  24
BRANCH   8  26
ATOM     26  O   UNL     1     112.497  73.643  46.085  1.00  0.00    -0.508 OA
ATOM     27  H   UNL     1     112.056  73.739  45.177  1.00  0.00     0.293 HD
ENDBRANCH   8  26
TORSDOF 6
ENDMDL
MODEL 8
REMARK VINA RESULT:    -5.195      2.226      6.187
REMARK INTER + INTRA:          -6.483
REMARK INTER:                  -6.067
REMARK INTRA:                  -0.416
REMARK UNBOUND:                -0.224
REMARK SMILES O=c1c(O)c(-c2ccc(O)cc2O)oc2cc(O)cc(O)c12
REMARK SMILES IDX 5 1 3 2 2 3 1 4 22 5 20 6 19 7 17 8 16 9 15 10 14 11 6 12
REMARK SMILES IDX 8 13 7 14 9 15 11 16 12 17 10 18 13 20 4 22 21 24 18 26
REMARK H PARENT 10 19 13 21 4 23 21 25 18 27
REMARK Flexibility Score: inf
ROOT
ATOM      1  C   UNL     1     120.436  71.959  44.541  1.00  0.00     0.184 A 
ATOM      2  C   UNL     1     120.587  72.182  43.164  1.00  0.00     0.208 A 
ATOM      3  C   UNL     1     119.645  72.981  42.497  1.00  0.00     0.238 A 
ATOM      4  O   UNL     1     119.827  73.236  41.278  1.00  0.00    -0.285 OA
ATOM      5  C   UNL     1     118.534  73.501  43.205  1.00  0.00     0.111 A 
ATOM      6  C   UNL     1     117.494  74.287  42.622  1.00  0.00     0.134 A 
ATOM      7  C   UNL     1     116.500  74.835  43.443  1.00  0.00     0.093 A 
ATOM      8  C   UNL     1     116.472  74.577  44.811  1.00  0.00     0.123 A 
ATOM      9  C   UNL     1     117.452  73.765  45.384  1.00  0.00     0.094 A 
ATOM     10  C   UNL     1     118.478  73.234  44.599  1.00  0.00     0.146 A 
ATOM     11  O   UNL     1     119.403  72.484  45.187  1.00  0.00    -0.451 OA
ENDROOT
BRANCH   1  12
ATOM     12  C   UNL     1     121.395  71.134  45.304  1.00  0.00     0.063 A 
ATOM     13  C   UNL     1     121.988  68.972  46.244  1.00  0.00     0.047 A 
ATOM     14  C   UNL     1     121.105  69.779  45.521  1.00  0.00     0.020 A 
ATOM     15  C   UNL     1     123.163  69.512  46.771  1.00  0.00     0.119 A 
ATOM     16  C   UNL     1     123.450  70.870  46.581  1.00  0.00     0.093 A 
ATOM     17  C   UNL     1     122.567  71.689  45.862  1.00  0.00     0.130 A 
BRANCH  15  18
ATOM     18  O   UNL     1     124.035  68.695  47.486  1.00  0.00    -0.508 OA
ATOM     19  H   UNL     1     124.402  67.837  47.090  1.00  0.00     0.293 HD
ENDBRANCH  15  18
BRANCH  17  20
ATOM     20  O   UNL     1     122.839  73.049  45.721  1.00  0.00    -0.507 OA
ATOM     21  H   UNL     1     122.996  73.468  44.812  1.00  0.00     0.293 HD
ENDBRANCH  17  20
ENDBRANCH   1  12
BRANCH   2  22
ATOM     22  O   UNL     1     121.652  71.598  42.474  1.00  0.00    -0.502 OA
ATOM     23  H   UNL     1     121.545  70.754  41.924  1.00  0.00     0.293 HD
ENDBRANCH   2  22
BRANCH   6  24
ATOM     24  O   UNL     1     117.375  74.536  41.252  1.00  0.00    -0.507 OA
ATOM     25  H   UNL     1     117.074  73.861  40.565  1.00  0.00     0.293 HD
ENDBRANCH   6  24
BRANCH   8  26
ATOM     26  O   UNL     1     115.459  75.125  45.594  1.00  0.00    -0.508 OA
ATOM     27  H   UNL     1     114.902  74.553  46.219  1.00  0.00     0.293 HD
ENDBRANCH   8  26
TORSDOF 6
ENDMDL
