MODEL 1
REMARK VINA RESULT:    -7.568      0.000      0.000
REMARK INTER + INTRA:          -8.959
REMARK INTER:                  -9.116
REMARK INTRA:                   0.157
REMARK UNBOUND:                 0.157
REMARK SMILES O=c1c(O)c(-c2ccc(O)c(O)c2)oc2cc(O)cc(O)c12
REMARK SMILES IDX 5 1 3 2 2 3 1 4 22 5 20 6 19 7 17 8 16 9 15 10 14 11 6 12
REMARK SMILES IDX 7 13 8 14 9 15 13 16 11 17 10 18 12 20 4 22 21 24 18 26
REMARK H PARENT 10 19 12 21 4 23 21 25 18 27
REMARK Flexibility Score: inf
ROOT
ATOM      1  C   UNL     1      33.089  19.948 -15.347  1.00  0.00     0.180 A 
ATOM      2  C   UNL     1      34.157  20.441 -16.118  1.00  0.00     0.208 A 
ATOM      3  C   UNL     1      34.477  21.805 -16.045  1.00  0.00     0.238 A 
ATOM      4  O   UNL     1      35.468  22.228 -16.695  1.00  0.00    -0.285 OA
ATOM      5  C   UNL     1      33.717  22.664 -15.214  1.00  0.00     0.111 A 
ATOM      6  C   UNL     1      33.928  24.071 -15.095  1.00  0.00     0.134 A 
ATOM      7  C   UNL     1      33.201  24.799 -14.145  1.00  0.00     0.093 A 
ATOM      8  C   UNL     1      32.227  24.186 -13.359  1.00  0.00     0.123 A 
ATOM      9  C   UNL     1      31.970  22.822 -13.511  1.00  0.00     0.094 A 
ATOM     10  C   UNL     1      32.705  22.062 -14.423  1.00  0.00     0.146 A 
ATOM     11  O   UNL     1      32.437  20.766 -14.529  1.00  0.00    -0.452 OA
ENDROOT
BRANCH   1  12
ATOM     12  C   UNL     1      32.675  18.527 -15.391  1.00  0.00     0.025 A 
ATOM     13  C   UNL     1      32.186  17.915 -14.228  1.00  0.00     0.016 A 
ATOM     14  C   UNL     1      31.773  16.583 -14.252  1.00  0.00     0.051 A 
ATOM     15  C   UNL     1      31.823  15.840 -15.437  1.00  0.00     0.157 A 
ATOM     16  C   UNL     1      32.706  17.792 -16.588  1.00  0.00     0.062 A 
ATOM     17  C   UNL     1      32.290  16.454 -16.622  1.00  0.00     0.158 A 
BRANCH  15  18
ATOM     18  O   UNL     1      31.401  14.509 -15.392  1.00  0.00    -0.504 OA
ATOM     19  H   UNL     1      31.187  14.013 -14.539  1.00  0.00     0.293 HD
ENDBRANCH  15  18
BRANCH  17  20
ATOM     20  O   UNL     1      32.351  15.785 -17.846  1.00  0.00    -0.504 OA
ATOM     21  H   UNL     1      32.868  16.118 -18.647  1.00  0.00     0.293 HD
ENDBRANCH  17  20
ENDBRANCH   1  12
BRANCH   2  22
ATOM     22  O   UNL     1      34.907  19.571 -16.914  1.00  0.00    -0.502 OA
ATOM     23  H   UNL     1      34.506  19.065 -17.694  1.00  0.00     0.293 HD
ENDBRANCH   2  22
BRANCH   6  24
ATOM     24  O   UNL     1      34.813  24.799 -15.896  1.00  0.00    -0.507 OA
ATOM     25  H   UNL     1      35.297  25.635 -15.603  1.00  0.00     0.293 HD
ENDBRANCH   6  24
BRANCH   8  26
ATOM     26  O   UNL     1      31.511  24.945 -12.436  1.00  0.00    -0.508 OA
ATOM     27  H   UNL     1      31.481  25.957 -12.490  1.00  0.00     0.293 HD
ENDBRANCH   8  26
TORSDOF 6
ENDMDL
MODEL 2
REMARK VINA RESULT:    -7.520      0.642      1.484
REMARK INTER + INTRA:          -8.902
REMARK INTER:                  -9.142
REMARK INTRA:                   0.240
REMARK UNBOUND:                 0.157
REMARK SMILES O=c1c(O)c(-c2ccc(O)c(O)c2)oc2cc(O)cc(O)c12
REMARK SMILES IDX 5 1 3 2 2 3 1 4 22 5 20 6 19 7 17 8 16 9 15 10 14 11 6 12
REMARK SMILES IDX 7 13 8 14 9 15 13 16 11 17 10 18 12 20 4 22 21 24 18 26
REMARK H PARENT 10 19 12 21 4 23 21 25 18 27
REMARK Flexibility Score: inf
ROOT
ATOM      1  C   UNL     1      33.101  20.079 -15.410  1.00  0.00     0.180 A 
ATOM      2  C   UNL     1      34.217  20.508 -16.150  1.00  0.00     0.208 A 
ATOM      3  C   UNL     1      34.582  21.863 -16.109  1.00  0.00     0.238 A 
ATOM      4  O   UNL     1      35.614  22.229 -16.730  1.00  0.00    -0.285 OA
ATOM      5  C   UNL     1      33.819  22.775 -15.341  1.00  0.00     0.111 A 
ATOM      6  C   UNL     1      34.075  24.177 -15.260  1.00  0.00     0.134 A 
ATOM      7  C   UNL     1      33.335  24.963 -14.366  1.00  0.00     0.093 A 
ATOM      8  C   UNL     1      32.307  24.411 -13.603  1.00  0.00     0.123 A 
ATOM      9  C   UNL     1      32.009  23.052 -13.720  1.00  0.00     0.094 A 
ATOM     10  C   UNL     1      32.754  22.236 -14.574  1.00  0.00     0.146 A 
ATOM     11  O   UNL     1      32.445  20.947 -14.649  1.00  0.00    -0.452 OA
ENDROOT
BRANCH   1  12
ATOM     12  C   UNL     1      32.639  18.672 -15.424  1.00  0.00     0.025 A 
ATOM     13  C   UNL     1      32.762  17.917 -16.599  1.00  0.00     0.016 A 
ATOM     14  C   UNL     1      32.351  16.585 -16.629  1.00  0.00     0.051 A 
ATOM     15  C   UNL     1      31.826  15.973 -15.485  1.00  0.00     0.157 A 
ATOM     16  C   UNL     1      32.133  18.056 -14.267  1.00  0.00     0.062 A 
ATOM     17  C   UNL     1      31.721  16.717 -14.286  1.00  0.00     0.158 A 
BRANCH  15  18
ATOM     18  O   UNL     1      31.427  14.638 -15.583  1.00  0.00    -0.504 OA
ATOM     19  H   UNL     1      31.055  14.221 -16.423  1.00  0.00     0.293 HD
ENDBRANCH  15  18
BRANCH  17  20
ATOM     20  O   UNL     1      31.226  16.171 -13.101  1.00  0.00    -0.504 OA
ATOM     21  H   UNL     1      31.053  16.707 -12.262  1.00  0.00     0.293 HD
ENDBRANCH  17  20
ENDBRANCH   1  12
BRANCH   2  22
ATOM     22  O   UNL     1      34.969  19.586 -16.883  1.00  0.00    -0.502 OA
ATOM     23  H   UNL     1      34.903  18.587 -16.731  1.00  0.00     0.293 HD
ENDBRANCH   2  22
BRANCH   6  24
ATOM     24  O   UNL     1      35.018  24.846 -16.045  1.00  0.00    -0.507 OA
ATOM     25  H   UNL     1      34.911  25.040 -17.030  1.00  0.00     0.293 HD
ENDBRANCH   6  24
BRANCH   8  26
ATOM     26  O   UNL     1      31.581  25.226 -12.737  1.00  0.00    -0.508 OA
ATOM     27  H   UNL     1      31.201  26.115 -13.040  1.00  0.00     0.293 HD
ENDBRANCH   8  26
TORSDOF 6
ENDMDL
MODEL 3
REMARK VINA RESULT:    -7.434      1.547      3.306
REMARK INTER + INTRA:          -8.798
REMARK INTER:                  -9.107
REMARK INTRA:                   0.309
REMARK UNBOUND:                 0.157
REMARK SMILES O=c1c(O)c(-c2ccc(O)c(O)c2)oc2cc(O)cc(O)c12
REMARK SMILES IDX 5 1 3 2 2 3 1 4 22 5 20 6 19 7 17 8 16 9 15 10 14 11 6 12
REMARK SMILES IDX 7 13 8 14 9 15 13 16 11 17 10 18 12 20 4 22 21 24 18 26
REMARK H PARENT 10 19 12 21 4 23 21 25 18 27
REMARK Flexibility Score: inf
ROOT
ATOM      1  C   UNL     1      32.934  19.590 -15.678  1.00  0.00     0.180 A 
ATOM      2  C   UNL     1      32.434  20.664 -14.920  1.00  0.00     0.208 A 
ATOM      3  C   UNL     1      32.888  21.963 -15.197  1.00  0.00     0.238 A 
ATOM      4  O   UNL     1      32.396  22.925 -14.551  1.00  0.00    -0.285 OA
ATOM      5  C   UNL     1      33.846  22.172 -16.218  1.00  0.00     0.111 A 
ATOM      6  C   UNL     1      34.406  23.441 -16.556  1.00  0.00     0.134 A 
ATOM      7  C   UNL     1      35.249  23.549 -17.670  1.00  0.00     0.093 A 
ATOM      8  C   UNL     1      35.603  22.426 -18.416  1.00  0.00     0.123 A 
ATOM      9  C   UNL     1      35.109  21.170 -18.057  1.00  0.00     0.094 A 
ATOM     10  C   UNL     1      34.238  21.037 -16.974  1.00  0.00     0.146 A 
ATOM     11  O   UNL     1      33.783  19.827 -16.671  1.00  0.00    -0.452 OA
ENDROOT
BRANCH   1  12
ATOM     12  C   UNL     1      32.523  18.190 -15.428  1.00  0.00     0.025 A 
ATOM     13  C   UNL     1      32.147  17.802 -14.134  1.00  0.00     0.016 A 
ATOM     14  C   UNL     1      31.737  16.493 -13.880  1.00  0.00     0.051 A 
ATOM     15  C   UNL     1      31.680  15.550 -14.912  1.00  0.00     0.157 A 
ATOM     16  C   UNL     1      32.445  17.252 -16.471  1.00  0.00     0.062 A 
ATOM     17  C   UNL     1      32.032  15.936 -16.226  1.00  0.00     0.158 A 
BRANCH  15  18
ATOM     18  O   UNL     1      31.268  14.254 -14.590  1.00  0.00    -0.504 OA
ATOM     19  H   UNL     1      31.329  13.856 -13.664  1.00  0.00     0.293 HD
ENDBRANCH  15  18
BRANCH  17  20
ATOM     20  O   UNL     1      31.981  15.057 -17.310  1.00  0.00    -0.504 OA
ATOM     21  H   UNL     1      31.232  15.040 -17.988  1.00  0.00     0.293 HD
ENDBRANCH  17  20
ENDBRANCH   1  12
BRANCH   2  22
ATOM     22  O   UNL     1      31.472  20.438 -13.932  1.00  0.00    -0.502 OA
ATOM     23  H   UNL     1      30.733  19.754 -14.039  1.00  0.00     0.293 HD
ENDBRANCH   2  22
BRANCH   6  24
ATOM     24  O   UNL     1      34.189  24.611 -15.823  1.00  0.00    -0.507 OA
ATOM     25  H   UNL     1      34.649  25.492 -15.998  1.00  0.00     0.293 HD
ENDBRANCH   6  24
BRANCH   8  26
ATOM     26  O   UNL     1      36.457  22.568 -19.508  1.00  0.00    -0.508 OA
ATOM     27  H   UNL     1      36.154  23.020 -20.363  1.00  0.00     0.293 HD
ENDBRANCH   8  26
TORSDOF 6
ENDMDL
MODEL 4
REMARK VINA RESULT:    -7.346      3.055      7.062
REMARK INTER + INTRA:          -8.692
REMARK INTER:                  -8.448
REMARK INTRA:                  -0.244
REMARK UNBOUND:                 0.157
REMARK SMILES O=c1c(O)c(-c2ccc(O)c(O)c2)oc2cc(O)cc(O)c12
REMARK SMILES IDX 5 1 3 2 2 3 1 4 22 5 20 6 19 7 17 8 16 9 15 10 14 11 6 12
REMARK SMILES IDX 7 13 8 14 9 15 13 16 11 17 10 18 12 20 4 22 21 24 18 26
REMARK H PARENT 10 19 12 21 4 23 21 25 18 27
REMARK Flexibility Score: inf
ROOT
ATOM      1  C   UNL     1      32.737  17.763 -16.405  1.00  0.00     0.180 A 
ATOM      2  C   UNL     1      32.781  16.645 -17.257  1.00  0.00     0.208 A 
ATOM      3  C   UNL     1      32.179  15.448 -16.841  1.00  0.00     0.238 A 
ATOM      4  O   UNL     1      32.175  14.468 -17.632  1.00  0.00    -0.285 OA
ATOM      5  C   UNL     1      31.553  15.377 -15.574  1.00  0.00     0.111 A 
ATOM      6  C   UNL     1      30.946  14.202 -15.035  1.00  0.00     0.134 A 
ATOM      7  C   UNL     1      30.243  14.282 -13.826  1.00  0.00     0.093 A 
ATOM      8  C   UNL     1      30.180  15.474 -13.107  1.00  0.00     0.123 A 
ATOM      9  C   UNL     1      30.820  16.614 -13.595  1.00  0.00     0.094 A 
ATOM     10  C   UNL     1      31.499  16.575 -14.815  1.00  0.00     0.146 A 
ATOM     11  O   UNL     1      32.086  17.683 -15.250  1.00  0.00    -0.452 OA
ENDROOT
BRANCH   1  12
ATOM     12  C   UNL     1      33.372  19.053 -16.762  1.00  0.00     0.025 A 
ATOM     13  C   UNL     1      34.585  19.414 -16.160  1.00  0.00     0.016 A 
ATOM     14  C   UNL     1      35.210  20.615 -16.497  1.00  0.00     0.051 A 
ATOM     15  C   UNL     1      34.647  21.471 -17.450  1.00  0.00     0.157 A 
ATOM     16  C   UNL     1      32.814  19.898 -17.737  1.00  0.00     0.062 A 
ATOM     17  C   UNL     1      33.437  21.104 -18.083  1.00  0.00     0.158 A 
BRANCH  15  18
ATOM     18  O   UNL     1      35.319  22.661 -17.737  1.00  0.00    -0.504 OA
ATOM     19  H   UNL     1      36.138  22.981 -17.240  1.00  0.00     0.293 HD
ENDBRANCH  15  18
BRANCH  17  20
ATOM     20  O   UNL     1      32.825  21.895 -19.057  1.00  0.00    -0.504 OA
ATOM     21  H   UNL     1      33.329  22.485 -19.705  1.00  0.00     0.293 HD
ENDBRANCH  17  20
ENDBRANCH   1  12
BRANCH   2  22
ATOM     22  O   UNL     1      33.385  16.744 -18.513  1.00  0.00    -0.502 OA
ATOM     23  H   UNL     1      33.438  17.617 -19.024  1.00  0.00     0.293 HD
ENDBRANCH   2  22
BRANCH   6  24
ATOM     24  O   UNL     1      31.027  12.939 -15.627  1.00  0.00    -0.507 OA
ATOM     25  H   UNL     1      31.332  12.767 -16.574  1.00  0.00     0.293 HD
ENDBRANCH   6  24
BRANCH   8  26
ATOM     26  O   UNL     1      29.484  15.512 -11.900  1.00  0.00    -0.508 OA
ATOM     27  H   UNL     1      29.959  15.408 -11.011  1.00  0.00     0.293 HD
ENDBRANCH   8  26
TORSDOF 6
ENDMDL
MODEL 5
REMARK VINA RESULT:    -7.247      1.274      2.055
REMARK INTER + INTRA:          -8.573
REMARK INTER:                  -9.094
REMARK INTRA:                   0.521
REMARK UNBOUND:                 0.157
REMARK SMILES O=c1c(O)c(-c2ccc(O)c(O)c2)oc2cc(O)cc(O)c12
REMARK SMILES IDX 5 1 3 2 2 3 1 4 22 5 20 6 19 7 17 8 16 9 15 10 14 11 6 12
REMARK SMILES IDX 7 13 8 14 9 15 13 16 11 17 10 18 12 20 4 22 21 24 18 26
REMARK H PARENT 10 19 12 21 4 23 21 25 18 27
REMARK Flexibility Score: inf
ROOT
ATOM      1  C   UNL     1      32.731  18.947 -15.306  1.00  0.00     0.180 A 
ATOM      2  C   UNL     1      33.595  19.216 -16.382  1.00  0.00     0.208 A 
ATOM      3  C   UNL     1      34.143  20.502 -16.511  1.00  0.00     0.238 A 
ATOM      4  O   UNL     1      34.958  20.720 -17.445  1.00  0.00    -0.285 OA
ATOM      5  C   UNL     1      33.809  21.507 -15.572  1.00  0.00     0.111 A 
ATOM      6  C   UNL     1      34.274  22.856 -15.630  1.00  0.00     0.134 A 
ATOM      7  C   UNL     1      33.984  23.732 -14.575  1.00  0.00     0.093 A 
ATOM      8  C   UNL     1      33.193  23.328 -13.501  1.00  0.00     0.123 A 
ATOM      9  C   UNL     1      32.683  22.029 -13.465  1.00  0.00     0.094 A 
ATOM     10  C   UNL     1      32.985  21.122 -14.483  1.00  0.00     0.146 A 
ATOM     11  O   UNL     1      32.488  19.893 -14.406  1.00  0.00    -0.452 OA
ENDROOT
BRANCH   1  12
ATOM     12  C   UNL     1      32.094  17.623 -15.118  1.00  0.00     0.025 A 
ATOM     13  C   UNL     1      32.220  16.649 -16.118  1.00  0.00     0.016 A 
ATOM     14  C   UNL     1      31.644  15.389 -15.953  1.00  0.00     0.051 A 
ATOM     15  C   UNL     1      30.946  15.070 -14.783  1.00  0.00     0.157 A 
ATOM     16  C   UNL     1      31.413  17.301 -13.932  1.00  0.00     0.062 A 
ATOM     17  C   UNL     1      30.834  16.036 -13.756  1.00  0.00     0.158 A 
BRANCH  15  18
ATOM     18  O   UNL     1      30.388  13.794 -14.683  1.00  0.00    -0.504 OA
ATOM     19  H   UNL     1      29.439  13.571 -14.946  1.00  0.00     0.293 HD
ENDBRANCH  15  18
BRANCH  17  20
ATOM     20  O   UNL     1      30.171  15.786 -12.553  1.00  0.00    -0.504 OA
ATOM     21  H   UNL     1      30.042  16.475 -11.826  1.00  0.00     0.293 HD
ENDBRANCH  17  20
ENDBRANCH   1  12
BRANCH   2  22
ATOM     22  O   UNL     1      33.928  18.202 -17.284  1.00  0.00    -0.502 OA
ATOM     23  H   UNL     1      34.529  17.427 -17.033  1.00  0.00     0.293 HD
ENDBRANCH   2  22
BRANCH   6  24
ATOM     24  O   UNL     1      34.996  23.388 -16.702  1.00  0.00    -0.507 OA
ATOM     25  H   UNL     1      35.925  23.100 -16.968  1.00  0.00     0.293 HD
ENDBRANCH   6  24
BRANCH   8  26
ATOM     26  O   UNL     1      32.911  24.230 -12.478  1.00  0.00    -0.508 OA
ATOM     27  H   UNL     1      32.325  23.974 -11.691  1.00  0.00     0.293 HD
ENDBRANCH   8  26
TORSDOF 6
ENDMDL
MODEL 6
REMARK VINA RESULT:    -7.048      1.869      7.051
REMARK INTER + INTRA:          -8.333
REMARK INTER:                  -8.295
REMARK INTRA:                  -0.039
REMARK UNBOUND:                 0.157
REMARK SMILES O=c1c(O)c(-c2ccc(O)c(O)c2)oc2cc(O)cc(O)c12
REMARK SMILES IDX 5 1 3 2 2 3 1 4 22 5 20 6 19 7 17 8 16 9 15 10 14 11 6 12
REMARK SMILES IDX 7 13 8 14 9 15 13 16 11 17 10 18 12 20 4 22 21 24 18 26
REMARK H PARENT 10 19 12 21 4 23 21 25 18 27
REMARK Flexibility Score: inf
ROOT
ATOM      1  C   UNL     1      32.659  18.194 -15.709  1.00  0.00     0.180 A 
ATOM      2  C   UNL     1      32.733  17.310 -16.801  1.00  0.00     0.208 A 
ATOM      3  C   UNL     1      32.235  16.006 -16.656  1.00  0.00     0.238 A 
ATOM      4  O   UNL     1      32.255  15.238 -17.654  1.00  0.00    -0.285 OA
ATOM      5  C   UNL     1      31.684  15.595 -15.419  1.00  0.00     0.111 A 
ATOM      6  C   UNL     1      31.187  14.284 -15.149  1.00  0.00     0.134 A 
ATOM      7  C   UNL     1      30.545  14.027 -13.930  1.00  0.00     0.093 A 
ATOM      8  C   UNL     1      30.440  15.012 -12.950  1.00  0.00     0.123 A 
ATOM      9  C   UNL     1      30.976  16.281 -13.181  1.00  0.00     0.094 A 
ATOM     10  C   UNL     1      31.590  16.578 -14.399  1.00  0.00     0.146 A 
ATOM     11  O   UNL     1      32.078  17.799 -14.583  1.00  0.00    -0.452 OA
ENDROOT
BRANCH   1  12
ATOM     12  C   UNL     1      33.186  19.576 -15.777  1.00  0.00     0.025 A 
ATOM     13  C   UNL     1      32.385  20.642 -15.343  1.00  0.00     0.016 A 
ATOM     14  C   UNL     1      32.869  21.949 -15.379  1.00  0.00     0.051 A 
ATOM     15  C   UNL     1      34.165  22.220 -15.833  1.00  0.00     0.157 A 
ATOM     16  C   UNL     1      34.496  19.840 -16.213  1.00  0.00     0.062 A 
ATOM     17  C   UNL     1      34.992  21.150 -16.250  1.00  0.00     0.158 A 
BRANCH  15  18
ATOM     18  O   UNL     1      34.587  23.551 -15.852  1.00  0.00    -0.504 OA
ATOM     19  H   UNL     1      35.164  23.969 -15.137  1.00  0.00     0.293 HD
ENDBRANCH  15  18
BRANCH  17  20
ATOM     20  O   UNL     1      36.301  21.338 -16.696  1.00  0.00    -0.504 OA
ATOM     21  H   UNL     1      37.072  20.732 -16.455  1.00  0.00     0.293 HD
ENDBRANCH  17  20
ENDBRANCH   1  12
BRANCH   2  22
ATOM     22  O   UNL     1      33.262  17.744 -18.019  1.00  0.00    -0.502 OA
ATOM     23  H   UNL     1      34.219  18.060 -18.116  1.00  0.00     0.293 HD
ENDBRANCH   2  22
BRANCH   6  24
ATOM     24  O   UNL     1      31.321  13.203 -16.024  1.00  0.00    -0.507 OA
ATOM     25  H   UNL     1      30.698  12.410 -16.056  1.00  0.00     0.293 HD
ENDBRANCH   6  24
BRANCH   8  26
ATOM     26  O   UNL     1      29.809  14.717 -11.743  1.00  0.00    -0.508 OA
ATOM     27  H   UNL     1      28.910  15.118 -11.503  1.00  0.00     0.293 HD
ENDBRANCH   8  26
TORSDOF 6
ENDMDL
MODEL 7
REMARK VINA RESULT:    -6.882      2.409      7.349
REMARK INTER + INTRA:          -8.133
REMARK INTER:                  -7.800
REMARK INTRA:                  -0.333
REMARK UNBOUND:                 0.157
REMARK SMILES O=c1c(O)c(-c2ccc(O)c(O)c2)oc2cc(O)cc(O)c12
REMARK SMILES IDX 5 1 3 2 2 3 1 4 22 5 20 6 19 7 17 8 16 9 15 10 14 11 6 12
REMARK SMILES IDX 7 13 8 14 9 15 13 16 11 17 10 18 12 20 4 22 21 24 18 26
REMARK H PARENT 10 19 12 21 4 23 21 25 18 27
REMARK Flexibility Score: inf
ROOT
ATOM      1  C   UNL     1      33.339  19.539 -16.356  1.00  0.00     0.180 A 
ATOM      2  C   UNL     1      32.901  19.276 -15.046  1.00  0.00     0.208 A 
ATOM      3  C   UNL     1      32.378  18.009 -14.744  1.00  0.00     0.238 A 
ATOM      4  O   UNL     1      32.039  17.764 -13.556  1.00  0.00    -0.285 OA
ATOM      5  C   UNL     1      32.286  17.025 -15.757  1.00  0.00     0.111 A 
ATOM      6  C   UNL     1      31.735  15.721 -15.572  1.00  0.00     0.134 A 
ATOM      7  C   UNL     1      31.814  14.785 -16.611  1.00  0.00     0.093 A 
ATOM      8  C   UNL     1      32.361  15.125 -17.847  1.00  0.00     0.123 A 
ATOM      9  C   UNL     1      32.848  16.417 -18.058  1.00  0.00     0.094 A 
ATOM     10  C   UNL     1      32.817  17.361 -17.029  1.00  0.00     0.146 A 
ATOM     11  O   UNL     1      33.299  18.575 -17.268  1.00  0.00    -0.452 OA
ENDROOT
BRANCH   1  12
ATOM     12  C   UNL     1      33.878  20.859 -16.757  1.00  0.00     0.025 A 
ATOM     13  C   UNL     1      35.264  21.068 -16.754  1.00  0.00     0.016 A 
ATOM     14  C   UNL     1      35.793  22.297 -17.147  1.00  0.00     0.051 A 
ATOM     15  C   UNL     1      34.955  23.336 -17.566  1.00  0.00     0.157 A 
ATOM     16  C   UNL     1      33.032  21.891 -17.198  1.00  0.00     0.062 A 
ATOM     17  C   UNL     1      33.556  23.128 -17.598  1.00  0.00     0.158 A 
BRANCH  15  18
ATOM     18  O   UNL     1      35.547  24.544 -17.940  1.00  0.00    -0.504 OA
ATOM     19  H   UNL     1      36.099  25.118 -17.319  1.00  0.00     0.293 HD
ENDBRANCH  15  18
BRANCH  17  20
ATOM     20  O   UNL     1      32.657  24.108 -18.022  1.00  0.00    -0.504 OA
ATOM     21  H   UNL     1      32.074  24.648 -17.398  1.00  0.00     0.293 HD
ENDBRANCH  17  20
ENDBRANCH   1  12
BRANCH   2  22
ATOM     22  O   UNL     1      33.022  20.255 -14.056  1.00  0.00    -0.502 OA
ATOM     23  H   UNL     1      33.797  20.276 -13.404  1.00  0.00     0.293 HD
ENDBRANCH   2  22
BRANCH   6  24
ATOM     24  O   UNL     1      31.083  15.306 -14.407  1.00  0.00    -0.507 OA
ATOM     25  H   UNL     1      30.082  15.230 -14.305  1.00  0.00     0.293 HD
ENDBRANCH   6  24
BRANCH   8  26
ATOM     26  O   UNL     1      32.408  14.174 -18.863  1.00  0.00    -0.508 OA
ATOM     27  H   UNL     1      31.639  13.534 -19.027  1.00  0.00     0.293 HD
ENDBRANCH   8  26
TORSDOF 6
ENDMDL
MODEL 8
REMARK VINA RESULT:    -6.763      1.392      6.863
REMARK INTER + INTRA:          -7.989
REMARK INTER:                  -8.046
REMARK INTRA:                   0.057
REMARK UNBOUND:                 0.157
REMARK SMILES O=c1c(O)c(-c2ccc(O)c(O)c2)oc2cc(O)cc(O)c12
REMARK SMILES IDX 5 1 3 2 2 3 1 4 22 5 20 6 19 7 17 8 16 9 15 10 14 11 6 12
REMARK SMILES IDX 7 13 8 14 9 15 13 16 11 17 10 18 12 20 4 22 21 24 18 26
REMARK H PARENT 10 19 12 21 4 23 21 25 18 27
REMARK Flexibility Score: inf
ROOT
ATOM      1  C   UNL     1      33.007  19.745 -15.794  1.00  0.00     0.180 A 
ATOM      2  C   UNL     1      33.150  19.139 -17.054  1.00  0.00     0.208 A 
ATOM      3  C   UNL     1      32.828  17.780 -17.197  1.00  0.00     0.238 A 
ATOM      4  O   UNL     1      32.906  17.259 -18.340  1.00  0.00    -0.285 OA
ATOM      5  C   UNL     1      32.382  17.040 -16.076  1.00  0.00     0.111 A 
ATOM      6  C   UNL     1      32.067  15.648 -16.097  1.00  0.00     0.134 A 
ATOM      7  C   UNL     1      31.511  15.048 -14.960  1.00  0.00     0.093 A 
ATOM      8  C   UNL     1      31.320  15.773 -13.785  1.00  0.00     0.123 A 
ATOM      9  C   UNL     1      31.681  17.121 -13.734  1.00  0.00     0.094 A 
ATOM     10  C   UNL     1      32.204  17.755 -14.863  1.00  0.00     0.146 A 
ATOM     11  O   UNL     1      32.525  19.041 -14.777  1.00  0.00    -0.452 OA
ENDROOT
BRANCH   1  12
ATOM     12  C   UNL     1      33.351  21.167 -15.559  1.00  0.00     0.025 A 
ATOM     13  C   UNL     1      34.566  21.671 -16.042  1.00  0.00     0.016 A 
ATOM     14  C   UNL     1      34.901  23.012 -15.849  1.00  0.00     0.051 A 
ATOM     15  C   UNL     1      34.026  23.878 -15.186  1.00  0.00     0.157 A 
ATOM     16  C   UNL     1      32.458  22.038 -14.911  1.00  0.00     0.062 A 
ATOM     17  C   UNL     1      32.785  23.387 -14.716  1.00  0.00     0.158 A 
BRANCH  15  18
ATOM     18  O   UNL     1      34.423  25.207 -15.019  1.00  0.00    -0.504 OA
ATOM     19  H   UNL     1      34.331  25.719 -14.153  1.00  0.00     0.293 HD
ENDBRANCH  15  18
BRANCH  17  20
ATOM     20  O   UNL     1      31.852  24.194 -14.063  1.00  0.00    -0.504 OA
ATOM     21  H   UNL     1      32.097  24.966 -13.459  1.00  0.00     0.293 HD
ENDBRANCH  17  20
ENDBRANCH   1  12
BRANCH   2  22
ATOM     22  O   UNL     1      33.570  19.894 -18.152  1.00  0.00    -0.502 OA
ATOM     23  H   UNL     1      34.211  20.673 -18.063  1.00  0.00     0.293 HD
ENDBRANCH   2  22
BRANCH   6  24
ATOM     24  O   UNL     1      32.303  14.811 -17.191  1.00  0.00    -0.507 OA
ATOM     25  H   UNL     1      31.582  14.377 -17.748  1.00  0.00     0.293 HD
ENDBRANCH   6  24
BRANCH   8  26
ATOM     26  O   UNL     1      30.780  15.140 -12.667  1.00  0.00    -0.508 OA
ATOM     27  H   UNL     1      30.752  15.595 -11.762  1.00  0.00     0.293 HD
ENDBRANCH   8  26
TORSDOF 6
ENDMDL
