MODEL 1
REMARK VINA RESULT:    -3.438      0.000      0.000
REMARK INTER + INTRA:          -4.344
REMARK INTER:                  -4.242
REMARK INTRA:                  -0.102
REMARK UNBOUND:                -0.102
REMARK SMILES CCCCCC(=O)[O-]
REMARK SMILES IDX 4 1 5 2 6 3 7 4 8 5 3 6 2 7 1 8
REMARK H PARENT
REMARK Flexibility Score: inf
ROOT
ATOM      1  C   UNL     1      16.311  52.142 157.938  1.00  0.00     0.006 C 
ENDROOT
BRANCH   1   2
ATOM      2  C   UNL     1      15.898  52.280 159.407  1.00  0.00     0.053 C 
BRANCH   2   3
ATOM      3  C   UNL     1      15.385  50.977 159.932  1.00  0.00     0.041 C 
ATOM      4  O   UNL     1      16.139  49.969 159.972  1.00  0.00    -0.550 OA
ATOM      5  O   UNL     1      14.060  50.862 160.332  1.00  0.00    -0.550 OA
ENDBRANCH   2   3
ENDBRANCH   1   2
BRANCH   1   6
ATOM      6  C   UNL     1      15.103  52.333 157.008  1.00  0.00     0.000 C 
BRANCH   6   7
ATOM      7  C   UNL     1      14.016  53.225 157.626  1.00  0.00    -0.003 C 
ATOM      8  C   UNL     1      12.918  53.597 156.630  1.00  0.00     0.004 C 
ENDBRANCH   6   7
ENDBRANCH   1   6
TORSDOF 4
ENDMDL
MODEL 2
REMARK VINA RESULT:    -3.437      1.767      2.410
REMARK INTER + INTRA:          -4.343
REMARK INTER:                  -4.237
REMARK INTRA:                  -0.106
REMARK UNBOUND:                -0.102
REMARK SMILES CCCCCC(=O)[O-]
REMARK SMILES IDX 4 1 5 2 6 3 7 4 8 5 3 6 2 7 1 8
REMARK H PARENT
REMARK Flexibility Score: inf
ROOT
ATOM      1  C   UNL     1      14.012  53.052 157.798  1.00  0.00     0.006 C 
ENDROOT
BRANCH   1   2
ATOM      2  C   UNL     1      15.175  52.471 158.609  1.00  0.00     0.053 C 
BRANCH   2   3
ATOM      3  C   UNL     1      14.667  51.543 159.666  1.00  0.00     0.041 C 
ATOM      4  O   UNL     1      13.521  51.713 160.160  1.00  0.00    -0.550 OA
ATOM      5  O   UNL     1      15.477  50.519 160.141  1.00  0.00    -0.550 OA
ENDBRANCH   2   3
ENDBRANCH   1   2
BRANCH   1   6
ATOM      6  C   UNL     1      14.486  54.212 156.910  1.00  0.00     0.000 C 
BRANCH   6   7
ATOM      7  C   UNL     1      15.755  54.888 157.450  1.00  0.00    -0.003 C 
ATOM      8  C   UNL     1      15.823  56.377 157.110  1.00  0.00     0.004 C 
ENDBRANCH   6   7
ENDBRANCH   1   6
TORSDOF 4
ENDMDL
MODEL 3
REMARK VINA RESULT:    -3.388      3.154      4.423
REMARK INTER + INTRA:          -4.283
REMARK INTER:                  -4.132
REMARK INTRA:                  -0.151
REMARK UNBOUND:                -0.102
REMARK SMILES CCCCCC(=O)[O-]
REMARK SMILES IDX 4 1 5 2 6 3 7 4 8 5 3 6 2 7 1 8
REMARK H PARENT
REMARK Flexibility Score: inf
ROOT
ATOM      1  C   UNL     1      13.997  53.005 157.925  1.00  0.00     0.006 C 
ENDROOT
BRANCH   1   2
ATOM      2  C   UNL     1      15.294  53.404 157.213  1.00  0.00     0.053 C 
BRANCH   2   3
ATOM      3  C   UNL     1      15.483  54.887 157.258  1.00  0.00     0.041 C 
ATOM      4  O   UNL     1      14.801  55.636 156.510  1.00  0.00    -0.550 OA
ATOM      5  O   UNL     1      16.446  55.440 158.092  1.00  0.00    -0.550 OA
ENDBRANCH   2   3
ENDBRANCH   1   2
BRANCH   1   6
ATOM      6  C   UNL     1      14.295  52.221 159.211  1.00  0.00     0.000 C 
BRANCH   6   7
ATOM      7  C   UNL     1      15.748  51.725 159.278  1.00  0.00    -0.003 C 
ATOM      8  C   UNL     1      15.882  50.381 159.993  1.00  0.00     0.004 C 
ENDBRANCH   6   7
ENDBRANCH   1   6
TORSDOF 4
ENDMDL
MODEL 4
REMARK VINA RESULT:    -3.372      2.868      4.188
REMARK INTER + INTRA:          -4.263
REMARK INTER:                  -4.030
REMARK INTRA:                  -0.233
REMARK UNBOUND:                -0.102
REMARK SMILES CCCCCC(=O)[O-]
REMARK SMILES IDX 4 1 5 2 6 3 7 4 8 5 3 6 2 7 1 8
REMARK H PARENT
REMARK Flexibility Score: inf
ROOT
ATOM      1  C   UNL     1      14.415  52.372 158.828  1.00  0.00     0.006 C 
ENDROOT
BRANCH   1   2
ATOM      2  C   UNL     1      14.740  52.641 157.355  1.00  0.00     0.053 C 
BRANCH   2   3
ATOM      3  C   UNL     1      14.609  54.098 157.046  1.00  0.00     0.041 C 
ATOM      4  O   UNL     1      15.460  54.917 157.484  1.00  0.00    -0.550 OA
ATOM      5  O   UNL     1      13.522  54.560 156.316  1.00  0.00    -0.550 OA
ENDBRANCH   2   3
ENDBRANCH   1   2
BRANCH   1   6
ATOM      6  C   UNL     1      15.527  51.546 159.494  1.00  0.00     0.000 C 
BRANCH   6   7
ATOM      7  C   UNL     1      16.928  52.114 159.221  1.00  0.00    -0.003 C 
ATOM      8  C   UNL     1      17.263  53.315 160.105  1.00  0.00     0.004 C 
ENDBRANCH   6   7
ENDBRANCH   1   6
TORSDOF 4
ENDMDL
MODEL 5
REMARK VINA RESULT:    -3.344      2.334      3.342
REMARK INTER + INTRA:          -4.228
REMARK INTER:                  -4.148
REMARK INTRA:                  -0.080
REMARK UNBOUND:                -0.102
REMARK SMILES CCCCCC(=O)[O-]
REMARK SMILES IDX 4 1 5 2 6 3 7 4 8 5 3 6 2 7 1 8
REMARK H PARENT
REMARK Flexibility Score: inf
ROOT
ATOM      1  C   UNL     1      16.354  51.430 158.906  1.00  0.00     0.006 C 
ENDROOT
BRANCH   1   2
ATOM      2  C   UNL     1      15.290  51.159 159.974  1.00  0.00     0.053 C 
BRANCH   2   3
ATOM      3  C   UNL     1      14.025  51.890 159.653  1.00  0.00     0.041 C 
ATOM      4  O   UNL     1      13.963  52.631 158.637  1.00  0.00    -0.550 OA
ATOM      5  O   UNL     1      12.931  51.792 160.502  1.00  0.00    -0.550 OA
ENDBRANCH   2   3
ENDBRANCH   1   2
BRANCH   1   6
ATOM      6  C   UNL     1      17.320  52.535 159.360  1.00  0.00     0.000 C 
BRANCH   6   7
ATOM      7  C   UNL     1      17.750  53.454 158.206  1.00  0.00    -0.003 C 
ATOM      8  C   UNL     1      19.250  53.746 158.210  1.00  0.00     0.004 C 
ENDBRANCH   6   7
ENDBRANCH   1   6
TORSDOF 4
ENDMDL
MODEL 6
REMARK VINA RESULT:    -3.334      1.990      3.632
REMARK INTER + INTRA:          -4.216
REMARK INTER:                  -4.097
REMARK INTRA:                  -0.119
REMARK UNBOUND:                -0.102
REMARK SMILES CCCCCC(=O)[O-]
REMARK SMILES IDX 4 1 5 2 6 3 7 4 8 5 3 6 2 7 1 8
REMARK H PARENT
REMARK Flexibility Score: inf
ROOT
ATOM      1  C   UNL     1      17.047  52.421 158.920  1.00  0.00     0.006 C 
ENDROOT
BRANCH   1   2
ATOM      2  C   UNL     1      15.533  52.286 158.725  1.00  0.00     0.053 C 
BRANCH   2   3
ATOM      3  C   UNL     1      14.961  51.319 159.713  1.00  0.00     0.041 C 
ATOM      4  O   UNL     1      13.806  51.500 160.179  1.00  0.00    -0.550 OA
ATOM      5  O   UNL     1      15.723  50.246 160.156  1.00  0.00    -0.550 OA
ENDBRANCH   2   3
ENDBRANCH   1   2
BRANCH   1   6
ATOM      6  C   UNL     1      17.369  53.313 160.129  1.00  0.00     0.000 C 
BRANCH   6   7
ATOM      7  C   UNL     1      18.817  53.827 160.115  1.00  0.00    -0.003 C 
ATOM      8  C   UNL     1      19.412  53.880 158.709  1.00  0.00     0.004 C 
ENDBRANCH   6   7
ENDBRANCH   1   6
TORSDOF 4
ENDMDL
MODEL 7
REMARK VINA RESULT:    -3.327      2.983      3.738
REMARK INTER + INTRA:          -4.207
REMARK INTER:                  -3.958
REMARK INTRA:                  -0.249
REMARK UNBOUND:                -0.102
REMARK SMILES CCCCCC(=O)[O-]
REMARK SMILES IDX 4 1 5 2 6 3 7 4 8 5 3 6 2 7 1 8
REMARK H PARENT
REMARK Flexibility Score: inf
ROOT
ATOM      1  C   UNL     1      17.156  52.526 159.214  1.00  0.00     0.006 C 
ENDROOT
BRANCH   1   2
ATOM      2  C   UNL     1      17.528  53.171 157.875  1.00  0.00     0.053 C 
BRANCH   2   3
ATOM      3  C   UNL     1      16.297  53.534 157.108  1.00  0.00     0.041 C 
ATOM      4  O   UNL     1      15.501  54.399 157.559  1.00  0.00    -0.550 OA
ATOM      5  O   UNL     1      16.002  52.882 155.917  1.00  0.00    -0.550 OA
ENDBRANCH   2   3
ENDBRANCH   1   2
BRANCH   1   6
ATOM      6  C   UNL     1      16.535  51.137 159.002  1.00  0.00     0.000 C 
BRANCH   6   7
ATOM      7  C   UNL     1      15.370  50.859 159.964  1.00  0.00    -0.003 C 
ATOM      8  C   UNL     1      14.191  51.808 159.756  1.00  0.00     0.004 C 
ENDBRANCH   6   7
ENDBRANCH   1   6
TORSDOF 4
ENDMDL
MODEL 8
REMARK VINA RESULT:    -3.290      3.130      3.762
REMARK INTER + INTRA:          -4.161
REMARK INTER:                  -4.066
REMARK INTRA:                  -0.095
REMARK UNBOUND:                -0.102
REMARK SMILES CCCCCC(=O)[O-]
REMARK SMILES IDX 4 1 5 2 6 3 7 4 8 5 3 6 2 7 1 8
REMARK H PARENT
REMARK Flexibility Score: inf
ROOT
ATOM      1  C   UNL     1      16.939  52.339 159.012  1.00  0.00     0.006 C 
ENDROOT
BRANCH   1   2
ATOM      2  C   UNL     1      17.466  53.336 160.049  1.00  0.00     0.053 C 
BRANCH   2   3
ATOM      3  C   UNL     1      18.919  53.610 159.823  1.00  0.00     0.041 C 
ATOM      4  O   UNL     1      19.679  53.840 160.800  1.00  0.00    -0.550 OA
ATOM      5  O   UNL     1      19.424  53.660 158.530  1.00  0.00    -0.550 OA
ENDBRANCH   2   3
ENDBRANCH   1   2
BRANCH   1   6
ATOM      6  C   UNL     1      15.958  51.346 159.652  1.00  0.00     0.000 C 
BRANCH   6   7
ATOM      7  C   UNL     1      14.500  51.824 159.576  1.00  0.00    -0.003 C 
ATOM      8  C   UNL     1      14.220  52.676 158.339  1.00  0.00     0.004 C 
ENDBRANCH   6   7
ENDBRANCH   1   6
TORSDOF 4
ENDMDL
MODEL 9
REMARK VINA RESULT:    -3.289      2.642      3.214
REMARK INTER + INTRA:          -4.161
REMARK INTER:                  -3.947
REMARK INTRA:                  -0.214
REMARK UNBOUND:                -0.102
REMARK SMILES CCCCCC(=O)[O-]
REMARK SMILES IDX 4 1 5 2 6 3 7 4 8 5 3 6 2 7 1 8
REMARK H PARENT
REMARK Flexibility Score: inf
ROOT
ATOM      1  C   UNL     1      16.225  51.719 159.212  1.00  0.00     0.006 C 
ENDROOT
BRANCH   1   2
ATOM      2  C   UNL     1      16.969  52.926 159.791  1.00  0.00     0.053 C 
BRANCH   2   3
ATOM      3  C   UNL     1      18.179  53.240 158.970  1.00  0.00     0.041 C 
ATOM      4  O   UNL     1      18.185  53.000 157.733  1.00  0.00    -0.550 OA
ATOM      5  O   UNL     1      19.319  53.751 159.577  1.00  0.00    -0.550 OA
ENDBRANCH   2   3
ENDBRANCH   1   2
BRANCH   1   6
ATOM      6  C   UNL     1      14.706  51.947 159.234  1.00  0.00     0.000 C 
BRANCH   6   7
ATOM      7  C   UNL     1      14.235  52.890 158.116  1.00  0.00    -0.003 C 
ATOM      8  C   UNL     1      14.762  52.486 156.740  1.00  0.00     0.004 C 
ENDBRANCH   6   7
ENDBRANCH   1   6
TORSDOF 4
ENDMDL
