MODEL 1
REMARK VINA RESULT:    -2.691      0.000      0.000
REMARK INTER + INTRA:          -3.755
REMARK INTER:                  -3.557
REMARK INTRA:                  -0.199
REMARK UNBOUND:                -0.199
REMARK SMILES CCCCCCCO
REMARK SMILES IDX 5 1 4 2 3 3 2 4 1 5 6 6 7 7 8 8
REMARK H PARENT 8 9
REMARK Flexibility Score: inf
ROOT
ATOM      1  C   UNL     1     117.736 118.431 120.388  1.00  0.00     0.002 C 
ENDROOT
BRANCH   1   2
ATOM      2  C   UNL     1     116.788 119.035 119.338  1.00  0.00     0.000 C 
BRANCH   2   3
ATOM      3  C   UNL     1     115.370 119.277 119.883  1.00  0.00    -0.000 C 
BRANCH   3   4
ATOM      4  C   UNL     1     114.837 118.082 120.689  1.00  0.00    -0.003 C 
ATOM      5  C   UNL     1     114.313 116.957 119.797  1.00  0.00     0.004 C 
ENDBRANCH   3   4
ENDBRANCH   2   3
ENDBRANCH   1   2
BRANCH   1   6
ATOM      6  C   UNL     1     118.743 117.403 119.837  1.00  0.00     0.028 C 
BRANCH   6   7
ATOM      7  C   UNL     1     119.979 118.035 119.181  1.00  0.00     0.156 C 
BRANCH   7   8
ATOM      8  O   UNL     1     121.076 118.022 120.053  1.00  0.00    -0.396 OA
ATOM      9  H   UNL     1     120.983 117.208 120.614  1.00  0.00     0.210 HD
ENDBRANCH   7   8
ENDBRANCH   6   7
ENDBRANCH   1   6
TORSDOF 6
ENDMDL
MODEL 2
REMARK VINA RESULT:    -2.683      3.368      4.578
REMARK INTER + INTRA:          -3.745
REMARK INTER:                  -3.469
REMARK INTRA:                  -0.275
REMARK UNBOUND:                -0.199
REMARK SMILES CCCCCCCO
REMARK SMILES IDX 5 1 4 2 3 3 2 4 1 5 6 6 7 7 8 8
REMARK H PARENT 8 9
REMARK Flexibility Score: inf
ROOT
ATOM      1  C   UNL     1     114.781 115.618 120.607  1.00  0.00     0.002 C 
ENDROOT
BRANCH   1   2
ATOM      2  C   UNL     1     114.386 116.921 119.889  1.00  0.00     0.000 C 
BRANCH   2   3
ATOM      3  C   UNL     1     114.774 118.180 120.683  1.00  0.00    -0.000 C 
BRANCH   3   4
ATOM      4  C   UNL     1     115.525 119.209 119.824  1.00  0.00    -0.003 C 
ATOM      5  C   UNL     1     116.982 118.819 119.575  1.00  0.00     0.004 C 
ENDBRANCH   3   4
ENDBRANCH   2   3
ENDBRANCH   1   2
BRANCH   1   6
ATOM      6  C   UNL     1     115.848 115.781 121.705  1.00  0.00     0.028 C 
BRANCH   6   7
ATOM      7  C   UNL     1     115.382 115.329 123.096  1.00  0.00     0.156 C 
BRANCH   7   8
ATOM      8  O   UNL     1     114.405 114.329 123.003  1.00  0.00    -0.396 OA
ATOM      9  H   UNL     1     114.687 113.599 123.614  1.00  0.00     0.210 HD
ENDBRANCH   7   8
ENDBRANCH   6   7
ENDBRANCH   1   6
TORSDOF 6
ENDMDL
MODEL 3
REMARK VINA RESULT:    -2.681      2.536      4.425
REMARK INTER + INTRA:          -3.741
REMARK INTER:                  -3.496
REMARK INTRA:                  -0.245
REMARK UNBOUND:                -0.199
REMARK SMILES CCCCCCCO
REMARK SMILES IDX 5 1 4 2 3 3 2 4 1 5 6 6 7 7 8 8
REMARK H PARENT 8 9
REMARK Flexibility Score: inf
ROOT
ATOM      1  C   UNL     1     115.280 118.266 120.676  1.00  0.00     0.002 C 
ENDROOT
BRANCH   1   2
ATOM      2  C   UNL     1     116.592 117.463 120.702  1.00  0.00     0.000 C 
BRANCH   2   3
ATOM      3  C   UNL     1     117.840 118.361 120.750  1.00  0.00    -0.000 C 
BRANCH   3   4
ATOM      4  C   UNL     1     118.565 118.433 119.398  1.00  0.00    -0.003 C 
ATOM      5  C   UNL     1     120.004 117.922 119.472  1.00  0.00     0.004 C 
ENDBRANCH   3   4
ENDBRANCH   2   3
ENDBRANCH   1   2
BRANCH   1   6
ATOM      6  C   UNL     1     114.791 118.664 119.270  1.00  0.00     0.028 C 
BRANCH   6   7
ATOM      7  C   UNL     1     114.923 120.163 118.967  1.00  0.00     0.156 C 
BRANCH   7   8
ATOM      8  O   UNL     1     115.290 120.880 120.114  1.00  0.00    -0.396 OA
ATOM      9  H   UNL     1     116.169 120.521 120.404  1.00  0.00     0.210 HD
ENDBRANCH   7   8
ENDBRANCH   6   7
ENDBRANCH   1   6
TORSDOF 6
ENDMDL
MODEL 4
REMARK VINA RESULT:    -2.680      2.527      3.632
REMARK INTER + INTRA:          -3.740
REMARK INTER:                  -3.442
REMARK INTRA:                  -0.298
REMARK UNBOUND:                -0.199
REMARK SMILES CCCCCCCO
REMARK SMILES IDX 5 1 4 2 3 3 2 4 1 5 6 6 7 7 8 8
REMARK H PARENT 8 9
REMARK Flexibility Score: inf
ROOT
ATOM      1  C   UNL     1     118.860 116.300 119.785  1.00  0.00     0.002 C 
ENDROOT
BRANCH   1   2
ATOM      2  C   UNL     1     118.373 115.164 120.702  1.00  0.00     0.000 C 
BRANCH   2   3
ATOM      3  C   UNL     1     117.728 114.005 119.923  1.00  0.00    -0.000 C 
BRANCH   3   4
ATOM      4  C   UNL     1     116.278 114.304 119.516  1.00  0.00    -0.003 C 
ATOM      5  C   UNL     1     115.453 114.892 120.660  1.00  0.00     0.004 C 
ENDBRANCH   3   4
ENDBRANCH   2   3
ENDBRANCH   1   2
BRANCH   1   6
ATOM      6  C   UNL     1     118.397 117.710 120.199  1.00  0.00     0.028 C 
BRANCH   6   7
ATOM      7  C   UNL     1     117.878 117.795 121.642  1.00  0.00     0.156 C 
BRANCH   7   8
ATOM      8  O   UNL     1     118.674 118.651 122.416  1.00  0.00    -0.396 OA
ATOM      9  H   UNL     1     119.425 118.103 122.763  1.00  0.00     0.210 HD
ENDBRANCH   7   8
ENDBRANCH   6   7
ENDBRANCH   1   6
TORSDOF 6
ENDMDL
MODEL 5
REMARK VINA RESULT:    -2.672      3.942      4.393
REMARK INTER + INTRA:          -3.729
REMARK INTER:                  -3.601
REMARK INTRA:                  -0.128
REMARK UNBOUND:                -0.199
REMARK SMILES CCCCCCCO
REMARK SMILES IDX 5 1 4 2 3 3 2 4 1 5 6 6 7 7 8 8
REMARK H PARENT 8 9
REMARK Flexibility Score: inf
ROOT
ATOM      1  C   UNL     1     115.888 114.405 119.856  1.00  0.00     0.002 C 
ENDROOT
BRANCH   1   2
ATOM      2  C   UNL     1     115.142 115.567 120.535  1.00  0.00     0.000 C 
BRANCH   2   3
ATOM      3  C   UNL     1     113.943 116.069 119.711  1.00  0.00    -0.000 C 
BRANCH   3   4
ATOM      4  C   UNL     1     112.804 115.041 119.645  1.00  0.00    -0.003 C 
ATOM      5  C   UNL     1     112.506 114.582 118.218  1.00  0.00     0.004 C 
ENDBRANCH   3   4
ENDBRANCH   2   3
ENDBRANCH   1   2
BRANCH   1   6
ATOM      6  C   UNL     1     117.423 114.469 119.964  1.00  0.00     0.028 C 
BRANCH   6   7
ATOM      7  C   UNL     1     118.143 113.297 119.282  1.00  0.00     0.156 C 
BRANCH   7   8
ATOM      8  O   UNL     1     118.049 112.129 120.050  1.00  0.00    -0.396 OA
ATOM      9  H   UNL     1     118.742 111.507 119.707  1.00  0.00     0.210 HD
ENDBRANCH   7   8
ENDBRANCH   6   7
ENDBRANCH   1   6
TORSDOF 6
ENDMDL
MODEL 6
REMARK VINA RESULT:    -2.665      2.649      4.802
REMARK INTER + INTRA:          -3.721
REMARK INTER:                  -3.554
REMARK INTRA:                  -0.167
REMARK UNBOUND:                -0.199
REMARK SMILES CCCCCCCO
REMARK SMILES IDX 5 1 4 2 3 3 2 4 1 5 6 6 7 7 8 8
REMARK H PARENT 8 9
REMARK Flexibility Score: inf
ROOT
ATOM      1  C   UNL     1     116.777 119.005 119.662  1.00  0.00     0.002 C 
ENDROOT
BRANCH   1   2
ATOM      2  C   UNL     1     117.808 118.367 120.609  1.00  0.00     0.000 C 
BRANCH   2   3
ATOM      3  C   UNL     1     118.792 117.436 119.880  1.00  0.00    -0.000 C 
BRANCH   3   4
ATOM      4  C   UNL     1     120.177 118.074 119.694  1.00  0.00    -0.003 C 
ATOM      5  C   UNL     1     120.409 118.577 118.269  1.00  0.00     0.004 C 
ENDBRANCH   3   4
ENDBRANCH   2   3
ENDBRANCH   1   2
BRANCH   1   6
ATOM      6  C   UNL     1     115.313 118.892 120.127  1.00  0.00     0.028 C 
BRANCH   6   7
ATOM      7  C   UNL     1     115.131 118.069 121.410  1.00  0.00     0.156 C 
BRANCH   7   8
ATOM      8  O   UNL     1     114.417 118.790 122.377  1.00  0.00    -0.396 OA
ATOM      9  H   UNL     1     113.531 118.997 121.980  1.00  0.00     0.210 HD
ENDBRANCH   7   8
ENDBRANCH   6   7
ENDBRANCH   1   6
TORSDOF 6
ENDMDL
MODEL 7
REMARK VINA RESULT:    -2.663      2.927      3.777
REMARK INTER + INTRA:          -3.718
REMARK INTER:                  -3.471
REMARK INTRA:                  -0.247
REMARK UNBOUND:                -0.199
REMARK SMILES CCCCCCCO
REMARK SMILES IDX 5 1 4 2 3 3 2 4 1 5 6 6 7 7 8 8
REMARK H PARENT 8 9
REMARK Flexibility Score: inf
ROOT
ATOM      1  C   UNL     1     116.358 114.338 119.581  1.00  0.00     0.002 C 
ENDROOT
BRANCH   1   2
ATOM      2  C   UNL     1     115.295 114.748 120.616  1.00  0.00     0.000 C 
BRANCH   2   3
ATOM      3  C   UNL     1     114.086 115.454 119.980  1.00  0.00    -0.000 C 
BRANCH   3   4
ATOM      4  C   UNL     1     114.402 116.895 119.553  1.00  0.00    -0.003 C 
ATOM      5  C   UNL     1     114.882 117.763 120.716  1.00  0.00     0.004 C 
ENDBRANCH   3   4
ENDBRANCH   2   3
ENDBRANCH   1   2
BRANCH   1   6
ATOM      6  C   UNL     1     117.806 114.335 120.106  1.00  0.00     0.028 C 
BRANCH   6   7
ATOM      7  C   UNL     1     118.002 115.149 121.393  1.00  0.00     0.156 C 
BRANCH   7   8
ATOM      8  O   UNL     1     118.689 114.406 122.363  1.00  0.00    -0.396 OA
ATOM      9  H   UNL     1     118.558 114.878 123.227  1.00  0.00     0.210 HD
ENDBRANCH   7   8
ENDBRANCH   6   7
ENDBRANCH   1   6
TORSDOF 6
ENDMDL
MODEL 8
REMARK VINA RESULT:    -2.635      3.122      4.438
REMARK INTER + INTRA:          -3.681
REMARK INTER:                  -3.542
REMARK INTRA:                  -0.139
REMARK UNBOUND:                -0.199
REMARK SMILES CCCCCCCO
REMARK SMILES IDX 5 1 4 2 3 3 2 4 1 5 6 6 7 7 8 8
REMARK H PARENT 8 9
REMARK Flexibility Score: inf
ROOT
ATOM      1  C   UNL     1     118.771 115.826 119.512  1.00  0.00     0.002 C 
ENDROOT
BRANCH   1   2
ATOM      2  C   UNL     1     117.862 114.901 120.341  1.00  0.00     0.000 C 
BRANCH   2   3
ATOM      3  C   UNL     1     117.777 113.477 119.767  1.00  0.00    -0.000 C 
BRANCH   3   4
ATOM      4  C   UNL     1     118.461 113.352 118.397  1.00  0.00    -0.003 C 
ATOM      5  C   UNL     1     118.919 111.926 118.093  1.00  0.00     0.004 C 
ENDBRANCH   3   4
ENDBRANCH   2   3
ENDBRANCH   1   2
BRANCH   1   6
ATOM      6  C   UNL     1     118.825 117.286 119.997  1.00  0.00     0.028 C 
BRANCH   6   7
ATOM      7  C   UNL     1     119.931 118.120 119.335  1.00  0.00     0.156 C 
BRANCH   7   8
ATOM      8  O   UNL     1     121.095 118.128 120.115  1.00  0.00    -0.396 OA
ATOM      9  H   UNL     1     121.809 117.713 119.564  1.00  0.00     0.210 HD
ENDBRANCH   7   8
ENDBRANCH   6   7
ENDBRANCH   1   6
TORSDOF 6
ENDMDL
MODEL 9
REMARK VINA RESULT:    -2.590      3.475      4.884
REMARK INTER + INTRA:          -3.621
REMARK INTER:                  -3.283
REMARK INTRA:                  -0.338
REMARK UNBOUND:                -0.199
REMARK SMILES CCCCCCCO
REMARK SMILES IDX 5 1 4 2 3 3 2 4 1 5 6 6 7 7 8 8
REMARK H PARENT 8 9
REMARK Flexibility Score: inf
ROOT
ATOM      1  C   UNL     1     116.763 114.565 119.831  1.00  0.00     0.002 C 
ENDROOT
BRANCH   1   2
ATOM      2  C   UNL     1     117.888 115.140 120.709  1.00  0.00     0.000 C 
BRANCH   2   3
ATOM      3  C   UNL     1     118.528 116.403 120.107  1.00  0.00    -0.000 C 
BRANCH   3   4
ATOM      4  C   UNL     1     118.125 117.682 120.856  1.00  0.00    -0.003 C 
ATOM      5  C   UNL     1     117.058 118.487 120.116  1.00  0.00     0.004 C 
ENDBRANCH   3   4
ENDBRANCH   2   3
ENDBRANCH   1   2
BRANCH   1   6
ATOM      6  C   UNL     1     115.336 114.889 120.311  1.00  0.00     0.028 C 
BRANCH   6   7
ATOM      7  C   UNL     1     115.259 115.325 121.781  1.00  0.00     0.156 C 
BRANCH   7   8
ATOM      8  O   UNL     1     114.469 114.443 122.530  1.00  0.00    -0.396 OA
ATOM      9  H   UNL     1     114.657 114.635 123.485  1.00  0.00     0.210 HD
ENDBRANCH   7   8
ENDBRANCH   6   7
ENDBRANCH   1   6
TORSDOF 6
ENDMDL
