MODEL 1
REMARK VINA RESULT:    -5.067      0.000      0.000
REMARK INTER + INTRA:          -6.430
REMARK INTER:                  -6.844
REMARK INTRA:                   0.414
REMARK UNBOUND:                 0.414
REMARK SMILES C=C1C(=O)O[C@H]2[C@H]3O[C@@]3(C)CCC=C(C)CC[C@@H]12
REMARK SMILES IDX 6 1 18 2 2 3 1 4 3 5 4 6 5 7 17 8 16 9 14 10 15 11 13 12
REMARK SMILES IDX 7 14 9 15 8 16 10 17 11 18 12 19
REMARK H PARENT
REMARK Flexibility Score: 70.00
ROOT
ATOM      1  C   UNL     1     -34.662  39.302   6.255  1.00  0.00     0.216 C 
ATOM      2  C   UNL     1     -35.857  38.803   7.143  1.00  0.00     0.070 C 
ATOM      3  C   UNL     1     -37.006  39.650   6.667  1.00  0.00     0.037 C 
ATOM      4  C   UNL     1     -38.237  39.709   7.178  1.00  0.00     0.021 C 
ATOM      5  C   UNL     1     -36.605  40.211   5.398  1.00  0.00     0.334 C 
ATOM      6  O   UNL     1     -37.346  40.863   4.617  1.00  0.00    -0.247 OA
ATOM      7  O   UNL     1     -35.290  39.902   5.126  1.00  0.00    -0.455 OA
ENDROOT
BRANCH   2   8
ATOM      8  C   UNL     1     -35.672  38.771   8.684  1.00  0.00     0.017 C 
BRANCH   8   9
ATOM      9  C   UNL     1     -35.376  37.384   9.331  1.00  0.00     0.031 C 
BRANCH   9  10
ATOM     10  C   UNL     1     -34.550  36.428   8.484  1.00  0.00    -0.077 C 
ATOM     11  C   UNL     1     -35.213  35.161   8.000  1.00  0.00     0.039 C 
ATOM     12  C   UNL     1     -33.250  36.625   8.151  1.00  0.00    -0.028 CG0
ATOM     13  G   UNL     1     -32.351  37.759   8.600  1.00  0.00     0.000 G0
ENDBRANCH   9  10
ENDBRANCH   8   9
ENDBRANCH   2   8
BRANCH   1  14
ATOM     14  C   UNL     1     -33.764  40.406   6.867  1.00  0.00     0.192 C 
ATOM     15  C   UNL     1     -32.387  40.060   7.359  1.00  0.00     0.096 C 
ATOM     16  O   UNL     1     -33.474  40.240   8.232  1.00  0.00    -0.362 OA
ATOM     17  C   UNL     1     -31.387  41.211   7.486  1.00  0.00     0.045 C 
BRANCH  15  18
ATOM     18  C   UNL     1     -31.829  38.612   7.414  1.00  0.00     0.042 C 
BRANCH  18  19
ATOM     19  C   UNL     1     -32.341  37.752   8.592  1.00  0.00     0.030 CG0
ATOM     20  G   UNL     1     -33.250  36.625   8.147  1.00  0.00     0.000 G0
ENDBRANCH  18  19
ENDBRANCH  15  18
ENDBRANCH   1  14
TORSDOF 0
ENDMDL
MODEL 2
REMARK VINA RESULT:    -4.995      2.102      3.978
REMARK INTER + INTRA:          -6.332
REMARK INTER:                  -6.743
REMARK INTRA:                   0.411
REMARK UNBOUND:                 0.414
REMARK SMILES C=C1C(=O)O[C@H]2[C@H]3O[C@@]3(C)CCC=C(C)CC[C@@H]12
REMARK SMILES IDX 6 1 18 2 2 3 1 4 3 5 4 6 5 7 17 8 16 9 14 10 15 11 13 12
REMARK SMILES IDX 7 14 9 15 8 16 10 17 11 18 12 19
REMARK H PARENT
REMARK Flexibility Score: 70.00
ROOT
ATOM      1  C   UNL     1     -35.499  39.417   9.406  1.00  0.00     0.216 C 
ATOM      2  C   UNL     1     -35.120  40.113   8.051  1.00  0.00     0.070 C 
ATOM      3  C   UNL     1     -36.109  41.244   7.964  1.00  0.00     0.037 C 
ATOM      4  C   UNL     1     -36.297  42.080   6.942  1.00  0.00     0.021 C 
ATOM      5  C   UNL     1     -36.654  41.415   9.290  1.00  0.00     0.334 C 
ATOM      6  O   UNL     1     -37.410  42.352   9.658  1.00  0.00    -0.247 OA
ATOM      7  O   UNL     1     -36.200  40.423  10.132  1.00  0.00    -0.455 OA
ENDROOT
BRANCH   2   8
ATOM      8  C   UNL     1     -35.022  39.239   6.771  1.00  0.00     0.017 C 
BRANCH   8   9
ATOM      9  C   UNL     1     -33.594  38.819   6.310  1.00  0.00     0.031 C 
BRANCH   9  10
ATOM     10  C   UNL     1     -32.575  38.627   7.422  1.00  0.00    -0.077 C 
ATOM     11  C   UNL     1     -31.425  39.601   7.503  1.00  0.00     0.039 C 
ATOM     12  C   UNL     1     -32.616  37.626   8.337  1.00  0.00    -0.028 CG0
ATOM     13  G   UNL     1     -33.606  36.481   8.397  1.00  0.00     0.000 G0
ENDBRANCH   9  10
ENDBRANCH   8   9
ENDBRANCH   2   8
BRANCH   1  14
ATOM     14  C   UNL     1     -36.472  38.216   9.314  1.00  0.00     0.192 C 
ATOM     15  C   UNL     1     -35.956  36.820   9.520  1.00  0.00     0.096 C 
ATOM     16  O   UNL     1     -36.227  37.339   8.243  1.00  0.00    -0.362 OA
ATOM     17  C   UNL     1     -36.981  35.751   9.905  1.00  0.00     0.045 C 
BRANCH  15  18
ATOM     18  C   UNL     1     -34.453  36.474   9.702  1.00  0.00     0.042 C 
BRANCH  18  19
ATOM     19  C   UNL     1     -33.614  36.475   8.403  1.00  0.00     0.030 CG0
ATOM     20  G   UNL     1     -32.623  37.620   8.344  1.00  0.00     0.000 G0
ENDBRANCH  18  19
ENDBRANCH  15  18
ENDBRANCH   1  14
TORSDOF 0
ENDMDL
MODEL 3
REMARK VINA RESULT:    -4.850      1.901      4.459
REMARK INTER + INTRA:          -6.138
REMARK INTER:                  -6.616
REMARK INTRA:                   0.479
REMARK UNBOUND:                 0.414
REMARK SMILES C=C1C(=O)O[C@H]2[C@H]3O[C@@]3(C)CCC=C(C)CC[C@@H]12
REMARK SMILES IDX 6 1 18 2 2 3 1 4 3 5 4 6 5 7 17 8 16 9 14 10 15 11 13 12
REMARK SMILES IDX 7 14 9 15 8 16 10 17 11 18 12 19
REMARK H PARENT
REMARK Flexibility Score: 70.00
ROOT
ATOM      1  C   UNL     1     -34.049  40.626   7.760  1.00  0.00     0.216 C 
ATOM      2  C   UNL     1     -33.451  39.174   7.768  1.00  0.00     0.070 C 
ATOM      3  C   UNL     1     -31.976  39.416   7.594  1.00  0.00     0.037 C 
ATOM      4  C   UNL     1     -31.020  38.503   7.417  1.00  0.00     0.021 C 
ATOM      5  C   UNL     1     -31.749  40.809   7.899  1.00  0.00     0.334 C 
ATOM      6  O   UNL     1     -30.624  41.364   8.003  1.00  0.00    -0.247 OA
ATOM      7  O   UNL     1     -32.946  41.461   8.105  1.00  0.00    -0.455 OA
ENDROOT
BRANCH   2   8
ATOM      8  C   UNL     1     -34.053  38.120   6.799  1.00  0.00     0.017 C 
BRANCH   8   9
ATOM      9  C   UNL     1     -34.962  37.021   7.427  1.00  0.00     0.031 C 
BRANCH   9  10
ATOM     10  C   UNL     1     -35.908  37.497   8.520  1.00  0.00    -0.077 C 
ATOM     11  C   UNL     1     -35.764  36.888   9.893  1.00  0.00     0.039 C 
ATOM     12  C   UNL     1     -36.887  38.418   8.339  1.00  0.00    -0.028 CG0
ATOM     13  G   UNL     1     -37.287  39.088   7.040  1.00  0.00     0.000 G0
ENDBRANCH   9  10
ENDBRANCH   8   9
ENDBRANCH   2   8
BRANCH   1  14
ATOM     14  C   UNL     1     -34.559  41.153   6.396  1.00  0.00     0.192 C 
ATOM     15  C   UNL     1     -36.035  41.201   6.119  1.00  0.00     0.096 C 
ATOM     16  O   UNL     1     -35.205  40.193   5.597  1.00  0.00    -0.362 OA
ATOM     17  C   UNL     1     -36.502  42.150   5.014  1.00  0.00     0.045 C 
BRANCH  15  18
ATOM     18  C   UNL     1     -37.111  40.629   7.081  1.00  0.00     0.042 C 
BRANCH  18  19
ATOM     19  C   UNL     1     -37.282  39.094   7.042  1.00  0.00     0.030 CG0
ATOM     20  G   UNL     1     -36.884  38.424   8.342  1.00  0.00     0.000 G0
ENDBRANCH  18  19
ENDBRANCH  15  18
ENDBRANCH   1  14
TORSDOF 0
ENDMDL
MODEL 4
REMARK VINA RESULT:    -4.601      2.611      5.003
REMARK INTER + INTRA:          -5.800
REMARK INTER:                  -6.206
REMARK INTRA:                   0.405
REMARK UNBOUND:                 0.414
REMARK SMILES C=C1C(=O)O[C@H]2[C@H]3O[C@@]3(C)CCC=C(C)CC[C@@H]12
REMARK SMILES IDX 6 1 18 2 2 3 1 4 3 5 4 6 5 7 17 8 16 9 14 10 15 11 13 12
REMARK SMILES IDX 7 14 9 15 8 16 10 17 11 18 12 19
REMARK H PARENT
REMARK Flexibility Score: 70.00
ROOT
ATOM      1  C   UNL     1     -33.106  41.446   7.410  1.00  0.00     0.216 C 
ATOM      2  C   UNL     1     -33.057  39.877   7.422  1.00  0.00     0.070 C 
ATOM      3  C   UNL     1     -31.622  39.586   7.768  1.00  0.00     0.037 C 
ATOM      4  C   UNL     1     -31.017  38.397   7.792  1.00  0.00     0.021 C 
ATOM      5  C   UNL     1     -31.075  40.808   8.309  1.00  0.00     0.334 C 
ATOM      6  O   UNL     1     -29.942  40.932   8.845  1.00  0.00    -0.247 OA
ATOM      7  O   UNL     1     -31.986  41.837   8.200  1.00  0.00    -0.455 OA
ENDROOT
BRANCH   2   8
ATOM      8  C   UNL     1     -33.590  39.110   6.181  1.00  0.00     0.017 C 
BRANCH   8   9
ATOM      9  C   UNL     1     -35.026  38.511   6.284  1.00  0.00     0.031 C 
BRANCH   9  10
ATOM     10  C   UNL     1     -36.002  39.291   7.152  1.00  0.00    -0.077 C 
ATOM     11  C   UNL     1     -36.474  38.650   8.434  1.00  0.00     0.039 C 
ATOM     12  C   UNL     1     -36.494  40.516   6.842  1.00  0.00    -0.028 CG0
ATOM     13  G   UNL     1     -36.247  41.309   5.575  1.00  0.00     0.000 G0
ENDBRANCH   9  10
ENDBRANCH   8   9
ENDBRANCH   2   8
BRANCH   1  14
ATOM     14  C   UNL     1     -32.906  42.131   6.036  1.00  0.00     0.192 C 
ATOM     15  C   UNL     1     -34.078  42.759   5.337  1.00  0.00     0.096 C 
ATOM     16  O   UNL     1     -33.564  41.505   4.964  1.00  0.00    -0.362 OA
ATOM     17  C   UNL     1     -33.768  43.816   4.275  1.00  0.00     0.045 C 
BRANCH  15  18
ATOM     18  C   UNL     1     -35.541  42.660   5.849  1.00  0.00     0.042 C 
BRANCH  18  19
ATOM     19  C   UNL     1     -36.248  41.315   5.568  1.00  0.00     0.030 CG0
ATOM     20  G   UNL     1     -36.492  40.504   6.825  1.00  0.00     0.000 G0
ENDBRANCH  18  19
ENDBRANCH  15  18
ENDBRANCH   1  14
TORSDOF 0
ENDMDL
MODEL 5
REMARK VINA RESULT:    -4.596      2.126      4.811
REMARK INTER + INTRA:          -5.793
REMARK INTER:                  -6.191
REMARK INTRA:                   0.398
REMARK UNBOUND:                 0.414
REMARK SMILES C=C1C(=O)O[C@H]2[C@H]3O[C@@]3(C)CCC=C(C)CC[C@@H]12
REMARK SMILES IDX 6 1 18 2 2 3 1 4 3 5 4 6 5 7 17 8 16 9 14 10 15 11 13 12
REMARK SMILES IDX 7 14 9 15 8 16 10 17 11 18 12 19
REMARK H PARENT
REMARK Flexibility Score: 70.00
ROOT
ATOM      1  C   UNL     1     -34.063  41.655   8.022  1.00  0.00     0.216 C 
ATOM      2  C   UNL     1     -32.529  41.746   7.701  1.00  0.00     0.070 C 
ATOM      3  C   UNL     1     -32.177  43.145   8.128  1.00  0.00     0.037 C 
ATOM      4  C   UNL     1     -31.014  43.777   7.961  1.00  0.00     0.021 C 
ATOM      5  C   UNL     1     -33.255  43.599   8.974  1.00  0.00     0.334 C 
ATOM      6  O   UNL     1     -33.265  44.667   9.642  1.00  0.00    -0.247 OA
ATOM      7  O   UNL     1     -34.279  42.677   8.992  1.00  0.00    -0.455 OA
ENDROOT
BRANCH   2   8
ATOM      8  C   UNL     1     -32.046  41.365   6.275  1.00  0.00     0.017 C 
BRANCH   8   9
ATOM      9  C   UNL     1     -31.536  39.907   6.068  1.00  0.00     0.031 C 
BRANCH   9  10
ATOM     10  C   UNL     1     -32.095  38.872   7.033  1.00  0.00    -0.077 C 
ATOM     11  C   UNL     1     -31.177  38.340   8.106  1.00  0.00     0.039 C 
ATOM     12  C   UNL     1     -33.357  38.379   6.983  1.00  0.00    -0.028 CG0
ATOM     13  G   UNL     1     -34.419  38.682   5.945  1.00  0.00     0.000 G0
ENDBRANCH   9  10
ENDBRANCH   8   9
ENDBRANCH   2   8
BRANCH   1  14
ATOM     14  C   UNL     1     -35.030  41.977   6.856  1.00  0.00     0.192 C 
ATOM     15  C   UNL     1     -35.832  40.874   6.225  1.00  0.00     0.096 C 
ATOM     16  O   UNL     1     -34.678  41.404   5.622  1.00  0.00    -0.362 OA
ATOM     17  C   UNL     1     -37.089  41.284   5.455  1.00  0.00     0.045 C 
BRANCH  15  18
ATOM     18  C   UNL     1     -35.664  39.373   6.584  1.00  0.00     0.042 C 
BRANCH  18  19
ATOM     19  C   UNL     1     -34.430  38.680   5.963  1.00  0.00     0.030 CG0
ATOM     20  G   UNL     1     -33.347  38.384   6.980  1.00  0.00     0.000 G0
ENDBRANCH  18  19
ENDBRANCH  15  18
ENDBRANCH   1  14
TORSDOF 0
ENDMDL
MODEL 6
REMARK VINA RESULT:    -4.575      2.648      4.537
REMARK INTER + INTRA:          -5.766
REMARK INTER:                  -6.203
REMARK INTRA:                   0.437
REMARK UNBOUND:                 0.414
REMARK SMILES C=C1C(=O)O[C@H]2[C@H]3O[C@@]3(C)CCC=C(C)CC[C@@H]12
REMARK SMILES IDX 6 1 18 2 2 3 1 4 3 5 4 6 5 7 17 8 16 9 14 10 15 11 13 12
REMARK SMILES IDX 7 14 9 15 8 16 10 17 11 18 12 19
REMARK H PARENT
REMARK Flexibility Score: 70.00
ROOT
ATOM      1  C   UNL     1     -34.127  38.501   8.722  1.00  0.00     0.216 C 
ATOM      2  C   UNL     1     -35.629  38.384   9.167  1.00  0.00     0.070 C 
ATOM      3  C   UNL     1     -35.787  36.911   9.433  1.00  0.00     0.037 C 
ATOM      4  C   UNL     1     -36.912  36.257   9.728  1.00  0.00     0.021 C 
ATOM      5  C   UNL     1     -34.454  36.370   9.552  1.00  0.00     0.334 C 
ATOM      6  O   UNL     1     -34.167  35.198   9.914  1.00  0.00    -0.247 OA
ATOM      7  O   UNL     1     -33.512  37.330   9.252  1.00  0.00    -0.455 OA
ENDROOT
BRANCH   2   8
ATOM      8  C   UNL     1     -36.723  38.997   8.251  1.00  0.00     0.017 C 
BRANCH   8   9
ATOM      9  C   UNL     1     -37.155  40.464   8.552  1.00  0.00     0.031 C 
BRANCH   9  10
ATOM     10  C   UNL     1     -36.159  41.291   9.351  1.00  0.00    -0.077 C 
ATOM     11  C   UNL     1     -36.444  41.518  10.816  1.00  0.00     0.039 C 
ATOM     12  C   UNL     1     -35.041  41.857   8.832  1.00  0.00    -0.028 CG0
ATOM     13  G   UNL     1     -34.601  41.854   7.383  1.00  0.00     0.000 G0
ENDBRANCH   9  10
ENDBRANCH   8   9
ENDBRANCH   2   8
BRANCH   1  14
ATOM     14  C   UNL     1     -33.856  38.459   7.198  1.00  0.00     0.192 C 
ATOM     15  C   UNL     1     -33.381  39.697   6.490  1.00  0.00     0.096 C 
ATOM     16  O   UNL     1     -34.715  39.258   6.424  1.00  0.00    -0.362 OA
ATOM     17  C   UNL     1     -32.674  39.500   5.148  1.00  0.00     0.045 C 
BRANCH  15  18
ATOM     18  C   UNL     1     -33.258  41.087   7.173  1.00  0.00     0.042 C 
BRANCH  18  19
ATOM     19  C   UNL     1     -34.592  41.839   7.383  1.00  0.00     0.030 CG0
ATOM     20  G   UNL     1     -35.040  41.848   8.830  1.00  0.00     0.000 G0
ENDBRANCH  18  19
ENDBRANCH  15  18
ENDBRANCH   1  14
TORSDOF 0
ENDMDL
MODEL 7
REMARK VINA RESULT:    -4.427      2.517      4.698
REMARK INTER + INTRA:          -5.566
REMARK INTER:                  -5.965
REMARK INTRA:                   0.400
REMARK UNBOUND:                 0.414
REMARK SMILES C=C1C(=O)O[C@H]2[C@H]3O[C@@]3(C)CCC=C(C)CC[C@@H]12
REMARK SMILES IDX 6 1 18 2 2 3 1 4 3 5 4 6 5 7 17 8 16 9 14 10 15 11 13 12
REMARK SMILES IDX 7 14 9 15 8 16 10 17 11 18 12 19
REMARK H PARENT
REMARK Flexibility Score: 70.00
ROOT
ATOM      1  C   UNL     1     -35.376  40.720   8.948  1.00  0.00     0.216 C 
ATOM      2  C   UNL     1     -34.127  41.658   8.790  1.00  0.00     0.070 C 
ATOM      3  C   UNL     1     -34.475  42.833   9.663  1.00  0.00     0.037 C 
ATOM      4  C   UNL     1     -33.798  43.976   9.792  1.00  0.00     0.021 C 
ATOM      5  C   UNL     1     -35.550  42.401  10.524  1.00  0.00     0.334 C 
ATOM      6  O   UNL     1     -36.023  43.053  11.491  1.00  0.00    -0.247 OA
ATOM      7  O   UNL     1     -35.976  41.139  10.171  1.00  0.00    -0.455 OA
ENDROOT
BRANCH   2   8
ATOM      8  C   UNL     1     -33.658  42.032   7.358  1.00  0.00     0.017 C 
BRANCH   8   9
ATOM      9  C   UNL     1     -32.519  41.167   6.739  1.00  0.00     0.031 C 
BRANCH   9  10
ATOM     10  C   UNL     1     -32.395  39.754   7.289  1.00  0.00    -0.077 C 
ATOM     11  C   UNL     1     -31.234  39.452   8.205  1.00  0.00     0.039 C 
ATOM     12  C   UNL     1     -33.245  38.739   6.996  1.00  0.00    -0.028 CG0
ATOM     13  G   UNL     1     -34.413  38.772   6.032  1.00  0.00     0.000 G0
ENDBRANCH   9  10
ENDBRANCH   8   9
ENDBRANCH   2   8
BRANCH   1  14
ATOM     14  C   UNL     1     -36.483  40.861   7.873  1.00  0.00     0.192 C 
ATOM     15  C   UNL     1     -36.693  39.762   6.871  1.00  0.00     0.096 C 
ATOM     16  O   UNL     1     -36.013  40.950   6.552  1.00  0.00    -0.362 OA
ATOM     17  C   UNL     1     -38.055  39.709   6.176  1.00  0.00     0.045 C 
BRANCH  15  18
ATOM     18  C   UNL     1     -35.774  38.515   6.753  1.00  0.00     0.042 C 
BRANCH  18  19
ATOM     19  C   UNL     1     -34.423  38.756   6.041  1.00  0.00     0.030 CG0
ATOM     20  G   UNL     1     -33.246  38.740   6.994  1.00  0.00     0.000 G0
ENDBRANCH  18  19
ENDBRANCH  15  18
ENDBRANCH   1  14
TORSDOF 0
ENDMDL
MODEL 8
REMARK VINA RESULT:    -4.369      2.658      5.488
REMARK INTER + INTRA:          -5.487
REMARK INTER:                  -5.909
REMARK INTRA:                   0.422
REMARK UNBOUND:                 0.414
REMARK SMILES C=C1C(=O)O[C@H]2[C@H]3O[C@@]3(C)CCC=C(C)CC[C@@H]12
REMARK SMILES IDX 6 1 18 2 2 3 1 4 3 5 4 6 5 7 17 8 16 9 14 10 15 11 13 12
REMARK SMILES IDX 7 14 9 15 8 16 10 17 11 18 12 19
REMARK H PARENT
REMARK Flexibility Score: 70.00
ROOT
ATOM      1  C   UNL     1     -33.483  39.365   7.488  1.00  0.00     0.216 C 
ATOM      2  C   UNL     1     -33.044  40.854   7.723  1.00  0.00     0.070 C 
ATOM      3  C   UNL     1     -31.720  40.709   8.422  1.00  0.00     0.037 C 
ATOM      4  C   UNL     1     -30.973  41.679   8.953  1.00  0.00     0.021 C 
ATOM      5  C   UNL     1     -31.284  39.351   8.200  1.00  0.00     0.334 C 
ATOM      6  O   UNL     1     -30.157  38.882   8.506  1.00  0.00    -0.247 OA
ATOM      7  O   UNL     1     -32.266  38.626   7.558  1.00  0.00    -0.455 OA
ENDROOT
BRANCH   2   8
ATOM      8  C   UNL     1     -34.042  41.818   8.420  1.00  0.00     0.017 C 
BRANCH   8   9
ATOM      9  C   UNL     1     -34.947  42.688   7.496  1.00  0.00     0.031 C 
BRANCH   9  10
ATOM     10  C   UNL     1     -35.174  42.141   6.095  1.00  0.00    -0.077 C 
ATOM     11  C   UNL     1     -34.459  42.815   4.949  1.00  0.00     0.039 C 
ATOM     12  C   UNL     1     -35.991  41.099   5.802  1.00  0.00    -0.028 CG0
ATOM     13  G   UNL     1     -36.882  40.336   6.760  1.00  0.00     0.000 G0
ENDBRANCH   9  10
ENDBRANCH   8   9
ENDBRANCH   2   8
BRANCH   1  14
ATOM     14  C   UNL     1     -34.410  38.742   8.561  1.00  0.00     0.192 C 
ATOM     15  C   UNL     1     -35.844  38.446   8.226  1.00  0.00     0.096 C 
ATOM     16  O   UNL     1     -35.465  39.570   8.980  1.00  0.00    -0.362 OA
ATOM     17  C   UNL     1     -36.562  37.417   9.102  1.00  0.00     0.045 C 
BRANCH  15  18
ATOM     18  C   UNL     1     -36.517  38.844   6.884  1.00  0.00     0.042 C 
BRANCH  18  19
ATOM     19  C   UNL     1     -36.899  40.336   6.755  1.00  0.00     0.030 CG0
ATOM     20  G   UNL     1     -35.998  41.093   5.800  1.00  0.00     0.000 G0
ENDBRANCH  18  19
ENDBRANCH  15  18
ENDBRANCH   1  14
TORSDOF 0
ENDMDL
MODEL 9
REMARK VINA RESULT:    -4.329      3.073      5.006
REMARK INTER + INTRA:          -5.434
REMARK INTER:                  -5.830
REMARK INTRA:                   0.396
REMARK UNBOUND:                 0.414
REMARK SMILES C=C1C(=O)O[C@H]2[C@H]3O[C@@]3(C)CCC=C(C)CC[C@@H]12
REMARK SMILES IDX 6 1 18 2 2 3 1 4 3 5 4 6 5 7 17 8 16 9 14 10 15 11 13 12
REMARK SMILES IDX 7 14 9 15 8 16 10 17 11 18 12 19
REMARK H PARENT
REMARK Flexibility Score: 70.00
ROOT
ATOM      1  C   UNL     1     -33.332  40.960   7.565  1.00  0.00     0.216 C 
ATOM      2  C   UNL     1     -34.267  39.771   7.985  1.00  0.00     0.070 C 
ATOM      3  C   UNL     1     -33.392  38.564   7.780  1.00  0.00     0.037 C 
ATOM      4  C   UNL     1     -33.743  37.281   7.880  1.00  0.00     0.021 C 
ATOM      5  C   UNL     1     -32.036  39.051   7.694  1.00  0.00     0.334 C 
ATOM      6  O   UNL     1     -31.000  38.336   7.664  1.00  0.00    -0.247 OA
ATOM      7  O   UNL     1     -32.015  40.429   7.688  1.00  0.00    -0.455 OA
ENDROOT
BRANCH   2   8
ATOM      8  C   UNL     1     -35.673  39.669   7.332  1.00  0.00     0.017 C 
BRANCH   8   9
ATOM      9  C   UNL     1     -36.874  40.234   8.149  1.00  0.00     0.031 C 
BRANCH   9  10
ATOM     10  C   UNL     1     -36.541  41.367   9.107  1.00  0.00    -0.077 C 
ATOM     11  C   UNL     1     -36.600  41.080  10.588  1.00  0.00     0.039 C 
ATOM     12  C   UNL     1     -36.214  42.626   8.722  1.00  0.00    -0.028 CG0
ATOM     13  G   UNL     1     -36.188  43.175   7.311  1.00  0.00     0.000 G0
ENDBRANCH   9  10
ENDBRANCH   8   9
ENDBRANCH   2   8
BRANCH   1  14
ATOM     14  C   UNL     1     -33.450  41.444   6.099  1.00  0.00     0.192 C 
ATOM     15  C   UNL     1     -34.093  42.768   5.800  1.00  0.00     0.096 C 
ATOM     16  O   UNL     1     -34.765  41.547   5.616  1.00  0.00    -0.362 OA
ATOM     17  C   UNL     1     -33.757  43.415   4.454  1.00  0.00     0.045 C 
BRANCH  15  18
ATOM     18  C   UNL     1     -34.780  43.655   6.874  1.00  0.00     0.042 C 
BRANCH  18  19
ATOM     19  C   UNL     1     -36.189  43.193   7.308  1.00  0.00     0.030 CG0
ATOM     20  G   UNL     1     -36.216  42.629   8.714  1.00  0.00     0.000 G0
ENDBRANCH  18  19
ENDBRANCH  15  18
ENDBRANCH   1  14
TORSDOF 0
ENDMDL
