MODEL 1
REMARK VINA RESULT:    -4.523      0.000      0.000
REMARK INTER + INTRA:          -6.171
REMARK INTER:                  -6.109
REMARK INTRA:                  -0.061
REMARK UNBOUND:                -0.061
REMARK SMILES [NH3+]CCCC[C@H]([NH3+])C(=O)[O-]
REMARK SMILES IDX 4 1 3 2 2 3 1 4 5 8 6 9 7 10 8 14 9 15 10 16
REMARK H PARENT 1 5 1 6 1 7 7 11 7 12 7 13
REMARK Flexibility Score: inf
ROOT
ATOM      1  C   UNL     1     -32.767  51.500 -52.087  1.00  0.00     0.012 C 
ENDROOT
BRANCH   1   2
ATOM      2  C   UNL     1     -32.498  52.437 -50.903  1.00  0.00     0.061 C 
BRANCH   2   3
ATOM      3  C   UNL     1     -31.612  53.618 -51.323  1.00  0.00     0.258 C 
BRANCH   3   4
ATOM      4  N   UNL     1     -31.847  54.779 -50.466  1.00  0.00    -0.358 N 
ATOM      5  H   UNL     1     -32.425  54.487 -49.644  1.00  0.00     0.344 HD
ATOM      6  H   UNL     1     -32.366  55.518 -50.997  1.00  0.00     0.344 HD
ATOM      7  H   UNL     1     -30.938  55.163 -50.122  1.00  0.00     0.344 HD
ENDBRANCH   3   4
ENDBRANCH   2   3
ENDBRANCH   1   2
BRANCH   1   8
ATOM      8  C   UNL     1     -34.231  51.028 -52.090  1.00  0.00     0.072 C 
BRANCH   8   9
ATOM      9  C   UNL     1     -34.493  49.777 -52.960  1.00  0.00     0.227 C 
BRANCH   9  10
ATOM     10  N   UNL     1     -34.478  50.090 -54.395  1.00  0.00    -0.350 N 
ATOM     11  H   UNL     1     -33.738  49.521 -54.868  1.00  0.00     0.345 HD
ATOM     12  H   UNL     1     -34.253  51.101 -54.537  1.00  0.00     0.345 HD
ATOM     13  H   UNL     1     -35.399  49.877 -54.842  1.00  0.00     0.345 HD
ENDBRANCH   9  10
BRANCH   9  14
ATOM     14  C   UNL     1     -35.771  49.083 -52.562  1.00  0.00     0.099 C 
ATOM     15  O   UNL     1     -36.841  49.740 -52.471  1.00  0.00    -0.544 OA
ATOM     16  O   UNL     1     -35.795  47.710 -52.340  1.00  0.00    -0.544 OA
ENDBRANCH   9  14
ENDBRANCH   8   9
ENDBRANCH   1   8
TORSDOF 7
ENDMDL
MODEL 2
REMARK VINA RESULT:    -4.522      2.238      2.450
REMARK INTER + INTRA:          -6.169
REMARK INTER:                  -5.987
REMARK INTRA:                  -0.182
REMARK UNBOUND:                -0.061
REMARK SMILES [NH3+]CCCC[C@H]([NH3+])C(=O)[O-]
REMARK SMILES IDX 4 1 3 2 2 3 1 4 5 8 6 9 7 10 8 14 9 15 10 16
REMARK H PARENT 1 5 1 6 1 7 7 11 7 12 7 13
REMARK Flexibility Score: inf
ROOT
ATOM      1  C   UNL     1     -32.808  51.364 -50.960  1.00  0.00     0.012 C 
ENDROOT
BRANCH   1   2
ATOM      2  C   UNL     1     -32.077  52.649 -51.372  1.00  0.00     0.061 C 
BRANCH   2   3
ATOM      3  C   UNL     1     -31.861  53.573 -50.166  1.00  0.00     0.258 C 
BRANCH   3   4
ATOM      4  N   UNL     1     -31.795  54.972 -50.585  1.00  0.00    -0.358 N 
ATOM      5  H   UNL     1     -31.001  55.440 -50.091  1.00  0.00     0.344 HD
ATOM      6  H   UNL     1     -32.685  55.464 -50.335  1.00  0.00     0.344 HD
ATOM      7  H   UNL     1     -31.635  55.032 -51.616  1.00  0.00     0.344 HD
ENDBRANCH   3   4
ENDBRANCH   2   3
ENDBRANCH   1   2
BRANCH   1   8
ATOM      8  C   UNL     1     -34.014  51.102 -51.877  1.00  0.00     0.072 C 
BRANCH   8   9
ATOM      9  C   UNL     1     -33.819  49.928 -52.864  1.00  0.00     0.227 C 
BRANCH   9  10
ATOM     10  N   UNL     1     -32.644  49.113 -52.526  1.00  0.00    -0.350 N 
ATOM     11  H   UNL     1     -32.843  48.557 -51.662  1.00  0.00     0.345 HD
ATOM     12  H   UNL     1     -31.824  49.732 -52.333  1.00  0.00     0.345 HD
ATOM     13  H   UNL     1     -32.402  48.453 -53.300  1.00  0.00     0.345 HD
ENDBRANCH   9  10
BRANCH   9  14
ATOM     14  C   UNL     1     -33.763  50.408 -54.293  1.00  0.00     0.099 C 
ATOM     15  O   UNL     1     -34.617  50.003 -55.125  1.00  0.00    -0.544 OA
ATOM     16  O   UNL     1     -32.807  51.334 -54.695  1.00  0.00    -0.544 OA
ENDBRANCH   9  14
ENDBRANCH   8   9
ENDBRANCH   1   8
TORSDOF 7
ENDMDL
MODEL 3
REMARK VINA RESULT:    -4.463      3.277      5.405
REMARK INTER + INTRA:          -6.089
REMARK INTER:                  -6.002
REMARK INTRA:                  -0.088
REMARK UNBOUND:                -0.061
REMARK SMILES [NH3+]CCCC[C@H]([NH3+])C(=O)[O-]
REMARK SMILES IDX 4 1 3 2 2 3 1 4 5 8 6 9 7 10 8 14 9 15 10 16
REMARK H PARENT 1 5 1 6 1 7 7 11 7 12 7 13
REMARK Flexibility Score: inf
ROOT
ATOM      1  C   UNL     1     -35.451  49.250 -52.942  1.00  0.00     0.012 C 
ENDROOT
BRANCH   1   2
ATOM      2  C   UNL     1     -36.582  48.585 -52.148  1.00  0.00     0.061 C 
BRANCH   2   3
ATOM      3  C   UNL     1     -37.946  48.851 -52.799  1.00  0.00     0.258 C 
BRANCH   3   4
ATOM      4  N   UNL     1     -39.017  48.811 -51.805  1.00  0.00    -0.358 N 
ATOM      5  H   UNL     1     -38.899  47.959 -51.209  1.00  0.00     0.344 HD
ATOM      6  H   UNL     1     -39.948  48.762 -52.282  1.00  0.00     0.344 HD
ATOM      7  H   UNL     1     -38.975  49.659 -51.196  1.00  0.00     0.344 HD
ENDBRANCH   3   4
ENDBRANCH   2   3
ENDBRANCH   1   2
BRANCH   1   8
ATOM      8  C   UNL     1     -34.802  50.382 -52.127  1.00  0.00     0.072 C 
BRANCH   8   9
ATOM      9  C   UNL     1     -33.276  50.520 -52.334  1.00  0.00     0.227 C 
BRANCH   9  10
ATOM     10  N   UNL     1     -32.617  49.214 -52.467  1.00  0.00    -0.350 N 
ATOM     11  H   UNL     1     -32.599  48.935 -53.476  1.00  0.00     0.345 HD
ATOM     12  H   UNL     1     -33.153  48.489 -51.939  1.00  0.00     0.345 HD
ATOM     13  H   UNL     1     -31.635  49.244 -52.111  1.00  0.00     0.345 HD
ENDBRANCH   9  10
BRANCH   9  14
ATOM     14  C   UNL     1     -32.641  51.348 -51.245  1.00  0.00     0.099 C 
ATOM     15  O   UNL     1     -32.321  50.809 -50.153  1.00  0.00    -0.544 OA
ATOM     16  O   UNL     1     -32.358  52.694 -51.449  1.00  0.00    -0.544 OA
ENDBRANCH   9  14
ENDBRANCH   8   9
ENDBRANCH   1   8
TORSDOF 7
ENDMDL
MODEL 4
REMARK VINA RESULT:    -4.451      1.370      1.545
REMARK INTER + INTRA:          -6.073
REMARK INTER:                  -5.961
REMARK INTRA:                  -0.112
REMARK UNBOUND:                -0.061
REMARK SMILES [NH3+]CCCC[C@H]([NH3+])C(=O)[O-]
REMARK SMILES IDX 4 1 3 2 2 3 1 4 5 8 6 9 7 10 8 14 9 15 10 16
REMARK H PARENT 1 5 1 6 1 7 7 11 7 12 7 13
REMARK Flexibility Score: inf
ROOT
ATOM      1  C   UNL     1     -32.433  52.145 -51.355  1.00  0.00     0.012 C 
ENDROOT
BRANCH   1   2
ATOM      2  C   UNL     1     -31.401  52.993 -52.109  1.00  0.00     0.061 C 
BRANCH   2   3
ATOM      3  C   UNL     1     -30.888  54.146 -51.235  1.00  0.00     0.258 C 
BRANCH   3   4
ATOM      4  N   UNL     1     -31.999  54.873 -50.624  1.00  0.00    -0.358 N 
ATOM      5  H   UNL     1     -32.778  54.954 -51.318  1.00  0.00     0.344 HD
ATOM      6  H   UNL     1     -31.691  55.835 -50.350  1.00  0.00     0.344 HD
ATOM      7  H   UNL     1     -32.347  54.359 -49.783  1.00  0.00     0.344 HD
ENDBRANCH   3   4
ENDBRANCH   2   3
ENDBRANCH   1   2
BRANCH   1   8
ATOM      8  C   UNL     1     -33.480  51.568 -52.324  1.00  0.00     0.072 C 
BRANCH   8   9
ATOM      9  C   UNL     1     -33.735  50.052 -52.154  1.00  0.00     0.227 C 
BRANCH   9  10
ATOM     10  N   UNL     1     -32.583  49.247 -52.583  1.00  0.00    -0.350 N 
ATOM     11  H   UNL     1     -31.740  49.861 -52.664  1.00  0.00     0.345 HD
ATOM     12  H   UNL     1     -32.772  48.828 -53.521  1.00  0.00     0.345 HD
ATOM     13  H   UNL     1     -32.376  48.484 -51.900  1.00  0.00     0.345 HD
ENDBRANCH   9  10
BRANCH   9  14
ATOM     14  C   UNL     1     -34.999  49.620 -52.853  1.00  0.00     0.099 C 
ATOM     15  O   UNL     1     -35.051  49.619 -54.112  1.00  0.00    -0.544 OA
ATOM     16  O   UNL     1     -36.097  49.174 -52.126  1.00  0.00    -0.544 OA
ENDBRANCH   9  14
ENDBRANCH   8   9
ENDBRANCH   1   8
TORSDOF 7
ENDMDL
MODEL 5
REMARK VINA RESULT:    -4.306      1.635      1.793
REMARK INTER + INTRA:          -5.878
REMARK INTER:                  -5.790
REMARK INTRA:                  -0.088
REMARK UNBOUND:                -0.061
REMARK SMILES [NH3+]CCCC[C@H]([NH3+])C(=O)[O-]
REMARK SMILES IDX 4 1 3 2 2 3 1 4 5 8 6 9 7 10 8 14 9 15 10 16
REMARK H PARENT 1 5 1 6 1 7 7 11 7 12 7 13
REMARK Flexibility Score: inf
ROOT
ATOM      1  C   UNL     1     -33.239  51.590 -52.504  1.00  0.00     0.012 C 
ENDROOT
BRANCH   1   2
ATOM      2  C   UNL     1     -32.596  52.186 -51.246  1.00  0.00     0.061 C 
BRANCH   2   3
ATOM      3  C   UNL     1     -32.577  51.168 -50.098  1.00  0.00     0.258 C 
BRANCH   3   4
ATOM      4  N   UNL     1     -31.663  50.066 -50.392  1.00  0.00    -0.358 N 
ATOM      5  H   UNL     1     -30.816  50.153 -49.784  1.00  0.00     0.344 HD
ATOM      6  H   UNL     1     -31.364  50.104 -51.395  1.00  0.00     0.344 HD
ATOM      7  H   UNL     1     -32.127  49.150 -50.196  1.00  0.00     0.344 HD
ENDBRANCH   3   4
ENDBRANCH   2   3
ENDBRANCH   1   2
BRANCH   1   8
ATOM      8  C   UNL     1     -34.553  50.869 -52.157  1.00  0.00     0.072 C 
BRANCH   8   9
ATOM      9  C   UNL     1     -34.814  49.590 -52.986  1.00  0.00     0.227 C 
BRANCH   9  10
ATOM     10  N   UNL     1     -34.811  49.859 -54.431  1.00  0.00    -0.350 N 
ATOM     11  H   UNL     1     -35.786  49.776 -54.803  1.00  0.00     0.345 HD
ATOM     12  H   UNL     1     -34.214  49.156 -54.923  1.00  0.00     0.345 HD
ATOM     13  H   UNL     1     -34.454  50.819 -54.640  1.00  0.00     0.345 HD
ENDBRANCH   9  10
BRANCH   9  14
ATOM     14  C   UNL     1     -36.085  48.901 -52.558  1.00  0.00     0.099 C 
ATOM     15  O   UNL     1     -37.173  49.536 -52.554  1.00  0.00    -0.544 OA
ATOM     16  O   UNL     1     -36.082  47.554 -52.214  1.00  0.00    -0.544 OA
ENDBRANCH   9  14
ENDBRANCH   8   9
ENDBRANCH   1   8
TORSDOF 7
ENDMDL
MODEL 6
REMARK VINA RESULT:    -4.296      3.617      5.603
REMARK INTER + INTRA:          -5.865
REMARK INTER:                  -5.802
REMARK INTRA:                  -0.062
REMARK UNBOUND:                -0.061
REMARK SMILES [NH3+]CCCC[C@H]([NH3+])C(=O)[O-]
REMARK SMILES IDX 4 1 3 2 2 3 1 4 5 8 6 9 7 10 8 14 9 15 10 16
REMARK H PARENT 1 5 1 6 1 7 7 11 7 12 7 13
REMARK Flexibility Score: inf
ROOT
ATOM      1  C   UNL     1     -34.305  49.795 -52.632  1.00  0.00     0.012 C 
ENDROOT
BRANCH   1   2
ATOM      2  C   UNL     1     -35.807  49.622 -52.380  1.00  0.00     0.061 C 
BRANCH   2   3
ATOM      3  C   UNL     1     -36.202  48.139 -52.390  1.00  0.00     0.258 C 
BRANCH   3   4
ATOM      4  N   UNL     1     -37.653  47.983 -52.318  1.00  0.00    -0.358 N 
ATOM      5  H   UNL     1     -38.068  48.201 -53.253  1.00  0.00     0.344 HD
ATOM      6  H   UNL     1     -38.051  48.644 -51.610  1.00  0.00     0.344 HD
ATOM      7  H   UNL     1     -37.898  47.000 -52.060  1.00  0.00     0.344 HD
ENDBRANCH   3   4
ENDBRANCH   2   3
ENDBRANCH   1   2
BRANCH   1   8
ATOM      8  C   UNL     1     -33.800  51.123 -52.041  1.00  0.00     0.072 C 
BRANCH   8   9
ATOM      9  C   UNL     1     -32.269  51.185 -51.835  1.00  0.00     0.227 C 
BRANCH   9  10
ATOM     10  N   UNL     1     -31.843  50.449 -50.636  1.00  0.00    -0.350 N 
ATOM     11  H   UNL     1     -32.540  50.598 -49.870  1.00  0.00     0.345 HD
ATOM     12  H   UNL     1     -30.917  50.808 -50.308  1.00  0.00     0.345 HD
ATOM     13  H   UNL     1     -31.767  49.424 -50.824  1.00  0.00     0.345 HD
ENDBRANCH   9  10
BRANCH   9  14
ATOM     14  C   UNL     1     -31.769  52.607 -51.813  1.00  0.00     0.099 C 
ATOM     15  O   UNL     1     -31.148  53.070 -52.806  1.00  0.00    -0.544 OA
ATOM     16  O   UNL     1     -32.029  53.436 -50.727  1.00  0.00    -0.544 OA
ENDBRANCH   9  14
ENDBRANCH   8   9
ENDBRANCH   1   8
TORSDOF 7
ENDMDL
MODEL 7
REMARK VINA RESULT:    -4.232     12.258     14.377
REMARK INTER + INTRA:          -5.778
REMARK INTER:                  -5.425
REMARK INTRA:                  -0.353
REMARK UNBOUND:                -0.061
REMARK SMILES [NH3+]CCCC[C@H]([NH3+])C(=O)[O-]
REMARK SMILES IDX 4 1 3 2 2 3 1 4 5 8 6 9 7 10 8 14 9 15 10 16
REMARK H PARENT 1 5 1 6 1 7 7 11 7 12 7 13
REMARK Flexibility Score: inf
ROOT
ATOM      1  C   UNL     1     -40.682  38.912 -50.535  1.00  0.00     0.012 C 
ENDROOT
BRANCH   1   2
ATOM      2  C   UNL     1     -41.570  37.755 -51.011  1.00  0.00     0.061 C 
BRANCH   2   3
ATOM      3  C   UNL     1     -42.731  37.512 -50.038  1.00  0.00     0.258 C 
BRANCH   3   4
ATOM      4  N   UNL     1     -44.018  37.602 -50.726  1.00  0.00    -0.358 N 
ATOM      5  H   UNL     1     -44.551  38.419 -50.349  1.00  0.00     0.344 HD
ATOM      6  H   UNL     1     -44.575  36.731 -50.562  1.00  0.00     0.344 HD
ATOM      7  H   UNL     1     -43.869  37.739 -51.752  1.00  0.00     0.344 HD
ENDBRANCH   3   4
ENDBRANCH   2   3
ENDBRANCH   1   2
BRANCH   1   8
ATOM      8  C   UNL     1     -41.538  40.080 -50.014  1.00  0.00     0.072 C 
BRANCH   8   9
ATOM      9  C   UNL     1     -41.373  41.393 -50.814  1.00  0.00     0.227 C 
BRANCH   9  10
ATOM     10  N   UNL     1     -41.371  42.574 -49.941  1.00  0.00    -0.350 N 
ATOM     11  H   UNL     1     -42.318  43.019 -49.953  1.00  0.00     0.345 HD
ATOM     12  H   UNL     1     -40.678  43.275 -50.291  1.00  0.00     0.345 HD
ATOM     13  H   UNL     1     -41.135  42.320 -48.955  1.00  0.00     0.345 HD
ENDBRANCH   9  10
BRANCH   9  14
ATOM     14  C   UNL     1     -42.411  41.515 -51.901  1.00  0.00     0.099 C 
ATOM     15  O   UNL     1     -42.424  42.530 -52.646  1.00  0.00    -0.544 OA
ATOM     16  O   UNL     1     -43.327  40.493 -52.127  1.00  0.00    -0.544 OA
ENDBRANCH   9  14
ENDBRANCH   8   9
ENDBRANCH   1   8
TORSDOF 7
ENDMDL
MODEL 8
REMARK VINA RESULT:    -4.220     12.793     14.590
REMARK INTER + INTRA:          -5.762
REMARK INTER:                  -5.301
REMARK INTRA:                  -0.461
REMARK UNBOUND:                -0.061
REMARK SMILES [NH3+]CCCC[C@H]([NH3+])C(=O)[O-]
REMARK SMILES IDX 4 1 3 2 2 3 1 4 5 8 6 9 7 10 8 14 9 15 10 16
REMARK H PARENT 1 5 1 6 1 7 7 11 7 12 7 13
REMARK Flexibility Score: inf
ROOT
ATOM      1  C   UNL     1     -43.279  39.875 -51.724  1.00  0.00     0.012 C 
ENDROOT
BRANCH   1   2
ATOM      2  C   UNL     1     -42.930  38.391 -51.895  1.00  0.00     0.061 C 
BRANCH   2   3
ATOM      3  C   UNL     1     -43.484  37.555 -50.734  1.00  0.00     0.258 C 
BRANCH   3   4
ATOM      4  N   UNL     1     -42.449  37.296 -49.735  1.00  0.00    -0.358 N 
ATOM      5  H   UNL     1     -41.513  37.519 -50.147  1.00  0.00     0.344 HD
ATOM      6  H   UNL     1     -42.463  36.287 -49.456  1.00  0.00     0.344 HD
ATOM      7  H   UNL     1     -42.601  37.898 -48.894  1.00  0.00     0.344 HD
ENDBRANCH   3   4
ENDBRANCH   2   3
ENDBRANCH   1   2
BRANCH   1   8
ATOM      8  C   UNL     1     -42.008  40.717 -51.522  1.00  0.00     0.072 C 
BRANCH   8   9
ATOM      9  C   UNL     1     -41.801  41.216 -50.073  1.00  0.00     0.227 C 
BRANCH   9  10
ATOM     10  N   UNL     1     -41.350  42.614 -50.030  1.00  0.00    -0.350 N 
ATOM     11  H   UNL     1     -42.182  43.247 -49.992  1.00  0.00     0.345 HD
ATOM     12  H   UNL     1     -40.808  42.840 -50.895  1.00  0.00     0.345 HD
ATOM     13  H   UNL     1     -40.752  42.796 -49.192  1.00  0.00     0.345 HD
ENDBRANCH   9  10
BRANCH   9  14
ATOM     14  C   UNL     1     -40.870  40.314 -49.303  1.00  0.00     0.099 C 
ATOM     15  O   UNL     1     -40.207  39.431 -49.909  1.00  0.00    -0.544 OA
ATOM     16  O   UNL     1     -40.694  40.476 -47.933  1.00  0.00    -0.544 OA
ENDBRANCH   9  14
ENDBRANCH   8   9
ENDBRANCH   1   8
TORSDOF 7
ENDMDL
MODEL 9
REMARK VINA RESULT:    -4.035     12.901     15.043
REMARK INTER + INTRA:          -5.511
REMARK INTER:                  -5.150
REMARK INTRA:                  -0.361
REMARK UNBOUND:                -0.061
REMARK SMILES [NH3+]CCCC[C@H]([NH3+])C(=O)[O-]
REMARK SMILES IDX 4 1 3 2 2 3 1 4 5 8 6 9 7 10 8 14 9 15 10 16
REMARK H PARENT 1 5 1 6 1 7 7 11 7 12 7 13
REMARK Flexibility Score: inf
ROOT
ATOM      1  C   UNL     1     -42.148  37.822 -49.980  1.00  0.00     0.012 C 
ENDROOT
BRANCH   1   2
ATOM      2  C   UNL     1     -42.935  36.876 -50.896  1.00  0.00     0.061 C 
BRANCH   2   3
ATOM      3  C   UNL     1     -43.906  37.655 -51.793  1.00  0.00     0.258 C 
BRANCH   3   4
ATOM      4  N   UNL     1     -44.739  38.559 -51.002  1.00  0.00    -0.358 N 
ATOM      5  H   UNL     1     -44.815  39.477 -51.498  1.00  0.00     0.344 HD
ATOM      6  H   UNL     1     -44.304  38.719 -50.063  1.00  0.00     0.344 HD
ATOM      7  H   UNL     1     -45.696  38.156 -50.885  1.00  0.00     0.344 HD
ENDBRANCH   3   4
ENDBRANCH   2   3
ENDBRANCH   1   2
BRANCH   1   8
ATOM      8  C   UNL     1     -41.063  38.573 -50.771  1.00  0.00     0.072 C 
BRANCH   8   9
ATOM      9  C   UNL     1     -40.648  39.927 -50.152  1.00  0.00     0.227 C 
BRANCH   9  10
ATOM     10  N   UNL     1     -40.626  39.879 -48.683  1.00  0.00    -0.350 N 
ATOM     11  H   UNL     1     -41.605  39.949 -48.318  1.00  0.00     0.345 HD
ATOM     12  H   UNL     1     -40.080  40.688 -48.308  1.00  0.00     0.345 HD
ATOM     13  H   UNL     1     -40.204  38.988 -48.337  1.00  0.00     0.345 HD
ENDBRANCH   9  10
BRANCH   9  14
ATOM     14  C   UNL     1     -41.514  41.055 -50.652  1.00  0.00     0.099 C 
ATOM     15  O   UNL     1     -41.308  42.231 -50.252  1.00  0.00    -0.544 OA
ATOM     16  O   UNL     1     -42.512  40.822 -51.593  1.00  0.00    -0.544 OA
ENDBRANCH   9  14
ENDBRANCH   8   9
ENDBRANCH   1   8
TORSDOF 7
ENDMDL
