MODEL 1
REMARK VINA RESULT:    -5.676      0.000      0.000
REMARK INTER + INTRA:         -15.405
REMARK INTER:                 -12.977
REMARK INTRA:                  -2.428
REMARK UNBOUND:                -2.428
REMARK SMILES CCCCCCCCCCCCCCCCCCCCCCCC(=O)[O-]
REMARK SMILES IDX 13 1 14 2 15 3 16 4 17 5 18 6 19 7 20 8 21 9 22 10 23 11
REMARK SMILES IDX 24 12 25 13 26 14 12 15 11 16 10 17 9 18 8 19 7 20 6 21 5 22
REMARK SMILES IDX 4 23 3 24 2 25 1 26
REMARK H PARENT
REMARK Flexibility Score: inf
ROOT
ATOM      1  C   UNL     1     159.592 160.293 153.647  1.00  0.00     0.000 C 
ENDROOT
BRANCH   1   2
ATOM      2  C   UNL     1     158.811 160.696 152.383  1.00  0.00     0.000 C 
BRANCH   2   3
ATOM      3  C   UNL     1     158.700 162.212 152.137  1.00  0.00     0.000 C 
BRANCH   3   4
ATOM      4  C   UNL     1     158.653 162.577 150.643  1.00  0.00     0.000 C 
BRANCH   4   5
ATOM      5  C   UNL     1     158.671 161.340 149.727  1.00  0.00     0.000 C 
BRANCH   5   6
ATOM      6  C   UNL     1     159.699 161.383 148.577  1.00  0.00     0.000 C 
BRANCH   6   7
ATOM      7  C   UNL     1     160.763 162.491 148.685  1.00  0.00     0.000 C 
BRANCH   7   8
ATOM      8  C   UNL     1     162.008 162.046 149.471  1.00  0.00     0.000 C 
BRANCH   8   9
ATOM      9  C   UNL     1     162.886 163.227 149.923  1.00  0.00     0.000 C 
BRANCH   9  10
ATOM     10  C   UNL     1     164.404 162.955 149.927  1.00  0.00     0.006 C 
BRANCH  10  11
ATOM     11  C   UNL     1     165.279 164.213 150.045  1.00  0.00     0.053 C 
BRANCH  11  12
ATOM     12  C   UNL     1     164.536 165.358 150.659  1.00  0.00     0.041 C 
ATOM     13  O   UNL     1     164.566 165.538 151.906  1.00  0.00    -0.550 OA
ATOM     14  O   UNL     1     163.834 166.245 149.852  1.00  0.00    -0.550 OA
ENDBRANCH  11  12
ENDBRANCH  10  11
ENDBRANCH   9  10
ENDBRANCH   8   9
ENDBRANCH   7   8
ENDBRANCH   6   7
ENDBRANCH   5   6
ENDBRANCH   4   5
ENDBRANCH   3   4
ENDBRANCH   2   3
ENDBRANCH   1   2
BRANCH   1  15
ATOM     15  C   UNL     1     160.624 159.183 153.387  1.00  0.00     0.000 C 
BRANCH  15  16
ATOM     16  C   UNL     1     160.695 158.776 151.908  1.00  0.00     0.000 C 
BRANCH  16  17
ATOM     17  C   UNL     1     160.727 157.248 151.719  1.00  0.00     0.000 C 
BRANCH  17  18
ATOM     18  C   UNL     1     160.893 156.840 150.247  1.00  0.00    -0.000 C 
BRANCH  18  19
ATOM     19  C   UNL     1     160.516 157.971 149.273  1.00  0.00    -0.000 C 
BRANCH  19  20
ATOM     20  C   UNL     1     159.192 157.707 148.533  1.00  0.00    -0.000 C 
BRANCH  20  21
ATOM     21  C   UNL     1     157.934 157.738 149.420  1.00  0.00    -0.000 C 
BRANCH  21  22
ATOM     22  C   UNL     1     157.231 156.372 149.509  1.00  0.00    -0.000 C 
BRANCH  22  23
ATOM     23  C   UNL     1     155.900 156.444 150.275  1.00  0.00    -0.000 C 
BRANCH  23  24
ATOM     24  C   UNL     1     154.812 155.552 149.651  1.00  0.00    -0.000 C 
BRANCH  24  25
ATOM     25  C   UNL     1     154.107 154.668 150.693  1.00  0.00    -0.003 C 
ATOM     26  C   UNL     1     155.066 153.716 151.407  1.00  0.00     0.004 C 
ENDBRANCH  24  25
ENDBRANCH  23  24
ENDBRANCH  22  23
ENDBRANCH  21  22
ENDBRANCH  20  21
ENDBRANCH  19  20
ENDBRANCH  18  19
ENDBRANCH  17  18
ENDBRANCH  16  17
ENDBRANCH  15  16
ENDBRANCH   1  15
TORSDOF 22
ENDMDL
MODEL 2
REMARK VINA RESULT:    -5.668      1.395      3.309
REMARK INTER + INTRA:         -15.387
REMARK INTER:                 -12.463
REMARK INTRA:                  -2.923
REMARK UNBOUND:                -2.428
REMARK SMILES CCCCCCCCCCCCCCCCCCCCCCCC(=O)[O-]
REMARK SMILES IDX 13 1 14 2 15 3 16 4 17 5 18 6 19 7 20 8 21 9 22 10 23 11
REMARK SMILES IDX 24 12 25 13 26 14 12 15 11 16 10 17 9 18 8 19 7 20 6 21 5 22
REMARK SMILES IDX 4 23 3 24 2 25 1 26
REMARK H PARENT
REMARK Flexibility Score: inf
ROOT
ATOM      1  C   UNL     1     161.052 157.442 150.020  1.00  0.00     0.000 C 
ENDROOT
BRANCH   1   2
ATOM      2  C   UNL     1     160.405 157.655 151.401  1.00  0.00     0.000 C 
BRANCH   2   3
ATOM      3  C   UNL     1     160.342 159.119 151.876  1.00  0.00     0.000 C 
BRANCH   3   4
ATOM      4  C   UNL     1     158.902 159.649 151.996  1.00  0.00     0.000 C 
BRANCH   4   5
ATOM      5  C   UNL     1     158.845 161.130 152.412  1.00  0.00     0.000 C 
BRANCH   5   6
ATOM      6  C   UNL     1     159.399 162.131 151.376  1.00  0.00     0.000 C 
BRANCH   6   7
ATOM      7  C   UNL     1     158.951 161.891 149.922  1.00  0.00     0.000 C 
BRANCH   7   8
ATOM      8  C   UNL     1     160.101 162.040 148.912  1.00  0.00     0.000 C 
BRANCH   8   9
ATOM      9  C   UNL     1     161.481 161.745 149.528  1.00  0.00     0.000 C 
BRANCH   9  10
ATOM     10  C   UNL     1     162.423 162.961 149.646  1.00  0.00     0.006 C 
BRANCH  10  11
ATOM     11  C   UNL     1     163.817 162.639 150.207  1.00  0.00     0.053 C 
BRANCH  11  12
ATOM     12  C   UNL     1     164.739 163.816 150.128  1.00  0.00     0.041 C 
ATOM     13  O   UNL     1     165.740 163.789 149.364  1.00  0.00    -0.550 OA
ATOM     14  O   UNL     1     164.474 164.957 150.877  1.00  0.00    -0.550 OA
ENDBRANCH  11  12
ENDBRANCH  10  11
ENDBRANCH   9  10
ENDBRANCH   8   9
ENDBRANCH   7   8
ENDBRANCH   6   7
ENDBRANCH   5   6
ENDBRANCH   4   5
ENDBRANCH   3   4
ENDBRANCH   2   3
ENDBRANCH   1   2
BRANCH   1  15
ATOM     15  C   UNL     1     160.525 158.416 148.953  1.00  0.00     0.000 C 
BRANCH  15  16
ATOM     16  C   UNL     1     159.152 158.004 148.403  1.00  0.00     0.000 C 
BRANCH  16  17
ATOM     17  C   UNL     1     158.966 156.476 148.365  1.00  0.00     0.000 C 
BRANCH  17  18
ATOM     18  C   UNL     1     157.765 156.008 149.200  1.00  0.00    -0.000 C 
BRANCH  18  19
ATOM     19  C   UNL     1     157.023 157.174 149.877  1.00  0.00    -0.000 C 
BRANCH  19  20
ATOM     20  C   UNL     1     155.747 156.725 150.612  1.00  0.00    -0.000 C 
BRANCH  20  21
ATOM     21  C   UNL     1     155.138 155.403 150.111  1.00  0.00    -0.000 C 
BRANCH  21  22
ATOM     22  C   UNL     1     154.767 154.442 151.255  1.00  0.00    -0.000 C 
BRANCH  22  23
ATOM     23  C   UNL     1     155.556 153.124 151.195  1.00  0.00    -0.000 C 
BRANCH  23  24
ATOM     24  C   UNL     1     156.076 152.812 149.781  1.00  0.00    -0.000 C 
BRANCH  24  25
ATOM     25  C   UNL     1     157.377 151.993 149.799  1.00  0.00    -0.003 C 
ATOM     26  C   UNL     1     157.662 151.365 151.163  1.00  0.00     0.004 C 
ENDBRANCH  24  25
ENDBRANCH  23  24
ENDBRANCH  22  23
ENDBRANCH  21  22
ENDBRANCH  20  21
ENDBRANCH  19  20
ENDBRANCH  18  19
ENDBRANCH  17  18
ENDBRANCH  16  17
ENDBRANCH  15  16
ENDBRANCH   1  15
TORSDOF 22
ENDMDL
MODEL 3
REMARK VINA RESULT:    -5.668      0.819      1.466
REMARK INTER + INTRA:         -15.386
REMARK INTER:                 -12.699
REMARK INTRA:                  -2.687
REMARK UNBOUND:                -2.428
REMARK SMILES CCCCCCCCCCCCCCCCCCCCCCCC(=O)[O-]
REMARK SMILES IDX 13 1 14 2 15 3 16 4 17 5 18 6 19 7 20 8 21 9 22 10 23 11
REMARK SMILES IDX 24 12 25 13 26 14 12 15 11 16 10 17 9 18 8 19 7 20 6 21 5 22
REMARK SMILES IDX 4 23 3 24 2 25 1 26
REMARK H PARENT
REMARK Flexibility Score: inf
ROOT
ATOM      1  C   UNL     1     160.371 158.909 153.409  1.00  0.00     0.000 C 
ENDROOT
BRANCH   1   2
ATOM      2  C   UNL     1     159.480 160.061 153.909  1.00  0.00     0.000 C 
BRANCH   2   3
ATOM      3  C   UNL     1     158.483 160.614 152.874  1.00  0.00     0.000 C 
BRANCH   3   4
ATOM      4  C   UNL     1     158.532 162.148 152.753  1.00  0.00     0.000 C 
BRANCH   4   5
ATOM      5  C   UNL     1     158.719 162.625 151.302  1.00  0.00     0.000 C 
BRANCH   5   6
ATOM      6  C   UNL     1     159.062 161.520 150.281  1.00  0.00     0.000 C 
BRANCH   6   7
ATOM      7  C   UNL     1     159.659 162.014 148.950  1.00  0.00     0.000 C 
BRANCH   7   8
ATOM      8  C   UNL     1     161.015 162.717 149.130  1.00  0.00     0.000 C 
BRANCH   8   9
ATOM      9  C   UNL     1     162.036 161.861 149.901  1.00  0.00     0.000 C 
BRANCH   9  10
ATOM     10  C   UNL     1     163.394 162.541 150.173  1.00  0.00     0.006 C 
BRANCH  10  11
ATOM     11  C   UNL     1     163.444 164.035 149.817  1.00  0.00     0.053 C 
BRANCH  11  12
ATOM     12  C   UNL     1     164.772 164.644 150.142  1.00  0.00     0.041 C 
ATOM     13  O   UNL     1     165.016 165.053 151.309  1.00  0.00    -0.550 OA
ATOM     14  O   UNL     1     165.754 164.733 149.163  1.00  0.00    -0.550 OA
ENDBRANCH  11  12
ENDBRANCH  10  11
ENDBRANCH   9  10
ENDBRANCH   8   9
ENDBRANCH   7   8
ENDBRANCH   6   7
ENDBRANCH   5   6
ENDBRANCH   4   5
ENDBRANCH   3   4
ENDBRANCH   2   3
ENDBRANCH   1   2
BRANCH   1  15
ATOM     15  C   UNL     1     160.318 158.727 151.883  1.00  0.00     0.000 C 
BRANCH  15  16
ATOM     16  C   UNL     1     160.657 157.294 151.446  1.00  0.00     0.000 C 
BRANCH  16  17
ATOM     17  C   UNL     1     161.009 157.202 149.950  1.00  0.00     0.000 C 
BRANCH  17  18
ATOM     18  C   UNL     1     160.965 158.569 149.249  1.00  0.00    -0.000 C 
BRANCH  18  19
ATOM     19  C   UNL     1     160.120 158.548 147.964  1.00  0.00    -0.000 C 
BRANCH  19  20
ATOM     20  C   UNL     1     158.943 157.558 148.037  1.00  0.00    -0.000 C 
BRANCH  20  21
ATOM     21  C   UNL     1     157.859 157.911 149.071  1.00  0.00    -0.000 C 
BRANCH  21  22
ATOM     22  C   UNL     1     157.273 156.672 149.772  1.00  0.00    -0.000 C 
BRANCH  22  23
ATOM     23  C   UNL     1     155.848 156.912 150.297  1.00  0.00    -0.000 C 
BRANCH  23  24
ATOM     24  C   UNL     1     154.902 155.738 149.990  1.00  0.00    -0.000 C 
BRANCH  24  25
ATOM     25  C   UNL     1     154.714 154.803 151.196  1.00  0.00    -0.003 C 
ATOM     26  C   UNL     1     155.440 153.469 151.029  1.00  0.00     0.004 C 
ENDBRANCH  24  25
ENDBRANCH  23  24
ENDBRANCH  22  23
ENDBRANCH  21  22
ENDBRANCH  20  21
ENDBRANCH  19  20
ENDBRANCH  18  19
ENDBRANCH  17  18
ENDBRANCH  16  17
ENDBRANCH  15  16
ENDBRANCH   1  15
TORSDOF 22
ENDMDL
MODEL 4
REMARK VINA RESULT:    -5.659      4.266      9.272
REMARK INTER + INTRA:         -15.366
REMARK INTER:                 -12.703
REMARK INTRA:                  -2.663
REMARK UNBOUND:                -2.428
REMARK SMILES CCCCCCCCCCCCCCCCCCCCCCCC(=O)[O-]
REMARK SMILES IDX 13 1 14 2 15 3 16 4 17 5 18 6 19 7 20 8 21 9 22 10 23 11
REMARK SMILES IDX 24 12 25 13 26 14 12 15 11 16 10 17 9 18 8 19 7 20 6 21 5 22
REMARK SMILES IDX 4 23 3 24 2 25 1 26
REMARK H PARENT
REMARK Flexibility Score: inf
ROOT
ATOM      1  C   UNL     1     160.807 158.846 153.672  1.00  0.00     0.000 C 
ENDROOT
BRANCH   1   2
ATOM      2  C   UNL     1     160.877 158.570 152.158  1.00  0.00     0.000 C 
BRANCH   2   3
ATOM      3  C   UNL     1     161.064 157.092 151.770  1.00  0.00     0.000 C 
BRANCH   3   4
ATOM      4  C   UNL     1     160.805 156.826 150.276  1.00  0.00     0.000 C 
BRANCH   4   5
ATOM      5  C   UNL     1     160.480 158.109 149.490  1.00  0.00     0.000 C 
BRANCH   5   6
ATOM      6  C   UNL     1     159.072 158.162 148.861  1.00  0.00     0.000 C 
BRANCH   6   7
ATOM      7  C   UNL     1     157.902 158.009 149.850  1.00  0.00     0.000 C 
BRANCH   7   8
ATOM      8  C   UNL     1     157.105 156.712 149.633  1.00  0.00     0.000 C 
BRANCH   8   9
ATOM      9  C   UNL     1     155.707 156.753 150.277  1.00  0.00     0.000 C 
BRANCH   9  10
ATOM     10  C   UNL     1     154.660 155.817 149.639  1.00  0.00     0.006 C 
BRANCH  10  11
ATOM     11  C   UNL     1     154.087 154.754 150.590  1.00  0.00     0.053 C 
BRANCH  11  12
ATOM     12  C   UNL     1     155.132 153.778 151.034  1.00  0.00     0.041 C 
ATOM     13  O   UNL     1     155.206 153.433 152.244  1.00  0.00    -0.550 OA
ATOM     14  O   UNL     1     156.006 153.225 150.106  1.00  0.00    -0.550 OA
ENDBRANCH  11  12
ENDBRANCH  10  11
ENDBRANCH   9  10
ENDBRANCH   8   9
ENDBRANCH   7   8
ENDBRANCH   6   7
ENDBRANCH   5   6
ENDBRANCH   4   5
ENDBRANCH   3   4
ENDBRANCH   2   3
ENDBRANCH   1   2
BRANCH   1  15
ATOM     15  C   UNL     1     159.794 159.944 154.036  1.00  0.00     0.000 C 
BRANCH  15  16
ATOM     16  C   UNL     1     158.888 160.327 152.856  1.00  0.00     0.000 C 
BRANCH  16  17
ATOM     17  C   UNL     1     158.531 161.825 152.850  1.00  0.00     0.000 C 
BRANCH  17  18
ATOM     18  C   UNL     1     158.628 162.448 151.449  1.00  0.00    -0.000 C 
BRANCH  18  19
ATOM     19  C   UNL     1     159.522 161.631 150.499  1.00  0.00    -0.000 C 
BRANCH  19  20
ATOM     20  C   UNL     1     159.915 162.410 149.230  1.00  0.00    -0.000 C 
BRANCH  20  21
ATOM     21  C   UNL     1     161.424 162.667 149.066  1.00  0.00    -0.000 C 
BRANCH  21  22
ATOM     22  C   UNL     1     162.278 161.894 150.087  1.00  0.00    -0.000 C 
BRANCH  22  23
ATOM     23  C   UNL     1     163.677 162.506 150.267  1.00  0.00    -0.000 C 
BRANCH  23  24
ATOM     24  C   UNL     1     163.724 163.994 149.878  1.00  0.00    -0.000 C 
BRANCH  24  25
ATOM     25  C   UNL     1     164.969 164.707 150.427  1.00  0.00    -0.003 C 
ATOM     26  C   UNL     1     164.677 165.528 151.683  1.00  0.00     0.004 C 
ENDBRANCH  24  25
ENDBRANCH  23  24
ENDBRANCH  22  23
ENDBRANCH  21  22
ENDBRANCH  20  21
ENDBRANCH  19  20
ENDBRANCH  18  19
ENDBRANCH  17  18
ENDBRANCH  16  17
ENDBRANCH  15  16
ENDBRANCH   1  15
TORSDOF 22
ENDMDL
MODEL 5
REMARK VINA RESULT:    -5.655      4.304      8.860
REMARK INTER + INTRA:         -15.355
REMARK INTER:                 -12.550
REMARK INTRA:                  -2.805
REMARK UNBOUND:                -2.428
REMARK SMILES CCCCCCCCCCCCCCCCCCCCCCCC(=O)[O-]
REMARK SMILES IDX 13 1 14 2 15 3 16 4 17 5 18 6 19 7 20 8 21 9 22 10 23 11
REMARK SMILES IDX 24 12 25 13 26 14 12 15 11 16 10 17 9 18 8 19 7 20 6 21 5 22
REMARK SMILES IDX 4 23 3 24 2 25 1 26
REMARK H PARENT
REMARK Flexibility Score: inf
ROOT
ATOM      1  C   UNL     1     160.029 160.006 154.089  1.00  0.00     0.000 C 
ENDROOT
BRANCH   1   2
ATOM      2  C   UNL     1     160.763 158.727 153.645  1.00  0.00     0.000 C 
BRANCH   2   3
ATOM      3  C   UNL     1     160.496 158.289 152.193  1.00  0.00     0.000 C 
BRANCH   3   4
ATOM      4  C   UNL     1     161.216 156.981 151.818  1.00  0.00     0.000 C 
BRANCH   4   5
ATOM      5  C   UNL     1     160.989 156.576 150.350  1.00  0.00     0.000 C 
BRANCH   5   6
ATOM      6  C   UNL     1     160.639 157.733 149.391  1.00  0.00     0.000 C 
BRANCH   6   7
ATOM      7  C   UNL     1     159.332 157.558 148.595  1.00  0.00     0.000 C 
BRANCH   7   8
ATOM      8  C   UNL     1     158.314 156.657 149.314  1.00  0.00     0.000 C 
BRANCH   8   9
ATOM      9  C   UNL     1     157.189 157.453 150.000  1.00  0.00     0.000 C 
BRANCH   9  10
ATOM     10  C   UNL     1     155.852 156.702 150.158  1.00  0.00     0.006 C 
BRANCH  10  11
ATOM     11  C   UNL     1     155.967 155.170 150.101  1.00  0.00     0.053 C 
BRANCH  11  12
ATOM     12  C   UNL     1     154.881 154.497 150.880  1.00  0.00     0.041 C 
ATOM     13  O   UNL     1     153.676 154.632 150.537  1.00  0.00    -0.550 OA
ATOM     14  O   UNL     1     155.201 153.694 151.969  1.00  0.00    -0.550 OA
ENDBRANCH  11  12
ENDBRANCH  10  11
ENDBRANCH   9  10
ENDBRANCH   8   9
ENDBRANCH   7   8
ENDBRANCH   6   7
ENDBRANCH   5   6
ENDBRANCH   4   5
ENDBRANCH   3   4
ENDBRANCH   2   3
ENDBRANCH   1   2
BRANCH   1  15
ATOM     15  C   UNL     1     158.681 160.203 153.376  1.00  0.00     0.000 C 
BRANCH  15  16
ATOM     16  C   UNL     1     158.425 161.668 152.992  1.00  0.00     0.000 C 
BRANCH  16  17
ATOM     17  C   UNL     1     158.863 161.983 151.549  1.00  0.00     0.000 C 
BRANCH  17  18
ATOM     18  C   UNL     1     158.828 160.747 150.639  1.00  0.00    -0.000 C 
BRANCH  18  19
ATOM     19  C   UNL     1     158.848 161.111 149.144  1.00  0.00    -0.000 C 
BRANCH  19  20
ATOM     20  C   UNL     1     160.268 161.373 148.611  1.00  0.00    -0.000 C 
BRANCH  20  21
ATOM     21  C   UNL     1     160.631 162.857 148.426  1.00  0.00    -0.000 C 
BRANCH  21  22
ATOM     22  C   UNL     1     161.723 163.332 149.402  1.00  0.00    -0.000 C 
BRANCH  22  23
ATOM     23  C   UNL     1     162.568 162.170 149.950  1.00  0.00    -0.000 C 
BRANCH  23  24
ATOM     24  C   UNL     1     164.031 162.574 150.204  1.00  0.00    -0.000 C 
BRANCH  24  25
ATOM     25  C   UNL     1     164.321 164.026 149.789  1.00  0.00    -0.003 C 
ATOM     26  C   UNL     1     165.338 164.711 150.701  1.00  0.00     0.004 C 
ENDBRANCH  24  25
ENDBRANCH  23  24
ENDBRANCH  22  23
ENDBRANCH  21  22
ENDBRANCH  20  21
ENDBRANCH  19  20
ENDBRANCH  18  19
ENDBRANCH  17  18
ENDBRANCH  16  17
ENDBRANCH  15  16
ENDBRANCH   1  15
TORSDOF 22
ENDMDL
MODEL 6
REMARK VINA RESULT:    -5.609      4.142      9.228
REMARK INTER + INTRA:         -15.251
REMARK INTER:                 -12.602
REMARK INTRA:                  -2.650
REMARK UNBOUND:                -2.428
REMARK SMILES CCCCCCCCCCCCCCCCCCCCCCCC(=O)[O-]
REMARK SMILES IDX 13 1 14 2 15 3 16 4 17 5 18 6 19 7 20 8 21 9 22 10 23 11
REMARK SMILES IDX 24 12 25 13 26 14 12 15 11 16 10 17 9 18 8 19 7 20 6 21 5 22
REMARK SMILES IDX 4 23 3 24 2 25 1 26
REMARK H PARENT
REMARK Flexibility Score: inf
ROOT
ATOM      1  C   UNL     1     158.761 162.175 151.886  1.00  0.00     0.000 C 
ENDROOT
BRANCH   1   2
ATOM      2  C   UNL     1     158.891 160.676 152.212  1.00  0.00     0.000 C 
BRANCH   2   3
ATOM      3  C   UNL     1     159.536 160.355 153.573  1.00  0.00     0.000 C 
BRANCH   3   4
ATOM      4  C   UNL     1     160.155 158.947 153.627  1.00  0.00     0.000 C 
BRANCH   4   5
ATOM      5  C   UNL     1     161.020 158.629 152.394  1.00  0.00     0.000 C 
BRANCH   5   6
ATOM      6  C   UNL     1     160.437 157.574 151.431  1.00  0.00     0.000 C 
BRANCH   6   7
ATOM      7  C   UNL     1     160.697 157.831 149.935  1.00  0.00     0.000 C 
BRANCH   7   8
ATOM      8  C   UNL     1     159.517 157.407 149.045  1.00  0.00     0.000 C 
BRANCH   8   9
ATOM      9  C   UNL     1     158.150 157.617 149.722  1.00  0.00     0.000 C 
BRANCH   9  10
ATOM     10  C   UNL     1     157.181 156.420 149.636  1.00  0.00     0.006 C 
BRANCH  10  11
ATOM     11  C   UNL     1     155.794 156.674 150.246  1.00  0.00     0.053 C 
BRANCH  11  12
ATOM     12  C   UNL     1     155.019 155.405 150.426  1.00  0.00     0.041 C 
ATOM     13  O   UNL     1     154.828 154.936 151.580  1.00  0.00    -0.550 OA
ATOM     14  O   UNL     1     154.483 154.756 149.321  1.00  0.00    -0.550 OA
ENDBRANCH  11  12
ENDBRANCH  10  11
ENDBRANCH   9  10
ENDBRANCH   8   9
ENDBRANCH   7   8
ENDBRANCH   6   7
ENDBRANCH   5   6
ENDBRANCH   4   5
ENDBRANCH   3   4
ENDBRANCH   2   3
ENDBRANCH   1   2
BRANCH   1  15
ATOM     15  C   UNL     1     158.482 162.445 150.398  1.00  0.00     0.000 C 
BRANCH  15  16
ATOM     16  C   UNL     1     158.799 161.233 149.509  1.00  0.00     0.000 C 
BRANCH  16  17
ATOM     17  C   UNL     1     159.877 161.542 148.454  1.00  0.00     0.000 C 
BRANCH  17  18
ATOM     18  C   UNL     1     161.239 160.924 148.805  1.00  0.00    -0.000 C 
BRANCH  18  19
ATOM     19  C   UNL     1     161.844 161.515 150.091  1.00  0.00    -0.000 C 
BRANCH  19  20
ATOM     20  C   UNL     1     162.654 162.799 149.837  1.00  0.00    -0.000 C 
BRANCH  20  21
ATOM     21  C   UNL     1     164.133 162.729 150.257  1.00  0.00    -0.000 C 
BRANCH  21  22
ATOM     22  C   UNL     1     165.010 163.766 149.533  1.00  0.00    -0.000 C 
BRANCH  22  23
ATOM     23  C   UNL     1     165.530 164.861 150.480  1.00  0.00    -0.000 C 
BRANCH  23  24
ATOM     24  C   UNL     1     164.396 165.722 151.063  1.00  0.00    -0.000 C 
BRANCH  24  25
ATOM     25  C   UNL     1     163.587 166.445 149.975  1.00  0.00    -0.003 C 
ATOM     26  C   UNL     1     162.870 167.689 150.497  1.00  0.00     0.004 C 
ENDBRANCH  24  25
ENDBRANCH  23  24
ENDBRANCH  22  23
ENDBRANCH  21  22
ENDBRANCH  20  21
ENDBRANCH  19  20
ENDBRANCH  18  19
ENDBRANCH  17  18
ENDBRANCH  16  17
ENDBRANCH  15  16
ENDBRANCH   1  15
TORSDOF 22
ENDMDL
MODEL 7
REMARK VINA RESULT:    -5.484      4.746      9.044
REMARK INTER + INTRA:         -14.965
REMARK INTER:                 -11.804
REMARK INTRA:                  -3.161
REMARK UNBOUND:                -2.428
REMARK SMILES CCCCCCCCCCCCCCCCCCCCCCCC(=O)[O-]
REMARK SMILES IDX 13 1 14 2 15 3 16 4 17 5 18 6 19 7 20 8 21 9 22 10 23 11
REMARK SMILES IDX 24 12 25 13 26 14 12 15 11 16 10 17 9 18 8 19 7 20 6 21 5 22
REMARK SMILES IDX 4 23 3 24 2 25 1 26
REMARK H PARENT
REMARK Flexibility Score: inf
ROOT
ATOM      1  C   UNL     1     159.526 160.202 147.207  1.00  0.00     0.000 C 
ENDROOT
BRANCH   1   2
ATOM      2  C   UNL     1     160.023 158.768 147.468  1.00  0.00     0.000 C 
BRANCH   2   3
ATOM      3  C   UNL     1     159.007 157.837 148.156  1.00  0.00     0.000 C 
BRANCH   3   4
ATOM      4  C   UNL     1     158.139 158.562 149.200  1.00  0.00     0.000 C 
BRANCH   4   5
ATOM      5  C   UNL     1     157.526 157.602 150.235  1.00  0.00     0.000 C 
BRANCH   5   6
ATOM      6  C   UNL     1     156.808 156.369 149.649  1.00  0.00     0.000 C 
BRANCH   6   7
ATOM      7  C   UNL     1     155.314 156.245 150.002  1.00  0.00     0.000 C 
BRANCH   7   8
ATOM      8  C   UNL     1     154.809 154.793 149.954  1.00  0.00     0.000 C 
BRANCH   8   9
ATOM      9  C   UNL     1     154.682 154.155 151.349  1.00  0.00     0.000 C 
BRANCH   9  10
ATOM     10  C   UNL     1     155.508 152.871 151.564  1.00  0.00     0.006 C 
BRANCH  10  11
ATOM     11  C   UNL     1     156.331 152.427 150.345  1.00  0.00     0.053 C 
BRANCH  11  12
ATOM     12  C   UNL     1     157.190 151.239 150.650  1.00  0.00     0.041 C 
ATOM     13  O   UNL     1     158.369 151.397 151.063  1.00  0.00    -0.550 OA
ATOM     14  O   UNL     1     156.676 149.955 150.507  1.00  0.00    -0.550 OA
ENDBRANCH  11  12
ENDBRANCH  10  11
ENDBRANCH   9  10
ENDBRANCH   8   9
ENDBRANCH   7   8
ENDBRANCH   6   7
ENDBRANCH   5   6
ENDBRANCH   4   5
ENDBRANCH   3   4
ENDBRANCH   2   3
ENDBRANCH   1   2
BRANCH   1  15
ATOM     15  C   UNL     1     160.394 161.273 147.889  1.00  0.00     0.000 C 
BRANCH  15  16
ATOM     16  C   UNL     1     161.276 160.695 149.006  1.00  0.00     0.000 C 
BRANCH  16  17
ATOM     17  C   UNL     1     161.106 161.448 150.339  1.00  0.00     0.000 C 
BRANCH  17  18
ATOM     18  C   UNL     1     159.909 162.410 150.323  1.00  0.00    -0.000 C 
BRANCH  18  19
ATOM     19  C   UNL     1     158.671 161.828 151.028  1.00  0.00    -0.000 C 
BRANCH  19  20
ATOM     20  C   UNL     1     158.599 162.205 152.519  1.00  0.00    -0.000 C 
BRANCH  20  21
ATOM     21  C   UNL     1     158.178 161.061 153.460  1.00  0.00    -0.000 C 
BRANCH  21  22
ATOM     22  C   UNL     1     158.883 159.731 153.138  1.00  0.00    -0.000 C 
BRANCH  22  23
ATOM     23  C   UNL     1     160.292 159.650 153.747  1.00  0.00    -0.000 C 
BRANCH  23  24
ATOM     24  C   UNL     1     161.120 158.491 153.163  1.00  0.00    -0.000 C 
BRANCH  24  25
ATOM     25  C   UNL     1     160.615 158.045 151.781  1.00  0.00    -0.003 C 
ATOM     26  C   UNL     1     161.072 156.635 151.410  1.00  0.00     0.004 C 
ENDBRANCH  24  25
ENDBRANCH  23  24
ENDBRANCH  22  23
ENDBRANCH  21  22
ENDBRANCH  20  21
ENDBRANCH  19  20
ENDBRANCH  18  19
ENDBRANCH  17  18
ENDBRANCH  16  17
ENDBRANCH  15  16
ENDBRANCH   1  15
TORSDOF 22
ENDMDL
MODEL 8
REMARK VINA RESULT:    -5.434      4.672      9.253
REMARK INTER + INTRA:         -14.850
REMARK INTER:                 -11.743
REMARK INTRA:                  -3.107
REMARK UNBOUND:                -2.428
REMARK SMILES CCCCCCCCCCCCCCCCCCCCCCCC(=O)[O-]
REMARK SMILES IDX 13 1 14 2 15 3 16 4 17 5 18 6 19 7 20 8 21 9 22 10 23 11
REMARK SMILES IDX 24 12 25 13 26 14 12 15 11 16 10 17 9 18 8 19 7 20 6 21 5 22
REMARK SMILES IDX 4 23 3 24 2 25 1 26
REMARK H PARENT
REMARK Flexibility Score: inf
ROOT
ATOM      1  C   UNL     1     160.665 158.211 149.315  1.00  0.00     0.000 C 
ENDROOT
BRANCH   1   2
ATOM      2  C   UNL     1     159.301 158.038 148.621  1.00  0.00     0.000 C 
BRANCH   2   3
ATOM      3  C   UNL     1     158.900 156.582 148.320  1.00  0.00     0.000 C 
BRANCH   3   4
ATOM      4  C   UNL     1     157.789 156.061 149.249  1.00  0.00     0.000 C 
BRANCH   4   5
ATOM      5  C   UNL     1     157.063 157.190 150.002  1.00  0.00     0.000 C 
BRANCH   5   6
ATOM      6  C   UNL     1     155.597 156.896 150.381  1.00  0.00     0.000 C 
BRANCH   6   7
ATOM      7  C   UNL     1     154.980 155.652 149.716  1.00  0.00     0.000 C 
BRANCH   7   8
ATOM      8  C   UNL     1     154.379 154.669 150.734  1.00  0.00     0.000 C 
BRANCH   8   9
ATOM      9  C   UNL     1     155.356 153.549 151.136  1.00  0.00     0.000 C 
BRANCH   9  10
ATOM     10  C   UNL     1     155.827 152.640 149.981  1.00  0.00     0.006 C 
BRANCH  10  11
ATOM     11  C   UNL     1     157.353 152.530 149.835  1.00  0.00     0.053 C 
BRANCH  11  12
ATOM     12  C   UNL     1     157.878 151.247 150.400  1.00  0.00     0.041 C 
ATOM     13  O   UNL     1     158.226 151.179 151.609  1.00  0.00    -0.550 OA
ATOM     14  O   UNL     1     157.956 150.115 149.597  1.00  0.00    -0.550 OA
ENDBRANCH  11  12
ENDBRANCH  10  11
ENDBRANCH   9  10
ENDBRANCH   8   9
ENDBRANCH   7   8
ENDBRANCH   6   7
ENDBRANCH   5   6
ENDBRANCH   4   5
ENDBRANCH   3   4
ENDBRANCH   2   3
ENDBRANCH   1   2
BRANCH   1  15
ATOM     15  C   UNL     1     161.036 157.022 150.216  1.00  0.00     0.000 C 
BRANCH  15  16
ATOM     16  C   UNL     1     160.780 157.305 151.704  1.00  0.00     0.000 C 
BRANCH  16  17
ATOM     17  C   UNL     1     160.740 158.812 152.018  1.00  0.00     0.000 C 
BRANCH  17  18
ATOM     18  C   UNL     1     160.490 159.097 153.506  1.00  0.00    -0.000 C 
BRANCH  18  19
ATOM     19  C   UNL     1     159.260 159.992 153.740  1.00  0.00    -0.000 C 
BRANCH  19  20
ATOM     20  C   UNL     1     158.623 160.488 152.429  1.00  0.00    -0.000 C 
BRANCH  20  21
ATOM     21  C   UNL     1     158.459 162.015 152.322  1.00  0.00    -0.000 C 
BRANCH  21  22
ATOM     22  C   UNL     1     159.183 162.611 151.102  1.00  0.00    -0.000 C 
BRANCH  22  23
ATOM     23  C   UNL     1     159.100 161.701 149.866  1.00  0.00    -0.000 C 
BRANCH  23  24
ATOM     24  C   UNL     1     160.340 161.818 148.963  1.00  0.00    -0.000 C 
BRANCH  24  25
ATOM     25  C   UNL     1     161.655 161.732 149.755  1.00  0.00    -0.003 C 
ATOM     26  C   UNL     1     162.509 162.992 149.623  1.00  0.00     0.004 C 
ENDBRANCH  24  25
ENDBRANCH  23  24
ENDBRANCH  22  23
ENDBRANCH  21  22
ENDBRANCH  20  21
ENDBRANCH  19  20
ENDBRANCH  18  19
ENDBRANCH  17  18
ENDBRANCH  16  17
ENDBRANCH  15  16
ENDBRANCH   1  15
TORSDOF 22
ENDMDL
MODEL 9
REMARK VINA RESULT:    -5.412      1.741      3.864
REMARK INTER + INTRA:         -14.801
REMARK INTER:                 -11.897
REMARK INTRA:                  -2.904
REMARK UNBOUND:                -2.428
REMARK SMILES CCCCCCCCCCCCCCCCCCCCCCCC(=O)[O-]
REMARK SMILES IDX 13 1 14 2 15 3 16 4 17 5 18 6 19 7 20 8 21 9 22 10 23 11
REMARK SMILES IDX 24 12 25 13 26 14 12 15 11 16 10 17 9 18 8 19 7 20 6 21 5 22
REMARK SMILES IDX 4 23 3 24 2 25 1 26
REMARK H PARENT
REMARK Flexibility Score: inf
ROOT
ATOM      1  C   UNL     1     158.581 162.738 150.587  1.00  0.00     0.000 C 
ENDROOT
BRANCH   1   2
ATOM      2  C   UNL     1     159.091 161.731 149.540  1.00  0.00     0.000 C 
BRANCH   2   3
ATOM      3  C   UNL     1     160.330 162.184 148.744  1.00  0.00     0.000 C 
BRANCH   3   4
ATOM      4  C   UNL     1     161.655 161.786 149.419  1.00  0.00     0.000 C 
BRANCH   4   5
ATOM      5  C   UNL     1     162.597 162.985 149.635  1.00  0.00     0.000 C 
BRANCH   5   6
ATOM      6  C   UNL     1     163.957 162.648 150.282  1.00  0.00     0.000 C 
BRANCH   6   7
ATOM      7  C   UNL     1     165.184 163.301 149.618  1.00  0.00     0.000 C 
BRANCH   7   8
ATOM      8  C   UNL     1     165.259 164.817 149.867  1.00  0.00     0.000 C 
BRANCH   8   9
ATOM      9  C   UNL     1     164.946 165.201 151.325  1.00  0.00     0.000 C 
BRANCH   9  10
ATOM     10  C   UNL     1     164.138 166.502 151.505  1.00  0.00     0.006 C 
BRANCH  10  11
ATOM     11  C   UNL     1     163.321 166.924 150.273  1.00  0.00     0.053 C 
BRANCH  11  12
ATOM     12  C   UNL     1     162.615 168.226 150.488  1.00  0.00     0.041 C 
ATOM     13  O   UNL     1     163.113 169.298 150.051  1.00  0.00    -0.550 OA
ATOM     14  O   UNL     1     161.390 168.254 151.145  1.00  0.00    -0.550 OA
ENDBRANCH  11  12
ENDBRANCH  10  11
ENDBRANCH   9  10
ENDBRANCH   8   9
ENDBRANCH   7   8
ENDBRANCH   6   7
ENDBRANCH   5   6
ENDBRANCH   4   5
ENDBRANCH   3   4
ENDBRANCH   2   3
ENDBRANCH   1   2
BRANCH   1  15
ATOM     15  C   UNL     1     158.498 162.142 152.002  1.00  0.00     0.000 C 
BRANCH  15  16
ATOM     16  C   UNL     1     159.060 160.715 152.076  1.00  0.00     0.000 C 
BRANCH  16  17
ATOM     17  C   UNL     1     159.174 160.201 153.524  1.00  0.00     0.000 C 
BRANCH  17  18
ATOM     18  C   UNL     1     160.334 159.213 153.709  1.00  0.00    -0.000 C 
BRANCH  18  19
ATOM     19  C   UNL     1     161.013 158.840 152.378  1.00  0.00    -0.000 C 
BRANCH  19  20
ATOM     20  C   UNL     1     160.756 157.380 151.964  1.00  0.00    -0.000 C 
BRANCH  20  21
ATOM     21  C   UNL     1     161.018 157.070 150.479  1.00  0.00    -0.000 C 
BRANCH  21  22
ATOM     22  C   UNL     1     160.676 158.249 149.551  1.00  0.00    -0.000 C 
BRANCH  22  23
ATOM     23  C   UNL     1     159.473 157.952 148.640  1.00  0.00    -0.000 C 
BRANCH  23  24
ATOM     24  C   UNL     1     158.146 158.454 149.234  1.00  0.00    -0.000 C 
BRANCH  24  25
ATOM     25  C   UNL     1     157.287 157.314 149.803  1.00  0.00    -0.003 C 
ATOM     26  C   UNL     1     157.727 155.936 149.308  1.00  0.00     0.004 C 
ENDBRANCH  24  25
ENDBRANCH  23  24
ENDBRANCH  22  23
ENDBRANCH  21  22
ENDBRANCH  20  21
ENDBRANCH  19  20
ENDBRANCH  18  19
ENDBRANCH  17  18
ENDBRANCH  16  17
ENDBRANCH  15  16
ENDBRANCH   1  15
TORSDOF 22
ENDMDL
