MODEL 1
REMARK VINA RESULT:    -2.963      0.000      0.000
REMARK INTER + INTRA:          -7.869
REMARK INTER:                  -6.427
REMARK INTRA:                  -1.442
REMARK UNBOUND:                -1.442
REMARK SMILES CCCCCCCCCCCCCCCCCCCCCC(=O)[O-]
REMARK SMILES IDX 12 1 11 2 10 3 9 4 8 5 7 6 6 7 5 8 4 9 3 10 2 11 1 12 13 13
REMARK SMILES IDX 14 14 15 15 16 16 17 17 18 18 19 19 20 20 21 21 22 22 23 23
REMARK SMILES IDX 24 24
REMARK H PARENT
REMARK Flexibility Score: inf
ROOT
ATOM      1  C   UNL     1      13.764  -7.770   5.882  1.00  0.00     0.000 C 
ENDROOT
BRANCH   1   2
ATOM      2  C   UNL     1      13.018  -7.292   4.619  1.00  0.00     0.000 C 
BRANCH   2   3
ATOM      3  C   UNL     1      11.514  -7.051   4.840  1.00  0.00     0.000 C 
BRANCH   3   4
ATOM      4  C   UNL     1      10.666  -8.312   4.599  1.00  0.00    -0.000 C 
BRANCH   4   5
ATOM      5  C   UNL     1       9.594  -8.514   5.682  1.00  0.00    -0.000 C 
BRANCH   5   6
ATOM      6  C   UNL     1       8.202  -8.798   5.091  1.00  0.00    -0.000 C 
BRANCH   6   7
ATOM      7  C   UNL     1       7.780  -7.731   4.059  1.00  0.00    -0.000 C 
BRANCH   7   8
ATOM      8  C   UNL     1       7.080  -6.510   4.683  1.00  0.00    -0.000 C 
BRANCH   8   9
ATOM      9  C   UNL     1       5.767  -6.874   5.396  1.00  0.00    -0.000 C 
BRANCH   9  10
ATOM     10  C   UNL     1       4.579  -7.030   4.427  1.00  0.00    -0.000 C 
BRANCH  10  11
ATOM     11  C   UNL     1       4.048  -8.466   4.274  1.00  0.00    -0.003 C 
ATOM     12  C   UNL     1       4.575  -9.419   5.347  1.00  0.00     0.004 C 
ENDBRANCH  10  11
ENDBRANCH   9  10
ENDBRANCH   8   9
ENDBRANCH   7   8
ENDBRANCH   6   7
ENDBRANCH   5   6
ENDBRANCH   4   5
ENDBRANCH   3   4
ENDBRANCH   2   3
ENDBRANCH   1   2
BRANCH   1  13
ATOM     13  C   UNL     1      14.596  -9.039   5.619  1.00  0.00     0.000 C 
BRANCH  13  14
ATOM     14  C   UNL     1      16.109  -8.767   5.618  1.00  0.00     0.000 C 
BRANCH  14  15
ATOM     15  C   UNL     1      16.608  -8.209   4.274  1.00  0.00     0.000 C 
BRANCH  15  16
ATOM     16  C   UNL     1      16.858  -6.693   4.319  1.00  0.00     0.000 C 
BRANCH  16  17
ATOM     17  C   UNL     1      18.281  -6.310   3.875  1.00  0.00     0.000 C 
BRANCH  17  18
ATOM     18  C   UNL     1      19.367  -7.090   4.632  1.00  0.00     0.000 C 
BRANCH  18  19
ATOM     19  C   UNL     1      19.727  -6.441   5.979  1.00  0.00     0.000 C 
BRANCH  19  20
ATOM     20  C   UNL     1      18.701  -6.749   7.081  1.00  0.00     0.006 C 
BRANCH  20  21
ATOM     21  C   UNL     1      19.356  -7.177   8.402  1.00  0.00     0.053 C 
BRANCH  21  22
ATOM     22  C   UNL     1      19.696  -8.635   8.383  1.00  0.00     0.041 C 
ATOM     23  O   UNL     1      19.554  -9.309   7.327  1.00  0.00    -0.550 OA
ATOM     24  O   UNL     1      20.145  -9.259   9.541  1.00  0.00    -0.550 OA
ENDBRANCH  21  22
ENDBRANCH  20  21
ENDBRANCH  19  20
ENDBRANCH  18  19
ENDBRANCH  17  18
ENDBRANCH  16  17
ENDBRANCH  15  16
ENDBRANCH  14  15
ENDBRANCH  13  14
ENDBRANCH   1  13
TORSDOF 20
ENDMDL
MODEL 2
REMARK VINA RESULT:    -2.843      1.857      2.864
REMARK INTER + INTRA:          -7.610
REMARK INTER:                  -6.053
REMARK INTRA:                  -1.557
REMARK UNBOUND:                -1.442
REMARK SMILES CCCCCCCCCCCCCCCCCCCCCC(=O)[O-]
REMARK SMILES IDX 12 1 11 2 10 3 9 4 8 5 7 6 6 7 5 8 4 9 3 10 2 11 1 12 13 13
REMARK SMILES IDX 14 14 15 15 16 16 17 17 18 18 19 19 20 20 21 21 22 22 23 23
REMARK SMILES IDX 24 24
REMARK H PARENT
REMARK Flexibility Score: inf
ROOT
ATOM      1  C   UNL     1      15.725  -7.469   5.981  1.00  0.00     0.000 C 
ENDROOT
BRANCH   1   2
ATOM      2  C   UNL     1      14.350  -7.969   6.470  1.00  0.00     0.000 C 
BRANCH   2   3
ATOM      3  C   UNL     1      13.344  -8.228   5.333  1.00  0.00     0.000 C 
BRANCH   3   4
ATOM      4  C   UNL     1      12.299  -7.108   5.194  1.00  0.00    -0.000 C 
BRANCH   4   5
ATOM      5  C   UNL     1      10.981  -7.609   4.581  1.00  0.00    -0.000 C 
BRANCH   5   6
ATOM      6  C   UNL     1       9.796  -7.500   5.558  1.00  0.00    -0.000 C 
BRANCH   6   7
ATOM      7  C   UNL     1       8.449  -7.816   4.874  1.00  0.00    -0.000 C 
BRANCH   7   8
ATOM      8  C   UNL     1       7.563  -8.789   5.673  1.00  0.00    -0.000 C 
BRANCH   8   9
ATOM      9  C   UNL     1       6.069  -8.438   5.597  1.00  0.00    -0.000 C 
BRANCH   9  10
ATOM     10  C   UNL     1       5.813  -6.931   5.402  1.00  0.00    -0.000 C 
BRANCH  10  11
ATOM     11  C   UNL     1       4.609  -6.585   4.509  1.00  0.00    -0.003 C 
ATOM     12  C   UNL     1       4.274  -5.093   4.505  1.00  0.00     0.004 C 
ENDBRANCH  10  11
ENDBRANCH   9  10
ENDBRANCH   8   9
ENDBRANCH   7   8
ENDBRANCH   6   7
ENDBRANCH   5   6
ENDBRANCH   4   5
ENDBRANCH   3   4
ENDBRANCH   2   3
ENDBRANCH   1   2
BRANCH   1  13
ATOM     13  C   UNL     1      15.896  -7.636   4.460  1.00  0.00     0.000 C 
BRANCH  13  14
ATOM     14  C   UNL     1      16.210  -9.084   4.053  1.00  0.00     0.000 C 
BRANCH  14  15
ATOM     15  C   UNL     1      17.167  -9.780   5.036  1.00  0.00     0.000 C 
BRANCH  15  16
ATOM     16  C   UNL     1      18.523 -10.124   4.400  1.00  0.00     0.000 C 
BRANCH  16  17
ATOM     17  C   UNL     1      19.707  -9.895   5.357  1.00  0.00     0.000 C 
BRANCH  17  18
ATOM     18  C   UNL     1      19.271  -9.816   6.828  1.00  0.00     0.000 C 
BRANCH  18  19
ATOM     19  C   UNL     1      19.798  -8.555   7.533  1.00  0.00     0.000 C 
BRANCH  19  20
ATOM     20  C   UNL     1      19.023  -7.287   7.141  1.00  0.00     0.006 C 
BRANCH  20  21
ATOM     21  C   UNL     1      19.932  -6.177   6.595  1.00  0.00     0.053 C 
BRANCH  21  22
ATOM     22  C   UNL     1      20.185  -6.366   5.131  1.00  0.00     0.041 C 
ATOM     23  O   UNL     1      19.220  -6.464   4.325  1.00  0.00    -0.550 OA
ATOM     24  O   UNL     1      21.488  -6.462   4.657  1.00  0.00    -0.550 OA
ENDBRANCH  21  22
ENDBRANCH  20  21
ENDBRANCH  19  20
ENDBRANCH  18  19
ENDBRANCH  17  18
ENDBRANCH  16  17
ENDBRANCH  15  16
ENDBRANCH  14  15
ENDBRANCH  13  14
ENDBRANCH   1  13
TORSDOF 20
ENDMDL
MODEL 3
REMARK VINA RESULT:    -2.456      4.692     11.413
REMARK INTER + INTRA:          -6.769
REMARK INTER:                  -5.109
REMARK INTRA:                  -1.660
REMARK UNBOUND:                -1.442
REMARK SMILES CCCCCCCCCCCCCCCCCCCCCC(=O)[O-]
REMARK SMILES IDX 12 1 11 2 10 3 9 4 8 5 7 6 6 7 5 8 4 9 3 10 2 11 1 12 13 13
REMARK SMILES IDX 14 14 15 15 16 16 17 17 18 18 19 19 20 20 21 21 22 22 23 23
REMARK SMILES IDX 24 24
REMARK H PARENT
REMARK Flexibility Score: inf
ROOT
ATOM      1  C   UNL     1      14.186  -7.194   5.321  1.00  0.00     0.000 C 
ENDROOT
BRANCH   1   2
ATOM      2  C   UNL     1      15.440  -8.048   5.039  1.00  0.00     0.000 C 
BRANCH   2   3
ATOM      3  C   UNL     1      16.366  -7.452   3.963  1.00  0.00     0.000 C 
BRANCH   3   4
ATOM      4  C   UNL     1      17.240  -6.305   4.496  1.00  0.00    -0.000 C 
BRANCH   4   5
ATOM      5  C   UNL     1      18.646  -6.300   3.875  1.00  0.00    -0.000 C 
BRANCH   5   6
ATOM      6  C   UNL     1      19.685  -7.015   4.757  1.00  0.00    -0.000 C 
BRANCH   6   7
ATOM      7  C   UNL     1      19.710  -8.538   4.506  1.00  0.00    -0.000 C 
BRANCH   7   8
ATOM      8  C   UNL     1      19.998  -9.368   5.770  1.00  0.00    -0.000 C 
BRANCH   8   9
ATOM      9  C   UNL     1      19.071  -9.012   6.943  1.00  0.00    -0.000 C 
BRANCH   9  10
ATOM     10  C   UNL     1      19.787  -8.231   8.062  1.00  0.00    -0.000 C 
BRANCH  10  11
ATOM     11  C   UNL     1      19.107  -6.913   8.473  1.00  0.00    -0.003 C 
ATOM     12  C   UNL     1      17.781  -6.671   7.752  1.00  0.00     0.004 C 
ENDBRANCH  10  11
ENDBRANCH   9  10
ENDBRANCH   8   9
ENDBRANCH   7   8
ENDBRANCH   6   7
ENDBRANCH   5   6
ENDBRANCH   4   5
ENDBRANCH   3   4
ENDBRANCH   2   3
ENDBRANCH   1   2
BRANCH   1  13
ATOM     13  C   UNL     1      13.449  -6.801   4.028  1.00  0.00     0.000 C 
BRANCH  13  14
ATOM     14  C   UNL     1      11.998  -7.307   3.995  1.00  0.00     0.000 C 
BRANCH  14  15
ATOM     15  C   UNL     1      11.893  -8.819   4.260  1.00  0.00     0.000 C 
BRANCH  15  16
ATOM     16  C   UNL     1      10.475  -9.364   4.030  1.00  0.00     0.000 C 
BRANCH  16  17
ATOM     17  C   UNL     1       9.432  -8.727   4.966  1.00  0.00     0.000 C 
BRANCH  17  18
ATOM     18  C   UNL     1       8.070  -8.525   4.284  1.00  0.00     0.000 C 
BRANCH  18  19
ATOM     19  C   UNL     1       7.046  -9.602   4.679  1.00  0.00     0.000 C 
BRANCH  19  20
ATOM     20  C   UNL     1       5.700  -9.008   5.122  1.00  0.00     0.006 C 
BRANCH  20  21
ATOM     21  C   UNL     1       5.788  -7.510   5.448  1.00  0.00     0.053 C 
BRANCH  21  22
ATOM     22  C   UNL     1       4.761  -6.736   4.682  1.00  0.00     0.041 C 
ATOM     23  O   UNL     1       3.551  -7.092   4.697  1.00  0.00    -0.550 OA
ATOM     24  O   UNL     1       5.142  -5.633   3.926  1.00  0.00    -0.550 OA
ENDBRANCH  21  22
ENDBRANCH  20  21
ENDBRANCH  19  20
ENDBRANCH  18  19
ENDBRANCH  17  18
ENDBRANCH  16  17
ENDBRANCH  15  16
ENDBRANCH  14  15
ENDBRANCH  13  14
ENDBRANCH   1  13
TORSDOF 20
ENDMDL
MODEL 4
REMARK VINA RESULT:    -1.810      4.099     10.507
REMARK INTER + INTRA:          -5.369
REMARK INTER:                  -3.736
REMARK INTRA:                  -1.632
REMARK UNBOUND:                -1.442
REMARK SMILES CCCCCCCCCCCCCCCCCCCCCC(=O)[O-]
REMARK SMILES IDX 12 1 11 2 10 3 9 4 8 5 7 6 6 7 5 8 4 9 3 10 2 11 1 12 13 13
REMARK SMILES IDX 14 14 15 15 16 16 17 17 18 18 19 19 20 20 21 21 22 22 23 23
REMARK SMILES IDX 24 24
REMARK H PARENT
REMARK Flexibility Score: inf
ROOT
ATOM      1  C   UNL     1      16.068  -8.543   4.071  1.00  0.00     0.000 C 
ENDROOT
BRANCH   1   2
ATOM      2  C   UNL     1      16.800  -9.643   4.868  1.00  0.00     0.000 C 
BRANCH   2   3
ATOM      3  C   UNL     1      18.114 -10.111   4.215  1.00  0.00     0.000 C 
BRANCH   3   4
ATOM      4  C   UNL     1      19.362  -9.613   4.962  1.00  0.00    -0.000 C 
BRANCH   4   5
ATOM      5  C   UNL     1      20.202  -8.640   4.119  1.00  0.00    -0.000 C 
BRANCH   5   6
ATOM      6  C   UNL     1      20.642  -7.397   4.913  1.00  0.00    -0.000 C 
BRANCH   6   7
ATOM      7  C   UNL     1      20.211  -7.469   6.393  1.00  0.00    -0.000 C 
BRANCH   7   8
ATOM      8  C   UNL     1      19.485  -6.205   6.888  1.00  0.00    -0.000 C 
BRANCH   8   9
ATOM      9  C   UNL     1      19.046  -6.306   8.358  1.00  0.00    -0.000 C 
BRANCH   9  10
ATOM     10  C   UNL     1      17.518  -6.228   8.538  1.00  0.00    -0.000 C 
BRANCH  10  11
ATOM     11  C   UNL     1      16.698  -6.509   7.267  1.00  0.00    -0.003 C 
ATOM     12  C   UNL     1      15.696  -7.651   7.440  1.00  0.00     0.004 C 
ENDBRANCH  10  11
ENDBRANCH   9  10
ENDBRANCH   8   9
ENDBRANCH   7   8
ENDBRANCH   6   7
ENDBRANCH   5   6
ENDBRANCH   4   5
ENDBRANCH   3   4
ENDBRANCH   2   3
ENDBRANCH   1   2
BRANCH   1  13
ATOM     13  C   UNL     1      14.575  -8.864   3.875  1.00  0.00     0.000 C 
BRANCH  13  14
ATOM     14  C   UNL     1      13.654  -7.754   4.405  1.00  0.00     0.000 C 
BRANCH  14  15
ATOM     15  C   UNL     1      12.287  -8.290   4.865  1.00  0.00     0.000 C 
BRANCH  15  16
ATOM     16  C   UNL     1      11.461  -7.235   5.617  1.00  0.00     0.000 C 
BRANCH  16  17
ATOM     17  C   UNL     1      10.109  -6.942   4.941  1.00  0.00     0.000 C 
BRANCH  17  18
ATOM     18  C   UNL     1       9.705  -8.029   3.932  1.00  0.00     0.000 C 
BRANCH  18  19
ATOM     19  C   UNL     1       8.199  -8.336   3.969  1.00  0.00     0.000 C 
BRANCH  19  20
ATOM     20  C   UNL     1       7.889  -9.723   4.555  1.00  0.00     0.006 C 
BRANCH  20  21
ATOM     21  C   UNL     1       6.528  -9.780   5.264  1.00  0.00     0.053 C 
BRANCH  21  22
ATOM     22  C   UNL     1       6.451  -8.757   6.355  1.00  0.00     0.041 C 
ATOM     23  O   UNL     1       5.805  -7.688   6.183  1.00  0.00    -0.550 OA
ATOM     24  O   UNL     1       7.116  -8.972   7.557  1.00  0.00    -0.550 OA
ENDBRANCH  21  22
ENDBRANCH  20  21
ENDBRANCH  19  20
ENDBRANCH  18  19
ENDBRANCH  17  18
ENDBRANCH  16  17
ENDBRANCH  15  16
ENDBRANCH  14  15
ENDBRANCH  13  14
ENDBRANCH   1  13
TORSDOF 20
ENDMDL
MODEL 5
REMARK VINA RESULT:    -1.565      4.270     11.262
REMARK INTER + INTRA:          -4.837
REMARK INTER:                  -3.991
REMARK INTRA:                  -0.846
REMARK UNBOUND:                -1.442
REMARK SMILES CCCCCCCCCCCCCCCCCCCCCC(=O)[O-]
REMARK SMILES IDX 12 1 11 2 10 3 9 4 8 5 7 6 6 7 5 8 4 9 3 10 2 11 1 12 13 13
REMARK SMILES IDX 14 14 15 15 16 16 17 17 18 18 19 19 20 20 21 21 22 22 23 23
REMARK SMILES IDX 24 24
REMARK H PARENT
REMARK Flexibility Score: inf
ROOT
ATOM      1  C   UNL     1      14.523  -9.016   4.914  1.00  0.00     0.000 C 
ENDROOT
BRANCH   1   2
ATOM      2  C   UNL     1      15.970  -8.798   4.426  1.00  0.00     0.000 C 
BRANCH   2   3
ATOM      3  C   UNL     1      16.821 -10.081   4.415  1.00  0.00     0.000 C 
BRANCH   3   4
ATOM      4  C   UNL     1      18.225  -9.871   5.009  1.00  0.00    -0.000 C 
BRANCH   4   5
ATOM      5  C   UNL     1      19.272  -9.536   3.935  1.00  0.00    -0.000 C 
BRANCH   5   6
ATOM      6  C   UNL     1      20.513  -8.835   4.517  1.00  0.00    -0.000 C 
BRANCH   6   7
ATOM      7  C   UNL     1      20.140  -7.787   5.587  1.00  0.00    -0.000 C 
BRANCH   7   8
ATOM      8  C   UNL     1      18.985  -6.859   5.167  1.00  0.00    -0.000 C 
BRANCH   8   9
ATOM      9  C   UNL     1      19.468  -5.606   4.420  1.00  0.00    -0.000 C 
BRANCH   9  10
ATOM     10  C   UNL     1      20.893  -5.178   4.819  1.00  0.00    -0.000 C 
BRANCH  10  11
ATOM     11  C   UNL     1      21.554  -4.157   3.876  1.00  0.00    -0.003 C 
ATOM     12  C   UNL     1      21.079  -2.723   4.116  1.00  0.00     0.004 C 
ENDBRANCH  10  11
ENDBRANCH   9  10
ENDBRANCH   8   9
ENDBRANCH   7   8
ENDBRANCH   6   7
ENDBRANCH   5   6
ENDBRANCH   4   5
ENDBRANCH   3   4
ENDBRANCH   2   3
ENDBRANCH   1   2
BRANCH   1  13
ATOM     13  C   UNL     1      14.308  -8.489   6.345  1.00  0.00     0.000 C 
BRANCH  13  14
ATOM     14  C   UNL     1      13.258  -7.369   6.413  1.00  0.00     0.000 C 
BRANCH  14  15
ATOM     15  C   UNL     1      11.820  -7.911   6.499  1.00  0.00     0.000 C 
BRANCH  15  16
ATOM     16  C   UNL     1      11.142  -8.008   5.124  1.00  0.00     0.000 C 
BRANCH  16  17
ATOM     17  C   UNL     1      10.190  -6.831   4.843  1.00  0.00     0.000 C 
BRANCH  17  18
ATOM     18  C   UNL     1       9.056  -7.205   3.876  1.00  0.00     0.000 C 
BRANCH  18  19
ATOM     19  C   UNL     1       7.723  -6.532   4.243  1.00  0.00     0.000 C 
BRANCH  19  20
ATOM     20  C   UNL     1       7.169  -7.007   5.595  1.00  0.00     0.006 C 
BRANCH  20  21
ATOM     21  C   UNL     1       6.131  -8.131   5.452  1.00  0.00     0.053 C 
BRANCH  21  22
ATOM     22  C   UNL     1       6.235  -9.101   6.588  1.00  0.00     0.041 C 
ATOM     23  O   UNL     1       7.223  -9.064   7.370  1.00  0.00    -0.550 OA
ATOM     24  O   UNL     1       5.253 -10.068   6.767  1.00  0.00    -0.550 OA
ENDBRANCH  21  22
ENDBRANCH  20  21
ENDBRANCH  19  20
ENDBRANCH  18  19
ENDBRANCH  17  18
ENDBRANCH  16  17
ENDBRANCH  15  16
ENDBRANCH  14  15
ENDBRANCH  13  14
ENDBRANCH   1  13
TORSDOF 20
ENDMDL
