MODEL 1
REMARK VINA RESULT:    -7.062      0.000      0.000
REMARK INTER + INTRA:         -11.314
REMARK INTER:                 -10.777
REMARK INTRA:                  -0.537
REMARK UNBOUND:                -0.537
REMARK SMILES CCCCCCCCCCC(=O)[O-]
REMARK SMILES IDX 7 1 8 2 9 3 10 4 11 5 12 6 13 7 6 8 5 9 4 10 3 11 2 12 1 13
REMARK H PARENT
REMARK Flexibility Score: inf
ROOT
ATOM      1  C   UNL     1       7.701  -4.359  20.639  1.00  0.00     0.000 C 
ENDROOT
BRANCH   1   2
ATOM      2  C   UNL     1       6.890  -5.611  21.026  1.00  0.00     0.000 C 
BRANCH   2   3
ATOM      3  C   UNL     1       7.714  -6.727  21.696  1.00  0.00     0.006 C 
BRANCH   3   4
ATOM      4  C   UNL     1       7.297  -8.151  21.291  1.00  0.00     0.053 C 
BRANCH   4   5
ATOM      5  C   UNL     1       6.922  -8.983  22.479  1.00  0.00     0.041 C 
ATOM      6  O   UNL     1       6.278 -10.054  22.325  1.00  0.00    -0.550 OA
ATOM      7  O   UNL     1       7.255  -8.558  23.758  1.00  0.00    -0.550 OA
ENDBRANCH   4   5
ENDBRANCH   3   4
ENDBRANCH   2   3
ENDBRANCH   1   2
BRANCH   1   8
ATOM      8  C   UNL     1       6.905  -3.040  20.775  1.00  0.00     0.000 C 
BRANCH   8   9
ATOM      9  C   UNL     1       5.991  -3.005  22.014  1.00  0.00    -0.000 C 
BRANCH   9  10
ATOM     10  C   UNL     1       4.528  -2.644  21.691  1.00  0.00    -0.000 C 
BRANCH  10  11
ATOM     11  C   UNL     1       4.180  -2.886  20.212  1.00  0.00    -0.000 C 
BRANCH  11  12
ATOM     12  C   UNL     1       2.906  -2.145  19.779  1.00  0.00    -0.003 C 
ATOM     13  C   UNL     1       3.123  -0.642  19.606  1.00  0.00     0.004 C 
ENDBRANCH  11  12
ENDBRANCH  10  11
ENDBRANCH   9  10
ENDBRANCH   8   9
ENDBRANCH   1   8
TORSDOF 9
ENDMDL
MODEL 2
REMARK VINA RESULT:    -6.948      3.508      6.487
REMARK INTER + INTRA:         -11.140
REMARK INTER:                 -10.512
REMARK INTRA:                  -0.628
REMARK UNBOUND:                -0.537
REMARK SMILES CCCCCCCCCCC(=O)[O-]
REMARK SMILES IDX 7 1 8 2 9 3 10 4 11 5 12 6 13 7 6 8 5 9 4 10 3 11 2 12 1 13
REMARK H PARENT
REMARK Flexibility Score: inf
ROOT
ATOM      1  C   UNL     1       7.180  -3.336  20.410  1.00  0.00     0.000 C 
ENDROOT
BRANCH   1   2
ATOM      2  C   UNL     1       6.642  -2.994  21.812  1.00  0.00     0.000 C 
BRANCH   2   3
ATOM      3  C   UNL     1       5.571  -1.887  21.837  1.00  0.00     0.006 C 
BRANCH   3   4
ATOM      4  C   UNL     1       4.129  -2.398  21.683  1.00  0.00     0.053 C 
BRANCH   4   5
ATOM      5  C   UNL     1       3.552  -2.050  20.345  1.00  0.00     0.041 C 
ATOM      6  O   UNL     1       2.869  -1.002  20.203  1.00  0.00    -0.550 OA
ATOM      7  O   UNL     1       3.744  -2.899  19.263  1.00  0.00    -0.550 OA
ENDBRANCH   4   5
ENDBRANCH   3   4
ENDBRANCH   2   3
ENDBRANCH   1   2
BRANCH   1   8
ATOM      8  C   UNL     1       6.920  -4.801  19.987  1.00  0.00     0.000 C 
BRANCH   8   9
ATOM      9  C   UNL     1       6.549  -5.719  21.167  1.00  0.00    -0.000 C 
BRANCH   9  10
ATOM     10  C   UNL     1       7.680  -6.679  21.581  1.00  0.00    -0.000 C 
BRANCH  10  11
ATOM     11  C   UNL     1       7.373  -8.140  21.207  1.00  0.00    -0.000 C 
BRANCH  11  12
ATOM     12  C   UNL     1       6.602  -8.880  22.311  1.00  0.00    -0.003 C 
ATOM     13  C   UNL     1       7.200  -8.662  23.700  1.00  0.00     0.004 C 
ENDBRANCH  11  12
ENDBRANCH  10  11
ENDBRANCH   9  10
ENDBRANCH   8   9
ENDBRANCH   1   8
TORSDOF 9
ENDMDL
MODEL 3
REMARK VINA RESULT:    -6.906      4.358      7.142
REMARK INTER + INTRA:         -11.076
REMARK INTER:                 -10.608
REMARK INTRA:                  -0.468
REMARK UNBOUND:                -0.537
REMARK SMILES CCCCCCCCCCC(=O)[O-]
REMARK SMILES IDX 7 1 8 2 9 3 10 4 11 5 12 6 13 7 6 8 5 9 4 10 3 11 2 12 1 13
REMARK H PARENT
REMARK Flexibility Score: inf
ROOT
ATOM      1  C   UNL     1       5.756  -3.031  22.161  1.00  0.00     0.000 C 
ENDROOT
BRANCH   1   2
ATOM      2  C   UNL     1       4.417  -2.342  21.836  1.00  0.00     0.000 C 
BRANCH   2   3
ATOM      3  C   UNL     1       4.173  -2.087  20.336  1.00  0.00     0.006 C 
BRANCH   3   4
ATOM      4  C   UNL     1       2.703  -1.826  19.970  1.00  0.00     0.053 C 
BRANCH   4   5
ATOM      5  C   UNL     1       2.523  -0.502  19.293  1.00  0.00     0.041 C 
ATOM      6  O   UNL     1       3.508   0.081  18.769  1.00  0.00    -0.550 OA
ATOM      7  O   UNL     1       1.273   0.103  19.270  1.00  0.00    -0.550 OA
ENDBRANCH   4   5
ENDBRANCH   3   4
ENDBRANCH   2   3
ENDBRANCH   1   2
BRANCH   1   8
ATOM      8  C   UNL     1       6.851  -2.788  21.098  1.00  0.00     0.000 C 
BRANCH   8   9
ATOM      9  C   UNL     1       7.395  -4.088  20.475  1.00  0.00    -0.000 C 
BRANCH   9  10
ATOM     10  C   UNL     1       6.671  -5.357  20.965  1.00  0.00    -0.000 C 
BRANCH  10  11
ATOM     11  C   UNL     1       7.640  -6.388  21.568  1.00  0.00    -0.000 C 
BRANCH  11  12
ATOM     12  C   UNL     1       7.277  -7.831  21.187  1.00  0.00    -0.003 C 
ATOM     13  C   UNL     1       6.830  -8.667  22.385  1.00  0.00     0.004 C 
ENDBRANCH  11  12
ENDBRANCH  10  11
ENDBRANCH   9  10
ENDBRANCH   8   9
ENDBRANCH   1   8
TORSDOF 9
ENDMDL
MODEL 4
REMARK VINA RESULT:    -6.856      0.670      1.219
REMARK INTER + INTRA:         -11.000
REMARK INTER:                 -10.586
REMARK INTRA:                  -0.414
REMARK UNBOUND:                -0.537
REMARK SMILES CCCCCCCCCCC(=O)[O-]
REMARK SMILES IDX 7 1 8 2 9 3 10 4 11 5 12 6 13 7 6 8 5 9 4 10 3 11 2 12 1 13
REMARK H PARENT
REMARK Flexibility Score: inf
ROOT
ATOM      1  C   UNL     1       7.479  -4.177  20.929  1.00  0.00     0.000 C 
ENDROOT
BRANCH   1   2
ATOM      2  C   UNL     1       6.903  -5.601  20.812  1.00  0.00     0.000 C 
BRANCH   2   3
ATOM      3  C   UNL     1       7.677  -6.675  21.601  1.00  0.00     0.006 C 
BRANCH   3   4
ATOM      4  C   UNL     1       7.293  -8.121  21.245  1.00  0.00     0.053 C 
BRANCH   4   5
ATOM      5  C   UNL     1       6.947  -8.922  22.462  1.00  0.00     0.041 C 
ATOM      6  O   UNL     1       7.301  -8.527  23.603  1.00  0.00    -0.550 OA
ATOM      7  O   UNL     1       6.261 -10.123  22.332  1.00  0.00    -0.550 OA
ENDBRANCH   4   5
ENDBRANCH   3   4
ENDBRANCH   2   3
ENDBRANCH   1   2
BRANCH   1   8
ATOM      8  C   UNL     1       6.556  -3.197  21.689  1.00  0.00     0.000 C 
BRANCH   8   9
ATOM      9  C   UNL     1       6.479  -1.803  21.037  1.00  0.00    -0.000 C 
BRANCH   9  10
ATOM     10  C   UNL     1       5.364  -1.676  19.983  1.00  0.00    -0.000 C 
BRANCH  10  11
ATOM     11  C   UNL     1       4.319  -2.800  20.098  1.00  0.00    -0.000 C 
BRANCH  11  12
ATOM     12  C   UNL     1       2.921  -2.352  19.645  1.00  0.00    -0.003 C 
ATOM     13  C   UNL     1       2.677  -0.860  19.861  1.00  0.00     0.004 C 
ENDBRANCH  11  12
ENDBRANCH  10  11
ENDBRANCH   9  10
ENDBRANCH   8   9
ENDBRANCH   1   8
TORSDOF 9
ENDMDL
MODEL 5
REMARK VINA RESULT:    -6.381      5.046      7.971
REMARK INTER + INTRA:         -10.275
REMARK INTER:                  -9.969
REMARK INTRA:                  -0.306
REMARK UNBOUND:                -0.537
REMARK SMILES CCCCCCCCCCC(=O)[O-]
REMARK SMILES IDX 7 1 8 2 9 3 10 4 11 5 12 6 13 7 6 8 5 9 4 10 3 11 2 12 1 13
REMARK H PARENT
REMARK Flexibility Score: inf
ROOT
ATOM      1  C   UNL     1       4.206  -3.027  19.879  1.00  0.00     0.000 C 
ENDROOT
BRANCH   1   2
ATOM      2  C   UNL     1       3.301  -1.862  20.322  1.00  0.00     0.000 C 
BRANCH   2   3
ATOM      3  C   UNL     1       2.280  -1.403  19.264  1.00  0.00     0.006 C 
BRANCH   3   4
ATOM      4  C   UNL     1       2.005   0.110  19.265  1.00  0.00     0.053 C 
BRANCH   4   5
ATOM      5  C   UNL     1       2.041   0.686  17.883  1.00  0.00     0.041 C 
ATOM      6  O   UNL     1       1.064   1.349  17.447  1.00  0.00    -0.550 OA
ATOM      7  O   UNL     1       3.141   0.463  17.065  1.00  0.00    -0.550 OA
ENDBRANCH   4   5
ENDBRANCH   3   4
ENDBRANCH   2   3
ENDBRANCH   1   2
BRANCH   1   8
ATOM      8  C   UNL     1       5.139  -3.547  20.997  1.00  0.00     0.000 C 
BRANCH   8   9
ATOM      9  C   UNL     1       6.607  -3.115  20.816  1.00  0.00    -0.000 C 
BRANCH   9  10
ATOM     10  C   UNL     1       7.594  -4.296  20.760  1.00  0.00    -0.000 C 
BRANCH  10  11
ATOM     11  C   UNL     1       6.882  -5.658  20.835  1.00  0.00    -0.000 C 
BRANCH  11  12
ATOM     12  C   UNL     1       7.689  -6.701  21.622  1.00  0.00    -0.003 C 
ATOM     13  C   UNL     1       7.323  -8.137  21.252  1.00  0.00     0.004 C 
ENDBRANCH  11  12
ENDBRANCH  10  11
ENDBRANCH   9  10
ENDBRANCH   8   9
ENDBRANCH   1   8
TORSDOF 9
ENDMDL
MODEL 6
REMARK VINA RESULT:    -6.372      5.046      7.704
REMARK INTER + INTRA:         -10.261
REMARK INTER:                  -9.736
REMARK INTRA:                  -0.525
REMARK UNBOUND:                -0.537
REMARK SMILES CCCCCCCCCCC(=O)[O-]
REMARK SMILES IDX 7 1 8 2 9 3 10 4 11 5 12 6 13 7 6 8 5 9 4 10 3 11 2 12 1 13
REMARK H PARENT
REMARK Flexibility Score: inf
ROOT
ATOM      1  C   UNL     1       4.156  -1.571  20.901  1.00  0.00     0.000 C 
ENDROOT
BRANCH   1   2
ATOM      2  C   UNL     1       3.190  -2.302  19.949  1.00  0.00     0.000 C 
BRANCH   2   3
ATOM      3  C   UNL     1       2.091  -1.410  19.340  1.00  0.00     0.006 C 
BRANCH   3   4
ATOM      4  C   UNL     1       2.497   0.063  19.166  1.00  0.00     0.053 C 
BRANCH   4   5
ATOM      5  C   UNL     1       2.224   0.557  17.778  1.00  0.00     0.041 C 
ATOM      6  O   UNL     1       3.150   0.594  16.926  1.00  0.00    -0.550 OA
ATOM      7  O   UNL     1       0.956   1.007  17.437  1.00  0.00    -0.550 OA
ENDBRANCH   4   5
ENDBRANCH   3   4
ENDBRANCH   2   3
ENDBRANCH   1   2
BRANCH   1   8
ATOM      8  C   UNL     1       4.495  -2.377  22.177  1.00  0.00     0.000 C 
BRANCH   8   9
ATOM      9  C   UNL     1       5.950  -2.883  22.209  1.00  0.00    -0.000 C 
BRANCH   9  10
ATOM     10  C   UNL     1       6.717  -2.637  20.896  1.00  0.00    -0.000 C 
BRANCH  10  11
ATOM     11  C   UNL     1       7.153  -3.948  20.219  1.00  0.00    -0.000 C 
BRANCH  11  12
ATOM     12  C   UNL     1       7.705  -4.973  21.221  1.00  0.00    -0.003 C 
ATOM     13  C   UNL     1       6.988  -6.320  21.148  1.00  0.00     0.004 C 
ENDBRANCH  11  12
ENDBRANCH  10  11
ENDBRANCH   9  10
ENDBRANCH   8   9
ENDBRANCH   1   8
TORSDOF 9
ENDMDL
MODEL 7
REMARK VINA RESULT:    -6.297      1.212      1.846
REMARK INTER + INTRA:         -10.147
REMARK INTER:                  -9.796
REMARK INTRA:                  -0.351
REMARK UNBOUND:                -0.537
REMARK SMILES CCCCCCCCCCC(=O)[O-]
REMARK SMILES IDX 7 1 8 2 9 3 10 4 11 5 12 6 13 7 6 8 5 9 4 10 3 11 2 12 1 13
REMARK H PARENT
REMARK Flexibility Score: inf
ROOT
ATOM      1  C   UNL     1       6.896  -2.976  20.971  1.00  0.00     0.000 C 
ENDROOT
BRANCH   1   2
ATOM      2  C   UNL     1       7.635  -4.153  20.308  1.00  0.00     0.000 C 
BRANCH   2   3
ATOM      3  C   UNL     1       7.876  -5.363  21.232  1.00  0.00     0.006 C 
BRANCH   3   4
ATOM      4  C   UNL     1       6.738  -6.397  21.229  1.00  0.00     0.053 C 
BRANCH   4   5
ATOM      5  C   UNL     1       7.214  -7.753  21.649  1.00  0.00     0.041 C 
ATOM      6  O   UNL     1       7.505  -8.619  20.783  1.00  0.00    -0.550 OA
ATOM      7  O   UNL     1       7.305  -8.071  22.998  1.00  0.00    -0.550 OA
ENDBRANCH   4   5
ENDBRANCH   3   4
ENDBRANCH   2   3
ENDBRANCH   1   2
BRANCH   1   8
ATOM      8  C   UNL     1       5.569  -2.603  20.270  1.00  0.00     0.000 C 
BRANCH   8   9
ATOM      9  C   UNL     1       4.602  -1.816  21.174  1.00  0.00    -0.000 C 
BRANCH   9  10
ATOM     10  C   UNL     1       3.121  -1.979  20.782  1.00  0.00    -0.000 C 
BRANCH  10  11
ATOM     11  C   UNL     1       2.838  -1.487  19.352  1.00  0.00    -0.000 C 
BRANCH  11  12
ATOM     12  C   UNL     1       3.063   0.024  19.194  1.00  0.00    -0.003 C 
ATOM     13  C   UNL     1       2.242   0.630  18.057  1.00  0.00     0.004 C 
ENDBRANCH  11  12
ENDBRANCH  10  11
ENDBRANCH   9  10
ENDBRANCH   8   9
ENDBRANCH   1   8
TORSDOF 9
ENDMDL
MODEL 8
REMARK VINA RESULT:    -6.289      2.493      4.032
REMARK INTER + INTRA:         -10.135
REMARK INTER:                  -9.667
REMARK INTRA:                  -0.467
REMARK UNBOUND:                -0.537
REMARK SMILES CCCCCCCCCCC(=O)[O-]
REMARK SMILES IDX 7 1 8 2 9 3 10 4 11 5 12 6 13 7 6 8 5 9 4 10 3 11 2 12 1 13
REMARK H PARENT
REMARK Flexibility Score: inf
ROOT
ATOM      1  C   UNL     1       5.736  -0.979  20.577  1.00  0.00     0.000 C 
ENDROOT
BRANCH   1   2
ATOM      2  C   UNL     1       5.362  -1.941  21.720  1.00  0.00     0.000 C 
BRANCH   2   3
ATOM      3  C   UNL     1       6.343  -3.112  21.922  1.00  0.00     0.006 C 
BRANCH   3   4
ATOM      4  C   UNL     1       5.863  -4.448  21.329  1.00  0.00     0.053 C 
BRANCH   4   5
ATOM      5  C   UNL     1       7.008  -5.351  20.989  1.00  0.00     0.041 C 
ATOM      6  O   UNL     1       6.818  -6.587  20.845  1.00  0.00    -0.550 OA
ATOM      7  O   UNL     1       8.290  -4.833  20.864  1.00  0.00    -0.550 OA
ENDBRANCH   4   5
ENDBRANCH   3   4
ENDBRANCH   2   3
ENDBRANCH   1   2
BRANCH   1   8
ATOM      8  C   UNL     1       4.604  -0.776  19.543  1.00  0.00     0.000 C 
BRANCH   8   9
ATOM      9  C   UNL     1       3.251  -1.354  19.999  1.00  0.00    -0.000 C 
BRANCH   9  10
ATOM     10  C   UNL     1       2.035  -0.598  19.431  1.00  0.00    -0.000 C 
BRANCH  10  11
ATOM     11  C   UNL     1       2.441   0.683  18.682  1.00  0.00    -0.000 C 
BRANCH  11  12
ATOM     12  C   UNL     1       1.400   1.106  17.634  1.00  0.00    -0.003 C 
ATOM     13  C   UNL     1       1.140   2.612  17.629  1.00  0.00     0.004 C 
ENDBRANCH  11  12
ENDBRANCH  10  11
ENDBRANCH   9  10
ENDBRANCH   8   9
ENDBRANCH   1   8
TORSDOF 9
ENDMDL
MODEL 9
REMARK VINA RESULT:    -6.242      2.061      3.592
REMARK INTER + INTRA:         -10.063
REMARK INTER:                  -9.051
REMARK INTRA:                  -1.013
REMARK UNBOUND:                -0.537
REMARK SMILES CCCCCCCCCCC(=O)[O-]
REMARK SMILES IDX 7 1 8 2 9 3 10 4 11 5 12 6 13 7 6 8 5 9 4 10 3 11 2 12 1 13
REMARK H PARENT
REMARK Flexibility Score: inf
ROOT
ATOM      1  C   UNL     1       6.191  -0.591  21.009  1.00  0.00     0.000 C 
ENDROOT
BRANCH   1   2
ATOM      2  C   UNL     1       6.576  -2.009  20.545  1.00  0.00     0.000 C 
BRANCH   2   3
ATOM      3  C   UNL     1       6.372  -3.109  21.604  1.00  0.00     0.006 C 
BRANCH   3   4
ATOM      4  C   UNL     1       5.941  -4.469  21.029  1.00  0.00     0.053 C 
BRANCH   4   5
ATOM      5  C   UNL     1       6.989  -5.519  21.232  1.00  0.00     0.041 C 
ATOM      6  O   UNL     1       6.663  -6.734  21.304  1.00  0.00    -0.550 OA
ATOM      7  O   UNL     1       8.321  -5.155  21.374  1.00  0.00    -0.550 OA
ENDBRANCH   4   5
ENDBRANCH   3   4
ENDBRANCH   2   3
ENDBRANCH   1   2
BRANCH   1   8
ATOM      8  C   UNL     1       5.799   0.354  19.851  1.00  0.00     0.000 C 
BRANCH   8   9
ATOM      9  C   UNL     1       4.724  -0.237  18.919  1.00  0.00    -0.000 C 
BRANCH   9  10
ATOM     10  C   UNL     1       3.311   0.318  19.177  1.00  0.00    -0.000 C 
BRANCH  10  11
ATOM     11  C   UNL     1       2.266  -0.799  19.349  1.00  0.00    -0.000 C 
BRANCH  11  12
ATOM     12  C   UNL     1       2.840  -2.036  20.055  1.00  0.00    -0.003 C 
ATOM     13  C   UNL     1       2.905  -1.876  21.573  1.00  0.00     0.004 C 
ENDBRANCH  11  12
ENDBRANCH  10  11
ENDBRANCH   9  10
ENDBRANCH   8   9
ENDBRANCH   1   8
TORSDOF 9
ENDMDL
