MODEL 1
REMARK VINA RESULT:    -6.977      0.000      0.000
REMARK INTER + INTRA:          -8.582
REMARK INTER:                  -7.997
REMARK INTRA:                  -0.586
REMARK UNBOUND:                -0.586
REMARK SMILES C=C(C)[C@@H]1CC[C@@]2(C(=O)[O-])CC[C@@]3(C)[C@@H](CC[C@@H]4[C@]5(C)CC[C@@H](O)C(C)(C)[C@@H]5CC[C@@]43C)[C@@H]12
REMARK SMILES IDX 7 1 6 2 33 3 11 4 5 5 15 6 4 7 12 8 16 9 13 10 17 11 31 12
REMARK SMILES IDX 14 13 18 14 30 15 32 16 19 17 29 18 21 19 20 20 28 21 22 22
REMARK SMILES IDX 25 23 23 24 26 25 27 26 8 27 9 28 10 29 2 30 3 31 1 32 24 33
REMARK H PARENT 24 34
REMARK Flexibility Score: inf
ROOT
ATOM      1  C   UNL     1      14.104  -3.881  31.102  1.00  0.00     0.014 C 
ATOM      2  C   UNL     1      12.877  -4.778  30.848  1.00  0.00     0.014 C 
ATOM      3  C   UNL     1      13.555  -2.791  32.059  1.00  0.00     0.012 C 
ATOM      4  C   UNL     1      14.599  -3.299  29.736  1.00  0.00     0.014 C 
ATOM      5  C   UNL     1      11.656  -3.864  30.916  1.00  0.00     0.009 C 
ATOM      6  C   UNL     1      14.399  -1.487  32.022  1.00  0.00     0.000 C 
ATOM      7  C   UNL     1      12.029  -2.684  31.828  1.00  0.00     0.018 C 
ATOM      8  C   UNL     1      15.416  -1.986  29.835  1.00  0.00     0.008 C 
ATOM      9  C   UNL     1      14.005  -0.456  33.063  1.00  0.00     0.005 C 
ATOM     10  C   UNL     1      14.705  -0.824  30.631  1.00  0.00    -0.024 C 
ATOM     11  C   UNL     1      15.207   0.451  33.377  1.00  0.00     0.005 C 
ATOM     12  C   UNL     1      15.638   0.531  30.830  1.00  0.00    -0.024 C 
ATOM     13  C   UNL     1      13.421  -0.449  29.824  1.00  0.00     0.012 C 
ATOM     14  C   UNL     1      16.321   0.560  32.256  1.00  0.00     0.002 C 
ATOM     15  C   UNL     1      14.825   1.883  30.747  1.00  0.00     0.008 C 
ATOM     16  C   UNL     1      16.679   0.550  29.666  1.00  0.00     0.012 C 
ATOM     17  C   UNL     1      17.368   1.771  32.508  1.00  0.00    -0.026 C 
ATOM     18  C   UNL     1      15.410   3.126  31.483  1.00  0.00     0.005 C 
ATOM     19  C   UNL     1      17.525   2.029  34.053  1.00  0.00     0.010 C 
ATOM     20  C   UNL     1      18.773   1.295  32.002  1.00  0.00     0.012 C 
ATOM     21  C   UNL     1      16.941   3.105  31.737  1.00  0.00     0.003 C 
ATOM     22  C   UNL     1      18.284   3.296  34.427  1.00  0.00     0.033 C 
ATOM     23  C   UNL     1      17.544   4.484  32.292  1.00  0.00    -0.006 C 
ATOM     24  C   UNL     1      17.576   4.516  33.847  1.00  0.00     0.120 C 
ATOM     25  C   UNL     1      16.718   5.710  31.812  1.00  0.00     0.014 C 
ATOM     26  C   UNL     1      18.975   4.715  31.716  1.00  0.00     0.014 C 
ENDROOT
BRANCH   1  27
ATOM     27  C   UNL     1      15.208  -4.682  31.785  1.00  0.00     0.048 C 
ATOM     28  O   UNL     1      16.112  -5.256  31.117  1.00  0.00    -0.550 OA
ATOM     29  O   UNL     1      15.256  -4.761  33.174  1.00  0.00    -0.550 OA
ENDBRANCH   1  27
BRANCH   7  30
ATOM     30  C   UNL     1      11.237  -2.691  33.136  1.00  0.00    -0.077 C 
ATOM     31  C   UNL     1       9.738  -2.521  33.150  1.00  0.00     0.039 C 
ATOM     32  C   UNL     1      11.872  -2.872  34.305  1.00  0.00     0.008 C 
ENDBRANCH   7  30
BRANCH  24  33
ATOM     33  O   UNL     1      18.231   5.670  34.317  1.00  0.00    -0.393 OA
ATOM     34  H   UNL     1      18.166   6.360  33.606  1.00  0.00     0.210 HD
ENDBRANCH  24  33
TORSDOF 3
ENDMDL
MODEL 2
REMARK VINA RESULT:    -6.659      1.666      2.242
REMARK INTER + INTRA:          -8.218
REMARK INTER:                  -7.746
REMARK INTRA:                  -0.472
REMARK UNBOUND:                -0.586
REMARK SMILES C=C(C)[C@@H]1CC[C@@]2(C(=O)[O-])CC[C@@]3(C)[C@@H](CC[C@@H]4[C@]5(C)CC[C@@H](O)C(C)(C)[C@@H]5CC[C@@]43C)[C@@H]12
REMARK SMILES IDX 7 1 6 2 33 3 11 4 5 5 15 6 4 7 12 8 16 9 13 10 17 11 31 12
REMARK SMILES IDX 14 13 18 14 30 15 32 16 19 17 29 18 21 19 20 20 28 21 22 22
REMARK SMILES IDX 25 23 23 24 26 25 27 26 8 27 9 28 10 29 2 30 3 31 1 32 24 33
REMARK H PARENT 24 34
REMARK Flexibility Score: inf
ROOT
ATOM      1  C   UNL     1      14.103  -4.100  32.723  1.00  0.00     0.014 C 
ATOM      2  C   UNL     1      13.136  -5.270  32.462  1.00  0.00     0.014 C 
ATOM      3  C   UNL     1      13.304  -2.863  32.240  1.00  0.00     0.012 C 
ATOM      4  C   UNL     1      15.417  -4.335  31.906  1.00  0.00     0.014 C 
ATOM      5  C   UNL     1      12.315  -4.881  31.235  1.00  0.00     0.009 C 
ATOM      6  C   UNL     1      14.224  -1.665  31.874  1.00  0.00     0.000 C 
ATOM      7  C   UNL     1      12.275  -3.345  31.189  1.00  0.00     0.018 C 
ATOM      8  C   UNL     1      16.236  -3.057  31.591  1.00  0.00     0.008 C 
ATOM      9  C   UNL     1      13.483  -0.379  31.559  1.00  0.00     0.005 C 
ATOM     10  C   UNL     1      15.421  -1.907  30.885  1.00  0.00    -0.024 C 
ATOM     11  C   UNL     1      14.398   0.827  31.833  1.00  0.00     0.005 C 
ATOM     12  C   UNL     1      16.278  -0.506  30.663  1.00  0.00    -0.024 C 
ATOM     13  C   UNL     1      14.976  -2.462  29.494  1.00  0.00     0.012 C 
ATOM     14  C   UNL     1      15.958   0.553  31.792  1.00  0.00     0.002 C 
ATOM     15  C   UNL     1      15.947   0.237  29.309  1.00  0.00     0.008 C 
ATOM     16  C   UNL     1      17.790  -0.893  30.615  1.00  0.00     0.012 C 
ATOM     17  C   UNL     1      16.846   1.909  31.754  1.00  0.00    -0.026 C 
ATOM     18  C   UNL     1      16.190   1.776  29.249  1.00  0.00     0.005 C 
ATOM     19  C   UNL     1      16.088   3.066  32.506  1.00  0.00     0.010 C 
ATOM     20  C   UNL     1      18.154   1.642  32.574  1.00  0.00     0.012 C 
ATOM     21  C   UNL     1      17.223   2.338  30.261  1.00  0.00     0.003 C 
ATOM     22  C   UNL     1      16.688   4.456  32.335  1.00  0.00     0.033 C 
ATOM     23  C   UNL     1      17.616   3.876  30.029  1.00  0.00    -0.006 C 
ATOM     24  C   UNL     1      16.712   4.834  30.858  1.00  0.00     0.120 C 
ATOM     25  C   UNL     1      17.488   4.285  28.534  1.00  0.00     0.014 C 
ATOM     26  C   UNL     1      19.117   4.107  30.381  1.00  0.00     0.014 C 
ENDROOT
BRANCH   1  27
ATOM     27  C   UNL     1      14.404  -3.991  34.216  1.00  0.00     0.048 C 
ATOM     28  O   UNL     1      15.483  -4.426  34.702  1.00  0.00    -0.550 OA
ATOM     29  O   UNL     1      13.495  -3.367  35.066  1.00  0.00    -0.550 OA
ENDBRANCH   1  27
BRANCH   7  30
ATOM     30  C   UNL     1      10.873  -2.794  31.447  1.00  0.00    -0.077 C 
ATOM     31  C   UNL     1       9.892  -3.523  32.332  1.00  0.00     0.039 C 
ATOM     32  C   UNL     1      10.497  -1.628  30.898  1.00  0.00     0.008 C 
ENDBRANCH   7  30
BRANCH  24  33
ATOM     33  O   UNL     1      17.153   6.167  30.751  1.00  0.00    -0.393 OA
ATOM     34  H   UNL     1      18.137   6.166  30.887  1.00  0.00     0.210 HD
ENDBRANCH  24  33
TORSDOF 3
ENDMDL
MODEL 3
REMARK VINA RESULT:    -6.634      3.707      6.836
REMARK INTER + INTRA:          -8.190
REMARK INTER:                  -7.804
REMARK INTRA:                  -0.386
REMARK UNBOUND:                -0.586
REMARK SMILES C=C(C)[C@@H]1CC[C@@]2(C(=O)[O-])CC[C@@]3(C)[C@@H](CC[C@@H]4[C@]5(C)CC[C@@H](O)C(C)(C)[C@@H]5CC[C@@]43C)[C@@H]12
REMARK SMILES IDX 7 1 6 2 33 3 11 4 5 5 15 6 4 7 12 8 16 9 13 10 17 11 31 12
REMARK SMILES IDX 14 13 18 14 30 15 32 16 19 17 29 18 21 19 20 20 28 21 22 22
REMARK SMILES IDX 25 23 23 24 26 25 27 26 8 27 9 28 10 29 2 30 3 31 1 32 24 33
REMARK H PARENT 24 34
REMARK Flexibility Score: inf
ROOT
ATOM      1  C   UNL     1      14.586  -1.588  34.771  1.00  0.00     0.014 C 
ATOM      2  C   UNL     1      13.705  -1.763  36.023  1.00  0.00     0.014 C 
ATOM      3  C   UNL     1      13.647  -2.015  33.613  1.00  0.00     0.012 C 
ATOM      4  C   UNL     1      15.847  -2.505  34.904  1.00  0.00     0.014 C 
ATOM      5  C   UNL     1      12.760  -2.924  35.722  1.00  0.00     0.009 C 
ATOM      6  C   UNL     1      14.429  -2.462  32.347  1.00  0.00     0.000 C 
ATOM      7  C   UNL     1      12.585  -2.978  34.197  1.00  0.00     0.018 C 
ATOM      8  C   UNL     1      16.525  -2.893  33.566  1.00  0.00     0.008 C 
ATOM      9  C   UNL     1      13.557  -2.726  31.133  1.00  0.00     0.005 C 
ATOM     10  C   UNL     1      15.561  -3.541  32.499  1.00  0.00    -0.024 C 
ATOM     11  C   UNL     1      14.383  -2.535  29.849  1.00  0.00     0.005 C 
ATOM     12  C   UNL     1      16.274  -3.841  31.033  1.00  0.00    -0.024 C 
ATOM     13  C   UNL     1      15.058  -4.888  33.110  1.00  0.00     0.012 C 
ATOM     14  C   UNL     1      15.952  -2.697  29.989  1.00  0.00     0.002 C 
ATOM     15  C   UNL     1      15.774  -5.169  30.340  1.00  0.00     0.008 C 
ATOM     16  C   UNL     1      17.805  -4.005  31.290  1.00  0.00     0.012 C 
ATOM     17  C   UNL     1      16.714  -2.816  28.563  1.00  0.00    -0.026 C 
ATOM     18  C   UNL     1      15.878  -5.260  28.788  1.00  0.00     0.005 C 
ATOM     19  C   UNL     1      15.920  -2.015  27.465  1.00  0.00     0.010 C 
ATOM     20  C   UNL     1      18.101  -2.100  28.706  1.00  0.00     0.012 C 
ATOM     21  C   UNL     1      16.935  -4.337  28.125  1.00  0.00     0.003 C 
ATOM     22  C   UNL     1      16.383  -2.243  26.031  1.00  0.00     0.033 C 
ATOM     23  C   UNL     1      17.174  -4.611  26.562  1.00  0.00    -0.006 C 
ATOM     24  C   UNL     1      16.258  -3.720  25.674  1.00  0.00     0.120 C 
ATOM     25  C   UNL     1      16.895  -6.094  26.187  1.00  0.00     0.014 C 
ATOM     26  C   UNL     1      18.672  -4.380  26.198  1.00  0.00     0.014 C 
ENDROOT
BRANCH   1  27
ATOM     27  C   UNL     1      14.991  -0.125  34.615  1.00  0.00     0.048 C 
ATOM     28  O   UNL     1      15.366   0.562  35.604  1.00  0.00    -0.550 OA
ATOM     29  O   UNL     1      14.989   0.470  33.356  1.00  0.00    -0.550 OA
ENDBRANCH   1  27
BRANCH   7  30
ATOM     30  C   UNL     1      11.165  -2.613  33.764  1.00  0.00    -0.077 C 
ATOM     31  C   UNL     1      10.489  -3.314  32.612  1.00  0.00     0.039 C 
ATOM     32  C   UNL     1      10.482  -1.664  34.426  1.00  0.00     0.008 C 
ENDBRANCH   7  30
BRANCH  24  33
ATOM     33  O   UNL     1      16.573  -3.871  24.310  1.00  0.00    -0.393 OA
ATOM     34  H   UNL     1      17.298  -3.226  24.098  1.00  0.00     0.210 HD
ENDBRANCH  24  33
TORSDOF 3
ENDMDL
MODEL 4
REMARK VINA RESULT:    -6.607      2.914      7.947
REMARK INTER + INTRA:          -8.158
REMARK INTER:                  -7.458
REMARK INTRA:                  -0.700
REMARK UNBOUND:                -0.586
REMARK SMILES C=C(C)[C@@H]1CC[C@@]2(C(=O)[O-])CC[C@@]3(C)[C@@H](CC[C@@H]4[C@]5(C)CC[C@@H](O)C(C)(C)[C@@H]5CC[C@@]43C)[C@@H]12
REMARK SMILES IDX 7 1 6 2 33 3 11 4 5 5 15 6 4 7 12 8 16 9 13 10 17 11 31 12
REMARK SMILES IDX 14 13 18 14 30 15 32 16 19 17 29 18 21 19 20 20 28 21 22 22
REMARK SMILES IDX 25 23 23 24 26 25 27 26 8 27 9 28 10 29 2 30 3 31 1 32 24 33
REMARK H PARENT 24 34
REMARK Flexibility Score: inf
ROOT
ATOM      1  C   UNL     1      16.047   2.532  32.654  1.00  0.00     0.014 C 
ATOM      2  C   UNL     1      15.920   4.037  32.954  1.00  0.00     0.014 C 
ATOM      3  C   UNL     1      16.991   2.492  31.425  1.00  0.00     0.012 C 
ATOM      4  C   UNL     1      14.626   1.952  32.350  1.00  0.00     0.014 C 
ATOM      5  C   UNL     1      16.033   4.753  31.610  1.00  0.00     0.009 C 
ATOM      6  C   UNL     1      16.838   1.186  30.597  1.00  0.00     0.000 C 
ATOM      7  C   UNL     1      16.863   3.847  30.688  1.00  0.00     0.018 C 
ATOM      8  C   UNL     1      14.609   0.656  31.501  1.00  0.00     0.008 C 
ATOM      9  C   UNL     1      17.857   1.026  29.485  1.00  0.00     0.005 C 
ATOM     10  C   UNL     1      15.400   0.746  30.140  1.00  0.00    -0.024 C 
ATOM     11  C   UNL     1      18.046  -0.468  29.165  1.00  0.00     0.005 C 
ATOM     12  C   UNL     1      15.473  -0.681  29.301  1.00  0.00    -0.024 C 
ATOM     13  C   UNL     1      14.670   1.817  29.268  1.00  0.00     0.012 C 
ATOM     14  C   UNL     1      16.845  -1.428  29.548  1.00  0.00     0.002 C 
ATOM     15  C   UNL     1      15.388  -0.506  27.734  1.00  0.00     0.008 C 
ATOM     16  C   UNL     1      14.240  -1.535  29.735  1.00  0.00     0.012 C 
ATOM     17  C   UNL     1      16.969  -2.903  28.887  1.00  0.00    -0.026 C 
ATOM     18  C   UNL     1      16.025  -1.615  26.844  1.00  0.00     0.005 C 
ATOM     19  C   UNL     1      18.486  -3.280  28.703  1.00  0.00     0.010 C 
ATOM     20  C   UNL     1      16.388  -3.933  29.915  1.00  0.00     0.012 C 
ATOM     21  C   UNL     1      16.172  -3.012  27.506  1.00  0.00     0.003 C 
ATOM     22  C   UNL     1      18.750  -4.527  27.869  1.00  0.00     0.033 C 
ATOM     23  C   UNL     1      16.621  -4.181  26.503  1.00  0.00    -0.006 C 
ATOM     24  C   UNL     1      18.168  -4.350  26.470  1.00  0.00     0.120 C 
ATOM     25  C   UNL     1      16.147  -3.907  25.048  1.00  0.00     0.014 C 
ATOM     26  C   UNL     1      15.937  -5.524  26.902  1.00  0.00     0.014 C 
ENDROOT
BRANCH   1  27
ATOM     27  C   UNL     1      16.686   1.812  33.839  1.00  0.00     0.048 C 
ATOM     28  O   UNL     1      17.936   1.802  34.004  1.00  0.00    -0.550 OA
ATOM     29  O   UNL     1      15.885   1.181  34.787  1.00  0.00    -0.550 OA
ENDBRANCH   1  27
BRANCH   7  30
ATOM     30  C   UNL     1      18.222   4.459  30.347  1.00  0.00    -0.077 C 
ATOM     31  C   UNL     1      18.583   4.837  28.931  1.00  0.00     0.039 C 
ATOM     32  C   UNL     1      19.119   4.689  31.319  1.00  0.00     0.008 C 
ENDBRANCH   7  30
BRANCH  24  33
ATOM     33  O   UNL     1      18.539  -5.465  25.694  1.00  0.00    -0.393 OA
ATOM     34  H   UNL     1      17.982  -6.232  25.989  1.00  0.00     0.210 HD
ENDBRANCH  24  33
TORSDOF 3
ENDMDL
MODEL 5
REMARK VINA RESULT:    -6.168      2.994      3.983
REMARK INTER + INTRA:          -7.655
REMARK INTER:                  -6.995
REMARK INTRA:                  -0.660
REMARK UNBOUND:                -0.586
REMARK SMILES C=C(C)[C@@H]1CC[C@@]2(C(=O)[O-])CC[C@@]3(C)[C@@H](CC[C@@H]4[C@]5(C)CC[C@@H](O)C(C)(C)[C@@H]5CC[C@@]43C)[C@@H]12
REMARK SMILES IDX 7 1 6 2 33 3 11 4 5 5 15 6 4 7 12 8 16 9 13 10 17 11 31 12
REMARK SMILES IDX 14 13 18 14 30 15 32 16 19 17 29 18 21 19 20 20 28 21 22 22
REMARK SMILES IDX 25 23 23 24 26 25 27 26 8 27 9 28 10 29 2 30 3 31 1 32 24 33
REMARK H PARENT 24 34
REMARK Flexibility Score: inf
ROOT
ATOM      1  C   UNL     1      16.768  -2.705  27.388  1.00  0.00     0.014 C 
ATOM      2  C   UNL     1      16.244  -4.139  27.179  1.00  0.00     0.014 C 
ATOM      3  C   UNL     1      16.867  -2.584  28.931  1.00  0.00     0.012 C 
ATOM      4  C   UNL     1      15.750  -1.696  26.762  1.00  0.00     0.014 C 
ATOM      5  C   UNL     1      15.359  -4.451  28.383  1.00  0.00     0.009 C 
ATOM      6  C   UNL     1      16.827  -1.109  29.416  1.00  0.00     0.000 C 
ATOM      7  C   UNL     1      15.865  -3.588  29.549  1.00  0.00     0.018 C 
ATOM      8  C   UNL     1      15.798  -0.261  27.345  1.00  0.00     0.008 C 
ATOM      9  C   UNL     1      17.091  -0.930  30.899  1.00  0.00     0.005 C 
ATOM     10  C   UNL     1      15.663  -0.180  28.914  1.00  0.00    -0.024 C 
ATOM     11  C   UNL     1      17.647   0.482  31.161  1.00  0.00     0.005 C 
ATOM     12  C   UNL     1      15.836   1.348  29.533  1.00  0.00    -0.024 C 
ATOM     13  C   UNL     1      14.240  -0.719  29.269  1.00  0.00     0.012 C 
ATOM     14  C   UNL     1      17.299   1.587  30.082  1.00  0.00     0.002 C 
ATOM     15  C   UNL     1      14.891   1.649  30.762  1.00  0.00     0.008 C 
ATOM     16  C   UNL     1      15.448   2.351  28.400  1.00  0.00     0.012 C 
ATOM     17  C   UNL     1      17.622   3.095  30.582  1.00  0.00    -0.026 C 
ATOM     18  C   UNL     1      15.346   2.744  31.774  1.00  0.00     0.005 C 
ATOM     19  C   UNL     1      18.830   3.076  31.591  1.00  0.00     0.010 C 
ATOM     20  C   UNL     1      18.108   3.914  29.337  1.00  0.00     0.012 C 
ATOM     21  C   UNL     1      16.341   3.802  31.225  1.00  0.00     0.003 C 
ATOM     22  C   UNL     1      19.082   4.385  32.330  1.00  0.00     0.033 C 
ATOM     23  C   UNL     1      16.616   5.035  32.214  1.00  0.00    -0.006 C 
ATOM     24  C   UNL     1      17.845   4.774  33.133  1.00  0.00     0.120 C 
ATOM     25  C   UNL     1      15.395   5.322  33.133  1.00  0.00     0.014 C 
ATOM     26  C   UNL     1      16.819   6.346  31.396  1.00  0.00     0.014 C 
ENDROOT
BRANCH   1  27
ATOM     27  C   UNL     1      18.147  -2.552  26.752  1.00  0.00     0.048 C 
ATOM     28  O   UNL     1      19.109  -3.298  27.083  1.00  0.00    -0.550 OA
ATOM     29  O   UNL     1      18.355  -1.599  25.759  1.00  0.00    -0.550 OA
ENDBRANCH   1  27
BRANCH   7  30
ATOM     30  C   UNL     1      16.490  -4.428  30.663  1.00  0.00    -0.077 C 
ATOM     31  C   UNL     1      17.983  -4.619  30.761  1.00  0.00     0.039 C 
ATOM     32  C   UNL     1      15.709  -5.000  31.593  1.00  0.00     0.008 C 
ENDBRANCH   7  30
BRANCH  24  33
ATOM     33  O   UNL     1      18.158   5.915  33.897  1.00  0.00    -0.393 OA
ATOM     34  H   UNL     1      18.858   5.653  34.551  1.00  0.00     0.210 HD
ENDBRANCH  24  33
TORSDOF 3
ENDMDL
MODEL 6
REMARK VINA RESULT:    -5.948      3.520      9.805
REMARK INTER + INTRA:          -7.404
REMARK INTER:                  -6.676
REMARK INTRA:                  -0.727
REMARK UNBOUND:                -0.586
REMARK SMILES C=C(C)[C@@H]1CC[C@@]2(C(=O)[O-])CC[C@@]3(C)[C@@H](CC[C@@H]4[C@]5(C)CC[C@@H](O)C(C)(C)[C@@H]5CC[C@@]43C)[C@@H]12
REMARK SMILES IDX 7 1 6 2 33 3 11 4 5 5 15 6 4 7 12 8 16 9 13 10 17 11 31 12
REMARK SMILES IDX 14 13 18 14 30 15 32 16 19 17 29 18 21 19 20 20 28 21 22 22
REMARK SMILES IDX 25 23 23 24 26 25 27 26 8 27 9 28 10 29 2 30 3 31 1 32 24 33
REMARK H PARENT 24 34
REMARK Flexibility Score: inf
ROOT
ATOM      1  C   UNL     1      16.679   9.717  31.255  1.00  0.00     0.014 C 
ATOM      2  C   UNL     1      16.947  11.140  31.780  1.00  0.00     0.014 C 
ATOM      3  C   UNL     1      16.177   8.962  32.512  1.00  0.00     0.012 C 
ATOM      4  C   UNL     1      18.010   9.128  30.681  1.00  0.00     0.014 C 
ATOM      5  C   UNL     1      17.380  10.985  33.236  1.00  0.00     0.009 C 
ATOM      6  C   UNL     1      16.370   7.425  32.401  1.00  0.00     0.000 C 
ATOM      7  C   UNL     1      16.748   9.685  33.756  1.00  0.00     0.018 C 
ATOM      8  C   UNL     1      18.083   7.581  30.639  1.00  0.00     0.008 C 
ATOM      9  C   UNL     1      15.741   6.631  33.530  1.00  0.00     0.005 C 
ATOM     10  C   UNL     1      17.787   6.867  32.013  1.00  0.00    -0.024 C 
ATOM     11  C   UNL     1      15.424   5.204  33.048  1.00  0.00     0.005 C 
ATOM     12  C   UNL     1      17.752   5.213  31.926  1.00  0.00    -0.024 C 
ATOM     13  C   UNL     1      18.918   7.305  32.998  1.00  0.00     0.012 C 
ATOM     14  C   UNL     1      16.271   4.670  31.821  1.00  0.00     0.002 C 
ATOM     15  C   UNL     1      18.354   4.493  33.196  1.00  0.00     0.008 C 
ATOM     16  C   UNL     1      18.631   4.797  30.704  1.00  0.00     0.012 C 
ATOM     17  C   UNL     1      16.124   3.072  31.588  1.00  0.00    -0.026 C 
ATOM     18  C   UNL     1      17.859   3.050  33.515  1.00  0.00     0.005 C 
ATOM     19  C   UNL     1      14.702   2.592  32.063  1.00  0.00     0.010 C 
ATOM     20  C   UNL     1      16.177   2.812  30.044  1.00  0.00     0.012 C 
ATOM     21  C   UNL     1      17.287   2.250  32.314  1.00  0.00     0.003 C 
ATOM     22  C   UNL     1      14.517   1.081  32.134  1.00  0.00     0.033 C 
ATOM     23  C   UNL     1      16.994   0.703  32.623  1.00  0.00    -0.006 C 
ATOM     24  C   UNL     1      15.530   0.478  33.101  1.00  0.00     0.120 C 
ATOM     25  C   UNL     1      17.940   0.144  33.722  1.00  0.00     0.014 C 
ATOM     26  C   UNL     1      17.290  -0.162  31.360  1.00  0.00     0.014 C 
ENDROOT
BRANCH   1  27
ATOM     27  C   UNL     1      15.592   9.749  30.184  1.00  0.00     0.048 C 
ATOM     28  O   UNL     1      14.389   9.987  30.477  1.00  0.00    -0.550 OA
ATOM     29  O   UNL     1      15.924   9.550  28.846  1.00  0.00    -0.550 OA
ENDBRANCH   1  27
BRANCH   7  30
ATOM     30  C   UNL     1      15.683   9.946  34.822  1.00  0.00    -0.077 C 
ATOM     31  C   UNL     1      14.220  10.032  34.467  1.00  0.00     0.039 C 
ATOM     32  C   UNL     1      16.039  10.084  36.109  1.00  0.00     0.008 C 
ENDBRANCH   7  30
BRANCH  24  33
ATOM     33  O   UNL     1      15.247  -0.895  33.236  1.00  0.00    -0.393 OA
ATOM     34  H   UNL     1      14.530  -0.985  33.918  1.00  0.00     0.210 HD
ENDBRANCH  24  33
TORSDOF 3
ENDMDL
MODEL 7
REMARK VINA RESULT:    -5.946      2.374      7.851
REMARK INTER + INTRA:          -7.401
REMARK INTER:                  -6.854
REMARK INTRA:                  -0.546
REMARK UNBOUND:                -0.586
REMARK SMILES C=C(C)[C@@H]1CC[C@@]2(C(=O)[O-])CC[C@@]3(C)[C@@H](CC[C@@H]4[C@]5(C)CC[C@@H](O)C(C)(C)[C@@H]5CC[C@@]43C)[C@@H]12
REMARK SMILES IDX 7 1 6 2 33 3 11 4 5 5 15 6 4 7 12 8 16 9 13 10 17 11 31 12
REMARK SMILES IDX 14 13 18 14 30 15 32 16 19 17 29 18 21 19 20 20 28 21 22 22
REMARK SMILES IDX 25 23 23 24 26 25 27 26 8 27 9 28 10 29 2 30 3 31 1 32 24 33
REMARK H PARENT 24 34
REMARK Flexibility Score: inf
ROOT
ATOM      1  C   UNL     1      18.275   3.277  29.899  1.00  0.00     0.014 C 
ATOM      2  C   UNL     1      19.119   4.538  30.167  1.00  0.00     0.014 C 
ATOM      3  C   UNL     1      17.030   3.483  30.799  1.00  0.00     0.012 C 
ATOM      4  C   UNL     1      19.110   2.014  30.294  1.00  0.00     0.014 C 
ATOM      5  C   UNL     1      18.841   4.940  31.613  1.00  0.00     0.009 C 
ATOM      6  C   UNL     1      16.315   2.148  31.143  1.00  0.00     0.000 C 
ATOM      7  C   UNL     1      17.438   4.418  31.963  1.00  0.00     0.018 C 
ATOM      8  C   UNL     1      18.278   0.751  30.631  1.00  0.00     0.008 C 
ATOM      9  C   UNL     1      14.998   2.313  31.878  1.00  0.00     0.005 C 
ATOM     10  C   UNL     1      17.167   0.964  31.729  1.00  0.00    -0.024 C 
ATOM     11  C   UNL     1      14.102   1.089  31.619  1.00  0.00     0.005 C 
ATOM     12  C   UNL     1      16.209  -0.362  31.993  1.00  0.00    -0.024 C 
ATOM     13  C   UNL     1      17.912   1.331  33.054  1.00  0.00     0.012 C 
ATOM     14  C   UNL     1      14.840  -0.251  31.208  1.00  0.00     0.002 C 
ATOM     15  C   UNL     1      15.791  -0.558  33.503  1.00  0.00     0.008 C 
ATOM     16  C   UNL     1      17.038  -1.619  31.579  1.00  0.00     0.012 C 
ATOM     17  C   UNL     1      13.883  -1.558  31.281  1.00  0.00    -0.026 C 
ATOM     18  C   UNL     1      14.477  -1.342  33.796  1.00  0.00     0.005 C 
ATOM     19  C   UNL     1      12.393  -1.146  30.984  1.00  0.00     0.010 C 
ATOM     20  C   UNL     1      14.307  -2.521  30.119  1.00  0.00     0.012 C 
ATOM     21  C   UNL     1      14.007  -2.317  32.682  1.00  0.00     0.003 C 
ATOM     22  C   UNL     1      11.353  -2.224  31.262  1.00  0.00     0.033 C 
ATOM     23  C   UNL     1      12.784  -3.267  33.100  1.00  0.00    -0.006 C 
ATOM     24  C   UNL     1      11.411  -2.637  32.729  1.00  0.00     0.120 C 
ATOM     25  C   UNL     1      12.772  -3.555  34.628  1.00  0.00     0.014 C 
ATOM     26  C   UNL     1      12.937  -4.666  32.429  1.00  0.00     0.014 C 
ENDROOT
BRANCH   1  27
ATOM     27  C   UNL     1      17.867   3.220  28.429  1.00  0.00     0.048 C 
ATOM     28  O   UNL     1      16.792   3.744  28.026  1.00  0.00    -0.550 OA
ATOM     29  O   UNL     1      18.703   2.616  27.495  1.00  0.00    -0.550 OA
ENDBRANCH   1  27
BRANCH   7  30
ATOM     30  C   UNL     1      16.437   5.553  32.181  1.00  0.00    -0.077 C 
ATOM     31  C   UNL     1      16.481   6.812  31.351  1.00  0.00     0.039 C 
ATOM     32  C   UNL     1      15.479   5.434  33.114  1.00  0.00     0.008 C 
ENDBRANCH   7  30
BRANCH  24  33
ATOM     33  O   UNL     1      10.356  -3.537  32.975  1.00  0.00    -0.393 OA
ATOM     34  H   UNL     1      10.584  -4.044  33.798  1.00  0.00     0.210 HD
ENDBRANCH  24  33
TORSDOF 3
ENDMDL
MODEL 8
REMARK VINA RESULT:    -5.716      1.967      3.924
REMARK INTER + INTRA:          -7.137
REMARK INTER:                  -6.759
REMARK INTRA:                  -0.378
REMARK UNBOUND:                -0.586
REMARK SMILES C=C(C)[C@@H]1CC[C@@]2(C(=O)[O-])CC[C@@]3(C)[C@@H](CC[C@@H]4[C@]5(C)CC[C@@H](O)C(C)(C)[C@@H]5CC[C@@]43C)[C@@H]12
REMARK SMILES IDX 7 1 6 2 33 3 11 4 5 5 15 6 4 7 12 8 16 9 13 10 17 11 31 12
REMARK SMILES IDX 14 13 18 14 30 15 32 16 19 17 29 18 21 19 20 20 28 21 22 22
REMARK SMILES IDX 25 23 23 24 26 25 27 26 8 27 9 28 10 29 2 30 3 31 1 32 24 33
REMARK H PARENT 24 34
REMARK Flexibility Score: inf
ROOT
ATOM      1  C   UNL     1      12.474  -3.791  31.934  1.00  0.00     0.014 C 
ATOM      2  C   UNL     1      12.376  -5.324  31.809  1.00  0.00     0.014 C 
ATOM      3  C   UNL     1      13.734  -3.446  31.098  1.00  0.00     0.012 C 
ATOM      4  C   UNL     1      12.623  -3.413  33.445  1.00  0.00     0.014 C 
ATOM      5  C   UNL     1      13.809  -5.836  31.685  1.00  0.00     0.009 C 
ATOM      6  C   UNL     1      14.366  -2.087  31.507  1.00  0.00     0.000 C 
ATOM      7  C   UNL     1      14.642  -4.699  31.072  1.00  0.00     0.018 C 
ATOM      8  C   UNL     1      13.284  -2.039  33.719  1.00  0.00     0.008 C 
ATOM      9  C   UNL     1      15.497  -1.626  30.607  1.00  0.00     0.005 C 
ATOM     10  C   UNL     1      14.684  -1.828  33.024  1.00  0.00    -0.024 C 
ATOM     11  C   UNL     1      15.619  -0.093  30.672  1.00  0.00     0.005 C 
ATOM     12  C   UNL     1      15.323  -0.313  33.230  1.00  0.00    -0.024 C 
ATOM     13  C   UNL     1      15.655  -2.883  33.645  1.00  0.00     0.012 C 
ATOM     14  C   UNL     1      15.048   0.606  31.973  1.00  0.00     0.002 C 
ATOM     15  C   UNL     1      16.893  -0.300  33.401  1.00  0.00     0.008 C 
ATOM     16  C   UNL     1      14.713   0.270  34.544  1.00  0.00     0.012 C 
ATOM     17  C   UNL     1      15.506   2.154  32.123  1.00  0.00    -0.026 C 
ATOM     18  C   UNL     1      17.654   1.001  33.006  1.00  0.00     0.005 C 
ATOM     19  C   UNL     1      15.716   2.789  30.698  1.00  0.00     0.010 C 
ATOM     20  C   UNL     1      14.318   2.939  32.778  1.00  0.00     0.012 C 
ATOM     21  C   UNL     1      16.817   2.308  33.025  1.00  0.00     0.003 C 
ATOM     22  C   UNL     1      16.384   4.159  30.688  1.00  0.00     0.033 C 
ATOM     23  C   UNL     1      17.673   3.651  32.833  1.00  0.00    -0.006 C 
ATOM     24  C   UNL     1      17.762   4.069  31.336  1.00  0.00     0.120 C 
ATOM     25  C   UNL     1      19.125   3.492  33.364  1.00  0.00     0.014 C 
ATOM     26  C   UNL     1      17.059   4.806  33.682  1.00  0.00     0.014 C 
ENDROOT
BRANCH   1  27
ATOM     27  C   UNL     1      11.237  -3.135  31.327  1.00  0.00     0.048 C 
ATOM     28  O   UNL     1      10.138  -3.750  31.253  1.00  0.00    -0.550 OA
ATOM     29  O   UNL     1      11.294  -1.819  30.878  1.00  0.00    -0.550 OA
ENDBRANCH   1  27
BRANCH   7  30
ATOM     30  C   UNL     1      15.132  -5.037  29.663  1.00  0.00    -0.077 C 
ATOM     31  C   UNL     1      16.515  -4.651  29.198  1.00  0.00     0.039 C 
ATOM     32  C   UNL     1      14.335  -5.707  28.816  1.00  0.00     0.008 C 
ENDBRANCH   7  30
BRANCH  24  33
ATOM     33  O   UNL     1      18.396   5.318  31.196  1.00  0.00    -0.393 OA
ATOM     34  H   UNL     1      19.351   5.145  30.987  1.00  0.00     0.210 HD
ENDBRANCH  24  33
TORSDOF 3
ENDMDL
MODEL 9
REMARK VINA RESULT:    -5.685      4.774      8.653
REMARK INTER + INTRA:          -7.102
REMARK INTER:                  -6.606
REMARK INTRA:                  -0.496
REMARK UNBOUND:                -0.586
REMARK SMILES C=C(C)[C@@H]1CC[C@@]2(C(=O)[O-])CC[C@@]3(C)[C@@H](CC[C@@H]4[C@]5(C)CC[C@@H](O)C(C)(C)[C@@H]5CC[C@@]43C)[C@@H]12
REMARK SMILES IDX 7 1 6 2 33 3 11 4 5 5 15 6 4 7 12 8 16 9 13 10 17 11 31 12
REMARK SMILES IDX 14 13 18 14 30 15 32 16 19 17 29 18 21 19 20 20 28 21 22 22
REMARK SMILES IDX 25 23 23 24 26 25 27 26 8 27 9 28 10 29 2 30 3 31 1 32 24 33
REMARK H PARENT 24 34
REMARK Flexibility Score: inf
ROOT
ATOM      1  C   UNL     1      16.549   3.210  32.221  1.00  0.00     0.014 C 
ATOM      2  C   UNL     1      17.265   1.914  31.796  1.00  0.00     0.014 C 
ATOM      3  C   UNL     1      16.989   4.230  31.139  1.00  0.00     0.012 C 
ATOM      4  C   UNL     1      17.023   3.605  33.659  1.00  0.00     0.014 C 
ATOM      5  C   UNL     1      18.570   2.344  31.132  1.00  0.00     0.009 C 
ATOM      6  C   UNL     1      16.875   5.701  31.626  1.00  0.00     0.000 C 
ATOM      7  C   UNL     1      18.342   3.752  30.561  1.00  0.00     0.018 C 
ATOM      8  C   UNL     1      16.873   5.106  34.016  1.00  0.00     0.008 C 
ATOM      9  C   UNL     1      17.131   6.739  30.549  1.00  0.00     0.005 C 
ATOM     10  C   UNL     1      17.543   6.099  32.991  1.00  0.00    -0.024 C 
ATOM     11  C   UNL     1      16.410   8.050  30.910  1.00  0.00     0.005 C 
ATOM     12  C   UNL     1      17.273   7.700  33.322  1.00  0.00    -0.024 C 
ATOM     13  C   UNL     1      19.080   5.819  33.036  1.00  0.00     0.012 C 
ATOM     14  C   UNL     1      16.092   8.280  32.445  1.00  0.00     0.002 C 
ATOM     15  C   UNL     1      18.505   8.635  33.004  1.00  0.00     0.008 C 
ATOM     16  C   UNL     1      16.994   7.814  34.854  1.00  0.00     0.012 C 
ATOM     17  C   UNL     1      15.646   9.801  32.786  1.00  0.00    -0.026 C 
ATOM     18  C   UNL     1      18.216  10.135  32.694  1.00  0.00     0.005 C 
ATOM     19  C   UNL     1      14.920  10.437  31.543  1.00  0.00     0.010 C 
ATOM     20  C   UNL     1      14.576   9.737  33.929  1.00  0.00     0.012 C 
ATOM     21  C   UNL     1      16.884  10.698  33.255  1.00  0.00     0.003 C 
ATOM     22  C   UNL     1      14.669  11.937  31.632  1.00  0.00     0.033 C 
ATOM     23  C   UNL     1      16.719  12.288  33.113  1.00  0.00    -0.006 C 
ATOM     24  C   UNL     1      15.993  12.677  31.792  1.00  0.00     0.120 C 
ATOM     25  C   UNL     1      18.093  13.015  33.127  1.00  0.00     0.014 C 
ATOM     26  C   UNL     1      15.950  12.861  34.342  1.00  0.00     0.014 C 
ENDROOT
BRANCH   1  27
ATOM     27  C   UNL     1      15.036   3.012  32.183  1.00  0.00     0.048 C 
ATOM     28  O   UNL     1      14.269   3.667  32.939  1.00  0.00    -0.550 OA
ATOM     29  O   UNL     1      14.472   2.121  31.274  1.00  0.00    -0.550 OA
ENDBRANCH   1  27
BRANCH   7  30
ATOM     30  C   UNL     1      18.363   3.766  29.032  1.00  0.00    -0.077 C 
ATOM     31  C   UNL     1      17.524   2.807  28.224  1.00  0.00     0.039 C 
ATOM     32  C   UNL     1      19.123   4.659  28.378  1.00  0.00     0.008 C 
ENDBRANCH   7  30
BRANCH  24  33
ATOM     33  O   UNL     1      15.734  14.060  31.745  1.00  0.00    -0.393 OA
ATOM     34  H   UNL     1      14.916  14.190  31.197  1.00  0.00     0.210 HD
ENDBRANCH  24  33
TORSDOF 3
ENDMDL
