MODEL 1
REMARK VINA RESULT:    -3.146      0.000      0.000
REMARK INTER + INTRA:          -3.947
REMARK INTER:                  -3.790
REMARK INTRA:                  -0.158
REMARK UNBOUND:                -0.158
REMARK SMILES Oc1cc(O)c2c(c1)O[C@@H](c1ccc(O)c(O)c1)[C@H](O)C2
REMARK SMILES IDX 21 1 19 2 10 3 9 4 7 5 8 6 2 7 3 8 4 9 6 10 20 11 11 13
REMARK SMILES IDX 18 14 12 15 16 16 13 17 14 18 17 19 15 21 5 23 1 25
REMARK H PARENT 20 12 17 20 15 22 5 24 1 26
REMARK Flexibility Score: inf
ROOT
ATOM      1  C   UNL     1      10.020   2.965   5.552  1.00  0.00     0.079 C 
ATOM      2  C   UNL     1       8.692   2.847   6.326  1.00  0.00     0.164 C 
ATOM      3  C   UNL     1       8.594   1.468   7.010  1.00  0.00     0.232 C 
ATOM      4  O   UNL     1       9.725   1.272   7.860  1.00  0.00    -0.482 OA
ATOM      5  C   UNL     1      11.010   1.700   7.506  1.00  0.00     0.131 A 
ATOM      6  C   UNL     1      12.094   1.308   8.295  1.00  0.00     0.093 A 
ATOM      7  C   UNL     1      13.389   1.705   7.961  1.00  0.00     0.122 A 
ATOM      8  C   UNL     1      13.604   2.492   6.824  1.00  0.00     0.092 A 
ATOM      9  C   UNL     1      12.531   2.894   6.022  1.00  0.00     0.126 A 
ATOM     10  C   UNL     1      11.210   2.531   6.381  1.00  0.00     0.039 A 
ENDROOT
BRANCH   2  11
ATOM     11  O   UNL     1       7.599   3.076   5.472  1.00  0.00    -0.389 OA
ATOM     12  H   UNL     1       7.039   2.255   5.472  1.00  0.00     0.211 HD
ENDBRANCH   2  11
BRANCH   3  13
ATOM     13  C   UNL     1       7.324   1.350   7.819  1.00  0.00    -0.001 A 
ATOM     14  C   UNL     1       7.314   1.677   9.186  1.00  0.00     0.057 A 
ATOM     15  C   UNL     1       6.126   0.959   7.200  1.00  0.00     0.012 A 
ATOM     16  C   UNL     1       6.128   1.593   9.930  1.00  0.00     0.157 A 
ATOM     17  C   UNL     1       4.943   0.875   7.940  1.00  0.00     0.050 A 
ATOM     18  C   UNL     1       4.937   1.188   9.302  1.00  0.00     0.157 A 
BRANCH  16  19
ATOM     19  O   UNL     1       6.128   1.913  11.287  1.00  0.00    -0.504 OA
ATOM     20  H   UNL     1       5.442   2.545  11.682  1.00  0.00     0.293 HD
ENDBRANCH  16  19
BRANCH  18  21
ATOM     21  O   UNL     1       3.742   1.095  10.014  1.00  0.00    -0.504 OA
ATOM     22  H   UNL     1       3.389   0.209  10.358  1.00  0.00     0.293 HD
ENDBRANCH  18  21
ENDBRANCH   3  13
BRANCH   9  23
ATOM     23  O   UNL     1      12.811   3.642   4.875  1.00  0.00    -0.507 OA
ATOM     24  H   UNL     1      12.322   4.494   4.633  1.00  0.00     0.293 HD
ENDBRANCH   9  23
BRANCH   7  25
ATOM     25  O   UNL     1      14.458   1.306   8.761  1.00  0.00    -0.508 OA
ATOM     26  H   UNL     1      15.186   1.955   9.035  1.00  0.00     0.293 HD
ENDBRANCH   7  25
TORSDOF 6
ENDMDL
