MODEL 1
REMARK VINA RESULT:    -6.386      0.000      0.000
REMARK INTER + INTRA:          -8.017
REMARK INTER:                  -7.693
REMARK INTRA:                  -0.323
REMARK UNBOUND:                -0.323
REMARK SMILES Oc1cc(O)c2cc(O)c(-c3ccc(O)c(O)c3)[o+]c2c1
REMARK SMILES IDX 10 1 19 2 20 3 21 4 2 5 3 6 4 7 6 8 7 9 8 10 11 11 12 12
REMARK SMILES IDX 13 13 14 14 18 15 16 16 15 17 17 19 9 21 1 23 5 25
REMARK H PARENT 15 18 17 20 9 22 1 24 5 26
REMARK Flexibility Score: inf
ROOT
ATOM      1  C   UNL     1     178.304 181.269 174.859  1.00  0.00     0.402 A 
ATOM      2  O   UNL     1     179.446 180.647 174.573  1.00  0.00    -0.202 OA
ATOM      3  C   UNL     1     180.307 180.243 175.501  1.00  0.00     0.368 A 
ATOM      4  C   UNL     1     181.483 179.600 175.102  1.00  0.00     0.162 A 
ATOM      5  C   UNL     1     182.408 179.168 176.057  1.00  0.00     0.128 A 
ATOM      6  C   UNL     1     182.159 179.380 177.414  1.00  0.00     0.093 A 
ATOM      7  C   UNL     1     180.988 180.021 177.839  1.00  0.00     0.136 A 
ATOM      8  C   UNL     1     180.044 180.460 176.875  1.00  0.00     0.125 A 
ATOM      9  C   UNL     1     178.839 181.099 177.209  1.00  0.00     0.078 A 
ATOM     10  C   UNL     1     177.955 181.499 176.202  1.00  0.00     0.223 A 
ENDROOT
BRANCH   1  11
ATOM     11  C   UNL     1     177.430 181.679 173.735  1.00  0.00     0.087 A 
ATOM     12  C   UNL     1     176.318 180.910 173.354  1.00  0.00     0.022 A 
ATOM     13  C   UNL     1     175.495 181.329 172.306  1.00  0.00     0.051 A 
ATOM     14  C   UNL     1     175.762 182.528 171.632  1.00  0.00     0.157 A 
ATOM     15  C   UNL     1     177.682 182.891 173.071  1.00  0.00     0.068 A 
ATOM     16  C   UNL     1     176.861 183.314 172.020  1.00  0.00     0.158 A 
BRANCH  14  17
ATOM     17  O   UNL     1     174.940 182.944 170.586  1.00  0.00    -0.504 OA
ATOM     18  H   UNL     1     174.274 182.316 170.153  1.00  0.00     0.293 HD
ENDBRANCH  14  17
BRANCH  16  19
ATOM     19  O   UNL     1     177.150 184.516 171.376  1.00  0.00    -0.504 OA
ATOM     20  H   UNL     1     177.452 184.549 170.409  1.00  0.00     0.293 HD
ENDBRANCH  16  19
ENDBRANCH   1  11
BRANCH  10  21
ATOM     21  O   UNL     1     176.735 182.089 176.536  1.00  0.00    -0.500 OA
ATOM     22  H   UNL     1     175.916 181.532 176.750  1.00  0.00     0.294 HD
ENDBRANCH  10  21
BRANCH   5  23
ATOM     23  O   UNL     1     183.582 178.527 175.666  1.00  0.00    -0.507 OA
ATOM     24  H   UNL     1     184.331 178.343 176.324  1.00  0.00     0.293 HD
ENDBRANCH   5  23
BRANCH   7  25
ATOM     25  O   UNL     1     180.814 180.198 179.214  1.00  0.00    -0.507 OA
ATOM     26  H   UNL     1     180.204 180.887 179.628  1.00  0.00     0.293 HD
ENDBRANCH   7  25
TORSDOF 6
ENDMDL
MODEL 2
REMARK VINA RESULT:    -6.383      2.741      6.659
REMARK INTER + INTRA:          -8.012
REMARK INTER:                  -7.687
REMARK INTRA:                  -0.325
REMARK UNBOUND:                -0.323
REMARK SMILES Oc1cc(O)c2cc(O)c(-c3ccc(O)c(O)c3)[o+]c2c1
REMARK SMILES IDX 10 1 19 2 20 3 21 4 2 5 3 6 4 7 6 8 7 9 8 10 11 11 12 12
REMARK SMILES IDX 13 13 14 14 18 15 16 16 15 17 17 19 9 21 1 23 5 25
REMARK H PARENT 15 18 17 20 9 22 1 24 5 26
REMARK Flexibility Score: inf
ROOT
ATOM      1  C   UNL     1     182.352 179.421 174.856  1.00  0.00     0.402 A 
ATOM      2  O   UNL     1     181.204 180.029 174.568  1.00  0.00    -0.202 OA
ATOM      3  C   UNL     1     180.353 180.458 175.494  1.00  0.00     0.368 A 
ATOM      4  C   UNL     1     179.170 181.084 175.092  1.00  0.00     0.162 A 
ATOM      5  C   UNL     1     178.255 181.540 176.046  1.00  0.00     0.128 A 
ATOM      6  C   UNL     1     178.524 181.370 177.405  1.00  0.00     0.093 A 
ATOM      7  C   UNL     1     179.703 180.747 177.834  1.00  0.00     0.136 A 
ATOM      8  C   UNL     1     180.635 180.283 176.870  1.00  0.00     0.125 A 
ATOM      9  C   UNL     1     181.848 179.658 177.207  1.00  0.00     0.078 A 
ATOM     10  C   UNL     1     182.720 179.232 176.201  1.00  0.00     0.223 A 
ENDROOT
BRANCH   1  11
ATOM     11  C   UNL     1     183.212 178.980 173.734  1.00  0.00     0.087 A 
ATOM     12  C   UNL     1     184.312 179.746 173.310  1.00  0.00     0.022 A 
ATOM     13  C   UNL     1     185.123 179.299 172.264  1.00  0.00     0.051 A 
ATOM     14  C   UNL     1     184.856 178.076 171.635  1.00  0.00     0.157 A 
ATOM     15  C   UNL     1     182.962 177.745 173.114  1.00  0.00     0.068 A 
ATOM     16  C   UNL     1     183.771 177.293 172.066  1.00  0.00     0.158 A 
BRANCH  14  17
ATOM     17  O   UNL     1     185.666 177.632 170.591  1.00  0.00    -0.504 OA
ATOM     18  H   UNL     1     186.506 177.092 170.763  1.00  0.00     0.293 HD
ENDBRANCH  14  17
BRANCH  16  19
ATOM     19  O   UNL     1     183.482 176.069 171.466  1.00  0.00    -0.504 OA
ATOM     20  H   UNL     1     184.210 175.447 171.134  1.00  0.00     0.293 HD
ENDBRANCH  16  19
ENDBRANCH   1  11
BRANCH  10  21
ATOM     21  O   UNL     1     183.946 178.657 176.535  1.00  0.00    -0.500 OA
ATOM     22  H   UNL     1     184.265 178.603 177.496  1.00  0.00     0.294 HD
ENDBRANCH  10  21
BRANCH   5  23
ATOM     23  O   UNL     1     177.074 182.165 175.652  1.00  0.00    -0.507 OA
ATOM     24  H   UNL     1     176.976 183.174 175.669  1.00  0.00     0.293 HD
ENDBRANCH   5  23
BRANCH   7  25
ATOM     25  O   UNL     1     179.896 180.612 179.211  1.00  0.00    -0.507 OA
ATOM     26  H   UNL     1     179.477 181.211 179.908  1.00  0.00     0.293 HD
ENDBRANCH   7  25
TORSDOF 6
ENDMDL
MODEL 3
REMARK VINA RESULT:    -6.240      1.667      7.047
REMARK INTER + INTRA:          -7.840
REMARK INTER:                  -7.593
REMARK INTRA:                  -0.247
REMARK UNBOUND:                -0.323
REMARK SMILES Oc1cc(O)c2cc(O)c(-c3ccc(O)c(O)c3)[o+]c2c1
REMARK SMILES IDX 10 1 19 2 20 3 21 4 2 5 3 6 4 7 6 8 7 9 8 10 11 11 12 12
REMARK SMILES IDX 13 13 14 14 18 15 16 16 15 17 17 19 9 21 1 23 5 25
REMARK H PARENT 15 18 17 20 9 22 1 24 5 26
REMARK Flexibility Score: inf
ROOT
ATOM      1  C   UNL     1     177.739 180.549 174.396  1.00  0.00     0.402 A 
ATOM      2  O   UNL     1     177.876 181.717 173.771  1.00  0.00    -0.202 OA
ATOM      3  C   UNL     1     177.129 182.081 172.734  1.00  0.00     0.368 A 
ATOM      4  C   UNL     1     177.350 183.327 172.142  1.00  0.00     0.162 A 
ATOM      5  C   UNL     1     176.581 183.734 171.047  1.00  0.00     0.128 A 
ATOM      6  C   UNL     1     175.589 182.892 170.543  1.00  0.00     0.093 A 
ATOM      7  C   UNL     1     175.347 181.638 171.119  1.00  0.00     0.136 A 
ATOM      8  C   UNL     1     176.124 181.221 172.231  1.00  0.00     0.125 A 
ATOM      9  C   UNL     1     175.943 179.988 172.880  1.00  0.00     0.078 A 
ATOM     10  C   UNL     1     176.744 179.648 173.974  1.00  0.00     0.223 A 
ENDROOT
BRANCH   1  11
ATOM     11  C   UNL     1     178.639 180.255 175.535  1.00  0.00     0.087 A 
ATOM     12  C   UNL     1     179.591 179.224 175.468  1.00  0.00     0.022 A 
ATOM     13  C   UNL     1     180.445 178.979 176.546  1.00  0.00     0.051 A 
ATOM     14  C   UNL     1     180.370 179.769 177.701  1.00  0.00     0.157 A 
ATOM     15  C   UNL     1     178.581 181.057 176.687  1.00  0.00     0.068 A 
ATOM     16  C   UNL     1     179.434 180.815 177.769  1.00  0.00     0.158 A 
BRANCH  14  17
ATOM     17  O   UNL     1     181.222 179.522 178.776  1.00  0.00    -0.504 OA
ATOM     18  H   UNL     1     181.317 178.597 179.177  1.00  0.00     0.293 HD
ENDBRANCH  14  17
BRANCH  16  19
ATOM     19  O   UNL     1     179.338 181.623 178.901  1.00  0.00    -0.504 OA
ATOM     20  H   UNL     1     179.632 182.593 178.897  1.00  0.00     0.293 HD
ENDBRANCH  16  19
ENDBRANCH   1  11
BRANCH  10  21
ATOM     21  O   UNL     1     176.532 178.446 174.650  1.00  0.00    -0.500 OA
ATOM     22  H   UNL     1     177.193 177.680 174.593  1.00  0.00     0.294 HD
ENDBRANCH  10  21
BRANCH   5  23
ATOM     23  O   UNL     1     176.797 184.975 170.452  1.00  0.00    -0.507 OA
ATOM     24  H   UNL     1     177.076 185.057 169.481  1.00  0.00     0.293 HD
ENDBRANCH   5  23
BRANCH   7  25
ATOM     25  O   UNL     1     174.339 180.853 170.553  1.00  0.00    -0.507 OA
ATOM     26  H   UNL     1     173.845 180.120 171.041  1.00  0.00     0.293 HD
ENDBRANCH   7  25
TORSDOF 6
ENDMDL
MODEL 4
REMARK VINA RESULT:    -6.178      4.286      6.955
REMARK INTER + INTRA:          -7.766
REMARK INTER:                  -7.541
REMARK INTRA:                  -0.225
REMARK UNBOUND:                -0.323
REMARK SMILES Oc1cc(O)c2cc(O)c(-c3ccc(O)c(O)c3)[o+]c2c1
REMARK SMILES IDX 10 1 19 2 20 3 21 4 2 5 3 6 4 7 6 8 7 9 8 10 11 11 12 12
REMARK SMILES IDX 13 13 14 14 18 15 16 16 15 17 17 19 9 21 1 23 5 25
REMARK H PARENT 15 18 17 20 9 22 1 24 5 26
REMARK Flexibility Score: inf
ROOT
ATOM      1  C   UNL     1     182.948 180.233 174.398  1.00  0.00     0.402 A 
ATOM      2  O   UNL     1     182.817 179.055 173.792  1.00  0.00    -0.202 OA
ATOM      3  C   UNL     1     183.568 178.676 172.763  1.00  0.00     0.368 A 
ATOM      4  C   UNL     1     183.353 177.420 172.191  1.00  0.00     0.162 A 
ATOM      5  C   UNL     1     184.126 176.998 171.105  1.00  0.00     0.128 A 
ATOM      6  C   UNL     1     185.117 177.836 170.589  1.00  0.00     0.093 A 
ATOM      7  C   UNL     1     185.352 179.100 171.144  1.00  0.00     0.136 A 
ATOM      8  C   UNL     1     184.571 179.532 172.248  1.00  0.00     0.125 A 
ATOM      9  C   UNL     1     184.745 180.776 172.877  1.00  0.00     0.078 A 
ATOM     10  C   UNL     1     183.941 181.131 173.963  1.00  0.00     0.223 A 
ENDROOT
BRANCH   1  11
ATOM     11  C   UNL     1     182.044 180.543 175.529  1.00  0.00     0.087 A 
ATOM     12  C   UNL     1     181.120 181.599 175.460  1.00  0.00     0.022 A 
ATOM     13  C   UNL     1     180.261 181.858 176.531  1.00  0.00     0.051 A 
ATOM     14  C   UNL     1     180.304 181.059 177.681  1.00  0.00     0.157 A 
ATOM     15  C   UNL     1     182.068 179.731 176.675  1.00  0.00     0.068 A 
ATOM     16  C   UNL     1     181.211 179.987 177.751  1.00  0.00     0.158 A 
BRANCH  14  17
ATOM     17  O   UNL     1     179.447 181.320 178.749  1.00  0.00    -0.504 OA
ATOM     18  H   UNL     1     178.450 181.436 178.613  1.00  0.00     0.293 HD
ENDBRANCH  14  17
BRANCH  16  19
ATOM     19  O   UNL     1     181.273 179.168 178.877  1.00  0.00    -0.504 OA
ATOM     20  H   UNL     1     180.450 178.935 179.420  1.00  0.00     0.293 HD
ENDBRANCH  16  19
ENDBRANCH   1  11
BRANCH  10  21
ATOM     21  O   UNL     1     184.146 182.345 174.620  1.00  0.00    -0.500 OA
ATOM     22  H   UNL     1     183.620 183.177 174.377  1.00  0.00     0.294 HD
ENDBRANCH  10  21
BRANCH   5  23
ATOM     23  O   UNL     1     183.918 175.746 170.530  1.00  0.00    -0.507 OA
ATOM     24  H   UNL     1     183.082 175.206 170.724  1.00  0.00     0.293 HD
ENDBRANCH   5  23
BRANCH   7  25
ATOM     25  O   UNL     1     186.359 179.880 170.568  1.00  0.00    -0.507 OA
ATOM     26  H   UNL     1     187.328 179.856 170.847  1.00  0.00     0.293 HD
ENDBRANCH   7  25
TORSDOF 6
ENDMDL
MODEL 5
REMARK VINA RESULT:    -6.177      4.172      6.802
REMARK INTER + INTRA:          -7.764
REMARK INTER:                  -7.416
REMARK INTRA:                  -0.348
REMARK UNBOUND:                -0.323
REMARK SMILES Oc1cc(O)c2cc(O)c(-c3ccc(O)c(O)c3)[o+]c2c1
REMARK SMILES IDX 10 1 19 2 20 3 21 4 2 5 3 6 4 7 6 8 7 9 8 10 11 11 12 12
REMARK SMILES IDX 13 13 14 14 18 15 16 16 15 17 17 19 9 21 1 23 5 25
REMARK H PARENT 15 18 17 20 9 22 1 24 5 26
REMARK Flexibility Score: inf
ROOT
ATOM      1  C   UNL     1     181.726 178.918 175.099  1.00  0.00     0.402 A 
ATOM      2  O   UNL     1     181.134 177.816 174.642  1.00  0.00    -0.202 OA
ATOM      3  C   UNL     1     181.598 177.110 173.617  1.00  0.00     0.368 A 
ATOM      4  C   UNL     1     180.904 175.968 173.208  1.00  0.00     0.162 A 
ATOM      5  C   UNL     1     181.368 175.209 172.130  1.00  0.00     0.128 A 
ATOM      6  C   UNL     1     182.529 175.593 171.457  1.00  0.00     0.093 A 
ATOM      7  C   UNL     1     183.243 176.733 171.847  1.00  0.00     0.136 A 
ATOM      8  C   UNL     1     182.778 177.507 172.942  1.00  0.00     0.125 A 
ATOM      9  C   UNL     1     183.436 178.656 173.411  1.00  0.00     0.078 A 
ATOM     10  C   UNL     1     182.919 179.364 174.500  1.00  0.00     0.223 A 
ENDROOT
BRANCH   1  11
ATOM     11  C   UNL     1     181.106 179.623 176.243  1.00  0.00     0.087 A 
ATOM     12  C   UNL     1     180.108 180.594 176.052  1.00  0.00     0.022 A 
ATOM     13  C   UNL     1     179.521 181.229 177.149  1.00  0.00     0.051 A 
ATOM     14  C   UNL     1     179.913 180.896 178.452  1.00  0.00     0.157 A 
ATOM     15  C   UNL     1     181.480 179.278 177.553  1.00  0.00     0.068 A 
ATOM     16  C   UNL     1     180.895 179.912 178.654  1.00  0.00     0.158 A 
BRANCH  14  17
ATOM     17  O   UNL     1     179.326 181.533 179.545  1.00  0.00    -0.504 OA
ATOM     18  H   UNL     1     178.320 181.614 179.636  1.00  0.00     0.293 HD
ENDBRANCH  14  17
BRANCH  16  19
ATOM     19  O   UNL     1     181.302 179.553 179.938  1.00  0.00    -0.504 OA
ATOM     20  H   UNL     1     182.235 179.748 180.282  1.00  0.00     0.293 HD
ENDBRANCH  16  19
ENDBRANCH   1  11
BRANCH  10  21
ATOM     21  O   UNL     1     183.598 180.477 174.997  1.00  0.00    -0.500 OA
ATOM     22  H   UNL     1     184.332 180.933 174.467  1.00  0.00     0.294 HD
ENDBRANCH  10  21
BRANCH   5  23
ATOM     23  O   UNL     1     180.680 174.069 171.718  1.00  0.00    -0.507 OA
ATOM     24  H   UNL     1     180.899 173.153 172.094  1.00  0.00     0.293 HD
ENDBRANCH   5  23
BRANCH   7  25
ATOM     25  O   UNL     1     184.394 177.053 171.120  1.00  0.00    -0.507 OA
ATOM     26  H   UNL     1     184.694 176.570 170.286  1.00  0.00     0.293 HD
ENDBRANCH   7  25
TORSDOF 6
ENDMDL
MODEL 6
REMARK VINA RESULT:    -6.145      1.766      6.923
REMARK INTER + INTRA:          -7.726
REMARK INTER:                  -7.389
REMARK INTRA:                  -0.337
REMARK UNBOUND:                -0.323
REMARK SMILES Oc1cc(O)c2cc(O)c(-c3ccc(O)c(O)c3)[o+]c2c1
REMARK SMILES IDX 10 1 19 2 20 3 21 4 2 5 3 6 4 7 6 8 7 9 8 10 11 11 12 12
REMARK SMILES IDX 13 13 14 14 18 15 16 16 15 17 17 19 9 21 1 23 5 25
REMARK H PARENT 15 18 17 20 9 22 1 24 5 26
REMARK Flexibility Score: inf
ROOT
ATOM      1  C   UNL     1     179.032 181.839 175.075  1.00  0.00     0.402 A 
ATOM      2  O   UNL     1     179.603 182.953 174.621  1.00  0.00    -0.202 OA
ATOM      3  C   UNL     1     179.127 183.650 173.595  1.00  0.00     0.368 A 
ATOM      4  C   UNL     1     179.798 184.807 173.189  1.00  0.00     0.162 A 
ATOM      5  C   UNL     1     179.321 185.557 172.111  1.00  0.00     0.128 A 
ATOM      6  C   UNL     1     178.170 185.150 171.435  1.00  0.00     0.093 A 
ATOM      7  C   UNL     1     177.479 183.995 171.821  1.00  0.00     0.136 A 
ATOM      8  C   UNL     1     177.957 183.230 172.917  1.00  0.00     0.125 A 
ATOM      9  C   UNL     1     177.322 182.067 173.383  1.00  0.00     0.078 A 
ATOM     10  C   UNL     1     177.851 181.368 174.472  1.00  0.00     0.223 A 
ENDROOT
BRANCH   1  11
ATOM     11  C   UNL     1     179.664 181.145 176.220  1.00  0.00     0.087 A 
ATOM     12  C   UNL     1     180.732 180.250 176.036  1.00  0.00     0.022 A 
ATOM     13  C   UNL     1     181.328 179.625 177.135  1.00  0.00     0.051 A 
ATOM     14  C   UNL     1     180.874 179.894 178.433  1.00  0.00     0.157 A 
ATOM     15  C   UNL     1     179.228 181.428 177.525  1.00  0.00     0.068 A 
ATOM     16  C   UNL     1     179.821 180.803 178.629  1.00  0.00     0.158 A 
BRANCH  14  17
ATOM     17  O   UNL     1     181.470 179.268 179.527  1.00  0.00    -0.504 OA
ATOM     18  H   UNL     1     180.925 178.963 180.325  1.00  0.00     0.293 HD
ENDBRANCH  14  17
BRANCH  16  19
ATOM     19  O   UNL     1     179.351 181.098 179.907  1.00  0.00    -0.504 OA
ATOM     20  H   UNL     1     179.693 181.892 180.437  1.00  0.00     0.293 HD
ENDBRANCH  16  19
ENDBRANCH   1  11
BRANCH  10  21
ATOM     21  O   UNL     1     177.193 180.241 174.967  1.00  0.00    -0.500 OA
ATOM     22  H   UNL     1     177.283 179.335 174.522  1.00  0.00     0.294 HD
ENDBRANCH  10  21
BRANCH   5  23
ATOM     23  O   UNL     1     179.986 186.712 171.702  1.00  0.00    -0.507 OA
ATOM     24  H   UNL     1     180.036 187.533 172.294  1.00  0.00     0.293 HD
ENDBRANCH   5  23
BRANCH   7  25
ATOM     25  O   UNL     1     176.337 183.653 171.092  1.00  0.00    -0.507 OA
ATOM     26  H   UNL     1     176.162 183.937 170.139  1.00  0.00     0.293 HD
ENDBRANCH   7  25
TORSDOF 6
ENDMDL
MODEL 7
REMARK VINA RESULT:    -6.132      4.349      6.792
REMARK INTER + INTRA:          -7.710
REMARK INTER:                  -7.423
REMARK INTRA:                  -0.287
REMARK UNBOUND:                -0.323
REMARK SMILES Oc1cc(O)c2cc(O)c(-c3ccc(O)c(O)c3)[o+]c2c1
REMARK SMILES IDX 10 1 19 2 20 3 21 4 2 5 3 6 4 7 6 8 7 9 8 10 11 11 12 12
REMARK SMILES IDX 13 13 14 14 18 15 16 16 15 17 17 19 9 21 1 23 5 25
REMARK H PARENT 15 18 17 20 9 22 1 24 5 26
REMARK Flexibility Score: inf
ROOT
ATOM      1  C   UNL     1     182.072 179.162 174.972  1.00  0.00     0.402 A 
ATOM      2  O   UNL     1     183.191 179.611 174.407  1.00  0.00    -0.202 OA
ATOM      3  C   UNL     1     183.758 179.034 173.353  1.00  0.00     0.368 A 
ATOM      4  C   UNL     1     184.936 179.578 172.832  1.00  0.00     0.162 A 
ATOM      5  C   UNL     1     185.555 178.989 171.726  1.00  0.00     0.128 A 
ATOM      6  C   UNL     1     184.997 177.852 171.140  1.00  0.00     0.093 A 
ATOM      7  C   UNL     1     183.818 177.287 171.643  1.00  0.00     0.136 A 
ATOM      8  C   UNL     1     183.184 177.883 172.764  1.00  0.00     0.125 A 
ATOM      9  C   UNL     1     181.993 177.394 173.327  1.00  0.00     0.078 A 
ATOM     10  C   UNL     1     181.423 178.037 174.430  1.00  0.00     0.223 A 
ENDROOT
BRANCH   1  11
ATOM     11  C   UNL     1     181.543 179.887 176.150  1.00  0.00     0.087 A 
ATOM     12  C   UNL     1     180.881 181.119 176.014  1.00  0.00     0.022 A 
ATOM     13  C   UNL     1     180.369 181.774 177.138  1.00  0.00     0.051 A 
ATOM     14  C   UNL     1     180.499 181.202 178.410  1.00  0.00     0.157 A 
ATOM     15  C   UNL     1     181.652 179.308 177.425  1.00  0.00     0.068 A 
ATOM     16  C   UNL     1     181.142 179.960 178.553  1.00  0.00     0.158 A 
BRANCH  14  17
ATOM     17  O   UNL     1     179.989 181.857 179.529  1.00  0.00    -0.504 OA
ATOM     18  H   UNL     1     180.074 181.464 180.459  1.00  0.00     0.293 HD
ENDBRANCH  14  17
BRANCH  16  19
ATOM     19  O   UNL     1     181.282 179.360 179.803  1.00  0.00    -0.504 OA
ATOM     20  H   UNL     1     181.858 178.539 179.945  1.00  0.00     0.293 HD
ENDBRANCH  16  19
ENDBRANCH   1  11
BRANCH  10  21
ATOM     21  O   UNL     1     180.215 177.583 174.958  1.00  0.00    -0.500 OA
ATOM     22  H   UNL     1     179.394 178.175 174.996  1.00  0.00     0.294 HD
ENDBRANCH  10  21
BRANCH   5  23
ATOM     23  O   UNL     1     186.729 179.526 171.202  1.00  0.00    -0.507 OA
ATOM     24  H   UNL     1     187.636 179.126 171.412  1.00  0.00     0.293 HD
ENDBRANCH   5  23
BRANCH   7  25
ATOM     25  O   UNL     1     183.325 176.148 171.002  1.00  0.00    -0.507 OA
ATOM     26  H   UNL     1     183.422 175.961 170.014  1.00  0.00     0.293 HD
ENDBRANCH   7  25
TORSDOF 6
ENDMDL
MODEL 8
REMARK VINA RESULT:    -6.117      1.712      7.037
REMARK INTER + INTRA:          -7.692
REMARK INTER:                  -7.404
REMARK INTRA:                  -0.287
REMARK UNBOUND:                -0.323
REMARK SMILES Oc1cc(O)c2cc(O)c(-c3ccc(O)c(O)c3)[o+]c2c1
REMARK SMILES IDX 10 1 19 2 20 3 21 4 2 5 3 6 4 7 6 8 7 9 8 10 11 11 12 12
REMARK SMILES IDX 13 13 14 14 18 15 16 16 15 17 17 19 9 21 1 23 5 25
REMARK H PARENT 15 18 17 20 9 22 1 24 5 26
REMARK Flexibility Score: inf
ROOT
ATOM      1  C   UNL     1     178.707 181.556 175.005  1.00  0.00     0.402 A 
ATOM      2  O   UNL     1     177.589 181.112 174.434  1.00  0.00    -0.202 OA
ATOM      3  C   UNL     1     177.047 181.674 173.358  1.00  0.00     0.368 A 
ATOM      4  C   UNL     1     175.869 181.138 172.832  1.00  0.00     0.162 A 
ATOM      5  C   UNL     1     175.276 181.712 171.704  1.00  0.00     0.128 A 
ATOM      6  C   UNL     1     175.861 182.827 171.101  1.00  0.00     0.093 A 
ATOM      7  C   UNL     1     177.042 183.384 171.610  1.00  0.00     0.136 A 
ATOM      8  C   UNL     1     177.649 182.804 172.753  1.00  0.00     0.125 A 
ATOM      9  C   UNL     1     178.839 183.286 173.323  1.00  0.00     0.078 A 
ATOM     10  C   UNL     1     179.382 182.658 174.449  1.00  0.00     0.223 A 
ENDROOT
BRANCH   1  11
ATOM     11  C   UNL     1     179.207 180.849 176.206  1.00  0.00     0.087 A 
ATOM     12  C   UNL     1     179.853 179.605 176.108  1.00  0.00     0.022 A 
ATOM     13  C   UNL     1     180.337 178.967 177.253  1.00  0.00     0.051 A 
ATOM     14  C   UNL     1     180.195 179.568 178.511  1.00  0.00     0.157 A 
ATOM     15  C   UNL     1     179.085 181.456 177.467  1.00  0.00     0.068 A 
ATOM     16  C   UNL     1     179.568 180.821 178.617  1.00  0.00     0.158 A 
BRANCH  14  17
ATOM     17  O   UNL     1     180.678 178.930 179.652  1.00  0.00    -0.504 OA
ATOM     18  H   UNL     1     181.666 178.746 179.780  1.00  0.00     0.293 HD
ENDBRANCH  14  17
BRANCH  16  19
ATOM     19  O   UNL     1     179.417 181.450 179.852  1.00  0.00    -0.504 OA
ATOM     20  H   UNL     1     178.522 181.498 180.325  1.00  0.00     0.293 HD
ENDBRANCH  16  19
ENDBRANCH   1  11
BRANCH  10  21
ATOM     21  O   UNL     1     180.590 183.105 174.985  1.00  0.00    -0.500 OA
ATOM     22  H   UNL     1     181.462 183.018 174.478  1.00  0.00     0.294 HD
ENDBRANCH  10  21
BRANCH   5  23
ATOM     23  O   UNL     1     174.101 181.182 171.174  1.00  0.00    -0.507 OA
ATOM     24  H   UNL     1     174.065 180.239 170.804  1.00  0.00     0.293 HD
ENDBRANCH   5  23
BRANCH   7  25
ATOM     25  O   UNL     1     177.562 184.501 170.951  1.00  0.00    -0.507 OA
ATOM     26  H   UNL     1     178.385 184.487 170.367  1.00  0.00     0.293 HD
ENDBRANCH   7  25
TORSDOF 6
ENDMDL
MODEL 9
REMARK VINA RESULT:    -6.049      3.929      7.094
REMARK INTER + INTRA:          -7.609
REMARK INTER:                  -7.361
REMARK INTRA:                  -0.249
REMARK UNBOUND:                -0.323
REMARK SMILES Oc1cc(O)c2cc(O)c(-c3ccc(O)c(O)c3)[o+]c2c1
REMARK SMILES IDX 10 1 19 2 20 3 21 4 2 5 3 6 4 7 6 8 7 9 8 10 11 11 12 12
REMARK SMILES IDX 13 13 14 14 18 15 16 16 15 17 17 19 9 21 1 23 5 25
REMARK H PARENT 15 18 17 20 9 22 1 24 5 26
REMARK Flexibility Score: inf
ROOT
ATOM      1  C   UNL     1     179.781 178.471 175.360  1.00  0.00     0.402 A 
ATOM      2  O   UNL     1     178.546 178.020 175.156  1.00  0.00    -0.202 OA
ATOM      3  C   UNL     1     178.224 177.197 174.163  1.00  0.00     0.368 A 
ATOM      4  C   UNL     1     176.897 176.780 174.029  1.00  0.00     0.162 A 
ATOM      5  C   UNL     1     176.530 175.919 172.991  1.00  0.00     0.128 A 
ATOM      6  C   UNL     1     177.494 175.472 172.084  1.00  0.00     0.093 A 
ATOM      7  C   UNL     1     178.830 175.875 172.197  1.00  0.00     0.136 A 
ATOM      8  C   UNL     1     179.208 176.749 173.250  1.00  0.00     0.125 A 
ATOM      9  C   UNL     1     180.526 177.194 173.448  1.00  0.00     0.078 A 
ATOM     10  C   UNL     1     180.823 178.051 174.512  1.00  0.00     0.223 A 
ENDROOT
BRANCH   1  11
ATOM     11  C   UNL     1     180.012 179.392 176.497  1.00  0.00     0.087 A 
ATOM     12  C   UNL     1     179.521 180.709 176.484  1.00  0.00     0.022 A 
ATOM     13  C   UNL     1     179.731 181.552 177.578  1.00  0.00     0.051 A 
ATOM     14  C   UNL     1     180.423 181.089 178.705  1.00  0.00     0.157 A 
ATOM     15  C   UNL     1     180.686 178.926 177.638  1.00  0.00     0.068 A 
ATOM     16  C   UNL     1     180.899 179.767 178.736  1.00  0.00     0.158 A 
BRANCH  14  17
ATOM     17  O   UNL     1     180.632 181.933 179.795  1.00  0.00    -0.504 OA
ATOM     18  H   UNL     1     180.236 182.864 179.829  1.00  0.00     0.293 HD
ENDBRANCH  14  17
BRANCH  16  19
ATOM     19  O   UNL     1     181.584 179.274 179.845  1.00  0.00    -0.504 OA
ATOM     20  H   UNL     1     182.540 178.942 179.783  1.00  0.00     0.293 HD
ENDBRANCH  16  19
ENDBRANCH   1  11
BRANCH  10  21
ATOM     21  O   UNL     1     182.139 178.454 174.740  1.00  0.00    -0.500 OA
ATOM     22  H   UNL     1     182.642 178.181 175.576  1.00  0.00     0.294 HD
ENDBRANCH  10  21
BRANCH   5  23
ATOM     23  O   UNL     1     175.209 175.499 172.852  1.00  0.00    -0.507 OA
ATOM     24  H   UNL     1     174.748 174.950 173.569  1.00  0.00     0.293 HD
ENDBRANCH   5  23
BRANCH   7  25
ATOM     25  O   UNL     1     179.732 175.388 171.248  1.00  0.00    -0.507 OA
ATOM     26  H   UNL     1     180.634 174.991 171.468  1.00  0.00     0.293 HD
ENDBRANCH   7  25
TORSDOF 6
ENDMDL
