MODEL 1
REMARK VINA RESULT:    -1.907      0.000      0.000
REMARK INTER + INTRA:          -3.353
REMARK INTER:                  -2.743
REMARK INTRA:                  -0.610
REMARK UNBOUND:                -0.610
REMARK SMILES O=C(CO)[C@H](O)[C@@H](O)[C@@H](O)CO
REMARK SMILES IDX 7 1 9 2 11 3 12 4 10 6 5 8 2 9 1 10 3 11 4 12 6 14 8 16
REMARK H PARENT 12 5 10 7 4 13 6 15 8 17
REMARK Flexibility Score: inf
ROOT
ATOM      1  C   UNL     1      19.601  41.528  12.141  1.00  0.00     0.181 C 
ENDROOT
BRANCH   1   2
ATOM      2  C   UNL     1      20.587  42.585  12.723  1.00  0.00     0.171 C 
BRANCH   2   3
ATOM      3  C   UNL     1      20.060  44.018  12.531  1.00  0.00     0.190 C 
BRANCH   3   4
ATOM      4  O   UNL     1      20.742  44.657  11.489  1.00  0.00    -0.394 OA
ATOM      5  H   UNL     1      20.215  44.484  10.666  1.00  0.00     0.210 HD
ENDBRANCH   3   4
ENDBRANCH   2   3
BRANCH   2   6
ATOM      6  O   UNL     1      21.832  42.476  12.084  1.00  0.00    -0.388 OA
ATOM      7  H   UNL     1      21.652  42.382  11.112  1.00  0.00     0.211 HD
ENDBRANCH   2   6
ENDBRANCH   1   2
BRANCH   1   8
ATOM      8  C   UNL     1      19.004  41.879  10.741  1.00  0.00     0.214 C 
BRANCH   8   9
ATOM      9  C   UNL     1      18.005  40.856  10.224  1.00  0.00     0.189 C 
ATOM     10  O   UNL     1      18.276  39.668  10.307  1.00  0.00    -0.294 OA
BRANCH   9  11
ATOM     11  C   UNL     1      16.666  41.255   9.660  1.00  0.00     0.234 C 
BRANCH  11  12
ATOM     12  O   UNL     1      15.797  40.155   9.646  1.00  0.00    -0.388 OA
ATOM     13  H   UNL     1      15.584  39.951  10.594  1.00  0.00     0.211 HD
ENDBRANCH  11  12
ENDBRANCH   9  11
ENDBRANCH   8   9
BRANCH   8  14
ATOM     14  O   UNL     1      20.014  42.152   9.799  1.00  0.00    -0.382 OA
ATOM     15  H   UNL     1      20.585  42.878  10.154  1.00  0.00     0.211 HD
ENDBRANCH   8  14
ENDBRANCH   1   8
BRANCH   1  16
ATOM     16  O   UNL     1      20.202  40.258  12.096  1.00  0.00    -0.387 OA
ATOM     17  H   UNL     1      20.676  40.181  11.228  1.00  0.00     0.211 HD
ENDBRANCH   1  16
TORSDOF 10
ENDMDL
MODEL 2
REMARK VINA RESULT:    -1.317      1.080      4.641
REMARK INTER + INTRA:          -2.505
REMARK INTER:                  -2.355
REMARK INTRA:                  -0.150
REMARK UNBOUND:                -0.610
REMARK SMILES O=C(CO)[C@H](O)[C@@H](O)[C@@H](O)CO
REMARK SMILES IDX 7 1 9 2 11 3 12 4 10 6 5 8 2 9 1 10 3 11 4 12 6 14 8 16
REMARK H PARENT 12 5 10 7 4 13 6 15 8 17
REMARK Flexibility Score: inf
ROOT
ATOM      1  C   UNL     1      19.360  41.167  10.570  1.00  0.00     0.181 C 
ENDROOT
BRANCH   1   2
ATOM      2  C   UNL     1      17.873  41.311  10.124  1.00  0.00     0.171 C 
BRANCH   2   3
ATOM      3  C   UNL     1      17.189  39.939   9.982  1.00  0.00     0.190 C 
BRANCH   3   4
ATOM      4  O   UNL     1      15.860  40.094   9.572  1.00  0.00    -0.394 OA
ATOM      5  H   UNL     1      15.894  40.343   8.612  1.00  0.00     0.210 HD
ENDBRANCH   3   4
ENDBRANCH   2   3
BRANCH   2   6
ATOM      6  O   UNL     1      17.810  41.973   8.889  1.00  0.00    -0.388 OA
ATOM      7  H   UNL     1      16.849  42.066   8.657  1.00  0.00     0.211 HD
ENDBRANCH   2   6
ENDBRANCH   1   2
BRANCH   1   8
ATOM      8  C   UNL     1      19.629  41.457  12.081  1.00  0.00     0.214 C 
BRANCH   8   9
ATOM      9  C   UNL     1      20.309  42.792  12.340  1.00  0.00     0.189 C 
ATOM     10  O   UNL     1      21.244  42.841  13.125  1.00  0.00    -0.294 OA
BRANCH   9  11
ATOM     11  C   UNL     1      19.904  44.052  11.620  1.00  0.00     0.234 C 
BRANCH  11  12
ATOM     12  O   UNL     1      20.982  44.946  11.560  1.00  0.00    -0.388 OA
ATOM     13  H   UNL     1      20.804  45.650  12.237  1.00  0.00     0.211 HD
ENDBRANCH  11  12
ENDBRANCH   9  11
ENDBRANCH   8   9
BRANCH   8  14
ATOM     14  O   UNL     1      20.309  40.392  12.701  1.00  0.00    -0.382 OA
ATOM     15  H   UNL     1      21.029  40.085  12.096  1.00  0.00     0.211 HD
ENDBRANCH   8  14
ENDBRANCH   1   8
BRANCH   1  16
ATOM     16  O   UNL     1      19.860  39.896  10.234  1.00  0.00    -0.387 OA
ATOM     17  H   UNL     1      19.240  39.220  10.612  1.00  0.00     0.211 HD
ENDBRANCH   1  16
TORSDOF 10
ENDMDL
MODEL 3
REMARK VINA RESULT:    -1.047      0.550      4.633
REMARK INTER + INTRA:          -2.116
REMARK INTER:                  -1.774
REMARK INTRA:                  -0.342
REMARK UNBOUND:                -0.610
REMARK SMILES O=C(CO)[C@H](O)[C@@H](O)[C@@H](O)CO
REMARK SMILES IDX 7 1 9 2 11 3 12 4 10 6 5 8 2 9 1 10 3 11 4 12 6 14 8 16
REMARK H PARENT 12 5 10 7 4 13 6 15 8 17
REMARK Flexibility Score: inf
ROOT
ATOM      1  C   UNL     1      18.799  41.843  10.367  1.00  0.00     0.181 C 
ENDROOT
BRANCH   1   2
ATOM      2  C   UNL     1      17.830  40.767   9.791  1.00  0.00     0.171 C 
BRANCH   2   3
ATOM      3  C   UNL     1      16.380  41.282   9.737  1.00  0.00     0.190 C 
BRANCH   3   4
ATOM      4  O   UNL     1      15.478  40.210   9.750  1.00  0.00    -0.394 OA
ATOM      5  H   UNL     1      15.341  39.977  10.705  1.00  0.00     0.210 HD
ENDBRANCH   3   4
ENDBRANCH   2   3
BRANCH   2   6
ATOM      6  O   UNL     1      17.867  39.616  10.593  1.00  0.00    -0.388 OA
ATOM      7  H   UNL     1      18.105  38.856  10.001  1.00  0.00     0.211 HD
ENDBRANCH   2   6
ENDBRANCH   1   2
BRANCH   1   8
ATOM      8  C   UNL     1      19.479  41.464  11.722  1.00  0.00     0.214 C 
BRANCH   8   9
ATOM      9  C   UNL     1      20.246  42.608  12.366  1.00  0.00     0.189 C 
ATOM     10  O   UNL     1      21.168  42.352  13.125  1.00  0.00    -0.294 OA
BRANCH   9  11
ATOM     11  C   UNL     1      19.943  44.052  12.059  1.00  0.00     0.234 C 
BRANCH  11  12
ATOM     12  O   UNL     1      20.962  44.607  11.273  1.00  0.00    -0.388 OA
ATOM     13  H   UNL     1      21.523  43.850  10.960  1.00  0.00     0.211 HD
ENDBRANCH  11  12
ENDBRANCH   9  11
ENDBRANCH   8   9
BRANCH   8  14
ATOM     14  O   UNL     1      20.267  40.304  11.601  1.00  0.00    -0.382 OA
ATOM     15  H   UNL     1      21.202  40.577  11.424  1.00  0.00     0.211 HD
ENDBRANCH   8  14
ENDBRANCH   1   8
BRANCH   1  16
ATOM     16  O   UNL     1      19.783  42.184   9.421  1.00  0.00    -0.387 OA
ATOM     17  H   UNL     1      20.476  42.717   9.888  1.00  0.00     0.211 HD
ENDBRANCH   1  16
TORSDOF 10
ENDMDL
MODEL 4
REMARK VINA RESULT:    -0.551      1.216      4.615
REMARK INTER + INTRA:          -1.403
REMARK INTER:                  -1.531
REMARK INTRA:                   0.128
REMARK UNBOUND:                -0.610
REMARK SMILES O=C(CO)[C@H](O)[C@@H](O)[C@@H](O)CO
REMARK SMILES IDX 7 1 9 2 11 3 12 4 10 6 5 8 2 9 1 10 3 11 4 12 6 14 8 16
REMARK H PARENT 12 5 10 7 4 13 6 15 8 17
REMARK Flexibility Score: inf
ROOT
ATOM      1  C   UNL     1      18.851  40.888  10.310  1.00  0.00     0.181 C 
ENDROOT
BRANCH   1   2
ATOM      2  C   UNL     1      17.359  41.196   9.981  1.00  0.00     0.171 C 
BRANCH   2   3
ATOM      3  C   UNL     1      16.528  39.907   9.857  1.00  0.00     0.190 C 
BRANCH   3   4
ATOM      4  O   UNL     1      15.175  40.170  10.103  1.00  0.00    -0.394 OA
ATOM      5  H   UNL     1      14.710  40.063   9.233  1.00  0.00     0.210 HD
ENDBRANCH   3   4
ENDBRANCH   2   3
BRANCH   2   6
ATOM      6  O   UNL     1      17.276  41.902   8.771  1.00  0.00    -0.388 OA
ATOM      7  H   UNL     1      16.483  42.496   8.835  1.00  0.00     0.211 HD
ENDBRANCH   2   6
ENDBRANCH   1   2
BRANCH   1   8
ATOM      8  C   UNL     1      19.657  42.082  10.914  1.00  0.00     0.214 C 
BRANCH   8   9
ATOM      9  C   UNL     1      20.228  41.802  12.295  1.00  0.00     0.189 C 
ATOM     10  O   UNL     1      20.193  40.662  12.732  1.00  0.00    -0.294 OA
BRANCH   9  11
ATOM     11  C   UNL     1      20.886  42.874  13.124  1.00  0.00     0.234 C 
BRANCH  11  12
ATOM     12  O   UNL     1      21.000  44.060  12.386  1.00  0.00    -0.388 OA
ATOM     13  H   UNL     1      20.799  43.827  11.442  1.00  0.00     0.211 HD
ENDBRANCH  11  12
ENDBRANCH   9  11
ENDBRANCH   8   9
BRANCH   8  14
ATOM     14  O   UNL     1      18.915  43.278  10.884  1.00  0.00    -0.382 OA
ATOM     15  H   UNL     1      18.004  43.091  11.223  1.00  0.00     0.211 HD
ENDBRANCH   8  14
ENDBRANCH   1   8
BRANCH   1  16
ATOM     16  O   UNL     1      18.953  39.769  11.156  1.00  0.00    -0.387 OA
ATOM     17  H   UNL     1      19.912  39.643  11.373  1.00  0.00     0.211 HD
ENDBRANCH   1  16
TORSDOF 10
ENDMDL
MODEL 5
REMARK VINA RESULT:    -0.194      0.993      4.460
REMARK INTER + INTRA:          -0.890
REMARK INTER:                  -1.093
REMARK INTRA:                   0.203
REMARK UNBOUND:                -0.610
REMARK SMILES O=C(CO)[C@H](O)[C@@H](O)[C@@H](O)CO
REMARK SMILES IDX 7 1 9 2 11 3 12 4 10 6 5 8 2 9 1 10 3 11 4 12 6 14 8 16
REMARK H PARENT 12 5 10 7 4 13 6 15 8 17
REMARK Flexibility Score: inf
ROOT
ATOM      1  C   UNL     1      19.150  41.864  10.892  1.00  0.00     0.181 C 
ENDROOT
BRANCH   1   2
ATOM      2  C   UNL     1      18.995  40.399  10.386  1.00  0.00     0.171 C 
BRANCH   2   3
ATOM      3  C   UNL     1      17.535  40.078  10.019  1.00  0.00     0.190 C 
BRANCH   3   4
ATOM      4  O   UNL     1      16.955  41.150   9.330  1.00  0.00    -0.394 OA
ATOM      5  H   UNL     1      17.663  41.512   8.736  1.00  0.00     0.210 HD
ENDBRANCH   3   4
ENDBRANCH   2   3
BRANCH   2   6
ATOM      6  O   UNL     1      19.413  39.504  11.384  1.00  0.00    -0.388 OA
ATOM      7  H   UNL     1      20.003  40.011  12.000  1.00  0.00     0.211 HD
ENDBRANCH   2   6
ENDBRANCH   1   2
BRANCH   1   8
ATOM      8  C   UNL     1      19.814  42.012  12.300  1.00  0.00     0.214 C 
BRANCH   8   9
ATOM      9  C   UNL     1      20.871  43.101  12.369  1.00  0.00     0.189 C 
ATOM     10  O   UNL     1      22.024  42.829  12.069  1.00  0.00    -0.294 OA
BRANCH   9  11
ATOM     11  C   UNL     1      20.539  44.521  12.745  1.00  0.00     0.234 C 
BRANCH  11  12
ATOM     12  O   UNL     1      19.767  45.123  11.742  1.00  0.00    -0.388 OA
ATOM     13  H   UNL     1      20.404  45.551  11.112  1.00  0.00     0.211 HD
ENDBRANCH  11  12
ENDBRANCH   9  11
ENDBRANCH   8   9
BRANCH   8  14
ATOM     14  O   UNL     1      20.294  40.779  12.779  1.00  0.00    -0.382 OA
ATOM     15  H   UNL     1      19.705  40.477  13.514  1.00  0.00     0.211 HD
ENDBRANCH   8  14
ENDBRANCH   1   8
BRANCH   1  16
ATOM     16  O   UNL     1      19.850  42.644   9.954  1.00  0.00    -0.387 OA
ATOM     17  H   UNL     1      19.194  43.242   9.512  1.00  0.00     0.211 HD
ENDBRANCH   1  16
TORSDOF 10
ENDMDL
MODEL 6
REMARK VINA RESULT:    -0.006      1.013      1.669
REMARK INTER + INTRA:          -0.619
REMARK INTER:                  -0.306
REMARK INTRA:                  -0.313
REMARK UNBOUND:                -0.610
REMARK SMILES O=C(CO)[C@H](O)[C@@H](O)[C@@H](O)CO
REMARK SMILES IDX 7 1 9 2 11 3 12 4 10 6 5 8 2 9 1 10 3 11 4 12 6 14 8 16
REMARK H PARENT 12 5 10 7 4 13 6 15 8 17
REMARK Flexibility Score: inf
ROOT
ATOM      1  C   UNL     1      19.635  41.983  12.371  1.00  0.00     0.181 C 
ENDROOT
BRANCH   1   2
ATOM      2  C   UNL     1      20.556  43.116  12.915  1.00  0.00     0.171 C 
BRANCH   2   3
ATOM      3  C   UNL     1      20.016  44.510  12.547  1.00  0.00     0.190 C 
BRANCH   3   4
ATOM      4  O   UNL     1      20.796  45.088  11.538  1.00  0.00    -0.394 OA
ATOM      5  H   UNL     1      21.650  45.355  11.968  1.00  0.00     0.210 HD
ENDBRANCH   3   4
ENDBRANCH   2   3
BRANCH   2   6
ATOM      6  O   UNL     1      21.846  42.979  12.378  1.00  0.00    -0.388 OA
ATOM      7  H   UNL     1      21.801  43.277  11.432  1.00  0.00     0.211 HD
ENDBRANCH   2   6
ENDBRANCH   1   2
BRANCH   1   8
ATOM      8  C   UNL     1      19.129  42.186  10.907  1.00  0.00     0.214 C 
BRANCH   8   9
ATOM      9  C   UNL     1      18.286  41.035  10.382  1.00  0.00     0.189 C 
ATOM     10  O   UNL     1      17.160  41.265   9.966  1.00  0.00    -0.294 OA
BRANCH   9  11
ATOM     11  C   UNL     1      18.810  39.625  10.307  1.00  0.00     0.234 C 
BRANCH  11  12
ATOM     12  O   UNL     1      20.181  39.629  10.015  1.00  0.00    -0.388 OA
ATOM     13  H   UNL     1      20.644  39.288  10.825  1.00  0.00     0.211 HD
ENDBRANCH  11  12
ENDBRANCH   9  11
ENDBRANCH   8   9
BRANCH   8  14
ATOM     14  O   UNL     1      20.185  42.506  10.032  1.00  0.00    -0.382 OA
ATOM     15  H   UNL     1      19.972  42.142   9.137  1.00  0.00     0.211 HD
ENDBRANCH   8  14
ENDBRANCH   1   8
BRANCH   1  16
ATOM     16  O   UNL     1      20.266  40.731  12.486  1.00  0.00    -0.387 OA
ATOM     17  H   UNL     1      19.865  40.129  11.807  1.00  0.00     0.211 HD
ENDBRANCH   1  16
TORSDOF 10
ENDMDL
MODEL 7
REMARK VINA RESULT:     1.041      1.216      4.826
REMARK INTER + INTRA:           0.887
REMARK INTER:                   1.092
REMARK INTRA:                  -0.204
REMARK UNBOUND:                -0.610
REMARK SMILES O=C(CO)[C@H](O)[C@@H](O)[C@@H](O)CO
REMARK SMILES IDX 7 1 9 2 11 3 12 4 10 6 5 8 2 9 1 10 3 11 4 12 6 14 8 16
REMARK H PARENT 12 5 10 7 4 13 6 15 8 17
REMARK Flexibility Score: inf
ROOT
ATOM      1  C   UNL     1      17.928  40.547   9.983  1.00  0.00     0.181 C 
ENDROOT
BRANCH   1   2
ATOM      2  C   UNL     1      16.547  41.265  10.048  1.00  0.00     0.171 C 
BRANCH   2   3
ATOM      3  C   UNL     1      15.382  40.262   9.980  1.00  0.00     0.190 C 
BRANCH   3   4
ATOM      4  O   UNL     1      14.242  40.790  10.598  1.00  0.00    -0.394 OA
ATOM      5  H   UNL     1      14.350  40.619  11.569  1.00  0.00     0.210 HD
ENDBRANCH   3   4
ENDBRANCH   2   3
BRANCH   2   6
ATOM      6  O   UNL     1      16.428  42.164   8.976  1.00  0.00    -0.388 OA
ATOM      7  H   UNL     1      17.026  42.931   9.172  1.00  0.00     0.211 HD
ENDBRANCH   2   6
ENDBRANCH   1   2
BRANCH   1   8
ATOM      8  C   UNL     1      18.851  40.772  11.223  1.00  0.00     0.214 C 
BRANCH   8   9
ATOM      9  C   UNL     1      19.508  42.143  11.260  1.00  0.00     0.189 C 
ATOM     10  O   UNL     1      19.741  42.718  10.207  1.00  0.00    -0.294 OA
BRANCH   9  11
ATOM     11  C   UNL     1      19.834  42.843  12.553  1.00  0.00     0.234 C 
BRANCH  11  12
ATOM     12  O   UNL     1      21.222  42.929  12.725  1.00  0.00    -0.388 OA
ATOM     13  H   UNL     1      21.422  42.537  13.614  1.00  0.00     0.211 HD
ENDBRANCH  11  12
ENDBRANCH   9  11
ENDBRANCH   8   9
BRANCH   8  14
ATOM     14  O   UNL     1      19.791  39.734  11.366  1.00  0.00    -0.382 OA
ATOM     15  H   UNL     1      20.369  39.939  12.143  1.00  0.00     0.211 HD
ENDBRANCH   8  14
ENDBRANCH   1   8
BRANCH   1  16
ATOM     16  O   UNL     1      17.762  39.168   9.760  1.00  0.00    -0.387 OA
ATOM     17  H   UNL     1      18.233  38.687  10.488  1.00  0.00     0.211 HD
ENDBRANCH   1  16
TORSDOF 10
ENDMDL
