MODEL 1
REMARK VINA RESULT:     5.761      0.000      0.000
REMARK INTER + INTRA:           7.638
REMARK INTER:                   8.287
REMARK INTRA:                  -0.649
REMARK UNBOUND:                -0.649
REMARK SMILES CC(C)=CCCC(C)=CCCC(C)=CCO
REMARK SMILES IDX 10 1 9 2 7 3 8 4 6 5 5 6 4 7 1 8 2 9 3 10 11 11 12 12 14 13
REMARK SMILES IDX 13 14 15 15 16 16
REMARK H PARENT 16 17
REMARK Flexibility Score: inf
ROOT
ATOM      1  C   UNL     1      40.566  -0.251 -15.307  1.00  0.00     0.032 C 
ENDROOT
BRANCH   1   2
ATOM      2  C   UNL     1      39.950  -0.874 -14.080  1.00  0.00    -0.028 C 
ATOM      3  C   UNL     1      40.633  -1.582 -13.150  1.00  0.00    -0.077 C 
ATOM      4  C   UNL     1      42.126  -1.794 -13.242  1.00  0.00     0.039 C 
BRANCH   3   5
ATOM      5  C   UNL     1      39.881  -2.149 -11.965  1.00  0.00     0.034 C 
BRANCH   5   6
ATOM      6  C   UNL     1      40.852  -2.769 -10.953  1.00  0.00     0.032 C 
BRANCH   6   7
ATOM      7  C   UNL     1      40.272  -2.742  -9.562  1.00  0.00    -0.028 C 
ATOM      8  C   UNL     1      41.449  -0.621  -8.934  1.00  0.00     0.039 C 
ATOM      9  C   UNL     1      40.544  -1.795  -8.637  1.00  0.00    -0.080 C 
ATOM     10  C   UNL     1      39.903  -1.912  -7.278  1.00  0.00     0.039 C 
ENDBRANCH   6   7
ENDBRANCH   5   6
ENDBRANCH   3   5
ENDBRANCH   1   2
BRANCH   1  11
ATOM     11  C   UNL     1      40.832   1.243 -15.096  1.00  0.00     0.034 C 
BRANCH  11  12
ATOM     12  C   UNL     1      40.627   2.008 -16.387  1.00  0.00    -0.075 C 
ATOM     13  C   UNL     1      41.153   3.232 -16.605  1.00  0.00    -0.000 C 
ATOM     14  C   UNL     1      39.878   1.341 -17.511  1.00  0.00     0.039 C 
BRANCH  13  15
ATOM     15  C   UNL     1      41.950   4.004 -15.588  1.00  0.00     0.183 C 
BRANCH  15  16
ATOM     16  O   UNL     1      43.057   4.600 -16.207  1.00  0.00    -0.392 OA
ATOM     17  H   UNL     1      43.155   4.150 -17.085  1.00  0.00     0.210 HD
ENDBRANCH  15  16
ENDBRANCH  13  15
ENDBRANCH  11  12
ENDBRANCH   1  11
TORSDOF 8
ENDMDL
MODEL 2
REMARK VINA RESULT:     5.795      4.699      7.418
REMARK INTER + INTRA:           7.686
REMARK INTER:                   7.770
REMARK INTRA:                  -0.084
REMARK UNBOUND:                -0.649
REMARK SMILES CC(C)=CCCC(C)=CCCC(C)=CCO
REMARK SMILES IDX 10 1 9 2 7 3 8 4 6 5 5 6 4 7 1 8 2 9 3 10 11 11 12 12 14 13
REMARK SMILES IDX 13 14 15 15 16 16
REMARK H PARENT 16 17
REMARK Flexibility Score: inf
ROOT
ATOM      1  C   UNL     1      43.952   1.329 -20.255  1.00  0.00     0.032 C 
ENDROOT
BRANCH   1   2
ATOM      2  C   UNL     1      42.503   1.118 -19.897  1.00  0.00    -0.028 C 
ATOM      3  C   UNL     1      41.663   2.092 -19.477  1.00  0.00    -0.077 C 
ATOM      4  C   UNL     1      42.105   3.532 -19.353  1.00  0.00     0.039 C 
BRANCH   3   5
ATOM      5  C   UNL     1      40.228   1.733 -19.154  1.00  0.00     0.034 C 
BRANCH   5   6
ATOM      6  C   UNL     1      40.160   0.836 -17.913  1.00  0.00     0.032 C 
BRANCH   6   7
ATOM      7  C   UNL     1      40.005   1.659 -16.659  1.00  0.00    -0.028 C 
ATOM      8  C   UNL     1      40.354  -0.298 -15.134  1.00  0.00     0.039 C 
ATOM      9  C   UNL     1      40.071   1.162 -15.404  1.00  0.00    -0.080 C 
ATOM     10  C   UNL     1      39.875   2.107 -14.246  1.00  0.00     0.039 C 
ENDBRANCH   6   7
ENDBRANCH   5   6
ENDBRANCH   3   5
ENDBRANCH   1   2
BRANCH   1  11
ATOM     11  C   UNL     1      44.256   0.811 -21.665  1.00  0.00     0.034 C 
BRANCH  11  12
ATOM     12  C   UNL     1      45.636   0.190 -21.717  1.00  0.00    -0.075 C 
ATOM     13  C   UNL     1      46.752   0.853 -21.342  1.00  0.00    -0.000 C 
ATOM     14  C   UNL     1      45.765  -1.255 -22.121  1.00  0.00     0.039 C 
BRANCH  13  15
ATOM     15  C   UNL     1      46.772   2.286 -20.886  1.00  0.00     0.183 C 
BRANCH  15  16
ATOM     16  O   UNL     1      46.987   2.340 -19.502  1.00  0.00    -0.392 OA
ATOM     17  H   UNL     1      46.131   2.644 -19.104  1.00  0.00     0.210 HD
ENDBRANCH  15  16
ENDBRANCH  13  15
ENDBRANCH  11  12
ENDBRANCH   1  11
TORSDOF 8
ENDMDL
MODEL 3
REMARK VINA RESULT:     7.185      5.567      7.943
REMARK INTER + INTRA:           9.687
REMARK INTER:                  10.101
REMARK INTRA:                  -0.414
REMARK UNBOUND:                -0.649
REMARK SMILES CC(C)=CCCC(C)=CCCC(C)=CCO
REMARK SMILES IDX 10 1 9 2 7 3 8 4 6 5 5 6 4 7 1 8 2 9 3 10 11 11 12 12 14 13
REMARK SMILES IDX 13 14 15 15 16 16
REMARK H PARENT 16 17
REMARK Flexibility Score: inf
ROOT
ATOM      1  C   UNL     1      43.613   5.485 -15.761  1.00  0.00     0.032 C 
ENDROOT
BRANCH   1   2
ATOM      2  C   UNL     1      42.661   4.379 -15.384  1.00  0.00    -0.028 C 
ATOM      3  C   UNL     1      41.998   3.598 -16.269  1.00  0.00    -0.077 C 
ATOM      4  C   UNL     1      42.179   3.747 -17.762  1.00  0.00     0.039 C 
BRANCH   3   5
ATOM      5  C   UNL     1      41.073   2.520 -15.745  1.00  0.00     0.034 C 
BRANCH   5   6
ATOM      6  C   UNL     1      39.904   2.292 -16.710  1.00  0.00     0.032 C 
BRANCH   6   7
ATOM      7  C   UNL     1      40.122   1.053 -17.540  1.00  0.00    -0.028 C 
ATOM      8  C   UNL     1      39.875   2.268 -19.717  1.00  0.00     0.039 C 
ATOM      9  C   UNL     1      40.095   1.021 -18.891  1.00  0.00    -0.080 C 
ATOM     10  C   UNL     1      40.310  -0.300 -19.584  1.00  0.00     0.039 C 
ENDBRANCH   6   7
ENDBRANCH   5   6
ENDBRANCH   3   5
ENDBRANCH   1   2
BRANCH   1  11
ATOM     11  C   UNL     1      44.194   6.164 -14.517  1.00  0.00     0.034 C 
BRANCH  11  12
ATOM     12  C   UNL     1      43.790   7.623 -14.469  1.00  0.00    -0.075 C 
ATOM     13  C   UNL     1      44.649   8.611 -14.135  1.00  0.00    -0.000 C 
ATOM     14  C   UNL     1      42.396   8.003 -14.896  1.00  0.00     0.039 C 
BRANCH  13  15
ATOM     15  C   UNL     1      46.078   8.385 -13.720  1.00  0.00     0.183 C 
BRANCH  15  16
ATOM     16  O   UNL     1      46.418   9.272 -12.690  1.00  0.00    -0.392 OA
ATOM     17  H   UNL     1      46.467  10.170 -13.108  1.00  0.00     0.210 HD
ENDBRANCH  15  16
ENDBRANCH  13  15
ENDBRANCH  11  12
ENDBRANCH   1  11
TORSDOF 8
ENDMDL
MODEL 4
REMARK VINA RESULT:     7.647      4.765      7.672
REMARK INTER + INTRA:          10.351
REMARK INTER:                   8.834
REMARK INTRA:                   1.518
REMARK UNBOUND:                -0.649
REMARK SMILES CC(C)=CCCC(C)=CCCC(C)=CCO
REMARK SMILES IDX 10 1 9 2 7 3 8 4 6 5 5 6 4 7 1 8 2 9 3 10 11 11 12 12 14 13
REMARK SMILES IDX 13 14 15 15 16 16
REMARK H PARENT 16 17
REMARK Flexibility Score: inf
ROOT
ATOM      1  C   UNL     1      41.278   2.684 -19.336  1.00  0.00     0.032 C 
ENDROOT
BRANCH   1   2
ATOM      2  C   UNL     1      42.381   3.447 -18.648  1.00  0.00    -0.028 C 
ATOM      3  C   UNL     1      42.419   3.719 -17.322  1.00  0.00    -0.077 C 
ATOM      4  C   UNL     1      41.343   3.240 -16.375  1.00  0.00     0.039 C 
BRANCH   3   5
ATOM      5  C   UNL     1      43.594   4.496 -16.768  1.00  0.00     0.034 C 
BRANCH   5   6
ATOM      6  C   UNL     1      43.199   5.234 -15.483  1.00  0.00     0.032 C 
BRANCH   6   7
ATOM      7  C   UNL     1      44.345   6.064 -14.964  1.00  0.00    -0.028 C 
ATOM      8  C   UNL     1      42.910   8.074 -14.539  1.00  0.00     0.039 C 
ATOM      9  C   UNL     1      44.236   7.347 -14.553  1.00  0.00    -0.080 C 
ATOM     10  C   UNL     1      45.477   8.057 -14.077  1.00  0.00     0.039 C 
ENDBRANCH   6   7
ENDBRANCH   5   6
ENDBRANCH   3   5
ENDBRANCH   1   2
BRANCH   1  11
ATOM     11  C   UNL     1      40.202   2.245 -18.337  1.00  0.00     0.034 C 
BRANCH  11  12
ATOM     12  C   UNL     1      40.114   0.733 -18.280  1.00  0.00    -0.075 C 
ATOM     13  C   UNL     1      39.944   0.052 -17.127  1.00  0.00    -0.000 C 
ATOM     14  C   UNL     1      40.131  -0.041 -19.572  1.00  0.00     0.039 C 
BRANCH  13  15
ATOM     15  C   UNL     1      39.877   0.694 -15.767  1.00  0.00     0.183 C 
BRANCH  15  16
ATOM     16  O   UNL     1      41.024   0.369 -15.032  1.00  0.00    -0.392 OA
ATOM     17  H   UNL     1      41.438  -0.404 -15.498  1.00  0.00     0.210 HD
ENDBRANCH  15  16
ENDBRANCH  13  15
ENDBRANCH  11  12
ENDBRANCH   1  11
TORSDOF 8
ENDMDL
MODEL 5
REMARK VINA RESULT:     7.844      1.837      2.894
REMARK INTER + INTRA:          10.634
REMARK INTER:                  10.753
REMARK INTRA:                  -0.119
REMARK UNBOUND:                -0.649
REMARK SMILES CC(C)=CCCC(C)=CCCC(C)=CCO
REMARK SMILES IDX 10 1 9 2 7 3 8 4 6 5 5 6 4 7 1 8 2 9 3 10 11 11 12 12 14 13
REMARK SMILES IDX 13 14 15 15 16 16
REMARK H PARENT 16 17
REMARK Flexibility Score: inf
ROOT
ATOM      1  C   UNL     1      41.359   2.227 -16.087  1.00  0.00     0.032 C 
ENDROOT
BRANCH   1   2
ATOM      2  C   UNL     1      40.471   1.241 -15.371  1.00  0.00    -0.028 C 
ATOM      3  C   UNL     1      40.883   0.051 -14.875  1.00  0.00    -0.077 C 
ATOM      4  C   UNL     1      42.322  -0.400 -14.968  1.00  0.00     0.039 C 
BRANCH   3   5
ATOM      5  C   UNL     1      39.877  -0.838 -14.176  1.00  0.00     0.034 C 
BRANCH   5   6
ATOM      6  C   UNL     1      40.549  -2.115 -13.659  1.00  0.00     0.032 C 
BRANCH   6   7
ATOM      7  C   UNL     1      39.979  -2.523 -12.324  1.00  0.00    -0.028 C 
ATOM      8  C   UNL     1      41.932  -1.628 -11.033  1.00  0.00     0.039 C 
ATOM      9  C   UNL     1      40.596  -2.328 -11.137  1.00  0.00    -0.080 C 
ATOM     10  C   UNL     1      39.911  -2.809  -9.883  1.00  0.00     0.039 C 
ENDBRANCH   6   7
ENDBRANCH   5   6
ENDBRANCH   3   5
ENDBRANCH   1   2
BRANCH   1  11
ATOM     11  C   UNL     1      40.620   2.895 -17.251  1.00  0.00     0.034 C 
BRANCH  11  12
ATOM     12  C   UNL     1      40.449   1.923 -18.400  1.00  0.00    -0.075 C 
ATOM     13  C   UNL     1      40.848   2.200 -19.660  1.00  0.00    -0.000 C 
ATOM     14  C   UNL     1      39.890   0.554 -18.112  1.00  0.00     0.039 C 
BRANCH  13  15
ATOM     15  C   UNL     1      41.452   3.510 -20.087  1.00  0.00     0.183 C 
BRANCH  15  16
ATOM     16  O   UNL     1      40.437   4.446 -20.325  1.00  0.00    -0.392 OA
ATOM     17  H   UNL     1      40.868   5.202 -20.801  1.00  0.00     0.210 HD
ENDBRANCH  15  16
ENDBRANCH  13  15
ENDBRANCH  11  12
ENDBRANCH   1  11
TORSDOF 8
ENDMDL
