MODEL 1
REMARK VINA RESULT:    -2.472      0.000      0.000
REMARK INTER + INTRA:          -2.800
REMARK INTER:                  -2.761
REMARK INTRA:                  -0.038
REMARK UNBOUND:                -0.038
REMARK SMILES CCCC(=O)[O-]
REMARK SMILES IDX 3 1 4 2 5 3 6 4 2 5 1 6
REMARK H PARENT
REMARK Flexibility Score: inf
ROOT
ATOM      1  C   UNL     1       2.415  13.941   9.159  1.00  0.00     0.052 C 
ENDROOT
BRANCH   1   2
ATOM      2  C   UNL     1       2.919  13.536   7.808  1.00  0.00     0.041 C 
ATOM      3  O   UNL     1       3.932  12.796   7.706  1.00  0.00    -0.550 OA
ATOM      4  O   UNL     1       2.250  13.949   6.662  1.00  0.00    -0.550 OA
ENDBRANCH   1   2
BRANCH   1   5
ATOM      5  C   UNL     1       1.075  14.682   9.068  1.00  0.00     0.003 C 
ATOM      6  C   UNL     1       1.215  16.175   9.365  1.00  0.00     0.004 C 
ENDBRANCH   1   5
TORSDOF 2
ENDMDL
MODEL 2
REMARK VINA RESULT:    -2.464      1.032      1.253
REMARK INTER + INTRA:          -2.790
REMARK INTER:                  -2.765
REMARK INTRA:                  -0.025
REMARK UNBOUND:                -0.038
REMARK SMILES CCCC(=O)[O-]
REMARK SMILES IDX 3 1 4 2 5 3 6 4 2 5 1 6
REMARK H PARENT
REMARK Flexibility Score: inf
ROOT
ATOM      1  C   UNL     1       1.878  14.816   9.900  1.00  0.00     0.052 C 
ENDROOT
BRANCH   1   2
ATOM      2  C   UNL     1       2.497  13.952   8.845  1.00  0.00     0.041 C 
ATOM      3  O   UNL     1       3.321  13.055   9.165  1.00  0.00    -0.550 OA
ATOM      4  O   UNL     1       2.138  14.114   7.513  1.00  0.00    -0.550 OA
ENDBRANCH   1   2
BRANCH   1   5
ATOM      5  C   UNL     1       1.003  15.919   9.292  1.00  0.00     0.003 C 
ATOM      6  C   UNL     1       1.456  17.318   9.708  1.00  0.00     0.004 C 
ENDBRANCH   1   5
TORSDOF 2
ENDMDL
MODEL 3
REMARK VINA RESULT:    -2.423      2.381      3.438
REMARK INTER + INTRA:          -2.745
REMARK INTER:                  -2.701
REMARK INTRA:                  -0.043
REMARK UNBOUND:                -0.038
REMARK SMILES CCCC(=O)[O-]
REMARK SMILES IDX 3 1 4 2 5 3 6 4 2 5 1 6
REMARK H PARENT
REMARK Flexibility Score: inf
ROOT
ATOM      1  C   UNL     1       1.303  14.000   8.563  1.00  0.00     0.052 C 
ENDROOT
BRANCH   1   2
ATOM      2  C   UNL     1       1.499  15.160   9.488  1.00  0.00     0.041 C 
ATOM      3  O   UNL     1       0.985  16.278   9.219  1.00  0.00    -0.550 OA
ATOM      4  O   UNL     1       2.221  15.001  10.664  1.00  0.00    -0.550 OA
ENDBRANCH   1   2
BRANCH   1   5
ATOM      5  C   UNL     1       2.354  13.977   7.446  1.00  0.00     0.003 C 
ATOM      6  C   UNL     1       3.613  13.207   7.846  1.00  0.00     0.004 C 
ENDBRANCH   1   5
TORSDOF 2
ENDMDL
MODEL 4
REMARK VINA RESULT:    -2.410      4.994      5.230
REMARK INTER + INTRA:          -2.730
REMARK INTER:                  -2.699
REMARK INTRA:                  -0.030
REMARK UNBOUND:                -0.038
REMARK SMILES CCCC(=O)[O-]
REMARK SMILES IDX 3 1 4 2 5 3 6 4 2 5 1 6
REMARK H PARENT
REMARK Flexibility Score: inf
ROOT
ATOM      1  C   UNL     1       5.827  13.886  11.054  1.00  0.00     0.052 C 
ENDROOT
BRANCH   1   2
ATOM      2  C   UNL     1       6.727  12.754  11.444  1.00  0.00     0.041 C 
ATOM      3  O   UNL     1       7.912  12.714  11.021  1.00  0.00    -0.550 OA
ATOM      4  O   UNL     1       6.268  11.761  12.300  1.00  0.00    -0.550 OA
ENDBRANCH   1   2
BRANCH   1   5
ATOM      5  C   UNL     1       4.472  13.808  11.769  1.00  0.00     0.003 C 
ATOM      6  C   UNL     1       4.223  15.010  12.679  1.00  0.00     0.004 C 
ENDBRANCH   1   5
TORSDOF 2
ENDMDL
MODEL 5
REMARK VINA RESULT:    -2.386      4.834      5.153
REMARK INTER + INTRA:          -2.703
REMARK INTER:                  -2.684
REMARK INTRA:                  -0.019
REMARK UNBOUND:                -0.038
REMARK SMILES CCCC(=O)[O-]
REMARK SMILES IDX 3 1 4 2 5 3 6 4 2 5 1 6
REMARK H PARENT
REMARK Flexibility Score: inf
ROOT
ATOM      1  C   UNL     1       5.804  13.866  11.067  1.00  0.00     0.052 C 
ENDROOT
BRANCH   1   2
ATOM      2  C   UNL     1       6.654  12.653  11.284  1.00  0.00     0.041 C 
ATOM      3  O   UNL     1       6.137  11.585  11.706  1.00  0.00    -0.550 OA
ATOM      4  O   UNL     1       8.011  12.690  10.990  1.00  0.00    -0.550 OA
ENDBRANCH   1   2
BRANCH   1   5
ATOM      5  C   UNL     1       4.480  13.779  11.837  1.00  0.00     0.003 C 
ATOM      6  C   UNL     1       4.223  15.017  12.695  1.00  0.00     0.004 C 
ENDBRANCH   1   5
TORSDOF 2
ENDMDL
MODEL 6
REMARK VINA RESULT:    -2.360     14.747     15.382
REMARK INTER + INTRA:          -2.675
REMARK INTER:                  -2.647
REMARK INTRA:                  -0.027
REMARK UNBOUND:                -0.038
REMARK SMILES CCCC(=O)[O-]
REMARK SMILES IDX 3 1 4 2 5 3 6 4 2 5 1 6
REMARK H PARENT
REMARK Flexibility Score: inf
ROOT
ATOM      1  C   UNL     1       5.863  12.239  23.512  1.00  0.00     0.052 C 
ENDROOT
BRANCH   1   2
ATOM      2  C   UNL     1       5.682  12.011  22.044  1.00  0.00     0.041 C 
ATOM      3  O   UNL     1       6.536  11.349  21.396  1.00  0.00    -0.550 OA
ATOM      4  O   UNL     1       4.554  12.499  21.396  1.00  0.00    -0.550 OA
ENDBRANCH   1   2
BRANCH   1   5
ATOM      5  C   UNL     1       7.339  12.434  23.880  1.00  0.00     0.003 C 
ATOM      6  C   UNL     1       7.926  11.220  24.599  1.00  0.00     0.004 C 
ENDBRANCH   1   5
TORSDOF 2
ENDMDL
MODEL 7
REMARK VINA RESULT:    -2.357      3.328      4.037
REMARK INTER + INTRA:          -2.671
REMARK INTER:                  -2.631
REMARK INTRA:                  -0.040
REMARK UNBOUND:                -0.038
REMARK SMILES CCCC(=O)[O-]
REMARK SMILES IDX 3 1 4 2 5 3 6 4 2 5 1 6
REMARK H PARENT
REMARK Flexibility Score: inf
ROOT
ATOM      1  C   UNL     1       5.510  13.730  10.992  1.00  0.00     0.052 C 
ENDROOT
BRANCH   1   2
ATOM      2  C   UNL     1       4.596  12.903  10.142  1.00  0.00     0.041 C 
ATOM      3  O   UNL     1       3.740  13.460   9.405  1.00  0.00    -0.550 OA
ATOM      4  O   UNL     1       4.710  11.519  10.139  1.00  0.00    -0.550 OA
ENDBRANCH   1   2
BRANCH   1   5
ATOM      5  C   UNL     1       5.025  13.803  12.446  1.00  0.00     0.003 C 
ATOM      6  C   UNL     1       4.124  15.010  12.700  1.00  0.00     0.004 C 
ENDBRANCH   1   5
TORSDOF 2
ENDMDL
MODEL 8
REMARK VINA RESULT:    -2.338      4.457      5.157
REMARK INTER + INTRA:          -2.649
REMARK INTER:                  -2.611
REMARK INTRA:                  -0.038
REMARK UNBOUND:                -0.038
REMARK SMILES CCCC(=O)[O-]
REMARK SMILES IDX 3 1 4 2 5 3 6 4 2 5 1 6
REMARK H PARENT
REMARK Flexibility Score: inf
ROOT
ATOM      1  C   UNL     1       6.493  12.764  11.861  1.00  0.00     0.052 C 
ENDROOT
BRANCH   1   2
ATOM      2  C   UNL     1       6.264  11.438  11.204  1.00  0.00     0.041 C 
ATOM      3  O   UNL     1       7.129  10.528  11.297  1.00  0.00    -0.550 OA
ATOM      4  O   UNL     1       5.082  11.195  10.516  1.00  0.00    -0.550 OA
ENDBRANCH   1   2
BRANCH   1   5
ATOM      5  C   UNL     1       5.666  13.876  11.204  1.00  0.00     0.003 C 
ATOM      6  C   UNL     1       4.588  14.429  12.135  1.00  0.00     0.004 C 
ENDBRANCH   1   5
TORSDOF 2
ENDMDL
MODEL 9
REMARK VINA RESULT:    -2.337      2.423      2.972
REMARK INTER + INTRA:          -2.649
REMARK INTER:                  -2.638
REMARK INTRA:                  -0.011
REMARK UNBOUND:                -0.038
REMARK SMILES CCCC(=O)[O-]
REMARK SMILES IDX 3 1 4 2 5 3 6 4 2 5 1 6
REMARK H PARENT
REMARK Flexibility Score: inf
ROOT
ATOM      1  C   UNL     1       2.609  14.072  10.304  1.00  0.00     0.052 C 
ENDROOT
BRANCH   1   2
ATOM      2  C   UNL     1       1.823  14.657   9.172  1.00  0.00     0.041 C 
ATOM      3  O   UNL     1       0.936  15.522   9.399  1.00  0.00    -0.550 OA
ATOM      4  O   UNL     1       2.091  14.274   7.864  1.00  0.00    -0.550 OA
ENDBRANCH   1   2
BRANCH   1   5
ATOM      5  C   UNL     1       2.620  14.996  11.528  1.00  0.00     0.003 C 
ATOM      6  C   UNL     1       3.894  14.846  12.359  1.00  0.00     0.004 C 
ENDBRANCH   1   5
TORSDOF 2
ENDMDL
