MODEL 1
REMARK VINA RESULT:    -4.600      0.000      0.000
REMARK INTER + INTRA:          -4.600
REMARK INTER:                  -4.600
REMARK INTRA:                   0.000
REMARK UNBOUND:                 0.000
REMARK SMILES O=c1ccc2ccc3occc3c2o1
REMARK SMILES IDX 6 1 7 2 8 3 12 4 11 5 10 6 9 7 13 8 5 9 4 10 3 11 2 12 1 13
REMARK SMILES IDX 14 14
REMARK H PARENT
REMARK Flexibility Score: inf
ROOT
ATOM      1  C   UNL     1      43.456  20.371  -4.340  1.00  0.00     0.016 A 
ATOM      2  C   UNL     1      42.683  21.234  -3.539  1.00  0.00     0.048 A 
ATOM      3  C   UNL     1      42.206  20.750  -2.322  1.00  0.00     0.137 A 
ATOM      4  C   UNL     1      42.469  19.475  -1.899  1.00  0.00     0.064 A 
ATOM      5  C   UNL     1      41.858  19.326  -0.674  1.00  0.00     0.054 A 
ATOM      6  C   UNL     1      41.250  20.554  -0.436  1.00  0.00     0.196 A 
ATOM      7  O   UNL     1      41.477  21.385  -1.438  1.00  0.00    -0.464 OA
ATOM      8  C   UNL     1      43.229  18.590  -2.661  1.00  0.00     0.149 A 
ATOM      9  C   UNL     1      43.730  19.051  -3.905  1.00  0.00     0.018 A 
ATOM     10  C   UNL     1      44.494  18.168  -4.675  1.00  0.00     0.019 A 
ATOM     11  C   UNL     1      44.734  16.878  -4.201  1.00  0.00     0.094 A 
ATOM     12  C   UNL     1      44.204  16.497  -2.961  1.00  0.00     0.336 A 
ATOM     13  O   UNL     1      44.413  15.336  -2.519  1.00  0.00    -0.246 OA
ATOM     14  O   UNL     1      43.480  17.353  -2.244  1.00  0.00    -0.422 OA
ENDROOT
TORSDOF 0
ENDMDL
MODEL 2
REMARK VINA RESULT:    -4.481      6.522      8.167
REMARK INTER + INTRA:          -4.481
REMARK INTER:                  -4.481
REMARK INTRA:                   0.000
REMARK UNBOUND:                 0.000
REMARK SMILES O=c1ccc2ccc3occc3c2o1
REMARK SMILES IDX 6 1 7 2 8 3 12 4 11 5 10 6 9 7 13 8 5 9 4 10 3 11 2 12 1 13
REMARK SMILES IDX 14 14
REMARK H PARENT
REMARK Flexibility Score: inf
ROOT
ATOM      1  C   UNL     1      47.460  16.154  -4.237  1.00  0.00     0.016 A 
ATOM      2  C   UNL     1      48.395  16.777  -5.086  1.00  0.00     0.048 A 
ATOM      3  C   UNL     1      49.626  16.150  -5.278  1.00  0.00     0.137 A 
ATOM      4  C   UNL     1      49.936  14.964  -4.669  1.00  0.00     0.064 A 
ATOM      5  C   UNL     1      51.210  14.631  -5.069  1.00  0.00     0.054 A 
ATOM      6  C   UNL     1      51.592  15.665  -5.916  1.00  0.00     0.196 A 
ATOM      7  O   UNL     1      50.624  16.558  -6.022  1.00  0.00    -0.464 OA
ATOM      8  C   UNL     1      49.039  14.317  -3.822  1.00  0.00     0.149 A 
ATOM      9  C   UNL     1      47.777  14.927  -3.604  1.00  0.00     0.018 A 
ATOM     10  C   UNL     1      46.872  14.283  -2.755  1.00  0.00     0.019 A 
ATOM     11  C   UNL     1      47.235  13.076  -2.156  1.00  0.00     0.094 A 
ATOM     12  C   UNL     1      48.501  12.536  -2.421  1.00  0.00     0.336 A 
ATOM     13  O   UNL     1      48.842  11.447  -1.889  1.00  0.00    -0.246 OA
ATOM     14  O   UNL     1      49.347  13.166  -3.232  1.00  0.00    -0.422 OA
ENDROOT
TORSDOF 0
ENDMDL
MODEL 3
REMARK VINA RESULT:    -4.462      1.152      4.291
REMARK INTER + INTRA:          -4.462
REMARK INTER:                  -4.462
REMARK INTRA:                   0.000
REMARK UNBOUND:                 0.000
REMARK SMILES O=c1ccc2ccc3occc3c2o1
REMARK SMILES IDX 6 1 7 2 8 3 12 4 11 5 10 6 9 7 13 8 5 9 4 10 3 11 2 12 1 13
REMARK SMILES IDX 14 14
REMARK H PARENT
REMARK Flexibility Score: inf
ROOT
ATOM      1  C   UNL     1      44.046  19.597  -4.705  1.00  0.00     0.016 A 
ATOM      2  C   UNL     1      44.587  18.348  -5.067  1.00  0.00     0.048 A 
ATOM      3  C   UNL     1      44.342  17.260  -4.230  1.00  0.00     0.137 A 
ATOM      4  C   UNL     1      43.601  17.380  -3.086  1.00  0.00     0.064 A 
ATOM      5  C   UNL     1      43.556  16.132  -2.506  1.00  0.00     0.054 A 
ATOM      6  C   UNL     1      44.293  15.322  -3.363  1.00  0.00     0.196 A 
ATOM      7  O   UNL     1      44.749  16.024  -4.384  1.00  0.00    -0.464 OA
ATOM      8  C   UNL     1      43.049  18.597  -2.693  1.00  0.00     0.149 A 
ATOM      9  C   UNL     1      43.279  19.726  -3.521  1.00  0.00     0.018 A 
ATOM     10  C   UNL     1      42.728  20.951  -3.132  1.00  0.00     0.019 A 
ATOM     11  C   UNL     1      41.979  21.023  -1.956  1.00  0.00     0.094 A 
ATOM     12  C   UNL     1      41.797  19.864  -1.191  1.00  0.00     0.336 A 
ATOM     13  O   UNL     1      41.125  19.913  -0.128  1.00  0.00    -0.246 OA
ATOM     14  O   UNL     1      42.331  18.707  -1.579  1.00  0.00    -0.422 OA
ENDROOT
TORSDOF 0
ENDMDL
MODEL 4
REMARK VINA RESULT:    -4.402      6.437      8.661
REMARK INTER + INTRA:          -4.402
REMARK INTER:                  -4.402
REMARK INTRA:                   0.000
REMARK UNBOUND:                 0.000
REMARK SMILES O=c1ccc2ccc3occc3c2o1
REMARK SMILES IDX 6 1 7 2 8 3 12 4 11 5 10 6 9 7 13 8 5 9 4 10 3 11 2 12 1 13
REMARK SMILES IDX 14 14
REMARK H PARENT
REMARK Flexibility Score: inf
ROOT
ATOM      1  C   UNL     1      48.783  16.129  -4.530  1.00  0.00     0.016 A 
ATOM      2  C   UNL     1      47.815  15.599  -3.655  1.00  0.00     0.048 A 
ATOM      3  C   UNL     1      48.008  14.306  -3.169  1.00  0.00     0.137 A 
ATOM      4  C   UNL     1      49.098  13.557  -3.521  1.00  0.00     0.064 A 
ATOM      5  C   UNL     1      48.978  12.348  -2.873  1.00  0.00     0.054 A 
ATOM      6  C   UNL     1      47.791  12.453  -2.156  1.00  0.00     0.196 A 
ATOM      7  O   UNL     1      47.235  13.634  -2.352  1.00  0.00    -0.464 OA
ATOM      8  C   UNL     1      50.077  14.045  -4.383  1.00  0.00     0.149 A 
ATOM      9  C   UNL     1      49.912  15.357  -4.896  1.00  0.00     0.018 A 
ATOM     10  C   UNL     1      50.891  15.853  -5.763  1.00  0.00     0.019 A 
ATOM     11  C   UNL     1      51.985  15.051  -6.092  1.00  0.00     0.094 A 
ATOM     12  C   UNL     1      52.076  13.764  -5.545  1.00  0.00     0.336 A 
ATOM     13  O   UNL     1      53.057  13.029  -5.832  1.00  0.00    -0.246 OA
ATOM     14  O   UNL     1      51.133  13.312  -4.722  1.00  0.00    -0.422 OA
ENDROOT
TORSDOF 0
ENDMDL
MODEL 5
REMARK VINA RESULT:    -4.365      4.263      7.498
REMARK INTER + INTRA:          -4.365
REMARK INTER:                  -4.365
REMARK INTRA:                   0.000
REMARK UNBOUND:                 0.000
REMARK SMILES O=c1ccc2ccc3occc3c2o1
REMARK SMILES IDX 6 1 7 2 8 3 12 4 11 5 10 6 9 7 13 8 5 9 4 10 3 11 2 12 1 13
REMARK SMILES IDX 14 14
REMARK H PARENT
REMARK Flexibility Score: inf
ROOT
ATOM      1  C   UNL     1      48.800  14.592  -4.166  1.00  0.00     0.016 A 
ATOM      2  C   UNL     1      49.376  13.425  -3.628  1.00  0.00     0.048 A 
ATOM      3  C   UNL     1      48.662  12.731  -2.652  1.00  0.00     0.137 A 
ATOM      4  C   UNL     1      47.437  13.154  -2.214  1.00  0.00     0.064 A 
ATOM      5  C   UNL     1      47.019  12.253  -1.262  1.00  0.00     0.054 A 
ATOM      6  C   UNL     1      48.048  11.321  -1.187  1.00  0.00     0.196 A 
ATOM      7  O   UNL     1      49.017  11.633  -2.030  1.00  0.00    -0.464 OA
ATOM      8  C   UNL     1      46.833  14.303  -2.721  1.00  0.00     0.149 A 
ATOM      9  C   UNL     1      47.532  15.034  -3.716  1.00  0.00     0.018 A 
ATOM     10  C   UNL     1      46.931  16.188  -4.229  1.00  0.00     0.019 A 
ATOM     11  C   UNL     1      45.680  16.579  -3.750  1.00  0.00     0.094 A 
ATOM     12  C   UNL     1      45.053  15.805  -2.765  1.00  0.00     0.336 A 
ATOM     13  O   UNL     1      43.924  16.145  -2.324  1.00  0.00    -0.246 OA
ATOM     14  O   UNL     1      45.642  14.710  -2.291  1.00  0.00    -0.422 OA
ENDROOT
TORSDOF 0
ENDMDL
MODEL 6
REMARK VINA RESULT:    -4.359      2.334      4.761
REMARK INTER + INTRA:          -4.359
REMARK INTER:                  -4.359
REMARK INTRA:                   0.000
REMARK UNBOUND:                 0.000
REMARK SMILES O=c1ccc2ccc3occc3c2o1
REMARK SMILES IDX 6 1 7 2 8 3 12 4 11 5 10 6 9 7 13 8 5 9 4 10 3 11 2 12 1 13
REMARK SMILES IDX 14 14
REMARK H PARENT
REMARK Flexibility Score: inf
ROOT
ATOM      1  C   UNL     1      43.388  18.687  -2.804  1.00  0.00     0.016 A 
ATOM      2  C   UNL     1      43.093  17.538  -3.562  1.00  0.00     0.048 A 
ATOM      3  C   UNL     1      41.782  17.064  -3.553  1.00  0.00     0.137 A 
ATOM      4  C   UNL     1      40.795  17.683  -2.834  1.00  0.00     0.064 A 
ATOM      5  C   UNL     1      39.639  16.966  -3.044  1.00  0.00     0.054 A 
ATOM      6  C   UNL     1      40.016  15.936  -3.897  1.00  0.00     0.196 A 
ATOM      7  O   UNL     1      41.303  16.021  -4.184  1.00  0.00    -0.464 OA
ATOM      8  C   UNL     1      41.046  18.821  -2.071  1.00  0.00     0.149 A 
ATOM      9  C   UNL     1      42.370  19.330  -2.058  1.00  0.00     0.018 A 
ATOM     10  C   UNL     1      42.629  20.473  -1.295  1.00  0.00     0.019 A 
ATOM     11  C   UNL     1      41.589  21.068  -0.579  1.00  0.00     0.094 A 
ATOM     12  C   UNL     1      40.307  20.506  -0.642  1.00  0.00     0.336 A 
ATOM     13  O   UNL     1      39.359  21.031  -0.002  1.00  0.00    -0.246 OA
ATOM     14  O   UNL     1      40.083  19.417  -1.375  1.00  0.00    -0.422 OA
ENDROOT
TORSDOF 0
ENDMDL
MODEL 7
REMARK VINA RESULT:    -4.341      5.379      7.193
REMARK INTER + INTRA:          -4.341
REMARK INTER:                  -4.341
REMARK INTRA:                   0.000
REMARK UNBOUND:                 0.000
REMARK SMILES O=c1ccc2ccc3occc3c2o1
REMARK SMILES IDX 6 1 7 2 8 3 12 4 11 5 10 6 9 7 13 8 5 9 4 10 3 11 2 12 1 13
REMARK SMILES IDX 14 14
REMARK H PARENT
REMARK Flexibility Score: inf
ROOT
ATOM      1  C   UNL     1      45.804  15.873  -3.588  1.00  0.00     0.016 A 
ATOM      2  C   UNL     1      45.575  14.764  -2.751  1.00  0.00     0.048 A 
ATOM      3  C   UNL     1      46.620  13.862  -2.556  1.00  0.00     0.137 A 
ATOM      4  C   UNL     1      47.841  14.030  -3.152  1.00  0.00     0.064 A 
ATOM      5  C   UNL     1      48.630  12.975  -2.753  1.00  0.00     0.054 A 
ATOM      6  C   UNL     1      47.809  12.221  -1.921  1.00  0.00     0.196 A 
ATOM      7  O   UNL     1      46.615  12.776  -1.823  1.00  0.00    -0.464 OA
ATOM      8  C   UNL     1      48.107  15.114  -3.986  1.00  0.00     0.149 A 
ATOM      9  C   UNL     1      47.066  16.051  -4.206  1.00  0.00     0.018 A 
ATOM     10  C   UNL     1      47.326  17.141  -5.043  1.00  0.00     0.019 A 
ATOM     11  C   UNL     1      48.587  17.269  -5.628  1.00  0.00     0.094 A 
ATOM     12  C   UNL     1      49.564  16.301  -5.362  1.00  0.00     0.336 A 
ATOM     13  O   UNL     1      50.707  16.403  -5.882  1.00  0.00    -0.246 OA
ATOM     14  O   UNL     1      49.295  15.271  -4.563  1.00  0.00    -0.422 OA
ENDROOT
TORSDOF 0
ENDMDL
MODEL 8
REMARK VINA RESULT:    -4.323      4.941      7.407
REMARK INTER + INTRA:          -4.323
REMARK INTER:                  -4.323
REMARK INTRA:                   0.000
REMARK UNBOUND:                 0.000
REMARK SMILES O=c1ccc2ccc3occc3c2o1
REMARK SMILES IDX 6 1 7 2 8 3 12 4 11 5 10 6 9 7 13 8 5 9 4 10 3 11 2 12 1 13
REMARK SMILES IDX 14 14
REMARK H PARENT
REMARK Flexibility Score: inf
ROOT
ATOM      1  C   UNL     1      48.468  13.006  -3.030  1.00  0.00     0.016 A 
ATOM      2  C   UNL     1      47.155  13.330  -2.638  1.00  0.00     0.048 A 
ATOM      3  C   UNL     1      46.624  14.546  -3.067  1.00  0.00     0.137 A 
ATOM      4  C   UNL     1      47.341  15.414  -3.846  1.00  0.00     0.064 A 
ATOM      5  C   UNL     1      46.530  16.500  -4.084  1.00  0.00     0.054 A 
ATOM      6  C   UNL     1      45.348  16.207  -3.414  1.00  0.00     0.196 A 
ATOM      7  O   UNL     1      45.433  15.032  -2.816  1.00  0.00    -0.464 OA
ATOM      8  C   UNL     1      48.642  15.130  -4.254  1.00  0.00     0.149 A 
ATOM      9  C   UNL     1      49.214  13.901  -3.836  1.00  0.00     0.018 A 
ATOM     10  C   UNL     1      50.520  13.609  -4.242  1.00  0.00     0.019 A 
ATOM     11  C   UNL     1      51.210  14.526  -5.036  1.00  0.00     0.094 A 
ATOM     12  C   UNL     1      50.578  15.720  -5.409  1.00  0.00     0.336 A 
ATOM     13  O   UNL     1      51.187  16.556  -6.125  1.00  0.00    -0.246 OA
ATOM     14  O   UNL     1      49.334  15.977  -5.011  1.00  0.00    -0.422 OA
ENDROOT
TORSDOF 0
ENDMDL
MODEL 9
REMARK VINA RESULT:    -4.321      6.043      7.899
REMARK INTER + INTRA:          -4.321
REMARK INTER:                  -4.321
REMARK INTRA:                   0.000
REMARK UNBOUND:                 0.000
REMARK SMILES O=c1ccc2ccc3occc3c2o1
REMARK SMILES IDX 6 1 7 2 8 3 12 4 11 5 10 6 9 7 13 8 5 9 4 10 3 11 2 12 1 13
REMARK SMILES IDX 14 14
REMARK H PARENT
REMARK Flexibility Score: inf
ROOT
ATOM      1  C   UNL     1      50.500  13.736  -4.253  1.00  0.00     0.016 A 
ATOM      2  C   UNL     1      51.011  14.760  -5.074  1.00  0.00     0.048 A 
ATOM      3  C   UNL     1      50.181  15.840  -5.370  1.00  0.00     0.137 A 
ATOM      4  C   UNL     1      48.902  15.922  -4.890  1.00  0.00     0.064 A 
ATOM      5  C   UNL     1      48.369  17.098  -5.368  1.00  0.00     0.054 A 
ATOM      6  C   UNL     1      49.390  17.661  -6.125  1.00  0.00     0.196 A 
ATOM      7  O   UNL     1      50.461  16.887  -6.107  1.00  0.00    -0.464 OA
ATOM      8  C   UNL     1      48.359  14.930  -4.076  1.00  0.00     0.149 A 
ATOM      9  C   UNL     1      49.177  13.817  -3.754  1.00  0.00     0.018 A 
ATOM     10  C   UNL     1      48.638  12.817  -2.937  1.00  0.00     0.019 A 
ATOM     11  C   UNL     1      47.329  12.946  -2.472  1.00  0.00     0.094 A 
ATOM     12  C   UNL     1      46.583  14.075  -2.834  1.00  0.00     0.336 A 
ATOM     13  O   UNL     1      45.400  14.205  -2.422  1.00  0.00    -0.246 OA
ATOM     14  O   UNL     1      47.115  15.015  -3.613  1.00  0.00    -0.422 OA
ENDROOT
TORSDOF 0
ENDMDL
