MODEL 1
REMARK VINA RESULT:    -6.753      0.000      0.000
REMARK INTER + INTRA:          -9.449
REMARK INTER:                  -9.122
REMARK INTRA:                  -0.327
REMARK UNBOUND:                -0.327
REMARK SMILES O=c1c(-c2ccc(O)cc2)coc2c([C@H]3O[C@@H](CO)[C@H](O)[C@@H](O)[C@H]3O)c(O)ccc12
REMARK SMILES IDX 3 1 11 2 12 3 13 4 30 5 2 6 1 7 29 8 28 9 26 10 14 11 4 12
REMARK SMILES IDX 5 13 6 14 7 15 10 16 9 17 8 18 15 20 24 21 16 22 22 23 17 24
REMARK SMILES IDX 20 25 25 26 23 28 18 30 19 31 21 33 27 35
REMARK H PARENT 8 19 25 27 23 29 19 32 21 34 27 36
REMARK Flexibility Score: inf
ROOT
ATOM      1  C   UNL     1      13.141   8.636  56.426  1.00  0.00     0.065 A 
ATOM      2  C   UNL     1      13.451   9.127  57.699  1.00  0.00     0.208 A 
ATOM      3  O   UNL     1      12.577   9.042  58.694  1.00  0.00    -0.463 OA
ATOM      4  C   UNL     1      11.370   8.497  58.568  1.00  0.00     0.147 A 
ATOM      5  C   UNL     1      10.962   8.011  57.303  1.00  0.00     0.066 A 
ATOM      6  C   UNL     1      11.866   8.078  56.226  1.00  0.00     0.200 A 
ATOM      7  O   UNL     1      11.527   7.665  55.082  1.00  0.00    -0.288 OA
ATOM      8  C   UNL     1       9.667   7.503  57.140  1.00  0.00     0.020 A 
ATOM      9  C   UNL     1       8.769   7.533  58.199  1.00  0.00     0.047 A 
ATOM     10  C   UNL     1       9.154   8.022  59.453  1.00  0.00     0.125 A 
ATOM     11  C   UNL     1      10.498   8.420  59.690  1.00  0.00     0.069 A 
ENDROOT
BRANCH   1  12
ATOM     12  C   UNL     1      14.141   8.725  55.331  1.00  0.00    -0.011 A 
ATOM     13  C   UNL     1      15.099   7.711  55.161  1.00  0.00     0.013 A 
ATOM     14  C   UNL     1      16.035   7.788  54.126  1.00  0.00     0.047 A 
ATOM     15  C   UNL     1      16.024   8.875  53.247  1.00  0.00     0.115 A 
ATOM     16  C   UNL     1      14.131   9.811  54.438  1.00  0.00     0.013 A 
ATOM     17  C   UNL     1      15.069   9.887  53.405  1.00  0.00     0.047 A 
BRANCH  15  18
ATOM     18  O   UNL     1      16.965   8.938  52.220  1.00  0.00    -0.508 OA
ATOM     19  H   UNL     1      17.793   9.517  52.298  1.00  0.00     0.293 HD
ENDBRANCH  15  18
ENDBRANCH   1  12
BRANCH  11  20
ATOM     20  C   UNL     1      10.957   8.905  61.081  1.00  0.00     0.188 C 
ATOM     21  C   UNL     1      12.460   8.661  61.433  1.00  0.00     0.179 C 
ATOM     22  O   UNL     1      10.048   8.540  62.123  1.00  0.00    -0.362 OA
ATOM     23  C   UNL     1      12.642   8.613  62.952  1.00  0.00     0.177 C 
ATOM     24  C   UNL     1      10.389   7.407  62.920  1.00  0.00     0.176 C 
ATOM     25  C   UNL     1      11.834   7.435  63.505  1.00  0.00     0.177 C 
BRANCH  21  26
ATOM     26  O   UNL     1      12.931   7.469  60.849  1.00  0.00    -0.387 OA
ATOM     27  H   UNL     1      12.567   7.433  59.926  1.00  0.00     0.211 HD
ENDBRANCH  21  26
BRANCH  23  28
ATOM     28  O   UNL     1      13.996   8.451  63.284  1.00  0.00    -0.387 OA
ATOM     29  H   UNL     1      14.344   9.353  63.513  1.00  0.00     0.211 HD
ENDBRANCH  23  28
BRANCH  24  30
ATOM     30  C   UNL     1      10.019   6.067  62.253  1.00  0.00     0.191 C 
BRANCH  30  31
ATOM     31  O   UNL     1      11.156   5.367  61.834  1.00  0.00    -0.394 OA
ATOM     32  H   UNL     1      11.881   5.613  62.465  1.00  0.00     0.210 HD
ENDBRANCH  30  31
ENDBRANCH  24  30
BRANCH  25  33
ATOM     33  O   UNL     1      11.816   7.471  64.911  1.00  0.00    -0.388 OA
ATOM     34  H   UNL     1      12.654   7.910  65.214  1.00  0.00     0.211 HD
ENDBRANCH  25  33
ENDBRANCH  11  20
BRANCH  10  35
ATOM     35  O   UNL     1       8.181   8.134  60.445  1.00  0.00    -0.507 OA
ATOM     36  H   UNL     1       8.420   8.285  61.418  1.00  0.00     0.293 HD
ENDBRANCH  10  35
TORSDOF 9
ENDMDL
MODEL 2
REMARK VINA RESULT:    -6.054      2.276      8.412
REMARK INTER + INTRA:          -8.505
REMARK INTER:                  -8.931
REMARK INTRA:                   0.426
REMARK UNBOUND:                -0.327
REMARK SMILES O=c1c(-c2ccc(O)cc2)coc2c([C@H]3O[C@@H](CO)[C@H](O)[C@@H](O)[C@H]3O)c(O)ccc12
REMARK SMILES IDX 3 1 11 2 12 3 13 4 30 5 2 6 1 7 29 8 28 9 26 10 14 11 4 12
REMARK SMILES IDX 5 13 6 14 7 15 10 16 9 17 8 18 15 20 24 21 16 22 22 23 17 24
REMARK SMILES IDX 20 25 25 26 23 28 18 30 19 31 21 33 27 35
REMARK H PARENT 8 19 25 27 23 29 19 32 21 34 27 36
REMARK Flexibility Score: inf
ROOT
ATOM      1  C   UNL     1      11.914   8.747  59.450  1.00  0.00     0.065 A 
ATOM      2  C   UNL     1      12.489   9.726  58.631  1.00  0.00     0.208 A 
ATOM      3  O   UNL     1      13.418   9.408  57.738  1.00  0.00    -0.463 OA
ATOM      4  C   UNL     1      13.866   8.169  57.552  1.00  0.00     0.147 A 
ATOM      5  C   UNL     1      13.363   7.125  58.366  1.00  0.00     0.066 A 
ATOM      6  C   UNL     1      12.372   7.424  59.318  1.00  0.00     0.200 A 
ATOM      7  O   UNL     1      11.913   6.517  60.069  1.00  0.00    -0.288 OA
ATOM      8  C   UNL     1      13.880   5.830  58.230  1.00  0.00     0.020 A 
ATOM      9  C   UNL     1      14.921   5.585  57.344  1.00  0.00     0.047 A 
ATOM     10  C   UNL     1      15.437   6.610  56.542  1.00  0.00     0.125 A 
ATOM     11  C   UNL     1      14.847   7.903  56.556  1.00  0.00     0.069 A 
ENDROOT
BRANCH   1  12
ATOM     12  C   UNL     1      10.863   9.122  60.429  1.00  0.00    -0.011 A 
ATOM     13  C   UNL     1      11.193   9.339  61.778  1.00  0.00     0.013 A 
ATOM     14  C   UNL     1      10.207   9.702  62.699  1.00  0.00     0.047 A 
ATOM     15  C   UNL     1       8.881   9.858  62.286  1.00  0.00     0.115 A 
ATOM     16  C   UNL     1       9.527   9.288  60.018  1.00  0.00     0.013 A 
ATOM     17  C   UNL     1       8.543   9.651  60.942  1.00  0.00     0.047 A 
BRANCH  15  18
ATOM     18  O   UNL     1       7.908  10.219  63.216  1.00  0.00    -0.508 OA
ATOM     19  H   UNL     1       7.611  11.182  63.323  1.00  0.00     0.293 HD
ENDBRANCH  15  18
ENDBRANCH   1  12
BRANCH  11  20
ATOM     20  C   UNL     1      15.361   9.029  55.635  1.00  0.00     0.188 C 
ATOM     21  C   UNL     1      14.268   9.939  54.985  1.00  0.00     0.179 C 
ATOM     22  O   UNL     1      16.367   8.582  54.721  1.00  0.00    -0.362 OA
ATOM     23  C   UNL     1      14.809  10.570  53.701  1.00  0.00     0.177 C 
ATOM     24  C   UNL     1      15.957   8.310  53.382  1.00  0.00     0.176 C 
ATOM     25  C   UNL     1      15.140   9.453  52.707  1.00  0.00     0.177 C 
BRANCH  21  26
ATOM     26  O   UNL     1      13.097   9.208  54.712  1.00  0.00    -0.387 OA
ATOM     27  H   UNL     1      12.853   8.725  55.545  1.00  0.00     0.211 HD
ENDBRANCH  21  26
BRANCH  23  28
ATOM     28  O   UNL     1      13.858  11.435  53.136  1.00  0.00    -0.387 OA
ATOM     29  H   UNL     1      14.361  12.199  52.750  1.00  0.00     0.211 HD
ENDBRANCH  23  28
BRANCH  24  30
ATOM     30  C   UNL     1      15.318   6.916  53.219  1.00  0.00     0.191 C 
BRANCH  30  31
ATOM     31  O   UNL     1      15.159   6.575  51.871  1.00  0.00    -0.394 OA
ATOM     32  H   UNL     1      15.896   7.025  51.383  1.00  0.00     0.210 HD
ENDBRANCH  30  31
ENDBRANCH  24  30
BRANCH  25  33
ATOM     33  O   UNL     1      15.819   9.975  51.590  1.00  0.00    -0.388 OA
ATOM     34  H   UNL     1      16.729   9.576  51.576  1.00  0.00     0.211 HD
ENDBRANCH  25  33
ENDBRANCH  11  20
BRANCH  10  35
ATOM     35  O   UNL     1      16.555   6.334  55.755  1.00  0.00    -0.507 OA
ATOM     36  H   UNL     1      16.667   5.451  55.271  1.00  0.00     0.293 HD
ENDBRANCH  10  35
TORSDOF 9
ENDMDL
MODEL 3
REMARK VINA RESULT:    -5.615      2.887      4.952
REMARK INTER + INTRA:          -7.911
REMARK INTER:                  -8.263
REMARK INTRA:                   0.352
REMARK UNBOUND:                -0.327
REMARK SMILES O=c1c(-c2ccc(O)cc2)coc2c([C@H]3O[C@@H](CO)[C@H](O)[C@@H](O)[C@H]3O)c(O)ccc12
REMARK SMILES IDX 3 1 11 2 12 3 13 4 30 5 2 6 1 7 29 8 28 9 26 10 14 11 4 12
REMARK SMILES IDX 5 13 6 14 7 15 10 16 9 17 8 18 15 20 24 21 16 22 22 23 17 24
REMARK SMILES IDX 20 25 25 26 23 28 18 30 19 31 21 33 27 35
REMARK H PARENT 8 19 25 27 23 29 19 32 21 34 27 36
REMARK Flexibility Score: inf
ROOT
ATOM      1  C   UNL     1       9.461   7.658  56.799  1.00  0.00     0.065 A 
ATOM      2  C   UNL     1       8.702   7.374  57.941  1.00  0.00     0.208 A 
ATOM      3  O   UNL     1       9.267   7.329  59.141  1.00  0.00    -0.463 OA
ATOM      4  C   UNL     1      10.563   7.544  59.352  1.00  0.00     0.147 A 
ATOM      5  C   UNL     1      11.409   7.800  58.245  1.00  0.00     0.066 A 
ATOM      6  C   UNL     1      10.843   7.863  56.959  1.00  0.00     0.200 A 
ATOM      7  O   UNL     1      11.573   8.075  55.950  1.00  0.00    -0.288 OA
ATOM      8  C   UNL     1      12.786   7.954  58.447  1.00  0.00     0.020 A 
ATOM      9  C   UNL     1      13.327   7.797  59.717  1.00  0.00     0.047 A 
ATOM     10  C   UNL     1      12.505   7.532  60.818  1.00  0.00     0.125 A 
ATOM     11  C   UNL     1      11.091   7.503  60.673  1.00  0.00     0.069 A 
ENDROOT
BRANCH   1  12
ATOM     12  C   UNL     1       8.804   7.722  55.469  1.00  0.00    -0.011 A 
ATOM     13  C   UNL     1       7.504   8.241  55.343  1.00  0.00     0.013 A 
ATOM     14  C   UNL     1       6.888   8.311  54.091  1.00  0.00     0.047 A 
ATOM     15  C   UNL     1       7.562   7.869  52.948  1.00  0.00     0.115 A 
ATOM     16  C   UNL     1       9.479   7.285  54.314  1.00  0.00     0.013 A 
ATOM     17  C   UNL     1       8.860   7.356  53.063  1.00  0.00     0.047 A 
BRANCH  15  18
ATOM     18  O   UNL     1       6.934   7.944  51.707  1.00  0.00    -0.508 OA
ATOM     19  H   UNL     1       6.395   8.759  51.436  1.00  0.00     0.293 HD
ENDBRANCH  15  18
ENDBRANCH   1  12
BRANCH  11  20
ATOM     20  C   UNL     1      10.164   7.273  61.886  1.00  0.00     0.188 C 
ATOM     21  C   UNL     1       8.756   7.946  61.812  1.00  0.00     0.179 C 
ATOM     22  O   UNL     1      10.834   7.455  63.137  1.00  0.00    -0.362 OA
ATOM     23  C   UNL     1       8.204   8.160  63.223  1.00  0.00     0.177 C 
ATOM     24  C   UNL     1      10.633   8.696  63.809  1.00  0.00     0.176 C 
ATOM     25  C   UNL     1       9.139   9.111  63.976  1.00  0.00     0.177 C 
BRANCH  21  26
ATOM     26  O   UNL     1       8.814   9.171  61.122  1.00  0.00    -0.387 OA
ATOM     27  H   UNL     1       8.276   9.824  61.641  1.00  0.00     0.211 HD
ENDBRANCH  21  26
BRANCH  23  28
ATOM     28  O   UNL     1       6.914   8.712  63.172  1.00  0.00    -0.387 OA
ATOM     29  H   UNL     1       6.846   9.350  63.930  1.00  0.00     0.211 HD
ENDBRANCH  23  28
BRANCH  24  30
ATOM     30  C   UNL     1      11.530   9.827  63.268  1.00  0.00     0.191 C 
BRANCH  30  31
ATOM     31  O   UNL     1      12.866   9.653  63.647  1.00  0.00    -0.394 OA
ATOM     32  H   UNL     1      12.848   9.343  64.589  1.00  0.00     0.210 HD
ENDBRANCH  30  31
ENDBRANCH  24  30
BRANCH  25  33
ATOM     33  O   UNL     1       8.777   9.182  65.334  1.00  0.00    -0.388 OA
ATOM     34  H   UNL     1       7.791   9.297  65.378  1.00  0.00     0.211 HD
ENDBRANCH  25  33
ENDBRANCH  11  20
BRANCH  10  35
ATOM     35  O   UNL     1      13.111   7.271  62.047  1.00  0.00    -0.507 OA
ATOM     36  H   UNL     1      13.287   6.327  62.370  1.00  0.00     0.293 HD
ENDBRANCH  10  35
TORSDOF 9
ENDMDL
MODEL 4
REMARK VINA RESULT:    -5.486      2.364      8.206
REMARK INTER + INTRA:          -7.738
REMARK INTER:                  -7.754
REMARK INTRA:                   0.017
REMARK UNBOUND:                -0.327
REMARK SMILES O=c1c(-c2ccc(O)cc2)coc2c([C@H]3O[C@@H](CO)[C@H](O)[C@@H](O)[C@H]3O)c(O)ccc12
REMARK SMILES IDX 3 1 11 2 12 3 13 4 30 5 2 6 1 7 29 8 28 9 26 10 14 11 4 12
REMARK SMILES IDX 5 13 6 14 7 15 10 16 9 17 8 18 15 20 24 21 16 22 22 23 17 24
REMARK SMILES IDX 20 25 25 26 23 28 18 30 19 31 21 33 27 35
REMARK H PARENT 8 19 25 27 23 29 19 32 21 34 27 36
REMARK Flexibility Score: inf
ROOT
ATOM      1  C   UNL     1      10.650   7.229  62.935  1.00  0.00     0.065 A 
ATOM      2  C   UNL     1      11.453   6.434  62.108  1.00  0.00     0.208 A 
ATOM      3  O   UNL     1      11.534   6.670  60.805  1.00  0.00    -0.463 OA
ATOM      4  C   UNL     1      10.879   7.654  60.194  1.00  0.00     0.147 A 
ATOM      5  C   UNL     1      10.015   8.482  60.952  1.00  0.00     0.066 A 
ATOM      6  C   UNL     1       9.910   8.265  62.338  1.00  0.00     0.200 A 
ATOM      7  O   UNL     1       9.138   8.977  63.039  1.00  0.00    -0.288 OA
ATOM      8  C   UNL     1       9.265   9.473  60.308  1.00  0.00     0.020 A 
ATOM      9  C   UNL     1       9.322   9.604  58.926  1.00  0.00     0.047 A 
ATOM     10  C   UNL     1      10.162   8.785  58.162  1.00  0.00     0.125 A 
ATOM     11  C   UNL     1      11.038   7.860  58.795  1.00  0.00     0.069 A 
ENDROOT
BRANCH   1  12
ATOM     12  C   UNL     1      10.589   6.958  64.394  1.00  0.00    -0.011 A 
ATOM     13  C   UNL     1      11.487   7.589  65.271  1.00  0.00     0.013 A 
ATOM     14  C   UNL     1      11.426   7.342  66.645  1.00  0.00     0.047 A 
ATOM     15  C   UNL     1      10.465   6.467  67.161  1.00  0.00     0.115 A 
ATOM     16  C   UNL     1       9.620   6.084  64.920  1.00  0.00     0.013 A 
ATOM     17  C   UNL     1       9.561   5.839  66.295  1.00  0.00     0.047 A 
BRANCH  15  18
ATOM     18  O   UNL     1      10.416   6.231  68.534  1.00  0.00    -0.508 OA
ATOM     19  H   UNL     1      11.178   5.769  69.018  1.00  0.00     0.293 HD
ENDBRANCH  15  18
ENDBRANCH   1  12
BRANCH  11  20
ATOM     20  C   UNL     1      12.015   6.992  57.975  1.00  0.00     0.188 C 
ATOM     21  C   UNL     1      13.335   6.573  58.699  1.00  0.00     0.179 C 
ATOM     22  O   UNL     1      12.208   7.480  56.645  1.00  0.00    -0.362 OA
ATOM     23  C   UNL     1      14.424   6.270  57.667  1.00  0.00     0.177 C 
ATOM     24  C   UNL     1      13.395   8.231  56.392  1.00  0.00     0.176 C 
ATOM     25  C   UNL     1      14.711   7.545  56.869  1.00  0.00     0.177 C 
BRANCH  21  26
ATOM     26  O   UNL     1      13.770   7.579  59.583  1.00  0.00    -0.387 OA
ATOM     27  H   UNL     1      13.190   7.531  60.388  1.00  0.00     0.211 HD
ENDBRANCH  21  26
BRANCH  23  28
ATOM     28  O   UNL     1      15.600   5.838  58.301  1.00  0.00    -0.387 OA
ATOM     29  H   UNL     1      15.666   4.860  58.144  1.00  0.00     0.211 HD
ENDBRANCH  23  28
BRANCH  24  30
ATOM     30  C   UNL     1      13.277   9.707  56.819  1.00  0.00     0.191 C 
BRANCH  30  31
ATOM     31  O   UNL     1      13.709  10.574  55.809  1.00  0.00    -0.394 OA
ATOM     32  H   UNL     1      14.513  11.034  56.164  1.00  0.00     0.210 HD
ENDBRANCH  30  31
ENDBRANCH  24  30
BRANCH  25  33
ATOM     33  O   UNL     1      15.563   7.264  55.785  1.00  0.00    -0.388 OA
ATOM     34  H   UNL     1      15.296   7.852  55.030  1.00  0.00     0.211 HD
ENDBRANCH  25  33
ENDBRANCH  11  20
BRANCH  10  35
ATOM     35  O   UNL     1      10.095   8.882  56.773  1.00  0.00    -0.507 OA
ATOM     36  H   UNL     1      10.571   8.227  56.164  1.00  0.00     0.293 HD
ENDBRANCH  10  35
TORSDOF 9
ENDMDL
MODEL 5
REMARK VINA RESULT:    -5.408      3.005      5.244
REMARK INTER + INTRA:          -7.632
REMARK INTER:                  -7.871
REMARK INTRA:                   0.239
REMARK UNBOUND:                -0.327
REMARK SMILES O=c1c(-c2ccc(O)cc2)coc2c([C@H]3O[C@@H](CO)[C@H](O)[C@@H](O)[C@H]3O)c(O)ccc12
REMARK SMILES IDX 3 1 11 2 12 3 13 4 30 5 2 6 1 7 29 8 28 9 26 10 14 11 4 12
REMARK SMILES IDX 5 13 6 14 7 15 10 16 9 17 8 18 15 20 24 21 16 22 22 23 17 24
REMARK SMILES IDX 20 25 25 26 23 28 18 30 19 31 21 33 27 35
REMARK H PARENT 8 19 25 27 23 29 19 32 21 34 27 36
REMARK Flexibility Score: inf
ROOT
ATOM      1  C   UNL     1       9.924   5.660  57.268  1.00  0.00     0.065 A 
ATOM      2  C   UNL     1       9.659   5.163  58.549  1.00  0.00     0.208 A 
ATOM      3  O   UNL     1      10.291   5.646  59.612  1.00  0.00    -0.463 OA
ATOM      4  C   UNL     1      11.200   6.615  59.549  1.00  0.00     0.147 A 
ATOM      5  C   UNL     1      11.555   7.147  58.285  1.00  0.00     0.066 A 
ATOM      6  C   UNL     1      10.900   6.664  57.138  1.00  0.00     0.200 A 
ATOM      7  O   UNL     1      11.203   7.108  55.995  1.00  0.00    -0.288 OA
ATOM      8  C   UNL     1      12.563   8.115  58.199  1.00  0.00     0.020 A 
ATOM      9  C   UNL     1      13.253   8.506  59.340  1.00  0.00     0.047 A 
ATOM     10  C   UNL     1      12.923   7.980  60.594  1.00  0.00     0.125 A 
ATOM     11  C   UNL     1      11.817   7.098  60.737  1.00  0.00     0.069 A 
ENDROOT
BRANCH   1  12
ATOM     12  C   UNL     1       9.192   5.117  56.095  1.00  0.00    -0.011 A 
ATOM     13  C   UNL     1       8.916   3.742  56.005  1.00  0.00     0.013 A 
ATOM     14  C   UNL     1       8.218   3.231  54.907  1.00  0.00     0.047 A 
ATOM     15  C   UNL     1       7.784   4.085  53.889  1.00  0.00     0.115 A 
ATOM     16  C   UNL     1       8.745   5.972  55.071  1.00  0.00     0.013 A 
ATOM     17  C   UNL     1       8.048   5.457  53.974  1.00  0.00     0.047 A 
BRANCH  15  18
ATOM     18  O   UNL     1       7.090   3.560  52.801  1.00  0.00    -0.508 OA
ATOM     19  H   UNL     1       6.193   3.101  52.917  1.00  0.00     0.293 HD
ENDBRANCH  15  18
ENDBRANCH   1  12
BRANCH  11  20
ATOM     20  C   UNL     1      11.399   6.555  62.120  1.00  0.00     0.188 C 
ATOM     21  C   UNL     1       9.889   6.186  62.286  1.00  0.00     0.179 C 
ATOM     22  O   UNL     1      11.934   7.321  63.202  1.00  0.00    -0.362 OA
ATOM     23  C   UNL     1       9.494   6.250  63.763  1.00  0.00     0.177 C 
ATOM     24  C   UNL     1      11.065   8.264  63.827  1.00  0.00     0.176 C 
ATOM     25  C   UNL     1       9.684   7.686  64.260  1.00  0.00     0.177 C 
BRANCH  21  26
ATOM     26  O   UNL     1       9.071   7.045  61.527  1.00  0.00    -0.387 OA
ATOM     27  H   UNL     1       8.161   7.006  61.922  1.00  0.00     0.211 HD
ENDBRANCH  21  26
BRANCH  23  28
ATOM     28  O   UNL     1       8.154   5.866  63.934  1.00  0.00    -0.387 OA
ATOM     29  H   UNL     1       7.630   6.339  63.235  1.00  0.00     0.211 HD
ENDBRANCH  23  28
BRANCH  24  30
ATOM     30  C   UNL     1      10.963   9.594  63.055  1.00  0.00     0.191 C 
BRANCH  30  31
ATOM     31  O   UNL     1      12.157  10.320  63.115  1.00  0.00    -0.394 OA
ATOM     32  H   UNL     1      12.143  10.942  62.342  1.00  0.00     0.210 HD
ENDBRANCH  30  31
ENDBRANCH  24  30
BRANCH  25  33
ATOM     33  O   UNL     1       9.518   7.747  65.656  1.00  0.00    -0.388 OA
ATOM     34  H   UNL     1       8.898   7.018  65.920  1.00  0.00     0.211 HD
ENDBRANCH  25  33
ENDBRANCH  11  20
BRANCH  10  35
ATOM     35  O   UNL     1      13.722   8.321  61.685  1.00  0.00    -0.507 OA
ATOM     36  H   UNL     1      13.519   7.995  62.623  1.00  0.00     0.293 HD
ENDBRANCH  10  35
TORSDOF 9
ENDMDL
MODEL 6
REMARK VINA RESULT:    -5.386      3.042      8.408
REMARK INTER + INTRA:          -7.602
REMARK INTER:                  -7.728
REMARK INTRA:                   0.126
REMARK UNBOUND:                -0.327
REMARK SMILES O=c1c(-c2ccc(O)cc2)coc2c([C@H]3O[C@@H](CO)[C@H](O)[C@@H](O)[C@H]3O)c(O)ccc12
REMARK SMILES IDX 3 1 11 2 12 3 13 4 30 5 2 6 1 7 29 8 28 9 26 10 14 11 4 12
REMARK SMILES IDX 5 13 6 14 7 15 10 16 9 17 8 18 15 20 24 21 16 22 22 23 17 24
REMARK SMILES IDX 20 25 25 26 23 28 18 30 19 31 21 33 27 35
REMARK H PARENT 8 19 25 27 23 29 19 32 21 34 27 36
REMARK Flexibility Score: inf
ROOT
ATOM      1  C   UNL     1       9.720   9.097  63.582  1.00  0.00     0.065 A 
ATOM      2  C   UNL     1      10.741   9.541  62.732  1.00  0.00     0.208 A 
ATOM      3  O   UNL     1      11.261   8.736  61.814  1.00  0.00    -0.463 OA
ATOM      4  C   UNL     1      10.866   7.479  61.629  1.00  0.00     0.147 A 
ATOM      5  C   UNL     1       9.865   6.940  62.472  1.00  0.00     0.066 A 
ATOM      6  C   UNL     1       9.285   7.766  63.452  1.00  0.00     0.200 A 
ATOM      7  O   UNL     1       8.399   7.311  64.228  1.00  0.00    -0.288 OA
ATOM      8  C   UNL     1       9.493   5.597  62.335  1.00  0.00     0.020 A 
ATOM      9  C   UNL     1      10.147   4.782  61.420  1.00  0.00     0.047 A 
ATOM     10  C   UNL     1      11.148   5.298  60.588  1.00  0.00     0.125 A 
ATOM     11  C   UNL     1      11.456   6.686  60.605  1.00  0.00     0.069 A 
ENDROOT
BRANCH   1  12
ATOM     12  C   UNL     1       9.140  10.021  64.590  1.00  0.00    -0.011 A 
ATOM     13  C   UNL     1       9.016   9.621  65.931  1.00  0.00     0.013 A 
ATOM     14  C   UNL     1       8.480  10.492  66.883  1.00  0.00     0.047 A 
ATOM     15  C   UNL     1       8.064  11.773  66.510  1.00  0.00     0.115 A 
ATOM     16  C   UNL     1       8.726  11.314  64.222  1.00  0.00     0.013 A 
ATOM     17  C   UNL     1       8.189  12.183  65.176  1.00  0.00     0.047 A 
BRANCH  15  18
ATOM     18  O   UNL     1       7.530  12.630  67.470  1.00  0.00    -0.508 OA
ATOM     19  H   UNL     1       7.960  13.524  67.678  1.00  0.00     0.293 HD
ENDBRANCH  15  18
ENDBRANCH   1  12
BRANCH  11  20
ATOM     20  C   UNL     1      12.513   7.284  59.654  1.00  0.00     0.188 C 
ATOM     21  C   UNL     1      12.305   8.779  59.248  1.00  0.00     0.179 C 
ATOM     22  O   UNL     1      12.825   6.420  58.557  1.00  0.00    -0.362 OA
ATOM     23  C   UNL     1      13.000   9.061  57.914  1.00  0.00     0.177 C 
ATOM     24  C   UNL     1      12.209   6.709  57.303  1.00  0.00     0.176 C 
ATOM     25  C   UNL     1      12.358   8.188  56.833  1.00  0.00     0.177 C 
BRANCH  21  26
ATOM     26  O   UNL     1      10.936   9.095  59.159  1.00  0.00    -0.387 OA
ATOM     27  H   UNL     1      10.768   9.407  58.231  1.00  0.00     0.211 HD
ENDBRANCH  21  26
BRANCH  23  28
ATOM     28  O   UNL     1      12.870  10.415  57.564  1.00  0.00    -0.387 OA
ATOM     29  H   UNL     1      12.962  10.937  58.404  1.00  0.00     0.211 HD
ENDBRANCH  23  28
BRANCH  24  30
ATOM     30  C   UNL     1      10.768   6.170  57.200  1.00  0.00     0.191 C 
BRANCH  30  31
ATOM     31  O   UNL     1      10.745   4.776  57.086  1.00  0.00    -0.394 OA
ATOM     32  H   UNL     1      10.047   4.566  56.413  1.00  0.00     0.210 HD
ENDBRANCH  30  31
ENDBRANCH  24  30
BRANCH  25  33
ATOM     33  O   UNL     1      13.092   8.272  55.635  1.00  0.00    -0.388 OA
ATOM     34  H   UNL     1      12.658   7.673  54.972  1.00  0.00     0.211 HD
ENDBRANCH  25  33
ENDBRANCH  11  20
BRANCH  10  35
ATOM     35  O   UNL     1      11.848   4.412  59.770  1.00  0.00    -0.507 OA
ATOM     36  H   UNL     1      12.824   4.551  59.537  1.00  0.00     0.293 HD
ENDBRANCH  10  35
TORSDOF 9
ENDMDL
MODEL 7
REMARK VINA RESULT:    -5.374      3.105      8.865
REMARK INTER + INTRA:          -7.586
REMARK INTER:                  -7.313
REMARK INTRA:                  -0.273
REMARK UNBOUND:                -0.327
REMARK SMILES O=c1c(-c2ccc(O)cc2)coc2c([C@H]3O[C@@H](CO)[C@H](O)[C@@H](O)[C@H]3O)c(O)ccc12
REMARK SMILES IDX 3 1 11 2 12 3 13 4 30 5 2 6 1 7 29 8 28 9 26 10 14 11 4 12
REMARK SMILES IDX 5 13 6 14 7 15 10 16 9 17 8 18 15 20 24 21 16 22 22 23 17 24
REMARK SMILES IDX 20 25 25 26 23 28 18 30 19 31 21 33 27 35
REMARK H PARENT 8 19 25 27 23 29 19 32 21 34 27 36
REMARK Flexibility Score: inf
ROOT
ATOM      1  C   UNL     1       9.672   9.434  63.505  1.00  0.00     0.065 A 
ATOM      2  C   UNL     1       9.097   9.863  62.303  1.00  0.00     0.208 A 
ATOM      3  O   UNL     1       9.726   9.692  61.147  1.00  0.00    -0.463 OA
ATOM      4  C   UNL     1      10.920   9.115  61.038  1.00  0.00     0.147 A 
ATOM      5  C   UNL     1      11.588   8.687  62.211  1.00  0.00     0.066 A 
ATOM      6  C   UNL     1      10.948   8.846  63.453  1.00  0.00     0.200 A 
ATOM      7  O   UNL     1      11.524   8.487  64.518  1.00  0.00    -0.288 OA
ATOM      8  C   UNL     1      12.876   8.146  62.115  1.00  0.00     0.020 A 
ATOM      9  C   UNL     1      13.518   8.086  60.885  1.00  0.00     0.047 A 
ATOM     10  C   UNL     1      12.874   8.516  59.719  1.00  0.00     0.125 A 
ATOM     11  C   UNL     1      11.519   8.945  59.759  1.00  0.00     0.069 A 
ENDROOT
BRANCH   1  12
ATOM     12  C   UNL     1       8.942   9.619  64.785  1.00  0.00    -0.011 A 
ATOM     13  C   UNL     1       8.363   8.517  65.437  1.00  0.00     0.013 A 
ATOM     14  C   UNL     1       7.683   8.687  66.647  1.00  0.00     0.047 A 
ATOM     15  C   UNL     1       7.577   9.957  67.222  1.00  0.00     0.115 A 
ATOM     16  C   UNL     1       8.837  10.892  65.373  1.00  0.00     0.013 A 
ATOM     17  C   UNL     1       8.157  11.060  66.582  1.00  0.00     0.047 A 
BRANCH  15  18
ATOM     18  O   UNL     1       6.895  10.111  68.428  1.00  0.00    -0.508 OA
ATOM     19  H   UNL     1       6.019  10.617  68.478  1.00  0.00     0.293 HD
ENDBRANCH  15  18
ENDBRANCH   1  12
BRANCH  11  20
ATOM     20  C   UNL     1      10.773   9.365  58.475  1.00  0.00     0.188 C 
ATOM     21  C   UNL     1       9.225   9.152  58.479  1.00  0.00     0.179 C 
ATOM     22  O   UNL     1      11.422   8.913  57.283  1.00  0.00    -0.362 OA
ATOM     23  C   UNL     1       8.710   9.024  57.044  1.00  0.00     0.177 C 
ATOM     24  C   UNL     1      10.890   7.749  56.653  1.00  0.00     0.176 C 
ATOM     25  C   UNL     1       9.352   7.792  56.401  1.00  0.00     0.177 C 
BRANCH  21  26
ATOM     26  O   UNL     1       8.872   8.011  59.225  1.00  0.00    -0.387 OA
ATOM     27  H   UNL     1       8.460   8.331  60.070  1.00  0.00     0.211 HD
ENDBRANCH  21  26
BRANCH  23  28
ATOM     28  O   UNL     1       7.313   8.889  57.028  1.00  0.00    -0.387 OA
ATOM     29  H   UNL     1       7.119   7.920  57.129  1.00  0.00     0.211 HD
ENDBRANCH  23  28
BRANCH  24  30
ATOM     30  C   UNL     1      11.372   6.437  57.305  1.00  0.00     0.191 C 
BRANCH  30  31
ATOM     31  O   UNL     1      10.352   5.817  58.035  1.00  0.00    -0.394 OA
ATOM     32  H   UNL     1      10.506   6.060  58.985  1.00  0.00     0.210 HD
ENDBRANCH  30  31
ENDBRANCH  24  30
BRANCH  25  33
ATOM     33  O   UNL     1       9.059   7.747  55.025  1.00  0.00    -0.388 OA
ATOM     34  H   UNL     1       9.859   7.390  54.557  1.00  0.00     0.211 HD
ENDBRANCH  25  33
ENDBRANCH  11  20
BRANCH  10  35
ATOM     35  O   UNL     1      13.605   8.539  58.531  1.00  0.00    -0.507 OA
ATOM     36  H   UNL     1      13.391   7.923  57.756  1.00  0.00     0.293 HD
ENDBRANCH  10  35
TORSDOF 9
ENDMDL
MODEL 8
REMARK VINA RESULT:    -5.329      2.579      4.625
REMARK INTER + INTRA:          -7.525
REMARK INTER:                  -7.249
REMARK INTRA:                  -0.275
REMARK UNBOUND:                -0.327
REMARK SMILES O=c1c(-c2ccc(O)cc2)coc2c([C@H]3O[C@@H](CO)[C@H](O)[C@@H](O)[C@H]3O)c(O)ccc12
REMARK SMILES IDX 3 1 11 2 12 3 13 4 30 5 2 6 1 7 29 8 28 9 26 10 14 11 4 12
REMARK SMILES IDX 5 13 6 14 7 15 10 16 9 17 8 18 15 20 24 21 16 22 22 23 17 24
REMARK SMILES IDX 20 25 25 26 23 28 18 30 19 31 21 33 27 35
REMARK H PARENT 8 19 25 27 23 29 19 32 21 34 27 36
REMARK Flexibility Score: inf
ROOT
ATOM      1  C   UNL     1      11.091   7.689  59.673  1.00  0.00     0.065 A 
ATOM      2  C   UNL     1      10.321   8.681  60.292  1.00  0.00     0.208 A 
ATOM      3  O   UNL     1       9.719   8.451  61.453  1.00  0.00    -0.463 OA
ATOM      4  C   UNL     1       9.797   7.294  62.104  1.00  0.00     0.147 A 
ATOM      5  C   UNL     1      10.524   6.225  61.527  1.00  0.00     0.066 A 
ATOM      6  C   UNL     1      11.181   6.435  60.301  1.00  0.00     0.200 A 
ATOM      7  O   UNL     1      11.827   5.497  59.754  1.00  0.00    -0.288 OA
ATOM      8  C   UNL     1      10.551   4.980  62.168  1.00  0.00     0.020 A 
ATOM      9  C   UNL     1       9.819   4.778  63.331  1.00  0.00     0.047 A 
ATOM     10  C   UNL     1       9.085   5.822  63.906  1.00  0.00     0.125 A 
ATOM     11  C   UNL     1       9.143   7.132  63.358  1.00  0.00     0.069 A 
ENDROOT
BRANCH   1  12
ATOM     12  C   UNL     1      11.770   7.974  58.383  1.00  0.00    -0.011 A 
ATOM     13  C   UNL     1      11.166   7.612  57.167  1.00  0.00     0.013 A 
ATOM     14  C   UNL     1      11.800   7.889  55.952  1.00  0.00     0.047 A 
ATOM     15  C   UNL     1      13.040   8.533  55.936  1.00  0.00     0.115 A 
ATOM     16  C   UNL     1      13.015   8.629  58.359  1.00  0.00     0.013 A 
ATOM     17  C   UNL     1      13.647   8.903  57.143  1.00  0.00     0.047 A 
BRANCH  15  18
ATOM     18  O   UNL     1      13.660   8.801  54.717  1.00  0.00    -0.508 OA
ATOM     19  H   UNL     1      13.169   9.277  53.968  1.00  0.00     0.293 HD
ENDBRANCH  15  18
ENDBRANCH   1  12
BRANCH  11  20
ATOM     20  C   UNL     1       8.390   8.309  64.013  1.00  0.00     0.188 C 
ATOM     21  C   UNL     1       9.044   9.720  63.850  1.00  0.00     0.179 C 
ATOM     22  O   UNL     1       7.956   8.018  65.345  1.00  0.00    -0.362 OA
ATOM     23  C   UNL     1       8.586  10.643  64.980  1.00  0.00     0.177 C 
ATOM     24  C   UNL     1       8.745   8.535  66.415  1.00  0.00     0.176 C 
ATOM     25  C   UNL     1       9.059  10.058  66.314  1.00  0.00     0.177 C 
BRANCH  21  26
ATOM     26  O   UNL     1      10.449   9.629  63.836  1.00  0.00    -0.387 OA
ATOM     27  H   UNL     1      10.723   9.482  62.893  1.00  0.00     0.211 HD
ENDBRANCH  21  26
BRANCH  23  28
ATOM     28  O   UNL     1       9.120  11.931  64.815  1.00  0.00    -0.387 OA
ATOM     29  H   UNL     1       9.753  12.076  65.567  1.00  0.00     0.211 HD
ENDBRANCH  23  28
BRANCH  24  30
ATOM     30  C   UNL     1       9.982   7.668  66.726  1.00  0.00     0.191 C 
BRANCH  30  31
ATOM     31  O   UNL     1      11.143   8.202  66.156  1.00  0.00    -0.394 OA
ATOM     32  H   UNL     1      10.879   8.547  65.264  1.00  0.00     0.210 HD
ENDBRANCH  30  31
ENDBRANCH  24  30
BRANCH  25  33
ATOM     33  O   UNL     1       8.495  10.769  67.389  1.00  0.00    -0.388 OA
ATOM     34  H   UNL     1       7.526  10.556  67.418  1.00  0.00     0.211 HD
ENDBRANCH  25  33
ENDBRANCH  11  20
BRANCH  10  35
ATOM     35  O   UNL     1       8.278   5.534  65.007  1.00  0.00    -0.507 OA
ATOM     36  H   UNL     1       8.575   5.726  65.956  1.00  0.00     0.293 HD
ENDBRANCH  10  35
TORSDOF 9
ENDMDL
MODEL 9
REMARK VINA RESULT:    -5.294      2.036      3.257
REMARK INTER + INTRA:          -7.478
REMARK INTER:                  -7.690
REMARK INTRA:                   0.212
REMARK UNBOUND:                -0.327
REMARK SMILES O=c1c(-c2ccc(O)cc2)coc2c([C@H]3O[C@@H](CO)[C@H](O)[C@@H](O)[C@H]3O)c(O)ccc12
REMARK SMILES IDX 3 1 11 2 12 3 13 4 30 5 2 6 1 7 29 8 28 9 26 10 14 11 4 12
REMARK SMILES IDX 5 13 6 14 7 15 10 16 9 17 8 18 15 20 24 21 16 22 22 23 17 24
REMARK SMILES IDX 20 25 25 26 23 28 18 30 19 31 21 33 27 35
REMARK H PARENT 8 19 25 27 23 29 19 32 21 34 27 36
REMARK Flexibility Score: inf
ROOT
ATOM      1  C   UNL     1      12.608   8.370  58.993  1.00  0.00     0.065 A 
ATOM      2  C   UNL     1      12.962   7.603  60.110  1.00  0.00     0.208 A 
ATOM      3  O   UNL     1      12.160   7.522  61.164  1.00  0.00    -0.463 OA
ATOM      4  C   UNL     1      10.986   8.143  61.243  1.00  0.00     0.147 A 
ATOM      5  C   UNL     1      10.570   8.970  60.172  1.00  0.00     0.066 A 
ATOM      6  C   UNL     1      11.392   9.074  59.035  1.00  0.00     0.200 A 
ATOM      7  O   UNL     1      11.055   9.814  58.069  1.00  0.00    -0.288 OA
ATOM      8  C   UNL     1       9.371   9.687  60.276  1.00  0.00     0.020 A 
ATOM      9  C   UNL     1       8.626   9.635  61.447  1.00  0.00     0.047 A 
ATOM     10  C   UNL     1       9.031   8.831  62.519  1.00  0.00     0.125 A 
ATOM     11  C   UNL     1      10.169   7.987  62.398  1.00  0.00     0.069 A 
ENDROOT
BRANCH   1  12
ATOM     12  C   UNL     1      13.513   8.431  57.818  1.00  0.00    -0.011 A 
ATOM     13  C   UNL     1      14.223   7.289  57.408  1.00  0.00     0.013 A 
ATOM     14  C   UNL     1      15.068   7.342  56.296  1.00  0.00     0.047 A 
ATOM     15  C   UNL     1      15.212   8.533  55.577  1.00  0.00     0.115 A 
ATOM     16  C   UNL     1      13.657   9.624  57.086  1.00  0.00     0.013 A 
ATOM     17  C   UNL     1      14.503   9.674  55.974  1.00  0.00     0.047 A 
BRANCH  15  18
ATOM     18  O   UNL     1      16.059   8.570  54.471  1.00  0.00    -0.508 OA
ATOM     19  H   UNL     1      15.883   9.194  53.692  1.00  0.00     0.293 HD
ENDBRANCH  15  18
ENDBRANCH   1  12
BRANCH  11  20
ATOM     20  C   UNL     1      10.597   7.048  63.546  1.00  0.00     0.188 C 
ATOM     21  C   UNL     1      11.342   5.741  63.123  1.00  0.00     0.179 C 
ATOM     22  O   UNL     1       9.561   6.844  64.510  1.00  0.00    -0.362 OA
ATOM     23  C   UNL     1      11.174   4.670  64.204  1.00  0.00     0.177 C 
ATOM     24  C   UNL     1       8.816   5.631  64.420  1.00  0.00     0.176 C 
ATOM     25  C   UNL     1       9.685   4.339  64.338  1.00  0.00     0.177 C 
BRANCH  21  26
ATOM     26  O   UNL     1      10.867   5.263  61.888  1.00  0.00    -0.387 OA
ATOM     27  H   UNL     1      10.507   6.044  61.392  1.00  0.00     0.211 HD
ENDBRANCH  21  26
BRANCH  23  28
ATOM     28  O   UNL     1      11.886   3.509  63.865  1.00  0.00    -0.387 OA
ATOM     29  H   UNL     1      11.663   2.827  64.552  1.00  0.00     0.211 HD
ENDBRANCH  23  28
BRANCH  24  30
ATOM     30  C   UNL     1       7.695   5.688  63.363  1.00  0.00     0.191 C 
BRANCH  30  31
ATOM     31  O   UNL     1       8.007   4.918  62.237  1.00  0.00    -0.394 OA
ATOM     32  H   UNL     1       8.370   5.549  61.562  1.00  0.00     0.210 HD
ENDBRANCH  30  31
ENDBRANCH  24  30
BRANCH  25  33
ATOM     33  O   UNL     1       9.467   3.505  65.450  1.00  0.00    -0.388 OA
ATOM     34  H   UNL     1       8.785   2.830  65.193  1.00  0.00     0.211 HD
ENDBRANCH  25  33
ENDBRANCH  11  20
BRANCH  10  35
ATOM     35  O   UNL     1       8.309   8.904  63.710  1.00  0.00    -0.507 OA
ATOM     36  H   UNL     1       8.223   8.112  64.337  1.00  0.00     0.293 HD
ENDBRANCH  10  35
TORSDOF 9
ENDMDL
