MODEL 1
REMARK VINA RESULT:    -2.700      0.000      0.000
REMARK INTER + INTRA:          -3.047
REMARK INTER:                  -3.015
REMARK INTRA:                  -0.032
REMARK UNBOUND:                -0.032
REMARK SMILES CCCC(=O)[O-]
REMARK SMILES IDX 3 1 4 2 5 3 6 4 2 5 1 6
REMARK H PARENT
REMARK Flexibility Score: inf
ROOT
ATOM      1  C   UNL     1      32.268  10.870  23.394  1.00  0.00     0.052 C 
ENDROOT
BRANCH   1   2
ATOM      2  C   UNL     1      31.876   9.681  22.576  1.00  0.00     0.041 C 
ATOM      3  O   UNL     1      30.878   8.987  22.903  1.00  0.00    -0.550 OA
ATOM      4  O   UNL     1      32.643   9.309  21.478  1.00  0.00    -0.550 OA
ENDBRANCH   1   2
BRANCH   1   5
ATOM      5  C   UNL     1      33.447  11.601  22.746  1.00  0.00     0.003 C 
ATOM      6  C   UNL     1      34.754  11.290  23.471  1.00  0.00     0.004 C 
ENDBRANCH   1   5
TORSDOF 2
ENDMDL
MODEL 2
REMARK VINA RESULT:    -2.640      1.382      1.716
REMARK INTER + INTRA:          -2.981
REMARK INTER:                  -2.972
REMARK INTRA:                  -0.009
REMARK UNBOUND:                -0.032
REMARK SMILES CCCC(=O)[O-]
REMARK SMILES IDX 3 1 4 2 5 3 6 4 2 5 1 6
REMARK H PARENT
REMARK Flexibility Score: inf
ROOT
ATOM      1  C   UNL     1      33.404  10.252  22.445  1.00  0.00     0.052 C 
ENDROOT
BRANCH   1   2
ATOM      2  C   UNL     1      32.002  10.384  22.950  1.00  0.00     0.041 C 
ATOM      3  O   UNL     1      31.591  11.487  23.398  1.00  0.00    -0.550 OA
ATOM      4  O   UNL     1      31.164   9.276  22.973  1.00  0.00    -0.550 OA
ENDBRANCH   1   2
BRANCH   1   5
ATOM      5  C   UNL     1      34.359  11.104  23.285  1.00  0.00     0.003 C 
ATOM      6  C   UNL     1      35.815  10.748  22.994  1.00  0.00     0.004 C 
ENDBRANCH   1   5
TORSDOF 2
ENDMDL
MODEL 3
REMARK VINA RESULT:    -2.555      2.048      3.169
REMARK INTER + INTRA:          -2.886
REMARK INTER:                  -2.847
REMARK INTRA:                  -0.038
REMARK UNBOUND:                -0.032
REMARK SMILES CCCC(=O)[O-]
REMARK SMILES IDX 3 1 4 2 5 3 6 4 2 5 1 6
REMARK H PARENT
REMARK Flexibility Score: inf
ROOT
ATOM      1  C   UNL     1      32.868  11.400  22.558  1.00  0.00     0.052 C 
ENDROOT
BRANCH   1   2
ATOM      2  C   UNL     1      34.304  11.064  22.809  1.00  0.00     0.041 C 
ATOM      3  O   UNL     1      35.006  11.797  23.552  1.00  0.00    -0.550 OA
ATOM      4  O   UNL     1      34.880   9.966  22.181  1.00  0.00    -0.550 OA
ENDBRANCH   1   2
BRANCH   1   5
ATOM      5  C   UNL     1      31.958  10.604  23.496  1.00  0.00     0.003 C 
ATOM      6  C   UNL     1      31.270   9.460  22.757  1.00  0.00     0.004 C 
ENDBRANCH   1   5
TORSDOF 2
ENDMDL
MODEL 4
REMARK VINA RESULT:    -2.431      2.067      2.808
REMARK INTER + INTRA:          -2.747
REMARK INTER:                  -2.676
REMARK INTRA:                  -0.071
REMARK UNBOUND:                -0.032
REMARK SMILES CCCC(=O)[O-]
REMARK SMILES IDX 3 1 4 2 5 3 6 4 2 5 1 6
REMARK H PARENT
REMARK Flexibility Score: inf
ROOT
ATOM      1  C   UNL     1      32.764  11.537  22.553  1.00  0.00     0.052 C 
ENDROOT
BRANCH   1   2
ATOM      2  C   UNL     1      33.849  10.753  21.885  1.00  0.00     0.041 C 
ATOM      3  O   UNL     1      34.804  10.289  22.560  1.00  0.00    -0.550 OA
ATOM      4  O   UNL     1      33.830  10.577  20.506  1.00  0.00    -0.550 OA
ENDBRANCH   1   2
BRANCH   1   5
ATOM      5  C   UNL     1      31.984  10.650  23.527  1.00  0.00     0.003 C 
ATOM      6  C   UNL     1      31.311   9.491  22.797  1.00  0.00     0.004 C 
ENDBRANCH   1   5
TORSDOF 2
ENDMDL
MODEL 5
REMARK VINA RESULT:    -2.337      1.995      2.582
REMARK INTER + INTRA:          -2.642
REMARK INTER:                  -2.629
REMARK INTRA:                  -0.013
REMARK UNBOUND:                -0.032
REMARK SMILES CCCC(=O)[O-]
REMARK SMILES IDX 3 1 4 2 5 3 6 4 2 5 1 6
REMARK H PARENT
REMARK Flexibility Score: inf
ROOT
ATOM      1  C   UNL     1      32.969  10.118  21.832  1.00  0.00     0.052 C 
ENDROOT
BRANCH   1   2
ATOM      2  C   UNL     1      31.957   9.996  22.927  1.00  0.00     0.041 C 
ATOM      3  O   UNL     1      32.055  10.704  23.963  1.00  0.00    -0.550 OA
ATOM      4  O   UNL     1      30.931   9.064  22.825  1.00  0.00    -0.550 OA
ENDBRANCH   1   2
BRANCH   1   5
ATOM      5  C   UNL     1      33.084   8.801  21.060  1.00  0.00     0.003 C 
ATOM      6  C   UNL     1      34.545   8.412  20.849  1.00  0.00     0.004 C 
ENDBRANCH   1   5
TORSDOF 2
ENDMDL
MODEL 6
REMARK VINA RESULT:    -2.330      2.058      2.931
REMARK INTER + INTRA:          -2.634
REMARK INTER:                  -2.567
REMARK INTRA:                  -0.068
REMARK UNBOUND:                -0.032
REMARK SMILES CCCC(=O)[O-]
REMARK SMILES IDX 3 1 4 2 5 3 6 4 2 5 1 6
REMARK H PARENT
REMARK Flexibility Score: inf
ROOT
ATOM      1  C   UNL     1      33.690  10.715  22.505  1.00  0.00     0.052 C 
ENDROOT
BRANCH   1   2
ATOM      2  C   UNL     1      33.404  10.989  21.062  1.00  0.00     0.041 C 
ATOM      3  O   UNL     1      33.845  10.218  20.171  1.00  0.00    -0.550 OA
ATOM      4  O   UNL     1      32.691  12.125  20.699  1.00  0.00    -0.550 OA
ENDBRANCH   1   2
BRANCH   1   5
ATOM      5  C   UNL     1      32.402  10.784  23.329  1.00  0.00     0.003 C 
ATOM      6  C   UNL     1      31.431   9.678  22.926  1.00  0.00     0.004 C 
ENDBRANCH   1   5
TORSDOF 2
ENDMDL
MODEL 7
REMARK VINA RESULT:    -2.304      1.557      2.009
REMARK INTER + INTRA:          -2.606
REMARK INTER:                  -2.568
REMARK INTRA:                  -0.037
REMARK UNBOUND:                -0.032
REMARK SMILES CCCC(=O)[O-]
REMARK SMILES IDX 3 1 4 2 5 3 6 4 2 5 1 6
REMARK H PARENT
REMARK Flexibility Score: inf
ROOT
ATOM      1  C   UNL     1      34.462  11.343  23.329  1.00  0.00     0.052 C 
ENDROOT
BRANCH   1   2
ATOM      2  C   UNL     1      33.197  10.614  22.999  1.00  0.00     0.041 C 
ATOM      3  O   UNL     1      32.170  10.774  23.709  1.00  0.00    -0.550 OA
ATOM      4  O   UNL     1      33.167   9.721  21.935  1.00  0.00    -0.550 OA
ENDBRANCH   1   2
BRANCH   1   5
ATOM      5  C   UNL     1      35.570  10.965  22.343  1.00  0.00     0.003 C 
ATOM      6  C   UNL     1      36.670  10.162  23.031  1.00  0.00     0.004 C 
ENDBRANCH   1   5
TORSDOF 2
ENDMDL
MODEL 8
REMARK VINA RESULT:    -2.097      2.236      3.057
REMARK INTER + INTRA:          -2.374
REMARK INTER:                  -2.312
REMARK INTRA:                  -0.062
REMARK UNBOUND:                -0.032
REMARK SMILES CCCC(=O)[O-]
REMARK SMILES IDX 3 1 4 2 5 3 6 4 2 5 1 6
REMARK H PARENT
REMARK Flexibility Score: inf
ROOT
ATOM      1  C   UNL     1      33.190  11.095  21.603  1.00  0.00     0.052 C 
ENDROOT
BRANCH   1   2
ATOM      2  C   UNL     1      33.317  10.976  23.089  1.00  0.00     0.041 C 
ATOM      3  O   UNL     1      34.436  11.128  23.645  1.00  0.00    -0.550 OA
ATOM      4  O   UNL     1      32.206  10.648  23.857  1.00  0.00    -0.550 OA
ENDBRANCH   1   2
BRANCH   1   5
ATOM      5  C   UNL     1      33.867   9.909  20.911  1.00  0.00     0.003 C 
ATOM      6  C   UNL     1      33.005   8.653  21.005  1.00  0.00     0.004 C 
ENDBRANCH   1   5
TORSDOF 2
ENDMDL
MODEL 9
REMARK VINA RESULT:    -2.052      3.459      4.029
REMARK INTER + INTRA:          -2.324
REMARK INTER:                  -2.290
REMARK INTRA:                  -0.034
REMARK UNBOUND:                -0.032
REMARK SMILES CCCC(=O)[O-]
REMARK SMILES IDX 3 1 4 2 5 3 6 4 2 5 1 6
REMARK H PARENT
REMARK Flexibility Score: inf
ROOT
ATOM      1  C   UNL     1      34.811  10.366  22.403  1.00  0.00     0.052 C 
ENDROOT
BRANCH   1   2
ATOM      2  C   UNL     1      36.135  10.824  22.927  1.00  0.00     0.041 C 
ATOM      3  O   UNL     1      36.430  12.047  22.923  1.00  0.00    -0.550 OA
ATOM      4  O   UNL     1      37.065   9.893  23.376  1.00  0.00    -0.550 OA
ENDBRANCH   1   2
BRANCH   1   5
ATOM      5  C   UNL     1      33.670  10.991  23.209  1.00  0.00     0.003 C 
ATOM      6  C   UNL     1      32.699  11.740  22.299  1.00  0.00     0.004 C 
ENDBRANCH   1   5
TORSDOF 2
ENDMDL
