MODEL 1
REMARK VINA RESULT:    -3.320      0.000      0.000
REMARK INTER + INTRA:         -10.626
REMARK INTER:                  -7.202
REMARK INTRA:                  -3.424
REMARK UNBOUND:                -3.424
REMARK SMILES CCCCCCCCCCCCCCCCCCCCCC(=O)[O-]
REMARK SMILES IDX 12 1 11 2 10 3 9 4 8 5 7 6 6 7 5 8 4 9 3 10 2 11 1 12 13 13
REMARK SMILES IDX 14 14 15 15 16 16 17 17 18 18 19 19 20 20 21 21 22 22 23 23
REMARK SMILES IDX 24 24
REMARK H PARENT
REMARK Flexibility Score: inf
ROOT
ATOM      1  C   UNL     1      28.090  58.466  82.092  1.00  0.00     0.000 C 
ENDROOT
BRANCH   1   2
ATOM      2  C   UNL     1      27.057  59.263  82.907  1.00  0.00     0.000 C 
BRANCH   2   3
ATOM      3  C   UNL     1      27.544  60.673  83.280  1.00  0.00     0.000 C 
BRANCH   3   4
ATOM      4  C   UNL     1      26.521  61.480  84.107  1.00  0.00    -0.000 C 
BRANCH   4   5
ATOM      5  C   UNL     1      25.071  61.063  83.804  1.00  0.00    -0.000 C 
BRANCH   5   6
ATOM      6  C   UNL     1      24.241  62.203  83.176  1.00  0.00    -0.000 C 
BRANCH   6   7
ATOM      7  C   UNL     1      24.337  62.268  81.639  1.00  0.00    -0.000 C 
BRANCH   7   8
ATOM      8  C   UNL     1      24.237  60.908  80.924  1.00  0.00    -0.000 C 
BRANCH   8   9
ATOM      9  C   UNL     1      25.400  60.585  79.963  1.00  0.00    -0.000 C 
BRANCH   9  10
ATOM     10  C   UNL     1      26.230  61.801  79.511  1.00  0.00    -0.000 C 
BRANCH  10  11
ATOM     11  C   UNL     1      27.737  61.613  79.739  1.00  0.00    -0.003 C 
ATOM     12  C   UNL     1      28.290  60.495  78.859  1.00  0.00     0.004 C 
ENDBRANCH  10  11
ENDBRANCH   9  10
ENDBRANCH   8   9
ENDBRANCH   7   8
ENDBRANCH   6   7
ENDBRANCH   5   6
ENDBRANCH   4   5
ENDBRANCH   3   4
ENDBRANCH   2   3
ENDBRANCH   1   2
BRANCH   1  13
ATOM     13  C   UNL     1      29.496  59.097  82.168  1.00  0.00     0.000 C 
BRANCH  13  14
ATOM     14  C   UNL     1      30.542  58.380  81.298  1.00  0.00     0.000 C 
BRANCH  14  15
ATOM     15  C   UNL     1      31.762  57.902  82.102  1.00  0.00     0.000 C 
BRANCH  15  16
ATOM     16  C   UNL     1      31.380  57.030  83.313  1.00  0.00     0.000 C 
BRANCH  16  17
ATOM     17  C   UNL     1      32.285  57.192  84.549  1.00  0.00     0.000 C 
BRANCH  17  18
ATOM     18  C   UNL     1      31.492  57.363  85.857  1.00  0.00     0.000 C 
BRANCH  18  19
ATOM     19  C   UNL     1      30.310  58.347  85.701  1.00  0.00     0.000 C 
BRANCH  19  20
ATOM     20  C   UNL     1      29.154  58.080  86.684  1.00  0.00     0.006 C 
BRANCH  20  21
ATOM     21  C   UNL     1      27.910  58.946  86.432  1.00  0.00     0.053 C 
BRANCH  21  22
ATOM     22  C   UNL     1      27.679  59.928  87.540  1.00  0.00     0.041 C 
ATOM     23  O   UNL     1      27.060  59.575  88.578  1.00  0.00    -0.550 OA
ATOM     24  O   UNL     1      28.167  61.224  87.439  1.00  0.00    -0.550 OA
ENDBRANCH  21  22
ENDBRANCH  20  21
ENDBRANCH  19  20
ENDBRANCH  18  19
ENDBRANCH  17  18
ENDBRANCH  16  17
ENDBRANCH  15  16
ENDBRANCH  14  15
ENDBRANCH  13  14
ENDBRANCH   1  13
TORSDOF 20
ENDMDL
MODEL 2
REMARK VINA RESULT:    -3.300      3.370      5.215
REMARK INTER + INTRA:         -10.583
REMARK INTER:                  -8.681
REMARK INTRA:                  -1.902
REMARK UNBOUND:                -3.424
REMARK SMILES CCCCCCCCCCCCCCCCCCCCCC(=O)[O-]
REMARK SMILES IDX 12 1 11 2 10 3 9 4 8 5 7 6 6 7 5 8 4 9 3 10 2 11 1 12 13 13
REMARK SMILES IDX 14 14 15 15 16 16 17 17 18 18 19 19 20 20 21 21 22 22 23 23
REMARK SMILES IDX 24 24
REMARK H PARENT
REMARK Flexibility Score: inf
ROOT
ATOM      1  C   UNL     1      26.545  61.080  83.420  1.00  0.00     0.000 C 
ENDROOT
BRANCH   1   2
ATOM      2  C   UNL     1      27.638  61.770  82.587  1.00  0.00     0.000 C 
BRANCH   2   3
ATOM      3  C   UNL     1      27.240  61.962  81.114  1.00  0.00     0.000 C 
BRANCH   3   4
ATOM      4  C   UNL     1      25.713  62.010  80.888  1.00  0.00    -0.000 C 
BRANCH   4   5
ATOM      5  C   UNL     1      25.329  61.652  79.442  1.00  0.00    -0.000 C 
BRANCH   5   6
ATOM      6  C   UNL     1      26.510  61.795  78.458  1.00  0.00    -0.000 C 
BRANCH   6   7
ATOM      7  C   UNL     1      26.111  62.376  77.087  1.00  0.00    -0.000 C 
BRANCH   7   8
ATOM      8  C   UNL     1      24.877  63.296  77.106  1.00  0.00    -0.000 C 
BRANCH   8   9
ATOM      9  C   UNL     1      24.820  64.339  75.971  1.00  0.00    -0.000 C 
BRANCH   9  10
ATOM     10  C   UNL     1      24.852  65.808  76.432  1.00  0.00    -0.000 C 
BRANCH  10  11
ATOM     11  C   UNL     1      25.981  66.615  75.774  1.00  0.00    -0.003 C 
ATOM     12  C   UNL     1      26.953  65.699  75.037  1.00  0.00     0.004 C 
ENDBRANCH  10  11
ENDBRANCH   9  10
ENDBRANCH   8   9
ENDBRANCH   7   8
ENDBRANCH   6   7
ENDBRANCH   5   6
ENDBRANCH   4   5
ENDBRANCH   3   4
ENDBRANCH   2   3
ENDBRANCH   1   2
BRANCH   1  13
ATOM     13  C   UNL     1      26.648  61.437  84.917  1.00  0.00     0.000 C 
BRANCH  13  14
ATOM     14  C   UNL     1      26.585  60.216  85.850  1.00  0.00     0.000 C 
BRANCH  14  15
ATOM     15  C   UNL     1      27.500  60.353  87.077  1.00  0.00     0.000 C 
BRANCH  15  16
ATOM     16  C   UNL     1      28.429  59.141  87.274  1.00  0.00     0.000 C 
BRANCH  16  17
ATOM     17  C   UNL     1      28.053  57.886  86.463  1.00  0.00     0.000 C 
BRANCH  17  18
ATOM     18  C   UNL     1      29.224  57.331  85.634  1.00  0.00     0.000 C 
BRANCH  18  19
ATOM     19  C   UNL     1      30.038  58.450  84.947  1.00  0.00     0.000 C 
BRANCH  19  20
ATOM     20  C   UNL     1      29.572  58.759  83.512  1.00  0.00     0.006 C 
BRANCH  20  21
ATOM     21  C   UNL     1      30.114  57.784  82.456  1.00  0.00     0.053 C 
BRANCH  21  22
ATOM     22  C   UNL     1      31.532  58.096  82.083  1.00  0.00     0.041 C 
ATOM     23  O   UNL     1      31.785  59.065  81.320  1.00  0.00    -0.550 OA
ATOM     24  O   UNL     1      32.574  57.335  82.596  1.00  0.00    -0.550 OA
ENDBRANCH  21  22
ENDBRANCH  20  21
ENDBRANCH  19  20
ENDBRANCH  18  19
ENDBRANCH  17  18
ENDBRANCH  16  17
ENDBRANCH  15  16
ENDBRANCH  14  15
ENDBRANCH  13  14
ENDBRANCH   1  13
TORSDOF 20
ENDMDL
MODEL 3
REMARK VINA RESULT:    -3.298      2.255      5.736
REMARK INTER + INTRA:         -10.577
REMARK INTER:                  -7.137
REMARK INTRA:                  -3.440
REMARK UNBOUND:                -3.424
REMARK SMILES CCCCCCCCCCCCCCCCCCCCCC(=O)[O-]
REMARK SMILES IDX 12 1 11 2 10 3 9 4 8 5 7 6 6 7 5 8 4 9 3 10 2 11 1 12 13 13
REMARK SMILES IDX 14 14 15 15 16 16 17 17 18 18 19 19 20 20 21 21 22 22 23 23
REMARK SMILES IDX 24 24
REMARK H PARENT
REMARK Flexibility Score: inf
ROOT
ATOM      1  C   UNL     1      27.552  61.630  82.284  1.00  0.00     0.000 C 
ENDROOT
BRANCH   1   2
ATOM      2  C   UNL     1      27.303  61.341  83.773  1.00  0.00     0.000 C 
BRANCH   2   3
ATOM      3  C   UNL     1      25.819  61.445  84.165  1.00  0.00     0.000 C 
BRANCH   3   4
ATOM      4  C   UNL     1      25.285  60.193  84.894  1.00  0.00    -0.000 C 
BRANCH   4   5
ATOM      5  C   UNL     1      25.971  58.903  84.411  1.00  0.00    -0.000 C 
BRANCH   5   6
ATOM      6  C   UNL     1      25.691  57.697  85.334  1.00  0.00    -0.000 C 
BRANCH   6   7
ATOM      7  C   UNL     1      24.944  58.066  86.630  1.00  0.00    -0.000 C 
BRANCH   7   8
ATOM      8  C   UNL     1      25.766  57.906  87.922  1.00  0.00    -0.000 C 
BRANCH   8   9
ATOM      9  C   UNL     1      26.753  59.054  88.218  1.00  0.00    -0.000 C 
BRANCH   9  10
ATOM     10  C   UNL     1      28.143  58.902  87.574  1.00  0.00    -0.000 C 
BRANCH  10  11
ATOM     11  C   UNL     1      28.679  60.219  86.995  1.00  0.00    -0.003 C 
ATOM     12  C   UNL     1      27.892  61.413  87.527  1.00  0.00     0.004 C 
ENDBRANCH  10  11
ENDBRANCH   9  10
ENDBRANCH   8   9
ENDBRANCH   7   8
ENDBRANCH   6   7
ENDBRANCH   5   6
ENDBRANCH   4   5
ENDBRANCH   3   4
ENDBRANCH   2   3
ENDBRANCH   1   2
BRANCH   1  13
ATOM     13  C   UNL     1      26.258  61.523  81.449  1.00  0.00     0.000 C 
BRANCH  13  14
ATOM     14  C   UNL     1      26.494  61.596  79.931  1.00  0.00     0.000 C 
BRANCH  14  15
ATOM     15  C   UNL     1      27.982  61.695  79.562  1.00  0.00     0.000 C 
BRANCH  15  16
ATOM     16  C   UNL     1      28.501  60.454  78.812  1.00  0.00     0.000 C 
BRANCH  16  17
ATOM     17  C   UNL     1      28.106  59.100  79.431  1.00  0.00     0.000 C 
BRANCH  17  18
ATOM     18  C   UNL     1      29.295  58.361  80.070  1.00  0.00     0.000 C 
BRANCH  18  19
ATOM     19  C   UNL     1      29.565  58.827  81.518  1.00  0.00     0.000 C 
BRANCH  19  20
ATOM     20  C   UNL     1      29.517  57.686  82.552  1.00  0.00     0.006 C 
BRANCH  20  21
ATOM     21  C   UNL     1      29.640  58.158  84.009  1.00  0.00     0.053 C 
BRANCH  21  22
ATOM     22  C   UNL     1      30.963  57.787  84.606  1.00  0.00     0.041 C 
ATOM     23  O   UNL     1      31.863  57.281  83.885  1.00  0.00    -0.550 OA
ATOM     24  O   UNL     1      31.214  58.021  85.952  1.00  0.00    -0.550 OA
ENDBRANCH  21  22
ENDBRANCH  20  21
ENDBRANCH  19  20
ENDBRANCH  18  19
ENDBRANCH  17  18
ENDBRANCH  16  17
ENDBRANCH  15  16
ENDBRANCH  14  15
ENDBRANCH  13  14
ENDBRANCH   1  13
TORSDOF 20
ENDMDL
MODEL 4
REMARK VINA RESULT:    -3.232      3.422      7.948
REMARK INTER + INTRA:         -10.435
REMARK INTER:                  -7.224
REMARK INTRA:                  -3.211
REMARK UNBOUND:                -3.424
REMARK SMILES CCCCCCCCCCCCCCCCCCCCCC(=O)[O-]
REMARK SMILES IDX 12 1 11 2 10 3 9 4 8 5 7 6 6 7 5 8 4 9 3 10 2 11 1 12 13 13
REMARK SMILES IDX 14 14 15 15 16 16 17 17 18 18 19 19 20 20 21 21 22 22 23 23
REMARK SMILES IDX 24 24
REMARK H PARENT
REMARK Flexibility Score: inf
ROOT
ATOM      1  C   UNL     1      28.900  59.543  82.462  1.00  0.00     0.000 C 
ENDROOT
BRANCH   1   2
ATOM      2  C   UNL     1      28.862  58.486  81.346  1.00  0.00     0.000 C 
BRANCH   2   3
ATOM      3  C   UNL     1      30.263  58.074  80.861  1.00  0.00     0.000 C 
BRANCH   3   4
ATOM      4  C   UNL     1      31.373  58.311  81.907  1.00  0.00    -0.000 C 
BRANCH   4   5
ATOM      5  C   UNL     1      31.761  57.017  82.644  1.00  0.00    -0.000 C 
BRANCH   5   6
ATOM      6  C   UNL     1      31.822  57.199  84.176  1.00  0.00    -0.000 C 
BRANCH   6   7
ATOM      7  C   UNL     1      30.438  57.263  84.850  1.00  0.00    -0.000 C 
BRANCH   7   8
ATOM      8  C   UNL     1      30.187  58.521  85.702  1.00  0.00    -0.000 C 
BRANCH   8   9
ATOM      9  C   UNL     1      29.031  58.405  86.718  1.00  0.00    -0.000 C 
BRANCH   9  10
ATOM     10  C   UNL     1      28.337  59.733  87.071  1.00  0.00    -0.000 C 
BRANCH  10  11
ATOM     11  C   UNL     1      26.922  59.536  87.634  1.00  0.00    -0.003 C 
ATOM     12  C   UNL     1      25.923  59.247  86.518  1.00  0.00     0.004 C 
ENDBRANCH  10  11
ENDBRANCH   9  10
ENDBRANCH   8   9
ENDBRANCH   7   8
ENDBRANCH   6   7
ENDBRANCH   5   6
ENDBRANCH   4   5
ENDBRANCH   3   4
ENDBRANCH   2   3
ENDBRANCH   1   2
BRANCH   1  13
ATOM     13  C   UNL     1      27.553  59.644  83.207  1.00  0.00     0.000 C 
BRANCH  13  14
ATOM     14  C   UNL     1      27.135  61.088  83.535  1.00  0.00     0.000 C 
BRANCH  14  15
ATOM     15  C   UNL     1      25.758  61.456  82.960  1.00  0.00     0.000 C 
BRANCH  15  16
ATOM     16  C   UNL     1      25.830  61.976  81.512  1.00  0.00     0.000 C 
BRANCH  16  17
ATOM     17  C   UNL     1      25.265  61.021  80.443  1.00  0.00     0.000 C 
BRANCH  17  18
ATOM     18  C   UNL     1      26.294  60.653  79.360  1.00  0.00     0.000 C 
BRANCH  18  19
ATOM     19  C   UNL     1      27.588  61.489  79.473  1.00  0.00     0.000 C 
BRANCH  19  20
ATOM     20  C   UNL     1      28.745  60.952  78.610  1.00  0.00     0.006 C 
BRANCH  20  21
ATOM     21  C   UNL     1      28.288  60.221  77.338  1.00  0.00     0.053 C 
BRANCH  21  22
ATOM     22  C   UNL     1      29.313  59.237  76.861  1.00  0.00     0.041 C 
ATOM     23  O   UNL     1      29.547  58.195  77.528  1.00  0.00    -0.550 OA
ATOM     24  O   UNL     1      29.993  59.456  75.670  1.00  0.00    -0.550 OA
ENDBRANCH  21  22
ENDBRANCH  20  21
ENDBRANCH  19  20
ENDBRANCH  18  19
ENDBRANCH  17  18
ENDBRANCH  16  17
ENDBRANCH  15  16
ENDBRANCH  14  15
ENDBRANCH  13  14
ENDBRANCH   1  13
TORSDOF 20
ENDMDL
MODEL 5
REMARK VINA RESULT:    -3.201      1.227      2.085
REMARK INTER + INTRA:         -10.366
REMARK INTER:                  -6.871
REMARK INTRA:                  -3.496
REMARK UNBOUND:                -3.424
REMARK SMILES CCCCCCCCCCCCCCCCCCCCCC(=O)[O-]
REMARK SMILES IDX 12 1 11 2 10 3 9 4 8 5 7 6 6 7 5 8 4 9 3 10 2 11 1 12 13 13
REMARK SMILES IDX 14 14 15 15 16 16 17 17 18 18 19 19 20 20 21 21 22 22 23 23
REMARK SMILES IDX 24 24
REMARK H PARENT
REMARK Flexibility Score: inf
ROOT
ATOM      1  C   UNL     1      28.194  58.439  82.401  1.00  0.00     0.000 C 
ENDROOT
BRANCH   1   2
ATOM      2  C   UNL     1      28.686  59.835  82.818  1.00  0.00     0.000 C 
BRANCH   2   3
ATOM      3  C   UNL     1      27.545  60.857  82.959  1.00  0.00     0.000 C 
BRANCH   3   4
ATOM      4  C   UNL     1      26.266  60.464  82.188  1.00  0.00    -0.000 C 
BRANCH   4   5
ATOM      5  C   UNL     1      25.332  61.666  81.963  1.00  0.00    -0.000 C 
BRANCH   5   6
ATOM      6  C   UNL     1      25.728  62.506  80.729  1.00  0.00    -0.000 C 
BRANCH   6   7
ATOM      7  C   UNL     1      26.242  61.666  79.544  1.00  0.00    -0.000 C 
BRANCH   7   8
ATOM      8  C   UNL     1      27.764  61.720  79.321  1.00  0.00    -0.000 C 
BRANCH   8   9
ATOM      9  C   UNL     1      28.402  60.404  78.830  1.00  0.00    -0.000 C 
BRANCH   9  10
ATOM     10  C   UNL     1      27.461  59.187  78.818  1.00  0.00    -0.000 C 
BRANCH  10  11
ATOM     11  C   UNL     1      28.167  57.890  78.399  1.00  0.00    -0.003 C 
ATOM     12  C   UNL     1      29.504  58.186  77.725  1.00  0.00     0.004 C 
ENDBRANCH  10  11
ENDBRANCH   9  10
ENDBRANCH   8   9
ENDBRANCH   7   8
ENDBRANCH   6   7
ENDBRANCH   5   6
ENDBRANCH   4   5
ENDBRANCH   3   4
ENDBRANCH   2   3
ENDBRANCH   1   2
BRANCH   1  13
ATOM     13  C   UNL     1      29.344  57.555  81.875  1.00  0.00     0.000 C 
BRANCH  13  14
ATOM     14  C   UNL     1      30.526  58.354  81.302  1.00  0.00     0.000 C 
BRANCH  14  15
ATOM     15  C   UNL     1      31.862  58.016  81.983  1.00  0.00     0.000 C 
BRANCH  15  16
ATOM     16  C   UNL     1      31.739  56.889  83.025  1.00  0.00     0.000 C 
BRANCH  16  17
ATOM     17  C   UNL     1      32.516  57.118  84.335  1.00  0.00     0.000 C 
BRANCH  17  18
ATOM     18  C   UNL     1      31.608  57.140  85.577  1.00  0.00     0.000 C 
BRANCH  18  19
ATOM     19  C   UNL     1      30.646  58.350  85.579  1.00  0.00     0.000 C 
BRANCH  19  20
ATOM     20  C   UNL     1      29.224  58.006  86.062  1.00  0.00     0.006 C 
BRANCH  20  21
ATOM     21  C   UNL     1      28.483  59.186  86.708  1.00  0.00     0.053 C 
BRANCH  21  22
ATOM     22  C   UNL     1      27.578  58.737  87.816  1.00  0.00     0.041 C 
ATOM     23  O   UNL     1      28.021  57.998  88.733  1.00  0.00    -0.550 OA
ATOM     24  O   UNL     1      26.254  59.154  87.849  1.00  0.00    -0.550 OA
ENDBRANCH  21  22
ENDBRANCH  20  21
ENDBRANCH  19  20
ENDBRANCH  18  19
ENDBRANCH  17  18
ENDBRANCH  16  17
ENDBRANCH  15  16
ENDBRANCH  14  15
ENDBRANCH  13  14
ENDBRANCH   1  13
TORSDOF 20
ENDMDL
MODEL 6
REMARK VINA RESULT:    -3.163      1.870      3.873
REMARK INTER + INTRA:         -10.284
REMARK INTER:                  -7.336
REMARK INTRA:                  -2.948
REMARK UNBOUND:                -3.424
REMARK SMILES CCCCCCCCCCCCCCCCCCCCCC(=O)[O-]
REMARK SMILES IDX 12 1 11 2 10 3 9 4 8 5 7 6 6 7 5 8 4 9 3 10 2 11 1 12 13 13
REMARK SMILES IDX 14 14 15 15 16 16 17 17 18 18 19 19 20 20 21 21 22 22 23 23
REMARK SMILES IDX 24 24
REMARK H PARENT
REMARK Flexibility Score: inf
ROOT
ATOM      1  C   UNL     1      27.599  61.641  82.331  1.00  0.00     0.000 C 
ENDROOT
BRANCH   1   2
ATOM      2  C   UNL     1      27.258  62.497  81.100  1.00  0.00     0.000 C 
BRANCH   2   3
ATOM      3  C   UNL     1      25.764  62.459  80.737  1.00  0.00     0.000 C 
BRANCH   3   4
ATOM      4  C   UNL     1      25.499  62.163  79.245  1.00  0.00    -0.000 C 
BRANCH   4   5
ATOM      5  C   UNL     1      25.311  60.660  78.976  1.00  0.00    -0.000 C 
BRANCH   5   6
ATOM      6  C   UNL     1      26.350  60.097  77.982  1.00  0.00    -0.000 C 
BRANCH   6   7
ATOM      7  C   UNL     1      27.415  61.124  77.548  1.00  0.00    -0.000 C 
BRANCH   7   8
ATOM      8  C   UNL     1      28.873  60.686  77.781  1.00  0.00    -0.000 C 
BRANCH   8   9
ATOM      9  C   UNL     1      29.096  59.161  77.849  1.00  0.00    -0.000 C 
BRANCH   9  10
ATOM     10  C   UNL     1      30.006  58.584  76.750  1.00  0.00    -0.000 C 
BRANCH  10  11
ATOM     11  C   UNL     1      29.794  59.256  75.386  1.00  0.00    -0.003 C 
ATOM     12  C   UNL     1      28.598  58.652  74.655  1.00  0.00     0.004 C 
ENDBRANCH  10  11
ENDBRANCH   9  10
ENDBRANCH   8   9
ENDBRANCH   7   8
ENDBRANCH   6   7
ENDBRANCH   5   6
ENDBRANCH   4   5
ENDBRANCH   3   4
ENDBRANCH   2   3
ENDBRANCH   1   2
BRANCH   1  13
ATOM     13  C   UNL     1      26.598  60.483  82.526  1.00  0.00     0.000 C 
BRANCH  13  14
ATOM     14  C   UNL     1      27.244  59.089  82.458  1.00  0.00     0.000 C 
BRANCH  14  15
ATOM     15  C   UNL     1      28.230  58.944  81.288  1.00  0.00     0.000 C 
BRANCH  15  16
ATOM     16  C   UNL     1      29.664  58.616  81.746  1.00  0.00     0.000 C 
BRANCH  16  17
ATOM     17  C   UNL     1      30.030  59.105  83.160  1.00  0.00     0.000 C 
BRANCH  17  18
ATOM     18  C   UNL     1      30.295  57.953  84.145  1.00  0.00     0.000 C 
BRANCH  18  19
ATOM     19  C   UNL     1      29.985  58.348  85.606  1.00  0.00     0.000 C 
BRANCH  19  20
ATOM     20  C   UNL     1      28.603  59.003  85.787  1.00  0.00     0.006 C 
BRANCH  20  21
ATOM     21  C   UNL     1      28.427  59.727  87.130  1.00  0.00     0.053 C 
BRANCH  21  22
ATOM     22  C   UNL     1      27.877  61.110  86.951  1.00  0.00     0.041 C 
ATOM     23  O   UNL     1      27.193  61.391  85.932  1.00  0.00    -0.550 OA
ATOM     24  O   UNL     1      28.098  62.081  87.919  1.00  0.00    -0.550 OA
ENDBRANCH  21  22
ENDBRANCH  20  21
ENDBRANCH  19  20
ENDBRANCH  18  19
ENDBRANCH  17  18
ENDBRANCH  16  17
ENDBRANCH  15  16
ENDBRANCH  14  15
ENDBRANCH  13  14
ENDBRANCH   1  13
TORSDOF 20
ENDMDL
MODEL 7
REMARK VINA RESULT:    -3.107      4.105      8.092
REMARK INTER + INTRA:         -10.162
REMARK INTER:                  -7.120
REMARK INTRA:                  -3.042
REMARK UNBOUND:                -3.424
REMARK SMILES CCCCCCCCCCCCCCCCCCCCCC(=O)[O-]
REMARK SMILES IDX 12 1 11 2 10 3 9 4 8 5 7 6 6 7 5 8 4 9 3 10 2 11 1 12 13 13
REMARK SMILES IDX 14 14 15 15 16 16 17 17 18 18 19 19 20 20 21 21 22 22 23 23
REMARK SMILES IDX 24 24
REMARK H PARENT
REMARK Flexibility Score: inf
ROOT
ATOM      1  C   UNL     1      26.939  61.558  82.470  1.00  0.00     0.000 C 
ENDROOT
BRANCH   1   2
ATOM      2  C   UNL     1      27.992  60.483  82.790  1.00  0.00     0.000 C 
BRANCH   2   3
ATOM      3  C   UNL     1      27.448  59.051  82.655  1.00  0.00     0.000 C 
BRANCH   3   4
ATOM      4  C   UNL     1      28.551  57.990  82.448  1.00  0.00    -0.000 C 
BRANCH   4   5
ATOM      5  C   UNL     1      29.963  58.591  82.562  1.00  0.00    -0.000 C 
BRANCH   5   6
ATOM      6  C   UNL     1      30.751  58.037  83.768  1.00  0.00    -0.000 C 
BRANCH   6   7
ATOM      7  C   UNL     1      29.995  56.951  84.560  1.00  0.00    -0.000 C 
BRANCH   7   8
ATOM      8  C   UNL     1      29.627  57.338  86.004  1.00  0.00    -0.000 C 
BRANCH   8   9
ATOM      9  C   UNL     1      29.466  58.851  86.257  1.00  0.00    -0.000 C 
BRANCH   9  10
ATOM     10  C   UNL     1      28.011  59.351  86.325  1.00  0.00    -0.000 C 
BRANCH  10  11
ATOM     11  C   UNL     1      27.696  60.096  87.629  1.00  0.00    -0.003 C 
ATOM     12  C   UNL     1      28.077  61.570  87.525  1.00  0.00     0.004 C 
ENDBRANCH  10  11
ENDBRANCH   9  10
ENDBRANCH   8   9
ENDBRANCH   7   8
ENDBRANCH   6   7
ENDBRANCH   5   6
ENDBRANCH   4   5
ENDBRANCH   3   4
ENDBRANCH   2   3
ENDBRANCH   1   2
BRANCH   1  13
ATOM     13  C   UNL     1      27.215  62.252  81.120  1.00  0.00     0.000 C 
BRANCH  13  14
ATOM     14  C   UNL     1      26.034  62.182  80.136  1.00  0.00     0.000 C 
BRANCH  14  15
ATOM     15  C   UNL     1      26.425  61.585  78.775  1.00  0.00     0.000 C 
BRANCH  15  16
ATOM     16  C   UNL     1      26.064  60.094  78.645  1.00  0.00     0.000 C 
BRANCH  16  17
ATOM     17  C   UNL     1      27.168  59.110  79.073  1.00  0.00     0.000 C 
BRANCH  17  18
ATOM     18  C   UNL     1      28.580  59.717  78.994  1.00  0.00     0.000 C 
BRANCH  18  19
ATOM     19  C   UNL     1      29.670  58.642  78.791  1.00  0.00     0.000 C 
BRANCH  19  20
ATOM     20  C   UNL     1      29.619  57.966  77.407  1.00  0.00     0.006 C 
BRANCH  20  21
ATOM     21  C   UNL     1      30.361  58.740  76.307  1.00  0.00     0.053 C 
BRANCH  21  22
ATOM     22  C   UNL     1      29.445  59.140  75.191  1.00  0.00     0.041 C 
ATOM     23  O   UNL     1      29.859  59.140  74.002  1.00  0.00    -0.550 OA
ATOM     24  O   UNL     1      28.128  59.491  75.459  1.00  0.00    -0.550 OA
ENDBRANCH  21  22
ENDBRANCH  20  21
ENDBRANCH  19  20
ENDBRANCH  18  19
ENDBRANCH  17  18
ENDBRANCH  16  17
ENDBRANCH  15  16
ENDBRANCH  14  15
ENDBRANCH  13  14
ENDBRANCH   1  13
TORSDOF 20
ENDMDL
MODEL 8
REMARK VINA RESULT:    -3.086      4.864      9.174
REMARK INTER + INTRA:         -10.117
REMARK INTER:                  -7.777
REMARK INTRA:                  -2.340
REMARK UNBOUND:                -3.424
REMARK SMILES CCCCCCCCCCCCCCCCCCCCCC(=O)[O-]
REMARK SMILES IDX 12 1 11 2 10 3 9 4 8 5 7 6 6 7 5 8 4 9 3 10 2 11 1 12 13 13
REMARK SMILES IDX 14 14 15 15 16 16 17 17 18 18 19 19 20 20 21 21 22 22 23 23
REMARK SMILES IDX 24 24
REMARK H PARENT
REMARK Flexibility Score: inf
ROOT
ATOM      1  C   UNL     1      27.260  60.608  80.667  1.00  0.00     0.000 C 
ENDROOT
BRANCH   1   2
ATOM      2  C   UNL     1      26.990  60.002  82.055  1.00  0.00     0.000 C 
BRANCH   2   3
ATOM      3  C   UNL     1      27.578  60.842  83.202  1.00  0.00     0.000 C 
BRANCH   3   4
ATOM      4  C   UNL     1      26.519  61.332  84.213  1.00  0.00    -0.000 C 
BRANCH   4   5
ATOM      5  C   UNL     1      25.211  60.527  84.119  1.00  0.00    -0.000 C 
BRANCH   5   6
ATOM      6  C   UNL     1      25.069  59.486  85.250  1.00  0.00    -0.000 C 
BRANCH   6   7
ATOM      7  C   UNL     1      25.747  58.137  84.944  1.00  0.00    -0.000 C 
BRANCH   7   8
ATOM      8  C   UNL     1      26.872  57.739  85.918  1.00  0.00    -0.000 C 
BRANCH   8   9
ATOM      9  C   UNL     1      26.596  58.056  87.402  1.00  0.00    -0.000 C 
BRANCH   9  10
ATOM     10  C   UNL     1      27.660  58.929  88.092  1.00  0.00    -0.000 C 
BRANCH  10  11
ATOM     11  C   UNL     1      28.360  59.894  87.124  1.00  0.00    -0.003 C 
ATOM     12  C   UNL     1      28.055  61.346  87.480  1.00  0.00     0.004 C 
ENDBRANCH  10  11
ENDBRANCH   9  10
ENDBRANCH   8   9
ENDBRANCH   7   8
ENDBRANCH   6   7
ENDBRANCH   5   6
ENDBRANCH   4   5
ENDBRANCH   3   4
ENDBRANCH   2   3
ENDBRANCH   1   2
BRANCH   1  13
ATOM     13  C   UNL     1      27.130  62.146  80.673  1.00  0.00     0.000 C 
BRANCH  13  14
ATOM     14  C   UNL     1      25.687  62.643  80.862  1.00  0.00     0.000 C 
BRANCH  14  15
ATOM     15  C   UNL     1      24.721  62.092  79.801  1.00  0.00     0.000 C 
BRANCH  15  16
ATOM     16  C   UNL     1      23.952  63.198  79.054  1.00  0.00     0.000 C 
BRANCH  16  17
ATOM     17  C   UNL     1      24.052  63.146  77.518  1.00  0.00     0.000 C 
BRANCH  17  18
ATOM     18  C   UNL     1      25.270  62.348  77.021  1.00  0.00     0.000 C 
BRANCH  18  19
ATOM     19  C   UNL     1      26.283  63.236  76.264  1.00  0.00     0.000 C 
BRANCH  19  20
ATOM     20  C   UNL     1      25.622  64.340  75.418  1.00  0.00     0.006 C 
BRANCH  20  21
ATOM     21  C   UNL     1      26.545  65.530  75.113  1.00  0.00     0.053 C 
BRANCH  21  22
ATOM     22  C   UNL     1      25.846  66.842  75.303  1.00  0.00     0.041 C 
ATOM     23  O   UNL     1      24.709  67.031  74.796  1.00  0.00    -0.550 OA
ATOM     24  O   UNL     1      26.437  67.847  76.057  1.00  0.00    -0.550 OA
ENDBRANCH  21  22
ENDBRANCH  20  21
ENDBRANCH  19  20
ENDBRANCH  18  19
ENDBRANCH  17  18
ENDBRANCH  16  17
ENDBRANCH  15  16
ENDBRANCH  14  15
ENDBRANCH  13  14
ENDBRANCH   1  13
TORSDOF 20
ENDMDL
MODEL 9
REMARK VINA RESULT:    -3.046      1.598      5.163
REMARK INTER + INTRA:         -10.031
REMARK INTER:                  -7.083
REMARK INTRA:                  -2.948
REMARK UNBOUND:                -3.424
REMARK SMILES CCCCCCCCCCCCCCCCCCCCCC(=O)[O-]
REMARK SMILES IDX 12 1 11 2 10 3 9 4 8 5 7 6 6 7 5 8 4 9 3 10 2 11 1 12 13 13
REMARK SMILES IDX 14 14 15 15 16 16 17 17 18 18 19 19 20 20 21 21 22 22 23 23
REMARK SMILES IDX 24 24
REMARK H PARENT
REMARK Flexibility Score: inf
ROOT
ATOM      1  C   UNL     1      26.415  61.192  80.062  1.00  0.00     0.000 C 
ENDROOT
BRANCH   1   2
ATOM      2  C   UNL     1      27.656  61.673  79.291  1.00  0.00     0.000 C 
BRANCH   2   3
ATOM      3  C   UNL     1      27.502  61.546  77.766  1.00  0.00     0.000 C 
BRANCH   3   4
ATOM      4  C   UNL     1      26.528  60.428  77.335  1.00  0.00    -0.000 C 
BRANCH   4   5
ATOM      5  C   UNL     1      27.231  59.331  76.516  1.00  0.00    -0.000 C 
BRANCH   5   6
ATOM      6  C   UNL     1      28.762  59.518  76.459  1.00  0.00    -0.000 C 
BRANCH   6   7
ATOM      7  C   UNL     1      29.547  58.475  77.279  1.00  0.00    -0.000 C 
BRANCH   7   8
ATOM      8  C   UNL     1      28.998  58.214  78.693  1.00  0.00    -0.000 C 
BRANCH   8   9
ATOM      9  C   UNL     1      29.894  58.711  79.846  1.00  0.00    -0.000 C 
BRANCH   9  10
ATOM     10  C   UNL     1      29.258  58.638  81.246  1.00  0.00    -0.000 C 
BRANCH  10  11
ATOM     11  C   UNL     1      30.296  58.680  82.377  1.00  0.00    -0.003 C 
ATOM     12  C   UNL     1      31.697  58.388  81.847  1.00  0.00     0.004 C 
ENDBRANCH  10  11
ENDBRANCH   9  10
ENDBRANCH   8   9
ENDBRANCH   7   8
ENDBRANCH   6   7
ENDBRANCH   5   6
ENDBRANCH   4   5
ENDBRANCH   3   4
ENDBRANCH   2   3
ENDBRANCH   1   2
BRANCH   1  13
ATOM     13  C   UNL     1      26.294  61.872  81.442  1.00  0.00     0.000 C 
BRANCH  13  14
ATOM     14  C   UNL     1      27.560  61.749  82.306  1.00  0.00     0.000 C 
BRANCH  14  15
ATOM     15  C   UNL     1      27.254  61.392  83.769  1.00  0.00     0.000 C 
BRANCH  15  16
ATOM     16  C   UNL     1      25.815  60.882  83.976  1.00  0.00     0.000 C 
BRANCH  16  17
ATOM     17  C   UNL     1      25.690  59.377  84.281  1.00  0.00     0.000 C 
BRANCH  17  18
ATOM     18  C   UNL     1      27.051  58.670  84.394  1.00  0.00     0.000 C 
BRANCH  18  19
ATOM     19  C   UNL     1      27.117  57.716  85.607  1.00  0.00     0.000 C 
BRANCH  19  20
ATOM     20  C   UNL     1      28.264  58.038  86.584  1.00  0.00     0.006 C 
BRANCH  20  21
ATOM     21  C   UNL     1      28.694  59.513  86.576  1.00  0.00     0.053 C 
BRANCH  21  22
ATOM     22  C   UNL     1      27.907  60.329  87.555  1.00  0.00     0.041 C 
ATOM     23  O   UNL     1      27.164  59.762  88.398  1.00  0.00    -0.550 OA
ATOM     24  O   UNL     1      28.011  61.714  87.555  1.00  0.00    -0.550 OA
ENDBRANCH  21  22
ENDBRANCH  20  21
ENDBRANCH  19  20
ENDBRANCH  18  19
ENDBRANCH  17  18
ENDBRANCH  16  17
ENDBRANCH  15  16
ENDBRANCH  14  15
ENDBRANCH  13  14
ENDBRANCH   1  13
TORSDOF 20
ENDMDL
