MODEL 1
REMARK VINA RESULT:    -4.960      0.000      0.000
REMARK INTER + INTRA:          -9.129
REMARK INTER:                  -8.729
REMARK INTRA:                  -0.400
REMARK UNBOUND:                -0.400
REMARK SMILES CCCCCCCCCCCCCCC(=O)[O-]
REMARK SMILES IDX 9 1 10 2 11 3 12 4 13 5 14 6 15 7 16 8 17 9 8 10 7 11 6 12
REMARK SMILES IDX 5 13 4 14 3 15 2 16 1 17
REMARK H PARENT
REMARK Flexibility Score: inf
ROOT
ATOM      1  C   UNL     1      -8.559 -13.017   5.817  1.00  0.00     0.000 C 
ENDROOT
BRANCH   1   2
ATOM      2  C   UNL     1      -8.082 -14.283   5.077  1.00  0.00     0.000 C 
BRANCH   2   3
ATOM      3  C   UNL     1      -6.615 -14.674   5.344  1.00  0.00     0.000 C 
BRANCH   3   4
ATOM      4  C   UNL     1      -6.341 -16.191   5.389  1.00  0.00     0.000 C 
BRANCH   4   5
ATOM      5  C   UNL     1      -4.853 -16.583   5.383  1.00  0.00     0.006 C 
BRANCH   5   6
ATOM      6  C   UNL     1      -4.263 -16.662   3.969  1.00  0.00     0.053 C 
BRANCH   6   7
ATOM      7  C   UNL     1      -2.769 -16.624   4.024  1.00  0.00     0.041 C 
ATOM      8  O   UNL     1      -2.182 -15.760   4.728  1.00  0.00    -0.550 OA
ATOM      9  O   UNL     1      -2.022 -17.511   3.260  1.00  0.00    -0.550 OA
ENDBRANCH   6   7
ENDBRANCH   5   6
ENDBRANCH   4   5
ENDBRANCH   3   4
ENDBRANCH   2   3
ENDBRANCH   1   2
BRANCH   1  10
ATOM     10  C   UNL     1     -10.089 -12.824   5.863  1.00  0.00     0.000 C 
BRANCH  10  11
ATOM     11  C   UNL     1     -10.572 -11.597   6.658  1.00  0.00    -0.000 C 
BRANCH  11  12
ATOM     12  C   UNL     1     -11.370 -10.602   5.798  1.00  0.00    -0.000 C 
BRANCH  12  13
ATOM     13  C   UNL     1     -11.899  -9.400   6.603  1.00  0.00    -0.000 C 
BRANCH  13  14
ATOM     14  C   UNL     1     -12.991  -9.728   7.638  1.00  0.00    -0.000 C 
BRANCH  14  15
ATOM     15  C   UNL     1     -14.132 -10.581   7.057  1.00  0.00    -0.000 C 
BRANCH  15  16
ATOM     16  C   UNL     1     -15.510  -9.925   7.243  1.00  0.00    -0.003 C 
ATOM     17  C   UNL     1     -15.913  -9.798   8.712  1.00  0.00     0.004 C 
ENDBRANCH  15  16
ENDBRANCH  14  15
ENDBRANCH  13  14
ENDBRANCH  12  13
ENDBRANCH  11  12
ENDBRANCH  10  11
ENDBRANCH   1  10
TORSDOF 13
ENDMDL
MODEL 2
REMARK VINA RESULT:    -4.932      1.958      3.123
REMARK INTER + INTRA:          -9.080
REMARK INTER:                  -8.027
REMARK INTRA:                  -1.054
REMARK UNBOUND:                -0.400
REMARK SMILES CCCCCCCCCCCCCCC(=O)[O-]
REMARK SMILES IDX 9 1 10 2 11 3 12 4 13 5 14 6 15 7 16 8 17 9 8 10 7 11 6 12
REMARK SMILES IDX 5 13 4 14 3 15 2 16 1 17
REMARK H PARENT
REMARK Flexibility Score: inf
ROOT
ATOM      1  C   UNL     1      -9.176 -11.038   7.924  1.00  0.00     0.000 C 
ENDROOT
BRANCH   1   2
ATOM      2  C   UNL     1      -8.788 -11.643   6.560  1.00  0.00     0.000 C 
BRANCH   2   3
ATOM      3  C   UNL     1      -9.606 -12.882   6.145  1.00  0.00     0.000 C 
BRANCH   3   4
ATOM      4  C   UNL     1      -8.936 -13.784   5.089  1.00  0.00     0.000 C 
BRANCH   4   5
ATOM      5  C   UNL     1      -7.398 -13.737   5.075  1.00  0.00     0.006 C 
BRANCH   5   6
ATOM      6  C   UNL     1      -6.762 -14.805   5.974  1.00  0.00     0.053 C 
BRANCH   6   7
ATOM      7  C   UNL     1      -6.375 -16.003   5.167  1.00  0.00     0.041 C 
ATOM      8  O   UNL     1      -5.268 -16.033   4.567  1.00  0.00    -0.550 OA
ATOM      9  O   UNL     1      -7.256 -17.068   5.038  1.00  0.00    -0.550 OA
ENDBRANCH   6   7
ENDBRANCH   5   6
ENDBRANCH   4   5
ENDBRANCH   3   4
ENDBRANCH   2   3
ENDBRANCH   1   2
BRANCH   1  10
ATOM     10  C   UNL     1      -9.601  -9.555   7.885  1.00  0.00     0.000 C 
BRANCH  10  11
ATOM     11  C   UNL     1     -10.072  -9.042   6.512  1.00  0.00    -0.000 C 
BRANCH  11  12
ATOM     12  C   UNL     1     -11.604  -8.981   6.389  1.00  0.00    -0.000 C 
BRANCH  12  13
ATOM     13  C   UNL     1     -12.244 -10.362   6.151  1.00  0.00    -0.000 C 
BRANCH  13  14
ATOM     14  C   UNL     1     -13.614 -10.578   6.818  1.00  0.00    -0.000 C 
BRANCH  14  15
ATOM     15  C   UNL     1     -13.955  -9.495   7.856  1.00  0.00    -0.000 C 
BRANCH  15  16
ATOM     16  C   UNL     1     -14.076 -10.061   9.279  1.00  0.00    -0.003 C 
ATOM     17  C   UNL     1     -15.197  -9.405  10.085  1.00  0.00     0.004 C 
ENDBRANCH  15  16
ENDBRANCH  14  15
ENDBRANCH  13  14
ENDBRANCH  12  13
ENDBRANCH  11  12
ENDBRANCH  10  11
ENDBRANCH   1  10
TORSDOF 13
ENDMDL
MODEL 3
REMARK VINA RESULT:    -4.891      5.176     10.716
REMARK INTER + INTRA:          -9.007
REMARK INTER:                  -8.470
REMARK INTRA:                  -0.537
REMARK UNBOUND:                -0.400
REMARK SMILES CCCCCCCCCCCCCCC(=O)[O-]
REMARK SMILES IDX 9 1 10 2 11 3 12 4 13 5 14 6 15 7 16 8 17 9 8 10 7 11 6 12
REMARK SMILES IDX 5 13 4 14 3 15 2 16 1 17
REMARK H PARENT
REMARK Flexibility Score: inf
ROOT
ATOM      1  C   UNL     1      -8.745 -12.832   6.225  1.00  0.00     0.000 C 
ENDROOT
BRANCH   1   2
ATOM      2  C   UNL     1     -10.237 -12.668   5.869  1.00  0.00     0.000 C 
BRANCH   2   3
ATOM      3  C   UNL     1     -10.985 -11.601   6.692  1.00  0.00     0.000 C 
BRANCH   3   4
ATOM      4  C   UNL     1     -11.639 -10.477   5.864  1.00  0.00     0.000 C 
BRANCH   4   5
ATOM      5  C   UNL     1     -12.548  -9.526   6.661  1.00  0.00     0.006 C 
BRANCH   5   6
ATOM      6  C   UNL     1     -13.074 -10.153   7.958  1.00  0.00     0.053 C 
BRANCH   6   7
ATOM      7  C   UNL     1     -14.569 -10.109   7.990  1.00  0.00     0.041 C 
ATOM      8  O   UNL     1     -15.230 -10.225   6.924  1.00  0.00    -0.550 OA
ATOM      9  O   UNL     1     -15.233  -9.893   9.191  1.00  0.00    -0.550 OA
ENDBRANCH   6   7
ENDBRANCH   5   6
ENDBRANCH   4   5
ENDBRANCH   3   4
ENDBRANCH   2   3
ENDBRANCH   1   2
BRANCH   1  10
ATOM     10  C   UNL     1      -7.932 -13.710   5.252  1.00  0.00     0.000 C 
BRANCH  10  11
ATOM     11  C   UNL     1      -6.779 -14.505   5.891  1.00  0.00    -0.000 C 
BRANCH  11  12
ATOM     12  C   UNL     1      -6.286 -15.662   5.005  1.00  0.00    -0.000 C 
BRANCH  12  13
ATOM     13  C   UNL     1      -5.747 -16.854   5.819  1.00  0.00    -0.000 C 
BRANCH  13  14
ATOM     14  C   UNL     1      -4.329 -17.322   5.443  1.00  0.00    -0.000 C 
BRANCH  14  15
ATOM     15  C   UNL     1      -3.913 -16.900   4.023  1.00  0.00    -0.000 C 
BRANCH  15  16
ATOM     16  C   UNL     1      -2.423 -16.537   3.930  1.00  0.00    -0.003 C 
ATOM     17  C   UNL     1      -1.944 -15.687   5.107  1.00  0.00     0.004 C 
ENDBRANCH  15  16
ENDBRANCH  14  15
ENDBRANCH  13  14
ENDBRANCH  12  13
ENDBRANCH  11  12
ENDBRANCH  10  11
ENDBRANCH   1  10
TORSDOF 13
ENDMDL
MODEL 4
REMARK VINA RESULT:    -4.865      4.921     11.019
REMARK INTER + INTRA:          -8.961
REMARK INTER:                  -8.603
REMARK INTRA:                  -0.358
REMARK UNBOUND:                -0.400
REMARK SMILES CCCCCCCCCCCCCCC(=O)[O-]
REMARK SMILES IDX 9 1 10 2 11 3 12 4 13 5 14 6 15 7 16 8 17 9 8 10 7 11 6 12
REMARK SMILES IDX 5 13 4 14 3 15 2 16 1 17
REMARK H PARENT
REMARK Flexibility Score: inf
ROOT
ATOM      1  C   UNL     1      -8.387 -13.783   5.099  1.00  0.00     0.000 C 
ENDROOT
BRANCH   1   2
ATOM      2  C   UNL     1      -8.891 -12.760   6.137  1.00  0.00     0.000 C 
BRANCH   2   3
ATOM      3  C   UNL     1     -10.416 -12.538   6.140  1.00  0.00     0.000 C 
BRANCH   3   4
ATOM      4  C   UNL     1     -10.880 -11.195   6.738  1.00  0.00     0.000 C 
BRANCH   4   5
ATOM      5  C   UNL     1     -12.270 -10.723   6.276  1.00  0.00     0.006 C 
BRANCH   5   6
ATOM      6  C   UNL     1     -12.776  -9.505   7.059  1.00  0.00     0.053 C 
BRANCH   6   7
ATOM      7  C   UNL     1     -13.841  -9.912   8.027  1.00  0.00     0.041 C 
ATOM      8  O   UNL     1     -13.530 -10.398   9.147  1.00  0.00    -0.550 OA
ATOM      9  O   UNL     1     -15.180  -9.800   7.675  1.00  0.00    -0.550 OA
ENDBRANCH   6   7
ENDBRANCH   5   6
ENDBRANCH   4   5
ENDBRANCH   3   4
ENDBRANCH   2   3
ENDBRANCH   1   2
BRANCH   1  10
ATOM     10  C   UNL     1      -6.893 -14.148   5.211  1.00  0.00     0.000 C 
BRANCH  10  11
ATOM     11  C   UNL     1      -6.599 -15.624   5.536  1.00  0.00    -0.000 C 
BRANCH  11  12
ATOM     12  C   UNL     1      -5.430 -16.196   4.716  1.00  0.00    -0.000 C 
BRANCH  12  13
ATOM     13  C   UNL     1      -4.186 -16.499   5.573  1.00  0.00    -0.000 C 
BRANCH  13  14
ATOM     14  C   UNL     1      -2.841 -16.067   4.960  1.00  0.00    -0.000 C 
BRANCH  14  15
ATOM     15  C   UNL     1      -2.537 -16.768   3.625  1.00  0.00    -0.000 C 
BRANCH  15  16
ATOM     16  C   UNL     1      -1.611 -17.982   3.795  1.00  0.00    -0.003 C 
ATOM     17  C   UNL     1      -1.551 -18.863   2.548  1.00  0.00     0.004 C 
ENDBRANCH  15  16
ENDBRANCH  14  15
ENDBRANCH  13  14
ENDBRANCH  12  13
ENDBRANCH  11  12
ENDBRANCH  10  11
ENDBRANCH   1  10
TORSDOF 13
ENDMDL
MODEL 5
REMARK VINA RESULT:    -4.773      5.147      9.900
REMARK INTER + INTRA:          -8.800
REMARK INTER:                  -8.283
REMARK INTRA:                  -0.517
REMARK UNBOUND:                -0.400
REMARK SMILES CCCCCCCCCCCCCCC(=O)[O-]
REMARK SMILES IDX 9 1 10 2 11 3 12 4 13 5 14 6 15 7 16 8 17 9 8 10 7 11 6 12
REMARK SMILES IDX 5 13 4 14 3 15 2 16 1 17
REMARK H PARENT
REMARK Flexibility Score: inf
ROOT
ATOM      1  C   UNL     1      -8.634 -12.824   6.206  1.00  0.00     0.000 C 
ENDROOT
BRANCH   1   2
ATOM      2  C   UNL     1     -10.112 -12.641   5.805  1.00  0.00     0.000 C 
BRANCH   2   3
ATOM      3  C   UNL     1     -10.909 -11.668   6.697  1.00  0.00     0.000 C 
BRANCH   3   4
ATOM      4  C   UNL     1     -11.245 -10.312   6.046  1.00  0.00     0.000 C 
BRANCH   4   5
ATOM      5  C   UNL     1     -12.735  -9.927   6.076  1.00  0.00     0.006 C 
BRANCH   5   6
ATOM      6  C   UNL     1     -13.547 -10.770   7.067  1.00  0.00     0.053 C 
BRANCH   6   7
ATOM      7  C   UNL     1     -13.850  -9.978   8.300  1.00  0.00     0.041 C 
ATOM      8  O   UNL     1     -14.863  -9.231   8.341  1.00  0.00    -0.550 OA
ATOM      9  O   UNL     1     -12.988 -10.029   9.387  1.00  0.00    -0.550 OA
ENDBRANCH   6   7
ENDBRANCH   5   6
ENDBRANCH   4   5
ENDBRANCH   3   4
ENDBRANCH   2   3
ENDBRANCH   1   2
BRANCH   1  10
ATOM     10  C   UNL     1      -7.817 -13.754   5.286  1.00  0.00     0.000 C 
BRANCH  10  11
ATOM     11  C   UNL     1      -6.745 -14.603   5.995  1.00  0.00    -0.000 C 
BRANCH  11  12
ATOM     12  C   UNL     1      -6.009 -15.558   5.039  1.00  0.00    -0.000 C 
BRANCH  12  13
ATOM     13  C   UNL     1      -6.200 -17.042   5.406  1.00  0.00    -0.000 C 
BRANCH  13  14
ATOM     14  C   UNL     1      -7.454 -17.711   4.814  1.00  0.00    -0.000 C 
BRANCH  14  15
ATOM     15  C   UNL     1      -7.423 -19.246   4.921  1.00  0.00    -0.000 C 
BRANCH  15  16
ATOM     16  C   UNL     1      -8.689 -19.901   4.348  1.00  0.00    -0.003 C 
ATOM     17  C   UNL     1      -9.333 -19.075   3.236  1.00  0.00     0.004 C 
ENDBRANCH  15  16
ENDBRANCH  14  15
ENDBRANCH  13  14
ENDBRANCH  12  13
ENDBRANCH  11  12
ENDBRANCH  10  11
ENDBRANCH   1  10
TORSDOF 13
ENDMDL
MODEL 6
REMARK VINA RESULT:    -4.746     12.562     13.340
REMARK INTER + INTRA:          -8.752
REMARK INTER:                  -7.213
REMARK INTRA:                  -1.539
REMARK UNBOUND:                -0.400
REMARK SMILES CCCCCCCCCCCCCCC(=O)[O-]
REMARK SMILES IDX 9 1 10 2 11 3 12 4 13 5 14 6 15 7 16 8 17 9 8 10 7 11 6 12
REMARK SMILES IDX 5 13 4 14 3 15 2 16 1 17
REMARK H PARENT
REMARK Flexibility Score: inf
ROOT
ATOM      1  C   UNL     1      -9.528 -18.209  14.399  1.00  0.00     0.000 C 
ENDROOT
BRANCH   1   2
ATOM      2  C   UNL     1      -8.428 -17.976  15.455  1.00  0.00     0.000 C 
BRANCH   2   3
ATOM      3  C   UNL     1      -7.787 -19.260  16.016  1.00  0.00     0.000 C 
BRANCH   3   4
ATOM      4  C   UNL     1      -6.327 -19.504  15.584  1.00  0.00     0.000 C 
BRANCH   4   5
ATOM      5  C   UNL     1      -5.751 -20.874  15.984  1.00  0.00     0.006 C 
BRANCH   5   6
ATOM      6  C   UNL     1      -6.835 -21.884  16.379  1.00  0.00     0.053 C 
BRANCH   6   7
ATOM      7  C   UNL     1      -6.753 -23.102  15.515  1.00  0.00     0.041 C 
ATOM      8  O   UNL     1      -7.184 -23.070  14.331  1.00  0.00    -0.550 OA
ATOM      9  O   UNL     1      -6.245 -24.287  16.030  1.00  0.00    -0.550 OA
ENDBRANCH   6   7
ENDBRANCH   5   6
ENDBRANCH   4   5
ENDBRANCH   3   4
ENDBRANCH   2   3
ENDBRANCH   1   2
BRANCH   1  10
ATOM     10  C   UNL     1      -9.818 -19.688  14.072  1.00  0.00     0.000 C 
BRANCH  10  11
ATOM     11  C   UNL     1     -11.256 -20.155  14.363  1.00  0.00    -0.000 C 
BRANCH  11  12
ATOM     12  C   UNL     1     -11.590 -20.163  15.865  1.00  0.00    -0.000 C 
BRANCH  12  13
ATOM     13  C   UNL     1     -10.774 -21.203  16.656  1.00  0.00    -0.000 C 
BRANCH  13  14
ATOM     14  C   UNL     1     -10.134 -20.687  17.958  1.00  0.00    -0.000 C 
BRANCH  14  15
ATOM     15  C   UNL     1     -10.951 -19.569  18.628  1.00  0.00    -0.000 C 
BRANCH  15  16
ATOM     16  C   UNL     1     -11.759 -20.072  19.834  1.00  0.00    -0.003 C 
ATOM     17  C   UNL     1     -13.238 -19.692  19.758  1.00  0.00     0.004 C 
ENDBRANCH  15  16
ENDBRANCH  14  15
ENDBRANCH  13  14
ENDBRANCH  12  13
ENDBRANCH  11  12
ENDBRANCH  10  11
ENDBRANCH   1  10
TORSDOF 13
ENDMDL
MODEL 7
REMARK VINA RESULT:    -4.730      1.758      3.126
REMARK INTER + INTRA:          -8.723
REMARK INTER:                  -7.523
REMARK INTRA:                  -1.201
REMARK UNBOUND:                -0.400
REMARK SMILES CCCCCCCCCCCCCCC(=O)[O-]
REMARK SMILES IDX 9 1 10 2 11 3 12 4 13 5 14 6 15 7 16 8 17 9 8 10 7 11 6 12
REMARK SMILES IDX 5 13 4 14 3 15 2 16 1 17
REMARK H PARENT
REMARK Flexibility Score: inf
ROOT
ATOM      1  C   UNL     1     -10.614 -11.867   6.681  1.00  0.00     0.000 C 
ENDROOT
BRANCH   1   2
ATOM      2  C   UNL     1      -9.182 -12.394   6.461  1.00  0.00     0.000 C 
BRANCH   2   3
ATOM      3  C   UNL     1      -9.052 -13.479   5.374  1.00  0.00     0.000 C 
BRANCH   3   4
ATOM      4  C   UNL     1      -7.612 -13.760   4.900  1.00  0.00     0.000 C 
BRANCH   4   5
ATOM      5  C   UNL     1      -6.818 -14.743   5.778  1.00  0.00     0.006 C 
BRANCH   5   6
ATOM      6  C   UNL     1      -5.912 -15.673   4.961  1.00  0.00     0.053 C 
BRANCH   6   7
ATOM      7  C   UNL     1      -4.693 -16.038   5.748  1.00  0.00     0.041 C 
ATOM      8  O   UNL     1      -4.750 -16.121   7.003  1.00  0.00    -0.550 OA
ATOM      9  O   UNL     1      -3.481 -16.238   5.099  1.00  0.00    -0.550 OA
ENDBRANCH   6   7
ENDBRANCH   5   6
ENDBRANCH   4   5
ENDBRANCH   3   4
ENDBRANCH   2   3
ENDBRANCH   1   2
BRANCH   1  10
ATOM     10  C   UNL     1     -10.844 -10.402   6.257  1.00  0.00     0.000 C 
BRANCH  10  11
ATOM     11  C   UNL     1     -12.318  -9.994   6.074  1.00  0.00    -0.000 C 
BRANCH  11  12
ATOM     12  C   UNL     1     -13.279 -10.812   6.955  1.00  0.00    -0.000 C 
BRANCH  12  13
ATOM     13  C   UNL     1     -13.945  -9.971   8.059  1.00  0.00    -0.000 C 
BRANCH  13  14
ATOM     14  C   UNL     1     -13.273 -10.045   9.443  1.00  0.00    -0.000 C 
BRANCH  14  15
ATOM     15  C   UNL     1     -12.269  -8.906   9.685  1.00  0.00    -0.000 C 
BRANCH  15  16
ATOM     16  C   UNL     1     -10.828  -9.415   9.844  1.00  0.00    -0.003 C 
ATOM     17  C   UNL     1     -10.760 -10.890  10.239  1.00  0.00     0.004 C 
ENDBRANCH  15  16
ENDBRANCH  14  15
ENDBRANCH  13  14
ENDBRANCH  12  13
ENDBRANCH  11  12
ENDBRANCH  10  11
ENDBRANCH   1  10
TORSDOF 13
ENDMDL
MODEL 8
REMARK VINA RESULT:    -4.677      6.653      9.045
REMARK INTER + INTRA:          -8.632
REMARK INTER:                  -6.902
REMARK INTRA:                  -1.729
REMARK UNBOUND:                -0.400
REMARK SMILES CCCCCCCCCCCCCCC(=O)[O-]
REMARK SMILES IDX 9 1 10 2 11 3 12 4 13 5 14 6 15 7 16 8 17 9 8 10 7 11 6 12
REMARK SMILES IDX 5 13 4 14 3 15 2 16 1 17
REMARK H PARENT
REMARK Flexibility Score: inf
ROOT
ATOM      1  C   UNL     1      -9.169 -11.233   6.645  1.00  0.00     0.000 C 
ENDROOT
BRANCH   1   2
ATOM      2  C   UNL     1     -10.683 -11.521   6.690  1.00  0.00     0.000 C 
BRANCH   2   3
ATOM      3  C   UNL     1     -11.538 -10.638   5.760  1.00  0.00     0.000 C 
BRANCH   3   4
ATOM      4  C   UNL     1     -12.639  -9.822   6.465  1.00  0.00     0.000 C 
BRANCH   4   5
ATOM      5  C   UNL     1     -13.200 -10.458   7.749  1.00  0.00     0.006 C 
BRANCH   5   6
ATOM      6  C   UNL     1     -13.996  -9.466   8.607  1.00  0.00     0.053 C 
BRANCH   6   7
ATOM      7  C   UNL     1     -15.456  -9.561   8.295  1.00  0.00     0.041 C 
ATOM      8  O   UNL     1     -16.312  -9.239   9.161  1.00  0.00    -0.550 OA
ATOM      9  O   UNL     1     -15.873 -10.050   7.064  1.00  0.00    -0.550 OA
ENDBRANCH   6   7
ENDBRANCH   5   6
ENDBRANCH   4   5
ENDBRANCH   3   4
ENDBRANCH   2   3
ENDBRANCH   1   2
BRANCH   1  10
ATOM     10  C   UNL     1      -8.787  -9.738   6.626  1.00  0.00     0.000 C 
BRANCH  10  11
ATOM     11  C   UNL     1      -9.213  -8.936   7.870  1.00  0.00    -0.000 C 
BRANCH  11  12
ATOM     12  C   UNL     1      -8.191  -9.022   9.017  1.00  0.00    -0.000 C 
BRANCH  12  13
ATOM     13  C   UNL     1      -8.835  -9.382  10.369  1.00  0.00    -0.000 C 
BRANCH  13  14
ATOM     14  C   UNL     1     -10.356  -9.617  10.334  1.00  0.00    -0.000 C 
BRANCH  14  15
ATOM     15  C   UNL     1     -10.734 -11.108  10.323  1.00  0.00    -0.000 C 
BRANCH  15  16
ATOM     16  C   UNL     1      -9.594 -12.007  10.827  1.00  0.00    -0.003 C 
ATOM     17  C   UNL     1      -9.932 -12.714  12.139  1.00  0.00     0.004 C 
ENDBRANCH  15  16
ENDBRANCH  14  15
ENDBRANCH  13  14
ENDBRANCH  12  13
ENDBRANCH  11  12
ENDBRANCH  10  11
ENDBRANCH   1  10
TORSDOF 13
ENDMDL
MODEL 9
REMARK VINA RESULT:    -4.613      5.496     10.165
REMARK INTER + INTRA:          -8.518
REMARK INTER:                  -7.854
REMARK INTRA:                  -0.664
REMARK UNBOUND:                -0.400
REMARK SMILES CCCCCCCCCCCCCCC(=O)[O-]
REMARK SMILES IDX 9 1 10 2 11 3 12 4 13 5 14 6 15 7 16 8 17 9 8 10 7 11 6 12
REMARK SMILES IDX 5 13 4 14 3 15 2 16 1 17
REMARK H PARENT
REMARK Flexibility Score: inf
ROOT
ATOM      1  C   UNL     1     -10.399 -12.282   6.219  1.00  0.00     0.000 C 
ENDROOT
BRANCH   1   2
ATOM      2  C   UNL     1      -9.664 -11.029   6.736  1.00  0.00     0.000 C 
BRANCH   2   3
ATOM      3  C   UNL     1     -10.569  -9.981   7.414  1.00  0.00     0.000 C 
BRANCH   3   4
ATOM      4  C   UNL     1     -11.248 -10.450   8.717  1.00  0.00     0.000 C 
BRANCH   4   5
ATOM      5  C   UNL     1     -12.709  -9.997   8.888  1.00  0.00     0.006 C 
BRANCH   5   6
ATOM      6  C   UNL     1     -13.556 -10.229   7.631  1.00  0.00     0.053 C 
BRANCH   6   7
ATOM      7  C   UNL     1     -15.008 -10.042   7.938  1.00  0.00     0.041 C 
ATOM      8  O   UNL     1     -15.844  -9.923   7.004  1.00  0.00    -0.550 OA
ATOM      9  O   UNL     1     -15.433  -9.950   9.257  1.00  0.00    -0.550 OA
ENDBRANCH   6   7
ENDBRANCH   5   6
ENDBRANCH   4   5
ENDBRANCH   3   4
ENDBRANCH   2   3
ENDBRANCH   1   2
BRANCH   1  10
ATOM     10  C   UNL     1      -9.515 -13.292   5.459  1.00  0.00     0.000 C 
BRANCH  10  11
ATOM     11  C   UNL     1      -8.018 -13.259   5.821  1.00  0.00    -0.000 C 
BRANCH  11  12
ATOM     12  C   UNL     1      -7.167 -14.183   4.935  1.00  0.00    -0.000 C 
BRANCH  12  13
ATOM     13  C   UNL     1      -6.476 -15.308   5.728  1.00  0.00    -0.000 C 
BRANCH  13  14
ATOM     14  C   UNL     1      -5.251 -15.943   5.044  1.00  0.00    -0.000 C 
BRANCH  14  15
ATOM     15  C   UNL     1      -5.425 -17.447   4.776  1.00  0.00    -0.000 C 
BRANCH  15  16
ATOM     16  C   UNL     1      -6.838 -17.946   5.115  1.00  0.00    -0.003 C 
ATOM     17  C   UNL     1      -6.834 -19.115   6.100  1.00  0.00     0.004 C 
ENDBRANCH  15  16
ENDBRANCH  14  15
ENDBRANCH  13  14
ENDBRANCH  12  13
ENDBRANCH  11  12
ENDBRANCH  10  11
ENDBRANCH   1  10
TORSDOF 13
ENDMDL
