MODEL 1
REMARK VINA RESULT:     1.114      0.000      0.000
REMARK INTER + INTRA:           3.939
REMARK INTER:                   1.635
REMARK INTRA:                   2.304
REMARK UNBOUND:                 2.304
REMARK SMILES Cc1cc2c(C(C)C)c(O)c(O)c(C=O)c2c(O)c1-c1c(C)cc2c(C(C)C)c(O)c(O)c(C=O)c2c1O
REMARK SMILES IDX 1 1 2 2 3 3 4 4 16 5 13 6 11 7 9 8 5 9 17 10 19 11 20 12
REMARK SMILES IDX 37 13 21 14 36 15 23 16 22 17 24 18 33 19 25 20 31 21 29 22
REMARK SMILES IDX 38 23 34 25 35 26 26 27 27 28 28 29 32 30 30 32 18 34 6 36
REMARK SMILES IDX 7 37 8 38 14 39 15 40 10 41 12 43
REMARK H PARENT 38 24 32 31 30 33 18 35 10 42 12 44
REMARK Flexibility Score: inf
ROOT
ATOM      1  C   UNL     1      12.911  48.094  59.326  1.00  0.00     0.045 C 
ATOM      2  C   UNL     1      11.876  48.930  60.039  1.00  0.00    -0.039 A 
ATOM      3  C   UNL     1      10.534  48.553  59.975  1.00  0.00     0.013 A 
ATOM      4  C   UNL     1       9.517  49.311  60.595  1.00  0.00    -0.006 A 
ATOM      5  C   UNL     1       9.890  50.419  61.412  1.00  0.00     0.039 A 
ATOM      6  C   UNL     1       8.896  51.044  62.222  1.00  0.00     0.072 A 
ATOM      7  C   UNL     1       7.569  50.565  62.196  1.00  0.00     0.169 A 
ATOM      8  C   UNL     1       7.197  49.551  61.307  1.00  0.00     0.162 A 
ATOM      9  C   UNL     1       8.141  48.970  60.434  1.00  0.00     0.008 A 
ATOM     10  C   UNL     1      11.244  50.870  61.377  1.00  0.00     0.132 A 
ATOM     11  C   UNL     1      12.229  50.119  60.700  1.00  0.00     0.031 A 
ENDROOT
BRANCH  11  12
ATOM     12  C   UNL     1      13.643  50.579  60.689  1.00  0.00     0.031 A 
ATOM     13  C   UNL     1      14.276  50.894  59.469  1.00  0.00     0.132 A 
ATOM     14  C   UNL     1      14.362  50.654  61.894  1.00  0.00    -0.039 A 
ATOM     15  C   UNL     1      15.624  51.359  59.456  1.00  0.00     0.039 A 
ATOM     16  C   UNL     1      15.712  51.004  61.867  1.00  0.00     0.013 A 
ATOM     17  C   UNL     1      13.721  50.281  63.208  1.00  0.00     0.045 C 
ATOM     18  C   UNL     1      16.365  51.384  60.678  1.00  0.00    -0.006 A 
ATOM     19  C   UNL     1      16.275  51.745  58.250  1.00  0.00     0.072 A 
ATOM     20  C   UNL     1      17.748  51.757  60.669  1.00  0.00     0.008 A 
ATOM     21  C   UNL     1      17.667  51.899  58.231  1.00  0.00     0.169 A 
ATOM     22  C   UNL     1      18.406  51.855  59.417  1.00  0.00     0.162 A 
BRANCH  13  23
ATOM     23  O   UNL     1      13.588  50.697  58.267  1.00  0.00    -0.507 OA
ATOM     24  H   UNL     1      12.840  50.026  58.147  1.00  0.00     0.293 HD
ENDBRANCH  13  23
BRANCH  19  25
ATOM     25  C   UNL     1      15.551  52.055  56.997  1.00  0.00     0.264 C 
ATOM     26  O   UNL     1      15.298  51.150  56.159  1.00  0.00    -0.298 OA
ENDBRANCH  19  25
BRANCH  20  27
ATOM     27  C   UNL     1      18.544  52.124  61.937  1.00  0.00     0.017 C 
ATOM     28  C   UNL     1      17.714  52.116  63.236  1.00  0.00     0.012 C 
ATOM     29  C   UNL     1      19.854  51.334  62.060  1.00  0.00     0.012 C 
ENDBRANCH  20  27
BRANCH  21  30
ATOM     30  O   UNL     1      18.314  52.125  57.011  1.00  0.00    -0.504 OA
ATOM     31  H   UNL     1      19.317  52.049  56.900  1.00  0.00     0.293 HD
ENDBRANCH  21  30
BRANCH  22  32
ATOM     32  O   UNL     1      19.800  51.919  59.313  1.00  0.00    -0.504 OA
ATOM     33  H   UNL     1      20.430  51.799  60.094  1.00  0.00     0.293 HD
ENDBRANCH  22  32
ENDBRANCH  11  12
BRANCH  10  34
ATOM     34  O   UNL     1      11.604  52.078  61.985  1.00  0.00    -0.507 OA
ATOM     35  H   UNL     1      11.749  52.188  62.981  1.00  0.00     0.293 HD
ENDBRANCH  10  34
BRANCH   9  36
ATOM     36  C   UNL     1       7.674  47.983  59.349  1.00  0.00     0.017 C 
ATOM     37  C   UNL     1       6.349  47.323  59.741  1.00  0.00     0.012 C 
ATOM     38  C   UNL     1       7.597  48.601  57.941  1.00  0.00     0.012 C 
ENDBRANCH   9  36
BRANCH   6  39
ATOM     39  C   UNL     1       9.233  52.125  63.173  1.00  0.00     0.264 C 
ATOM     40  O   UNL     1       9.090  51.957  64.413  1.00  0.00    -0.298 OA
ENDBRANCH   6  39
BRANCH   8  41
ATOM     41  O   UNL     1       5.877  49.093  61.309  1.00  0.00    -0.504 OA
ATOM     42  H   UNL     1       5.623  48.136  61.096  1.00  0.00     0.293 HD
ENDBRANCH   8  41
BRANCH   7  43
ATOM     43  O   UNL     1       6.591  51.064  63.065  1.00  0.00    -0.504 OA
ATOM     44  H   UNL     1       6.060  51.909  62.896  1.00  0.00     0.293 HD
ENDBRANCH   7  43
TORSDOF 11
ENDMDL
