MODEL 1
REMARK VINA RESULT:    -4.508      0.000      0.000
REMARK INTER + INTRA:         -10.159
REMARK INTER:                  -7.935
REMARK INTRA:                  -2.224
REMARK UNBOUND:                -2.224
REMARK SMILES CCCCCCCCCCCCCCC(=O)[O-]
REMARK SMILES IDX 9 1 10 2 11 3 12 4 13 5 14 6 15 7 16 8 17 9 8 10 7 11 6 12
REMARK SMILES IDX 5 13 4 14 3 15 2 16 1 17
REMARK H PARENT
REMARK Flexibility Score: inf
ROOT
ATOM      1  C   UNL     1      15.001 -16.514  39.769  1.00  0.00     0.000 C 
ENDROOT
BRANCH   1   2
ATOM      2  C   UNL     1      15.559 -16.804  38.360  1.00  0.00     0.000 C 
BRANCH   2   3
ATOM      3  C   UNL     1      14.503 -16.913  37.245  1.00  0.00     0.000 C 
BRANCH   3   4
ATOM      4  C   UNL     1      15.108 -16.787  35.836  1.00  0.00     0.000 C 
BRANCH   4   5
ATOM      5  C   UNL     1      16.513 -16.166  35.849  1.00  0.00     0.006 C 
BRANCH   5   6
ATOM      6  C   UNL     1      16.500 -14.662  35.539  1.00  0.00     0.053 C 
BRANCH   6   7
ATOM      7  C   UNL     1      17.853 -14.070  35.771  1.00  0.00     0.041 C 
ATOM      8  O   UNL     1      18.440 -14.243  36.873  1.00  0.00    -0.550 OA
ATOM      9  O   UNL     1      18.446 -13.286  34.791  1.00  0.00    -0.550 OA
ENDBRANCH   6   7
ENDBRANCH   5   6
ENDBRANCH   4   5
ENDBRANCH   3   4
ENDBRANCH   2   3
ENDBRANCH   1   2
BRANCH   1  10
ATOM     10  C   UNL     1      15.084 -15.041  40.210  1.00  0.00     0.000 C 
BRANCH  10  11
ATOM     11  C   UNL     1      15.959 -14.189  39.275  1.00  0.00    -0.000 C 
BRANCH  11  12
ATOM     12  C   UNL     1      15.190 -13.015  38.648  1.00  0.00    -0.000 C 
BRANCH  12  13
ATOM     13  C   UNL     1      13.877 -13.462  37.979  1.00  0.00    -0.000 C 
BRANCH  13  14
ATOM     14  C   UNL     1      12.690 -12.559  38.351  1.00  0.00    -0.000 C 
BRANCH  14  15
ATOM     15  C   UNL     1      11.459 -13.361  38.810  1.00  0.00    -0.000 C 
BRANCH  15  16
ATOM     16  C   UNL     1      11.672 -14.879  38.697  1.00  0.00    -0.003 C 
ATOM     17  C   UNL     1      11.432 -15.612  40.018  1.00  0.00     0.004 C 
ENDBRANCH  15  16
ENDBRANCH  14  15
ENDBRANCH  13  14
ENDBRANCH  12  13
ENDBRANCH  11  12
ENDBRANCH  10  11
ENDBRANCH   1  10
TORSDOF 13
ENDMDL
MODEL 2
REMARK VINA RESULT:    -4.359     10.652     13.565
REMARK INTER + INTRA:          -9.897
REMARK INTER:                  -8.207
REMARK INTRA:                  -1.690
REMARK UNBOUND:                -2.224
REMARK SMILES CCCCCCCCCCCCCCC(=O)[O-]
REMARK SMILES IDX 9 1 10 2 11 3 12 4 13 5 14 6 15 7 16 8 17 9 8 10 7 11 6 12
REMARK SMILES IDX 5 13 4 14 3 15 2 16 1 17
REMARK H PARENT
REMARK Flexibility Score: inf
ROOT
ATOM      1  C   UNL     1      22.295 -26.090  34.159  1.00  0.00     0.000 C 
ENDROOT
BRANCH   1   2
ATOM      2  C   UNL     1      21.645 -25.056  33.216  1.00  0.00     0.000 C 
BRANCH   2   3
ATOM      3  C   UNL     1      20.138 -24.829  33.429  1.00  0.00     0.000 C 
BRANCH   3   4
ATOM      4  C   UNL     1      19.646 -23.494  32.845  1.00  0.00     0.000 C 
BRANCH   4   5
ATOM      5  C   UNL     1      20.577 -22.321  33.189  1.00  0.00     0.006 C 
BRANCH   5   6
ATOM      6  C   UNL     1      19.937 -20.954  32.909  1.00  0.00     0.053 C 
BRANCH   6   7
ATOM      7  C   UNL     1      20.532 -20.342  31.681  1.00  0.00     0.041 C 
ATOM      8  O   UNL     1      19.785 -19.928  30.754  1.00  0.00    -0.550 OA
ATOM      9  O   UNL     1      21.911 -20.274  31.536  1.00  0.00    -0.550 OA
ENDBRANCH   6   7
ENDBRANCH   5   6
ENDBRANCH   4   5
ENDBRANCH   3   4
ENDBRANCH   2   3
ENDBRANCH   1   2
BRANCH   1  10
ATOM     10  C   UNL     1      23.516 -26.824  33.576  1.00  0.00     0.000 C 
BRANCH  10  11
ATOM     11  C   UNL     1      24.847 -26.140  33.934  1.00  0.00    -0.000 C 
BRANCH  11  12
ATOM     12  C   UNL     1      25.653 -25.725  32.692  1.00  0.00    -0.000 C 
BRANCH  12  13
ATOM     13  C   UNL     1      24.833 -25.838  31.394  1.00  0.00    -0.000 C 
BRANCH  13  14
ATOM     14  C   UNL     1      24.520 -24.467  30.773  1.00  0.00    -0.000 C 
BRANCH  14  15
ATOM     15  C   UNL     1      25.164 -23.306  31.552  1.00  0.00    -0.000 C 
BRANCH  15  16
ATOM     16  C   UNL     1      24.127 -22.446  32.290  1.00  0.00    -0.003 C 
ATOM     17  C   UNL     1      24.290 -22.493  33.810  1.00  0.00     0.004 C 
ENDBRANCH  15  16
ENDBRANCH  14  15
ENDBRANCH  13  14
ENDBRANCH  12  13
ENDBRANCH  11  12
ENDBRANCH  10  11
ENDBRANCH   1  10
TORSDOF 13
ENDMDL
MODEL 3
REMARK VINA RESULT:    -4.260      2.943      5.658
REMARK INTER + INTRA:          -9.723
REMARK INTER:                  -7.499
REMARK INTRA:                  -2.223
REMARK UNBOUND:                -2.224
REMARK SMILES CCCCCCCCCCCCCCC(=O)[O-]
REMARK SMILES IDX 9 1 10 2 11 3 12 4 13 5 14 6 15 7 16 8 17 9 8 10 7 11 6 12
REMARK SMILES IDX 5 13 4 14 3 15 2 16 1 17
REMARK H PARENT
REMARK Flexibility Score: inf
ROOT
ATOM      1  C   UNL     1      15.853 -14.137  39.342  1.00  0.00     0.000 C 
ENDROOT
BRANCH   1   2
ATOM      2  C   UNL     1      15.165 -12.887  38.755  1.00  0.00     0.000 C 
BRANCH   2   3
ATOM      3  C   UNL     1      13.992 -13.169  37.800  1.00  0.00     0.000 C 
BRANCH   3   4
ATOM      4  C   UNL     1      12.654 -12.614  38.317  1.00  0.00     0.000 C 
BRANCH   4   5
ATOM      5  C   UNL     1      11.701 -13.722  38.793  1.00  0.00     0.006 C 
BRANCH   5   6
ATOM      6  C   UNL     1      11.818 -15.004  37.958  1.00  0.00     0.053 C 
BRANCH   6   7
ATOM      7  C   UNL     1      11.432 -16.196  38.775  1.00  0.00     0.041 C 
ATOM      8  O   UNL     1      11.152 -16.062  39.996  1.00  0.00    -0.550 OA
ATOM      9  O   UNL     1      11.429 -17.460  38.203  1.00  0.00    -0.550 OA
ENDBRANCH   6   7
ENDBRANCH   5   6
ENDBRANCH   4   5
ENDBRANCH   3   4
ENDBRANCH   2   3
ENDBRANCH   1   2
BRANCH   1  10
ATOM     10  C   UNL     1      14.935 -15.055  40.170  1.00  0.00     0.000 C 
BRANCH  10  11
ATOM     11  C   UNL     1      15.032 -16.531  39.745  1.00  0.00    -0.000 C 
BRANCH  11  12
ATOM     12  C   UNL     1      15.033 -16.710  38.218  1.00  0.00    -0.000 C 
BRANCH  12  13
ATOM     13  C   UNL     1      16.287 -17.446  37.713  1.00  0.00    -0.000 C 
BRANCH  13  14
ATOM     14  C   UNL     1      16.769 -16.922  36.350  1.00  0.00    -0.000 C 
BRANCH  14  15
ATOM     15  C   UNL     1      15.978 -15.689  35.879  1.00  0.00    -0.000 C 
BRANCH  15  16
ATOM     16  C   UNL     1      16.846 -14.702  35.084  1.00  0.00    -0.003 C 
ATOM     17  C   UNL     1      17.459 -13.610  35.962  1.00  0.00     0.004 C 
ENDBRANCH  15  16
ENDBRANCH  14  15
ENDBRANCH  13  14
ENDBRANCH  12  13
ENDBRANCH  11  12
ENDBRANCH  10  11
ENDBRANCH   1  10
TORSDOF 13
ENDMDL
MODEL 4
REMARK VINA RESULT:    -4.230      1.228      3.842
REMARK INTER + INTRA:          -9.669
REMARK INTER:                  -7.568
REMARK INTRA:                  -2.101
REMARK UNBOUND:                -2.224
REMARK SMILES CCCCCCCCCCCCCCC(=O)[O-]
REMARK SMILES IDX 9 1 10 2 11 3 12 4 13 5 14 6 15 7 16 8 17 9 8 10 7 11 6 12
REMARK SMILES IDX 5 13 4 14 3 15 2 16 1 17
REMARK H PARENT
REMARK Flexibility Score: inf
ROOT
ATOM      1  C   UNL     1      12.698 -12.951  37.890  1.00  0.00     0.000 C 
ENDROOT
BRANCH   1   2
ATOM      2  C   UNL     1      14.192 -13.262  37.667  1.00  0.00     0.000 C 
BRANCH   2   3
ATOM      3  C   UNL     1      15.122 -12.894  38.837  1.00  0.00     0.000 C 
BRANCH   3   4
ATOM      4  C   UNL     1      16.258 -13.911  39.040  1.00  0.00     0.000 C 
BRANCH   4   5
ATOM      5  C   UNL     1      16.568 -14.712  37.766  1.00  0.00     0.006 C 
BRANCH   5   6
ATOM      6  C   UNL     1      17.834 -14.221  37.051  1.00  0.00     0.053 C 
BRANCH   6   7
ATOM      7  C   UNL     1      17.545 -13.949  35.609  1.00  0.00     0.041 C 
ATOM      8  O   UNL     1      16.418 -14.235  35.123  1.00  0.00    -0.550 OA
ATOM      9  O   UNL     1      18.534 -13.425  34.788  1.00  0.00    -0.550 OA
ENDBRANCH   6   7
ENDBRANCH   5   6
ENDBRANCH   4   5
ENDBRANCH   3   4
ENDBRANCH   2   3
ENDBRANCH   1   2
BRANCH   1  10
ATOM     10  C   UNL     1      11.775 -14.183  37.920  1.00  0.00     0.000 C 
BRANCH  10  11
ATOM     11  C   UNL     1      11.110 -14.394  39.290  1.00  0.00    -0.000 C 
BRANCH  11  12
ATOM     12  C   UNL     1      11.987 -15.210  40.255  1.00  0.00    -0.000 C 
BRANCH  12  13
ATOM     13  C   UNL     1      12.476 -16.530  39.632  1.00  0.00    -0.000 C 
BRANCH  13  14
ATOM     14  C   UNL     1      14.002 -16.697  39.729  1.00  0.00    -0.000 C 
BRANCH  14  15
ATOM     15  C   UNL     1      14.548 -17.724  38.722  1.00  0.00    -0.000 C 
BRANCH  15  16
ATOM     16  C   UNL     1      13.667 -17.846  37.470  1.00  0.00    -0.003 C 
ATOM     17  C   UNL     1      14.101 -16.907  36.343  1.00  0.00     0.004 C 
ENDBRANCH  15  16
ENDBRANCH  14  15
ENDBRANCH  13  14
ENDBRANCH  12  13
ENDBRANCH  11  12
ENDBRANCH  10  11
ENDBRANCH   1  10
TORSDOF 13
ENDMDL
MODEL 5
REMARK VINA RESULT:    -4.214     12.498     14.875
REMARK INTER + INTRA:          -9.641
REMARK INTER:                  -9.017
REMARK INTRA:                  -0.624
REMARK UNBOUND:                -2.224
REMARK SMILES CCCCCCCCCCCCCCC(=O)[O-]
REMARK SMILES IDX 9 1 10 2 11 3 12 4 13 5 14 6 15 7 16 8 17 9 8 10 7 11 6 12
REMARK SMILES IDX 5 13 4 14 3 15 2 16 1 17
REMARK H PARENT
REMARK Flexibility Score: inf
ROOT
ATOM      1  C   UNL     1      25.082 -23.262  30.213  1.00  0.00     0.000 C 
ENDROOT
BRANCH   1   2
ATOM      2  C   UNL     1      26.590 -23.570  30.106  1.00  0.00     0.000 C 
BRANCH   2   3
ATOM      3  C   UNL     1      27.421 -22.528  29.338  1.00  0.00     0.000 C 
BRANCH   3   4
ATOM      4  C   UNL     1      28.659 -23.135  28.656  1.00  0.00     0.000 C 
BRANCH   4   5
ATOM      5  C   UNL     1      29.659 -22.066  28.187  1.00  0.00     0.006 C 
BRANCH   5   6
ATOM      6  C   UNL     1      29.019 -20.678  28.047  1.00  0.00     0.053 C 
BRANCH   6   7
ATOM      7  C   UNL     1      29.074 -20.219  26.624  1.00  0.00     0.041 C 
ATOM      8  O   UNL     1      28.928 -18.999  26.346  1.00  0.00    -0.550 OA
ATOM      9  O   UNL     1      29.238 -21.143  25.602  1.00  0.00    -0.550 OA
ENDBRANCH   6   7
ENDBRANCH   5   6
ENDBRANCH   4   5
ENDBRANCH   3   4
ENDBRANCH   2   3
ENDBRANCH   1   2
BRANCH   1  10
ATOM     10  C   UNL     1      24.427 -23.675  31.543  1.00  0.00     0.000 C 
BRANCH  10  11
ATOM     11  C   UNL     1      24.879 -22.802  32.725  1.00  0.00    -0.000 C 
BRANCH  11  12
ATOM     12  C   UNL     1      23.785 -22.636  33.793  1.00  0.00    -0.000 C 
BRANCH  12  13
ATOM     13  C   UNL     1      22.367 -22.694  33.196  1.00  0.00    -0.000 C 
BRANCH  13  14
ATOM     14  C   UNL     1      21.838 -21.306  32.798  1.00  0.00    -0.000 C 
BRANCH  14  15
ATOM     15  C   UNL     1      20.364 -21.101  33.191  1.00  0.00    -0.000 C 
BRANCH  15  16
ATOM     16  C   UNL     1      19.551 -20.412  32.084  1.00  0.00    -0.003 C 
ATOM     17  C   UNL     1      20.431 -19.801  30.993  1.00  0.00     0.004 C 
ENDBRANCH  15  16
ENDBRANCH  14  15
ENDBRANCH  13  14
ENDBRANCH  12  13
ENDBRANCH  11  12
ENDBRANCH  10  11
ENDBRANCH   1  10
TORSDOF 13
ENDMDL
MODEL 6
REMARK VINA RESULT:    -4.194      3.617      5.604
REMARK INTER + INTRA:          -9.607
REMARK INTER:                  -7.630
REMARK INTRA:                  -1.977
REMARK UNBOUND:                -2.224
REMARK SMILES CCCCCCCCCCCCCCC(=O)[O-]
REMARK SMILES IDX 9 1 10 2 11 3 12 4 13 5 14 6 15 7 16 8 17 9 8 10 7 11 6 12
REMARK SMILES IDX 5 13 4 14 3 15 2 16 1 17
REMARK H PARENT
REMARK Flexibility Score: inf
ROOT
ATOM      1  C   UNL     1      13.303 -14.704  38.278  1.00  0.00     0.000 C 
ENDROOT
BRANCH   1   2
ATOM      2  C   UNL     1      13.942 -15.339  39.530  1.00  0.00     0.000 C 
BRANCH   2   3
ATOM      3  C   UNL     1      13.897 -16.876  39.584  1.00  0.00     0.000 C 
BRANCH   3   4
ATOM      4  C   UNL     1      15.294 -17.513  39.672  1.00  0.00     0.000 C 
BRANCH   4   5
ATOM      5  C   UNL     1      15.300 -18.986  39.236  1.00  0.00     0.006 C 
BRANCH   5   6
ATOM      6  C   UNL     1      13.895 -19.515  38.915  1.00  0.00     0.053 C 
BRANCH   6   7
ATOM      7  C   UNL     1      13.818 -20.984  39.181  1.00  0.00     0.041 C 
ATOM      8  O   UNL     1      14.240 -21.454  40.271  1.00  0.00    -0.550 OA
ATOM      9  O   UNL     1      13.326 -21.842  38.207  1.00  0.00    -0.550 OA
ENDBRANCH   6   7
ENDBRANCH   5   6
ENDBRANCH   4   5
ENDBRANCH   3   4
ENDBRANCH   2   3
ENDBRANCH   1   2
BRANCH   1  10
ATOM     10  C   UNL     1      13.806 -13.290  37.937  1.00  0.00     0.000 C 
BRANCH  10  11
ATOM     11  C   UNL     1      15.339 -13.177  37.984  1.00  0.00    -0.000 C 
BRANCH  11  12
ATOM     12  C   UNL     1      15.951 -12.832  36.616  1.00  0.00    -0.000 C 
BRANCH  12  13
ATOM     13  C   UNL     1      16.991 -13.871  36.158  1.00  0.00    -0.000 C 
BRANCH  13  14
ATOM     14  C   UNL     1      17.458 -14.782  37.305  1.00  0.00    -0.000 C 
BRANCH  14  15
ATOM     15  C   UNL     1      17.122 -16.263  37.056  1.00  0.00    -0.000 C 
BRANCH  15  16
ATOM     16  C   UNL     1      16.361 -16.480  35.738  1.00  0.00    -0.003 C 
ATOM     17  C   UNL     1      14.959 -17.053  35.950  1.00  0.00     0.004 C 
ENDBRANCH  15  16
ENDBRANCH  14  15
ENDBRANCH  13  14
ENDBRANCH  12  13
ENDBRANCH  11  12
ENDBRANCH  10  11
ENDBRANCH   1  10
TORSDOF 13
ENDMDL
MODEL 7
REMARK VINA RESULT:    -4.192      3.408      5.305
REMARK INTER + INTRA:          -9.603
REMARK INTER:                  -7.684
REMARK INTRA:                  -1.919
REMARK UNBOUND:                -2.224
REMARK SMILES CCCCCCCCCCCCCCC(=O)[O-]
REMARK SMILES IDX 9 1 10 2 11 3 12 4 13 5 14 6 15 7 16 8 17 9 8 10 7 11 6 12
REMARK SMILES IDX 5 13 4 14 3 15 2 16 1 17
REMARK H PARENT
REMARK Flexibility Score: inf
ROOT
ATOM      1  C   UNL     1      13.965 -15.411  39.790  1.00  0.00     0.000 C 
ENDROOT
BRANCH   1   2
ATOM      2  C   UNL     1      13.959 -16.876  39.306  1.00  0.00     0.000 C 
BRANCH   2   3
ATOM      3  C   UNL     1      15.257 -17.660  39.571  1.00  0.00     0.000 C 
BRANCH   3   4
ATOM      4  C   UNL     1      15.104 -19.171  39.321  1.00  0.00     0.000 C 
BRANCH   4   5
ATOM      5  C   UNL     1      13.674 -19.671  39.585  1.00  0.00     0.006 C 
BRANCH   5   6
ATOM      6  C   UNL     1      13.114 -20.502  38.422  1.00  0.00     0.053 C 
BRANCH   6   7
ATOM      7  C   UNL     1      12.305 -19.638  37.507  1.00  0.00     0.041 C 
ATOM      8  O   UNL     1      12.598 -19.562  36.284  1.00  0.00    -0.550 OA
ATOM      9  O   UNL     1      11.259 -18.879  38.012  1.00  0.00    -0.550 OA
ENDBRANCH   6   7
ENDBRANCH   5   6
ENDBRANCH   4   5
ENDBRANCH   3   4
ENDBRANCH   2   3
ENDBRANCH   1   2
BRANCH   1  10
ATOM     10  C   UNL     1      15.247 -14.972  40.520  1.00  0.00     0.000 C 
BRANCH  10  11
ATOM     11  C   UNL     1      16.001 -13.857  39.776  1.00  0.00    -0.000 C 
BRANCH  11  12
ATOM     12  C   UNL     1      15.233 -13.337  38.550  1.00  0.00    -0.000 C 
BRANCH  12  13
ATOM     13  C   UNL     1      16.026 -13.510  37.242  1.00  0.00    -0.000 C 
BRANCH  13  14
ATOM     14  C   UNL     1      17.343 -14.275  37.449  1.00  0.00    -0.000 C 
BRANCH  14  15
ATOM     15  C   UNL     1      17.231 -15.759  37.056  1.00  0.00    -0.000 C 
BRANCH  15  16
ATOM     16  C   UNL     1      16.454 -15.964  35.746  1.00  0.00    -0.003 C 
ATOM     17  C   UNL     1      15.258 -16.903  35.905  1.00  0.00     0.004 C 
ENDBRANCH  15  16
ENDBRANCH  14  15
ENDBRANCH  13  14
ENDBRANCH  12  13
ENDBRANCH  11  12
ENDBRANCH  10  11
ENDBRANCH   1  10
TORSDOF 13
ENDMDL
MODEL 8
REMARK VINA RESULT:    -4.152      3.143      5.518
REMARK INTER + INTRA:          -9.532
REMARK INTER:                  -7.288
REMARK INTRA:                  -2.243
REMARK UNBOUND:                -2.224
REMARK SMILES CCCCCCCCCCCCCCC(=O)[O-]
REMARK SMILES IDX 9 1 10 2 11 3 12 4 13 5 14 6 15 7 16 8 17 9 8 10 7 11 6 12
REMARK SMILES IDX 5 13 4 14 3 15 2 16 1 17
REMARK H PARENT
REMARK Flexibility Score: inf
ROOT
ATOM      1  C   UNL     1      15.879 -13.151  37.066  1.00  0.00     0.000 C 
ENDROOT
BRANCH   1   2
ATOM      2  C   UNL     1      15.313 -12.985  38.492  1.00  0.00     0.000 C 
BRANCH   2   3
ATOM      3  C   UNL     1      15.885 -13.951  39.544  1.00  0.00     0.000 C 
BRANCH   3   4
ATOM      4  C   UNL     1      14.864 -15.004  40.007  1.00  0.00     0.000 C 
BRANCH   4   5
ATOM      5  C   UNL     1      13.551 -14.942  39.212  1.00  0.00     0.006 C 
BRANCH   5   6
ATOM      6  C   UNL     1      12.339 -15.403  40.034  1.00  0.00     0.053 C 
BRANCH   6   7
ATOM      7  C   UNL     1      11.093 -14.734  39.546  1.00  0.00     0.041 C 
ATOM      8  O   UNL     1       9.981 -15.001  40.075  1.00  0.00    -0.550 OA
ATOM      9  O   UNL     1      11.152 -13.853  38.474  1.00  0.00    -0.550 OA
ENDBRANCH   6   7
ENDBRANCH   5   6
ENDBRANCH   4   5
ENDBRANCH   3   4
ENDBRANCH   2   3
ENDBRANCH   1   2
BRANCH   1  10
ATOM     10  C   UNL     1      17.232 -13.882  36.986  1.00  0.00     0.000 C 
BRANCH  10  11
ATOM     11  C   UNL     1      17.130 -15.243  36.275  1.00  0.00    -0.000 C 
BRANCH  11  12
ATOM     12  C   UNL     1      15.676 -15.680  36.037  1.00  0.00    -0.000 C 
BRANCH  12  13
ATOM     13  C   UNL     1      15.333 -16.999  36.754  1.00  0.00    -0.000 C 
BRANCH  13  14
ATOM     14  C   UNL     1      16.420 -17.424  37.756  1.00  0.00    -0.000 C 
BRANCH  14  15
ATOM     15  C   UNL     1      15.887 -18.390  38.829  1.00  0.00    -0.000 C 
BRANCH  15  16
ATOM     16  C   UNL     1      14.361 -18.560  38.762  1.00  0.00    -0.003 C 
ATOM     17  C   UNL     1      13.733 -18.832  40.130  1.00  0.00     0.004 C 
ENDBRANCH  15  16
ENDBRANCH  14  15
ENDBRANCH  13  14
ENDBRANCH  12  13
ENDBRANCH  11  12
ENDBRANCH  10  11
ENDBRANCH   1  10
TORSDOF 13
ENDMDL
MODEL 9
REMARK VINA RESULT:    -4.135      2.689      5.583
REMARK INTER + INTRA:          -9.502
REMARK INTER:                  -7.857
REMARK INTRA:                  -1.645
REMARK UNBOUND:                -2.224
REMARK SMILES CCCCCCCCCCCCCCC(=O)[O-]
REMARK SMILES IDX 9 1 10 2 11 3 12 4 13 5 14 6 15 7 16 8 17 9 8 10 7 11 6 12
REMARK SMILES IDX 5 13 4 14 3 15 2 16 1 17
REMARK H PARENT
REMARK Flexibility Score: inf
ROOT
ATOM      1  C   UNL     1      14.075 -16.068  39.644  1.00  0.00     0.000 C 
ENDROOT
BRANCH   1   2
ATOM      2  C   UNL     1      14.891 -14.996  40.396  1.00  0.00     0.000 C 
BRANCH   2   3
ATOM      3  C   UNL     1      15.824 -14.144  39.517  1.00  0.00     0.000 C 
BRANCH   3   4
ATOM      4  C   UNL     1      15.135 -12.887  38.959  1.00  0.00     0.000 C 
BRANCH   4   5
ATOM      5  C   UNL     1      14.071 -13.218  37.900  1.00  0.00     0.006 C 
BRANCH   5   6
ATOM      6  C   UNL     1      12.698 -12.617  38.232  1.00  0.00     0.053 C 
BRANCH   6   7
ATOM      7  C   UNL     1      11.685 -13.702  38.416  1.00  0.00     0.041 C 
ATOM      8  O   UNL     1      11.454 -14.518  37.485  1.00  0.00    -0.550 OA
ATOM      9  O   UNL     1      10.961 -13.782  39.597  1.00  0.00    -0.550 OA
ENDBRANCH   6   7
ENDBRANCH   5   6
ENDBRANCH   4   5
ENDBRANCH   3   4
ENDBRANCH   2   3
ENDBRANCH   1   2
BRANCH   1  10
ATOM     10  C   UNL     1      14.718 -17.466  39.604  1.00  0.00     0.000 C 
BRANCH  10  11
ATOM     11  C   UNL     1      15.739 -17.617  38.464  1.00  0.00    -0.000 C 
BRANCH  11  12
ATOM     12  C   UNL     1      15.147 -17.272  37.087  1.00  0.00    -0.000 C 
BRANCH  12  13
ATOM     13  C   UNL     1      15.850 -16.073  36.428  1.00  0.00    -0.000 C 
BRANCH  13  14
ATOM     14  C   UNL     1      17.370 -16.077  36.665  1.00  0.00    -0.000 C 
BRANCH  14  15
ATOM     15  C   UNL     1      17.932 -14.667  36.919  1.00  0.00    -0.000 C 
BRANCH  15  16
ATOM     16  C   UNL     1      17.499 -13.659  35.843  1.00  0.00    -0.003 C 
ATOM     17  C   UNL     1      18.496 -13.558  34.688  1.00  0.00     0.004 C 
ENDBRANCH  15  16
ENDBRANCH  14  15
ENDBRANCH  13  14
ENDBRANCH  12  13
ENDBRANCH  11  12
ENDBRANCH  10  11
ENDBRANCH   1  10
TORSDOF 13
ENDMDL
