MODEL 1
REMARK VINA RESULT:    -4.194      0.000      0.000
REMARK INTER + INTRA:         -13.136
REMARK INTER:                  -9.588
REMARK INTRA:                  -3.548
REMARK UNBOUND:                -3.548
REMARK SMILES CCCCCCCCCCCCCCCCCCCCCCCC(=O)[O-]
REMARK SMILES IDX 13 1 14 2 15 3 16 4 17 5 18 6 19 7 20 8 21 9 22 10 23 11
REMARK SMILES IDX 24 12 25 13 26 14 12 15 11 16 10 17 9 18 8 19 7 20 6 21 5 22
REMARK SMILES IDX 4 23 3 24 2 25 1 26
REMARK H PARENT
REMARK Flexibility Score: inf
ROOT
ATOM      1  C   UNL     1       9.912  -3.655  38.566  1.00  0.00     0.000 C 
ENDROOT
BRANCH   1   2
ATOM      2  C   UNL     1      10.691  -4.593  39.509  1.00  0.00     0.000 C 
BRANCH   2   3
ATOM      3  C   UNL     1      11.997  -3.961  40.023  1.00  0.00     0.000 C 
BRANCH   3   4
ATOM      4  C   UNL     1      11.957  -3.652  41.534  1.00  0.00     0.000 C 
BRANCH   4   5
ATOM      5  C   UNL     1      11.375  -2.270  41.884  1.00  0.00     0.000 C 
BRANCH   5   6
ATOM      6  C   UNL     1      10.088  -2.347  42.726  1.00  0.00     0.000 C 
BRANCH   6   7
ATOM      7  C   UNL     1       9.479  -3.758  42.749  1.00  0.00     0.000 C 
BRANCH   7   8
ATOM      8  C   UNL     1       7.941  -3.741  42.709  1.00  0.00     0.000 C 
BRANCH   8   9
ATOM      9  C   UNL     1       7.351  -5.165  42.646  1.00  0.00     0.000 C 
BRANCH   9  10
ATOM     10  C   UNL     1       7.707  -5.923  41.354  1.00  0.00     0.006 C 
BRANCH  10  11
ATOM     11  C   UNL     1       8.633  -7.118  41.599  1.00  0.00     0.053 C 
BRANCH  11  12
ATOM     12  C   UNL     1       7.838  -8.325  41.989  1.00  0.00     0.041 C 
ATOM     13  O   UNL     1       7.925  -8.791  43.155  1.00  0.00    -0.550 OA
ATOM     14  O   UNL     1       7.038  -8.963  41.049  1.00  0.00    -0.550 OA
ENDBRANCH  11  12
ENDBRANCH  10  11
ENDBRANCH   9  10
ENDBRANCH   8   9
ENDBRANCH   7   8
ENDBRANCH   6   7
ENDBRANCH   5   6
ENDBRANCH   4   5
ENDBRANCH   3   4
ENDBRANCH   2   3
ENDBRANCH   1   2
BRANCH   1  15
ATOM     15  C   UNL     1       8.938  -2.702  39.285  1.00  0.00     0.000 C 
BRANCH  15  16
ATOM     16  C   UNL     1       7.464  -3.022  38.975  1.00  0.00     0.000 C 
BRANCH  16  17
ATOM     17  C   UNL     1       6.749  -1.875  38.241  1.00  0.00     0.000 C 
BRANCH  17  18
ATOM     18  C   UNL     1       6.907  -1.964  36.713  1.00  0.00    -0.000 C 
BRANCH  18  19
ATOM     19  C   UNL     1       7.074  -3.410  36.212  1.00  0.00    -0.000 C 
BRANCH  19  20
ATOM     20  C   UNL     1       8.000  -3.581  34.990  1.00  0.00    -0.000 C 
BRANCH  20  21
ATOM     21  C   UNL     1       8.703  -4.950  34.884  1.00  0.00    -0.000 C 
BRANCH  21  22
ATOM     22  C   UNL     1       9.985  -4.956  34.029  1.00  0.00    -0.000 C 
BRANCH  22  23
ATOM     23  C   UNL     1      10.947  -3.783  34.302  1.00  0.00    -0.000 C 
BRANCH  23  24
ATOM     24  C   UNL     1      11.828  -3.985  35.553  1.00  0.00    -0.000 C 
BRANCH  24  25
ATOM     25  C   UNL     1      12.704  -5.241  35.459  1.00  0.00    -0.003 C 
ATOM     26  C   UNL     1      12.827  -5.931  36.814  1.00  0.00     0.004 C 
ENDBRANCH  24  25
ENDBRANCH  23  24
ENDBRANCH  22  23
ENDBRANCH  21  22
ENDBRANCH  20  21
ENDBRANCH  19  20
ENDBRANCH  18  19
ENDBRANCH  17  18
ENDBRANCH  16  17
ENDBRANCH  15  16
ENDBRANCH   1  15
TORSDOF 22
ENDMDL
MODEL 2
REMARK VINA RESULT:    -4.065      1.139      3.905
REMARK INTER + INTRA:         -12.841
REMARK INTER:                  -9.791
REMARK INTRA:                  -3.050
REMARK UNBOUND:                -3.548
REMARK SMILES CCCCCCCCCCCCCCCCCCCCCCCC(=O)[O-]
REMARK SMILES IDX 13 1 14 2 15 3 16 4 17 5 18 6 19 7 20 8 21 9 22 10 23 11
REMARK SMILES IDX 24 12 25 13 26 14 12 15 11 16 10 17 9 18 8 19 7 20 6 21 5 22
REMARK SMILES IDX 4 23 3 24 2 25 1 26
REMARK H PARENT
REMARK Flexibility Score: inf
ROOT
ATOM      1  C   UNL     1       6.379  -2.878  37.294  1.00  0.00     0.000 C 
ENDROOT
BRANCH   1   2
ATOM      2  C   UNL     1       7.288  -3.195  38.497  1.00  0.00     0.000 C 
BRANCH   2   3
ATOM      3  C   UNL     1       7.654  -1.938  39.306  1.00  0.00     0.000 C 
BRANCH   3   4
ATOM      4  C   UNL     1       8.796  -2.187  40.313  1.00  0.00     0.000 C 
BRANCH   4   5
ATOM      5  C   UNL     1       8.469  -1.773  41.760  1.00  0.00     0.000 C 
BRANCH   5   6
ATOM      6  C   UNL     1       8.587  -2.933  42.766  1.00  0.00     0.000 C 
BRANCH   6   7
ATOM      7  C   UNL     1       8.743  -4.299  42.079  1.00  0.00     0.000 C 
BRANCH   7   8
ATOM      8  C   UNL     1       7.486  -5.175  42.210  1.00  0.00     0.000 C 
BRANCH   8   9
ATOM      9  C   UNL     1       7.487  -5.991  43.520  1.00  0.00     0.000 C 
BRANCH   9  10
ATOM     10  C   UNL     1       8.554  -7.099  43.555  1.00  0.00     0.006 C 
BRANCH  10  11
ATOM     11  C   UNL     1       8.001  -8.473  43.163  1.00  0.00     0.053 C 
BRANCH  11  12
ATOM     12  C   UNL     1       8.256  -8.745  41.713  1.00  0.00     0.041 C 
ATOM     13  O   UNL     1       7.438  -9.429  41.043  1.00  0.00    -0.550 OA
ATOM     14  O   UNL     1       9.421  -8.283  41.114  1.00  0.00    -0.550 OA
ENDBRANCH  11  12
ENDBRANCH  10  11
ENDBRANCH   9  10
ENDBRANCH   8   9
ENDBRANCH   7   8
ENDBRANCH   6   7
ENDBRANCH   5   6
ENDBRANCH   4   5
ENDBRANCH   3   4
ENDBRANCH   2   3
ENDBRANCH   1   2
BRANCH   1  15
ATOM     15  C   UNL     1       7.012  -3.188  35.924  1.00  0.00     0.000 C 
BRANCH  15  16
ATOM     16  C   UNL     1       8.320  -3.991  36.047  1.00  0.00     0.000 C 
BRANCH  16  17
ATOM     17  C   UNL     1       8.630  -4.819  34.788  1.00  0.00     0.000 C 
BRANCH  17  18
ATOM     18  C   UNL     1      10.128  -5.140  34.649  1.00  0.00    -0.000 C 
BRANCH  18  19
ATOM     19  C   UNL     1      11.033  -3.973  35.083  1.00  0.00    -0.000 C 
BRANCH  19  20
ATOM     20  C   UNL     1      12.382  -4.383  35.710  1.00  0.00    -0.000 C 
BRANCH  20  21
ATOM     21  C   UNL     1      12.302  -4.903  37.160  1.00  0.00    -0.000 C 
BRANCH  21  22
ATOM     22  C   UNL     1      11.282  -4.175  38.056  1.00  0.00    -0.000 C 
BRANCH  22  23
ATOM     23  C   UNL     1      11.443  -4.441  39.566  1.00  0.00    -0.000 C 
BRANCH  23  24
ATOM     24  C   UNL     1      12.349  -3.416  40.281  1.00  0.00    -0.000 C 
BRANCH  24  25
ATOM     25  C   UNL     1      12.209  -3.473  41.808  1.00  0.00    -0.003 C 
ATOM     26  C   UNL     1      12.169  -2.072  42.410  1.00  0.00     0.004 C 
ENDBRANCH  24  25
ENDBRANCH  23  24
ENDBRANCH  22  23
ENDBRANCH  21  22
ENDBRANCH  20  21
ENDBRANCH  19  20
ENDBRANCH  18  19
ENDBRANCH  17  18
ENDBRANCH  16  17
ENDBRANCH  15  16
ENDBRANCH   1  15
TORSDOF 22
ENDMDL
MODEL 3
REMARK VINA RESULT:    -4.011      3.573      7.190
REMARK INTER + INTRA:         -12.718
REMARK INTER:                 -10.614
REMARK INTRA:                  -2.104
REMARK UNBOUND:                -3.548
REMARK SMILES CCCCCCCCCCCCCCCCCCCCCCCC(=O)[O-]
REMARK SMILES IDX 13 1 14 2 15 3 16 4 17 5 18 6 19 7 20 8 21 9 22 10 23 11
REMARK SMILES IDX 24 12 25 13 26 14 12 15 11 16 10 17 9 18 8 19 7 20 6 21 5 22
REMARK SMILES IDX 4 23 3 24 2 25 1 26
REMARK H PARENT
REMARK Flexibility Score: inf
ROOT
ATOM      1  C   UNL     1       8.277  -8.773  42.354  1.00  0.00     0.000 C 
ENDROOT
BRANCH   1   2
ATOM      2  C   UNL     1       8.033  -8.991  43.860  1.00  0.00     0.000 C 
BRANCH   2   3
ATOM      3  C   UNL     1       7.135 -10.209  44.141  1.00  0.00     0.000 C 
BRANCH   3   4
ATOM      4  C   UNL     1       6.883 -11.069  42.885  1.00  0.00     0.000 C 
BRANCH   4   5
ATOM      5  C   UNL     1       5.400 -11.206  42.495  1.00  0.00     0.000 C 
BRANCH   5   6
ATOM      6  C   UNL     1       5.188 -11.470  40.993  1.00  0.00     0.000 C 
BRANCH   6   7
ATOM      7  C   UNL     1       6.299 -10.864  40.121  1.00  0.00     0.000 C 
BRANCH   7   8
ATOM      8  C   UNL     1       6.864 -11.865  39.099  1.00  0.00     0.000 C 
BRANCH   8   9
ATOM      9  C   UNL     1       8.112 -12.596  39.639  1.00  0.00     0.000 C 
BRANCH   9  10
ATOM     10  C   UNL     1       7.798 -13.958  40.283  1.00  0.00     0.006 C 
BRANCH  10  11
ATOM     11  C   UNL     1       8.738 -14.301  41.443  1.00  0.00     0.053 C 
BRANCH  11  12
ATOM     12  C   UNL     1       7.959 -14.813  42.613  1.00  0.00     0.041 C 
ATOM     13  O   UNL     1       8.528 -15.502  43.501  1.00  0.00    -0.550 OA
ATOM     14  O   UNL     1       6.593 -14.571  42.699  1.00  0.00    -0.550 OA
ENDBRANCH  11  12
ENDBRANCH  10  11
ENDBRANCH   9  10
ENDBRANCH   8   9
ENDBRANCH   7   8
ENDBRANCH   6   7
ENDBRANCH   5   6
ENDBRANCH   4   5
ENDBRANCH   3   4
ENDBRANCH   2   3
ENDBRANCH   1   2
BRANCH   1  15
ATOM     15  C   UNL     1       7.534  -7.561  41.762  1.00  0.00     0.000 C 
BRANCH  15  16
ATOM     16  C   UNL     1       8.179  -6.221  42.162  1.00  0.00     0.000 C 
BRANCH  16  17
ATOM     17  C   UNL     1       7.831  -5.080  41.192  1.00  0.00     0.000 C 
BRANCH  17  18
ATOM     18  C   UNL     1       8.883  -3.957  41.202  1.00  0.00    -0.000 C 
BRANCH  18  19
ATOM     19  C   UNL     1       8.258  -2.553  41.300  1.00  0.00    -0.000 C 
BRANCH  19  20
ATOM     20  C   UNL     1       8.043  -1.833  39.953  1.00  0.00    -0.000 C 
BRANCH  20  21
ATOM     21  C   UNL     1       8.405  -2.658  38.701  1.00  0.00    -0.000 C 
BRANCH  21  22
ATOM     22  C   UNL     1       7.200  -3.242  37.938  1.00  0.00    -0.000 C 
BRANCH  22  23
ATOM     23  C   UNL     1       5.987  -2.298  37.829  1.00  0.00    -0.000 C 
BRANCH  23  24
ATOM     24  C   UNL     1       6.105  -1.268  36.685  1.00  0.00    -0.000 C 
BRANCH  24  25
ATOM     25  C   UNL     1       6.389  -1.927  35.329  1.00  0.00    -0.003 C 
ATOM     26  C   UNL     1       5.599  -1.251  34.212  1.00  0.00     0.004 C 
ENDBRANCH  24  25
ENDBRANCH  23  24
ENDBRANCH  22  23
ENDBRANCH  21  22
ENDBRANCH  20  21
ENDBRANCH  19  20
ENDBRANCH  18  19
ENDBRANCH  17  18
ENDBRANCH  16  17
ENDBRANCH  15  16
ENDBRANCH   1  15
TORSDOF 22
ENDMDL
MODEL 4
REMARK VINA RESULT:    -3.979      3.153      4.794
REMARK INTER + INTRA:         -12.645
REMARK INTER:                  -9.837
REMARK INTRA:                  -2.808
REMARK UNBOUND:                -3.548
REMARK SMILES CCCCCCCCCCCCCCCCCCCCCCCC(=O)[O-]
REMARK SMILES IDX 13 1 14 2 15 3 16 4 17 5 18 6 19 7 20 8 21 9 22 10 23 11
REMARK SMILES IDX 24 12 25 13 26 14 12 15 11 16 10 17 9 18 8 19 7 20 6 21 5 22
REMARK SMILES IDX 4 23 3 24 2 25 1 26
REMARK H PARENT
REMARK Flexibility Score: inf
ROOT
ATOM      1  C   UNL     1       7.882  -2.755  40.228  1.00  0.00     0.000 C 
ENDROOT
BRANCH   1   2
ATOM      2  C   UNL     1       8.300  -1.917  41.452  1.00  0.00     0.000 C 
BRANCH   2   3
ATOM      3  C   UNL     1       8.598  -2.785  42.687  1.00  0.00     0.000 C 
BRANCH   3   4
ATOM      4  C   UNL     1       8.332  -4.285  42.442  1.00  0.00     0.000 C 
BRANCH   4   5
ATOM      5  C   UNL     1       9.603  -5.151  42.365  1.00  0.00     0.000 C 
BRANCH   5   6
ATOM      6  C   UNL     1       9.771  -5.866  41.012  1.00  0.00     0.000 C 
BRANCH   6   7
ATOM      7  C   UNL     1      10.789  -5.170  40.095  1.00  0.00     0.000 C 
BRANCH   7   8
ATOM      8  C   UNL     1      11.753  -4.254  40.869  1.00  0.00     0.000 C 
BRANCH   8   9
ATOM      9  C   UNL     1      11.689  -2.796  40.367  1.00  0.00     0.000 C 
BRANCH   9  10
ATOM     10  C   UNL     1      12.490  -1.810  41.236  1.00  0.00     0.006 C 
BRANCH  10  11
ATOM     11  C   UNL     1      12.142  -1.908  42.725  1.00  0.00     0.053 C 
BRANCH  11  12
ATOM     12  C   UNL     1      12.777  -0.785  43.484  1.00  0.00     0.041 C 
ATOM     13  O   UNL     1      12.233  -0.340  44.529  1.00  0.00    -0.550 OA
ATOM     14  O   UNL     1      13.943  -0.197  43.011  1.00  0.00    -0.550 OA
ENDBRANCH  11  12
ENDBRANCH  10  11
ENDBRANCH   9  10
ENDBRANCH   8   9
ENDBRANCH   7   8
ENDBRANCH   6   7
ENDBRANCH   5   6
ENDBRANCH   4   5
ENDBRANCH   3   4
ENDBRANCH   2   3
ENDBRANCH   1   2
BRANCH   1  15
ATOM     15  C   UNL     1       7.749  -1.948  38.923  1.00  0.00     0.000 C 
BRANCH  15  16
ATOM     16  C   UNL     1       6.504  -2.345  38.109  1.00  0.00     0.000 C 
BRANCH  16  17
ATOM     17  C   UNL     1       6.717  -2.207  36.592  1.00  0.00     0.000 C 
BRANCH  17  18
ATOM     18  C   UNL     1       7.017  -3.555  35.914  1.00  0.00    -0.000 C 
BRANCH  18  19
ATOM     19  C   UNL     1       8.519  -3.892  35.892  1.00  0.00    -0.000 C 
BRANCH  19  20
ATOM     20  C   UNL     1       8.996  -4.690  34.661  1.00  0.00    -0.000 C 
BRANCH  20  21
ATOM     21  C   UNL     1      10.245  -4.124  33.953  1.00  0.00    -0.000 C 
BRANCH  21  22
ATOM     22  C   UNL     1      11.544  -4.190  34.778  1.00  0.00    -0.000 C 
BRANCH  22  23
ATOM     23  C   UNL     1      11.850  -5.571  35.391  1.00  0.00    -0.000 C 
BRANCH  23  24
ATOM     24  C   UNL     1      12.247  -6.636  34.347  1.00  0.00    -0.000 C 
BRANCH  24  25
ATOM     25  C   UNL     1      11.429  -7.927  34.484  1.00  0.00    -0.003 C 
ATOM     26  C   UNL     1      10.503  -8.122  33.288  1.00  0.00     0.004 C 
ENDBRANCH  24  25
ENDBRANCH  23  24
ENDBRANCH  22  23
ENDBRANCH  21  22
ENDBRANCH  20  21
ENDBRANCH  19  20
ENDBRANCH  18  19
ENDBRANCH  17  18
ENDBRANCH  16  17
ENDBRANCH  15  16
ENDBRANCH   1  15
TORSDOF 22
ENDMDL
MODEL 5
REMARK VINA RESULT:    -3.947      1.970      3.406
REMARK INTER + INTRA:         -12.571
REMARK INTER:                 -10.150
REMARK INTRA:                  -2.422
REMARK UNBOUND:                -3.548
REMARK SMILES CCCCCCCCCCCCCCCCCCCCCCCC(=O)[O-]
REMARK SMILES IDX 13 1 14 2 15 3 16 4 17 5 18 6 19 7 20 8 21 9 22 10 23 11
REMARK SMILES IDX 24 12 25 13 26 14 12 15 11 16 10 17 9 18 8 19 7 20 6 21 5 22
REMARK SMILES IDX 4 23 3 24 2 25 1 26
REMARK H PARENT
REMARK Flexibility Score: inf
ROOT
ATOM      1  C   UNL     1       7.168  -2.663  38.937  1.00  0.00     0.000 C 
ENDROOT
BRANCH   1   2
ATOM      2  C   UNL     1       8.628  -3.157  38.969  1.00  0.00     0.000 C 
BRANCH   2   3
ATOM      3  C   UNL     1       8.785  -4.481  39.737  1.00  0.00     0.000 C 
BRANCH   3   4
ATOM      4  C   UNL     1       9.110  -4.270  41.231  1.00  0.00     0.000 C 
BRANCH   4   5
ATOM      5  C   UNL     1       7.878  -4.278  42.156  1.00  0.00     0.000 C 
BRANCH   5   6
ATOM      6  C   UNL     1       7.338  -5.692  42.438  1.00  0.00     0.000 C 
BRANCH   6   7
ATOM      7  C   UNL     1       8.203  -6.468  43.444  1.00  0.00     0.000 C 
BRANCH   7   8
ATOM      8  C   UNL     1       8.367  -7.950  43.065  1.00  0.00     0.000 C 
BRANCH   8   9
ATOM      9  C   UNL     1       8.079  -8.197  41.569  1.00  0.00     0.000 C 
BRANCH   9  10
ATOM     10  C   UNL     1       7.123  -9.375  41.313  1.00  0.00     0.006 C 
BRANCH  10  11
ATOM     11  C   UNL     1       6.828 -10.191  42.576  1.00  0.00     0.053 C 
BRANCH  11  12
ATOM     12  C   UNL     1       5.586 -11.007  42.393  1.00  0.00     0.041 C 
ATOM     13  O   UNL     1       5.097 -11.642  43.364  1.00  0.00    -0.550 OA
ATOM     14  O   UNL     1       4.996 -11.103  41.139  1.00  0.00    -0.550 OA
ENDBRANCH  11  12
ENDBRANCH  10  11
ENDBRANCH   9  10
ENDBRANCH   8   9
ENDBRANCH   7   8
ENDBRANCH   6   7
ENDBRANCH   5   6
ENDBRANCH   4   5
ENDBRANCH   3   4
ENDBRANCH   2   3
ENDBRANCH   1   2
BRANCH   1  15
ATOM     15  C   UNL     1       6.543  -2.629  37.529  1.00  0.00     0.000 C 
BRANCH  15  16
ATOM     16  C   UNL     1       7.597  -2.747  36.413  1.00  0.00     0.000 C 
BRANCH  16  17
ATOM     17  C   UNL     1       7.515  -4.084  35.657  1.00  0.00     0.000 C 
BRANCH  17  18
ATOM     18  C   UNL     1       8.787  -4.380  34.844  1.00  0.00    -0.000 C 
BRANCH  18  19
ATOM     19  C   UNL     1      10.076  -4.205  35.666  1.00  0.00    -0.000 C 
BRANCH  19  20
ATOM     20  C   UNL     1      11.355  -3.955  34.839  1.00  0.00    -0.000 C 
BRANCH  20  21
ATOM     21  C   UNL     1      11.127  -3.703  33.334  1.00  0.00    -0.000 C 
BRANCH  21  22
ATOM     22  C   UNL     1      11.755  -4.752  32.397  1.00  0.00    -0.000 C 
BRANCH  22  23
ATOM     23  C   UNL     1      12.833  -5.638  33.053  1.00  0.00    -0.000 C 
BRANCH  23  24
ATOM     24  C   UNL     1      12.481  -7.141  33.050  1.00  0.00    -0.000 C 
BRANCH  24  25
ATOM     25  C   UNL     1      11.605  -7.542  34.245  1.00  0.00    -0.003 C 
ATOM     26  C   UNL     1      10.166  -7.804  33.809  1.00  0.00     0.004 C 
ENDBRANCH  24  25
ENDBRANCH  23  24
ENDBRANCH  22  23
ENDBRANCH  21  22
ENDBRANCH  20  21
ENDBRANCH  19  20
ENDBRANCH  18  19
ENDBRANCH  17  18
ENDBRANCH  16  17
ENDBRANCH  15  16
ENDBRANCH   1  15
TORSDOF 22
ENDMDL
MODEL 6
REMARK VINA RESULT:    -3.932      1.667      2.638
REMARK INTER + INTRA:         -12.537
REMARK INTER:                  -9.821
REMARK INTRA:                  -2.716
REMARK UNBOUND:                -3.548
REMARK SMILES CCCCCCCCCCCCCCCCCCCCCCCC(=O)[O-]
REMARK SMILES IDX 13 1 14 2 15 3 16 4 17 5 18 6 19 7 20 8 21 9 22 10 23 11
REMARK SMILES IDX 24 12 25 13 26 14 12 15 11 16 10 17 9 18 8 19 7 20 6 21 5 22
REMARK SMILES IDX 4 23 3 24 2 25 1 26
REMARK H PARENT
REMARK Flexibility Score: inf
ROOT
ATOM      1  C   UNL     1       8.676  -1.823  40.151  1.00  0.00     0.000 C 
ENDROOT
BRANCH   1   2
ATOM      2  C   UNL     1       8.470  -1.393  41.617  1.00  0.00     0.000 C 
BRANCH   2   3
ATOM      3  C   UNL     1       9.194  -2.319  42.610  1.00  0.00     0.000 C 
BRANCH   3   4
ATOM      4  C   UNL     1      10.718  -2.374  42.374  1.00  0.00     0.000 C 
BRANCH   4   5
ATOM      5  C   UNL     1      11.290  -3.798  42.245  1.00  0.00     0.000 C 
BRANCH   5   6
ATOM      6  C   UNL     1      11.764  -4.136  40.819  1.00  0.00     0.000 C 
BRANCH   6   7
ATOM      7  C   UNL     1      10.638  -4.698  39.937  1.00  0.00     0.000 C 
BRANCH   7   8
ATOM      8  C   UNL     1       9.801  -5.770  40.656  1.00  0.00     0.000 C 
BRANCH   8   9
ATOM      9  C   UNL     1       8.308  -5.384  40.725  1.00  0.00     0.000 C 
BRANCH   9  10
ATOM     10  C   UNL     1       7.522  -6.153  41.802  1.00  0.00     0.006 C 
BRANCH  10  11
ATOM     11  C   UNL     1       8.247  -6.200  43.151  1.00  0.00     0.053 C 
BRANCH  11  12
ATOM     12  C   UNL     1       8.580  -7.613  43.517  1.00  0.00     0.041 C 
ATOM     13  O   UNL     1       9.727  -7.902  43.948  1.00  0.00    -0.550 OA
ATOM     14  O   UNL     1       7.639  -8.619  43.334  1.00  0.00    -0.550 OA
ENDBRANCH  11  12
ENDBRANCH  10  11
ENDBRANCH   9  10
ENDBRANCH   8   9
ENDBRANCH   7   8
ENDBRANCH   6   7
ENDBRANCH   5   6
ENDBRANCH   4   5
ENDBRANCH   3   4
ENDBRANCH   2   3
ENDBRANCH   1   2
BRANCH   1  15
ATOM     15  C   UNL     1       7.521  -1.434  39.209  1.00  0.00     0.000 C 
BRANCH  15  16
ATOM     16  C   UNL     1       6.912  -2.652  38.490  1.00  0.00     0.000 C 
BRANCH  16  17
ATOM     17  C   UNL     1       7.903  -3.335  37.533  1.00  0.00     0.000 C 
BRANCH  17  18
ATOM     18  C   UNL     1       7.260  -3.709  36.187  1.00  0.00    -0.000 C 
BRANCH  18  19
ATOM     19  C   UNL     1       8.275  -4.273  35.176  1.00  0.00    -0.000 C 
BRANCH  19  20
ATOM     20  C   UNL     1       9.757  -4.123  35.577  1.00  0.00    -0.000 C 
BRANCH  20  21
ATOM     21  C   UNL     1      10.717  -3.763  34.425  1.00  0.00    -0.000 C 
BRANCH  21  22
ATOM     22  C   UNL     1      10.460  -4.515  33.106  1.00  0.00    -0.000 C 
BRANCH  22  23
ATOM     23  C   UNL     1      11.614  -5.428  32.648  1.00  0.00    -0.000 C 
BRANCH  23  24
ATOM     24  C   UNL     1      11.262  -6.931  32.677  1.00  0.00    -0.000 C 
BRANCH  24  25
ATOM     25  C   UNL     1      11.608  -7.589  34.019  1.00  0.00    -0.003 C 
ATOM     26  C   UNL     1      12.069  -9.030  33.823  1.00  0.00     0.004 C 
ENDBRANCH  24  25
ENDBRANCH  23  24
ENDBRANCH  22  23
ENDBRANCH  21  22
ENDBRANCH  20  21
ENDBRANCH  19  20
ENDBRANCH  18  19
ENDBRANCH  17  18
ENDBRANCH  16  17
ENDBRANCH  15  16
ENDBRANCH   1  15
TORSDOF 22
ENDMDL
MODEL 7
REMARK VINA RESULT:    -3.904      3.666      7.395
REMARK INTER + INTRA:         -12.473
REMARK INTER:                  -9.739
REMARK INTRA:                  -2.734
REMARK UNBOUND:                -3.548
REMARK SMILES CCCCCCCCCCCCCCCCCCCCCCCC(=O)[O-]
REMARK SMILES IDX 13 1 14 2 15 3 16 4 17 5 18 6 19 7 20 8 21 9 22 10 23 11
REMARK SMILES IDX 24 12 25 13 26 14 12 15 11 16 10 17 9 18 8 19 7 20 6 21 5 22
REMARK SMILES IDX 4 23 3 24 2 25 1 26
REMARK H PARENT
REMARK Flexibility Score: inf
ROOT
ATOM      1  C   UNL     1      13.220  -0.194  42.943  1.00  0.00     0.000 C 
ENDROOT
BRANCH   1   2
ATOM      2  C   UNL     1      12.385  -0.274  41.649  1.00  0.00     0.000 C 
BRANCH   2   3
ATOM      3  C   UNL     1      13.262  -0.391  40.389  1.00  0.00     0.000 C 
BRANCH   3   4
ATOM      4  C   UNL     1      12.791  -1.508  39.435  1.00  0.00     0.000 C 
BRANCH   4   5
ATOM      5  C   UNL     1      11.604  -2.336  39.962  1.00  0.00     0.000 C 
BRANCH   5   6
ATOM      6  C   UNL     1      11.099  -3.385  38.954  1.00  0.00     0.000 C 
BRANCH   6   7
ATOM      7  C   UNL     1       9.754  -4.004  39.367  1.00  0.00     0.000 C 
BRANCH   7   8
ATOM      8  C   UNL     1       8.642  -3.747  38.335  1.00  0.00     0.000 C 
BRANCH   8   9
ATOM      9  C   UNL     1       7.445  -2.995  38.955  1.00  0.00     0.000 C 
BRANCH   9  10
ATOM     10  C   UNL     1       6.394  -2.553  37.922  1.00  0.00     0.006 C 
BRANCH  10  11
ATOM     11  C   UNL     1       7.017  -1.965  36.651  1.00  0.00     0.053 C 
BRANCH  11  12
ATOM     12  C   UNL     1       5.955  -1.390  35.766  1.00  0.00     0.041 C 
ATOM     13  O   UNL     1       5.703  -1.919  34.653  1.00  0.00    -0.550 OA
ATOM     14  O   UNL     1       5.278  -0.239  36.152  1.00  0.00    -0.550 OA
ENDBRANCH  11  12
ENDBRANCH  10  11
ENDBRANCH   9  10
ENDBRANCH   8   9
ENDBRANCH   7   8
ENDBRANCH   6   7
ENDBRANCH   5   6
ENDBRANCH   4   5
ENDBRANCH   3   4
ENDBRANCH   2   3
ENDBRANCH   1   2
BRANCH   1  15
ATOM     15  C   UNL     1      12.433  -0.529  44.224  1.00  0.00     0.000 C 
BRANCH  15  16
ATOM     16  C   UNL     1      12.133   0.720  45.075  1.00  0.00     0.000 C 
BRANCH  16  17
ATOM     17  C   UNL     1      10.626   0.977  45.243  1.00  0.00     0.000 C 
BRANCH  17  18
ATOM     18  C   UNL     1       9.900  -0.197  45.922  1.00  0.00    -0.000 C 
BRANCH  18  19
ATOM     19  C   UNL     1       8.723  -0.735  45.088  1.00  0.00    -0.000 C 
BRANCH  19  20
ATOM     20  C   UNL     1       8.923  -0.684  43.559  1.00  0.00    -0.000 C 
BRANCH  20  21
ATOM     21  C   UNL     1       9.358  -2.013  42.908  1.00  0.00    -0.000 C 
BRANCH  21  22
ATOM     22  C   UNL     1       8.200  -2.919  42.446  1.00  0.00    -0.000 C 
BRANCH  22  23
ATOM     23  C   UNL     1       8.373  -4.412  42.791  1.00  0.00    -0.000 C 
BRANCH  23  24
ATOM     24  C   UNL     1       7.406  -5.339  42.025  1.00  0.00    -0.000 C 
BRANCH  24  25
ATOM     25  C   UNL     1       7.927  -6.779  41.926  1.00  0.00    -0.003 C 
ATOM     26  C   UNL     1       9.261  -6.933  42.650  1.00  0.00     0.004 C 
ENDBRANCH  24  25
ENDBRANCH  23  24
ENDBRANCH  22  23
ENDBRANCH  21  22
ENDBRANCH  20  21
ENDBRANCH  19  20
ENDBRANCH  18  19
ENDBRANCH  17  18
ENDBRANCH  16  17
ENDBRANCH  15  16
ENDBRANCH   1  15
TORSDOF 22
ENDMDL
MODEL 8
REMARK VINA RESULT:    -3.876      2.102      4.456
REMARK INTER + INTRA:         -12.408
REMARK INTER:                  -9.177
REMARK INTRA:                  -3.231
REMARK UNBOUND:                -3.548
REMARK SMILES CCCCCCCCCCCCCCCCCCCCCCCC(=O)[O-]
REMARK SMILES IDX 13 1 14 2 15 3 16 4 17 5 18 6 19 7 20 8 21 9 22 10 23 11
REMARK SMILES IDX 24 12 25 13 26 14 12 15 11 16 10 17 9 18 8 19 7 20 6 21 5 22
REMARK SMILES IDX 4 23 3 24 2 25 1 26
REMARK H PARENT
REMARK Flexibility Score: inf
ROOT
ATOM      1  C   UNL     1      12.749  -2.148  40.501  1.00  0.00     0.000 C 
ENDROOT
BRANCH   1   2
ATOM      2  C   UNL     1      12.190  -3.000  41.658  1.00  0.00     0.000 C 
BRANCH   2   3
ATOM      3  C   UNL     1      12.029  -2.193  42.959  1.00  0.00     0.000 C 
BRANCH   3   4
ATOM      4  C   UNL     1      11.681  -0.711  42.704  1.00  0.00     0.000 C 
BRANCH   4   5
ATOM      5  C   UNL     1      10.632  -0.130  43.670  1.00  0.00     0.000 C 
BRANCH   5   6
ATOM      6  C   UNL     1       9.210  -0.662  43.415  1.00  0.00     0.000 C 
BRANCH   6   7
ATOM      7  C   UNL     1       8.818  -0.617  41.930  1.00  0.00     0.000 C 
BRANCH   7   8
ATOM      8  C   UNL     1       8.316  -1.975  41.409  1.00  0.00     0.000 C 
BRANCH   8   9
ATOM      9  C   UNL     1       8.549  -3.106  42.432  1.00  0.00     0.000 C 
BRANCH   9  10
ATOM     10  C   UNL     1       8.561  -4.512  41.806  1.00  0.00     0.006 C 
BRANCH  10  11
ATOM     11  C   UNL     1       9.217  -5.562  42.707  1.00  0.00     0.053 C 
BRANCH  11  12
ATOM     12  C   UNL     1       8.257  -6.672  43.002  1.00  0.00     0.041 C 
ATOM     13  O   UNL     1       7.691  -7.286  42.060  1.00  0.00    -0.550 OA
ATOM     14  O   UNL     1       7.951  -6.996  44.318  1.00  0.00    -0.550 OA
ENDBRANCH  11  12
ENDBRANCH  10  11
ENDBRANCH   9  10
ENDBRANCH   8   9
ENDBRANCH   7   8
ENDBRANCH   6   7
ENDBRANCH   5   6
ENDBRANCH   4   5
ENDBRANCH   3   4
ENDBRANCH   2   3
ENDBRANCH   1   2
BRANCH   1  15
ATOM     15  C   UNL     1      12.745  -2.858  39.134  1.00  0.00     0.000 C 
BRANCH  15  16
ATOM     16  C   UNL     1      12.144  -4.274  39.207  1.00  0.00     0.000 C 
BRANCH  16  17
ATOM     17  C   UNL     1      10.971  -4.474  38.233  1.00  0.00     0.000 C 
BRANCH  17  18
ATOM     18  C   UNL     1       9.846  -3.446  38.448  1.00  0.00    -0.000 C 
BRANCH  18  19
ATOM     19  C   UNL     1       8.441  -4.068  38.348  1.00  0.00    -0.000 C 
BRANCH  19  20
ATOM     20  C   UNL     1       7.501  -3.409  37.318  1.00  0.00    -0.000 C 
BRANCH  20  21
ATOM     21  C   UNL     1       6.408  -2.498  37.913  1.00  0.00    -0.000 C 
BRANCH  21  22
ATOM     22  C   UNL     1       6.598  -0.994  37.641  1.00  0.00    -0.000 C 
BRANCH  22  23
ATOM     23  C   UNL     1       5.385  -0.297  36.993  1.00  0.00    -0.000 C 
BRANCH  23  24
ATOM     24  C   UNL     1       5.757   0.612  35.803  1.00  0.00    -0.000 C 
BRANCH  24  25
ATOM     25  C   UNL     1       6.487  -0.150  34.688  1.00  0.00    -0.003 C 
ATOM     26  C   UNL     1       5.552  -1.133  33.990  1.00  0.00     0.004 C 
ENDBRANCH  24  25
ENDBRANCH  23  24
ENDBRANCH  22  23
ENDBRANCH  21  22
ENDBRANCH  20  21
ENDBRANCH  19  20
ENDBRANCH  18  19
ENDBRANCH  17  18
ENDBRANCH  16  17
ENDBRANCH  15  16
ENDBRANCH   1  15
TORSDOF 22
ENDMDL
MODEL 9
REMARK VINA RESULT:    -3.783      1.510      5.219
REMARK INTER + INTRA:         -12.197
REMARK INTER:                  -8.824
REMARK INTRA:                  -3.372
REMARK UNBOUND:                -3.548
REMARK SMILES CCCCCCCCCCCCCCCCCCCCCCCC(=O)[O-]
REMARK SMILES IDX 13 1 14 2 15 3 16 4 17 5 18 6 19 7 20 8 21 9 22 10 23 11
REMARK SMILES IDX 24 12 25 13 26 14 12 15 11 16 10 17 9 18 8 19 7 20 6 21 5 22
REMARK SMILES IDX 4 23 3 24 2 25 1 26
REMARK H PARENT
REMARK Flexibility Score: inf
ROOT
ATOM      1  C   UNL     1       9.318  -5.113  34.501  1.00  0.00     0.000 C 
ENDROOT
BRANCH   1   2
ATOM      2  C   UNL     1      10.807  -5.514  34.493  1.00  0.00     0.000 C 
BRANCH   2   3
ATOM      3  C   UNL     1      11.656  -4.645  35.437  1.00  0.00     0.000 C 
BRANCH   3   4
ATOM      4  C   UNL     1      12.768  -5.444  36.147  1.00  0.00     0.000 C 
BRANCH   4   5
ATOM      5  C   UNL     1      12.966  -5.077  37.630  1.00  0.00     0.000 C 
BRANCH   5   6
ATOM      6  C   UNL     1      11.759  -4.342  38.241  1.00  0.00     0.000 C 
BRANCH   6   7
ATOM      7  C   UNL     1      12.172  -3.143  39.108  1.00  0.00     0.000 C 
BRANCH   7   8
ATOM      8  C   UNL     1      11.989  -3.409  40.613  1.00  0.00     0.000 C 
BRANCH   8   9
ATOM      9  C   UNL     1      11.024  -4.584  40.876  1.00  0.00     0.000 C 
BRANCH   9  10
ATOM     10  C   UNL     1      10.435  -4.591  42.297  1.00  0.00     0.006 C 
BRANCH  10  11
ATOM     11  C   UNL     1       8.932  -4.892  42.319  1.00  0.00     0.053 C 
BRANCH  11  12
ATOM     12  C   UNL     1       8.659  -6.131  43.114  1.00  0.00     0.041 C 
ATOM     13  O   UNL     1       9.451  -7.107  43.055  1.00  0.00    -0.550 OA
ATOM     14  O   UNL     1       7.504  -6.224  43.880  1.00  0.00    -0.550 OA
ENDBRANCH  11  12
ENDBRANCH  10  11
ENDBRANCH   9  10
ENDBRANCH   8   9
ENDBRANCH   7   8
ENDBRANCH   6   7
ENDBRANCH   5   6
ENDBRANCH   4   5
ENDBRANCH   3   4
ENDBRANCH   2   3
ENDBRANCH   1   2
BRANCH   1  15
ATOM     15  C   UNL     1       8.935  -4.128  35.622  1.00  0.00     0.000 C 
BRANCH  15  16
ATOM     16  C   UNL     1       7.991  -3.015  35.130  1.00  0.00     0.000 C 
BRANCH  16  17
ATOM     17  C   UNL     1       6.633  -3.025  35.853  1.00  0.00     0.000 C 
BRANCH  17  18
ATOM     18  C   UNL     1       6.432  -1.789  36.747  1.00  0.00    -0.000 C 
BRANCH  18  19
ATOM     19  C   UNL     1       6.291  -2.147  38.238  1.00  0.00    -0.000 C 
BRANCH  19  20
ATOM     20  C   UNL     1       7.318  -3.167  38.770  1.00  0.00    -0.000 C 
BRANCH  20  21
ATOM     21  C   UNL     1       8.555  -2.557  39.460  1.00  0.00    -0.000 C 
BRANCH  21  22
ATOM     22  C   UNL     1       8.244  -1.474  40.512  1.00  0.00    -0.000 C 
BRANCH  22  23
ATOM     23  C   UNL     1       9.438  -0.572  40.881  1.00  0.00    -0.000 C 
BRANCH  23  24
ATOM     24  C   UNL     1       9.954  -0.787  42.320  1.00  0.00    -0.000 C 
BRANCH  24  25
ATOM     25  C   UNL     1       8.873  -1.352  43.252  1.00  0.00    -0.003 C 
ATOM     26  C   UNL     1       9.036  -0.815  44.672  1.00  0.00     0.004 C 
ENDBRANCH  24  25
ENDBRANCH  23  24
ENDBRANCH  22  23
ENDBRANCH  21  22
ENDBRANCH  20  21
ENDBRANCH  19  20
ENDBRANCH  18  19
ENDBRANCH  17  18
ENDBRANCH  16  17
ENDBRANCH  15  16
ENDBRANCH   1  15
TORSDOF 22
ENDMDL
