MODEL 1
REMARK VINA RESULT:    -6.010      0.000      0.000
REMARK INTER + INTRA:         -10.452
REMARK INTER:                  -8.996
REMARK INTRA:                  -1.456
REMARK UNBOUND:                -1.456
REMARK SMILES COC(=O)C1=CO[C@@H](O[C@H]2O[C@@H](CO)[C@H](O)[C@H](O)[C@@H]2O)[C@@H]2C(CO)=CC[C@H]12
REMARK SMILES IDX 9 1 8 2 5 3 6 4 27 5 7 6 21 7 26 8 22 9 25 10 3 11 4 12 2 13
REMARK SMILES IDX 1 14 23 15 24 16 10 18 19 19 11 20 17 21 12 22 15 23 20 24
REMARK SMILES IDX 18 26 13 28 14 29 16 31
REMARK H PARENT 24 17 20 25 18 27 14 30 16 32
REMARK Flexibility Score: inf
ROOT
ATOM      1  O   UNL     1      49.634  76.610  44.545  1.00  0.00    -0.310 OA
ENDROOT
BRANCH   1   2
ATOM      2  C   UNL     1      50.615  77.381  43.868  1.00  0.00     0.316 C 
ATOM      3  C   UNL     1      52.455  79.563  43.609  1.00  0.00     0.076 C 
ATOM      4  C   UNL     1      52.678  78.575  44.490  1.00  0.00     0.202 C 
ATOM      5  C   UNL     1      51.090  79.716  42.957  1.00  0.00     0.047 C 
ATOM      6  O   UNL     1      51.698  77.618  44.760  1.00  0.00    -0.471 OA
ATOM      7  C   UNL     1      50.001  78.729  43.442  1.00  0.00     0.094 C 
ATOM      8  C   UNL     1      51.126  79.534  41.433  1.00  0.00     0.037 C 
ATOM      9  C   UNL     1      49.149  78.563  42.216  1.00  0.00    -0.039 C 
ATOM     10  C   UNL     1      49.781  78.979  41.123  1.00  0.00    -0.024 C 
BRANCH   3  11
ATOM     11  C   UNL     1      53.515  80.558  43.325  1.00  0.00     0.337 C 
ATOM     12  O   UNL     1      54.507  80.232  42.617  1.00  0.00    -0.246 OA
BRANCH  11  13
ATOM     13  O   UNL     1      53.421  81.856  43.841  1.00  0.00    -0.466 OA
ATOM     14  C   UNL     1      53.350  82.125  45.235  1.00  0.00     0.282 C 
ENDBRANCH  11  13
ENDBRANCH   3  11
BRANCH   9  15
ATOM     15  C   UNL     1      47.745  78.022  42.181  1.00  0.00     0.187 C 
BRANCH  15  16
ATOM     16  O   UNL     1      47.621  77.024  41.207  1.00  0.00    -0.392 OA
ATOM     17  H   UNL     1      48.249  77.269  40.480  1.00  0.00     0.211 HD
ENDBRANCH  15  16
ENDBRANCH   9  15
ENDBRANCH   1   2
BRANCH   1  18
ATOM     18  C   UNL     1      49.547  75.269  44.083  1.00  0.00     0.286 C 
ATOM     19  C   UNL     1      50.690  74.383  44.647  1.00  0.00     0.202 C 
ATOM     20  O   UNL     1      49.526  75.212  42.666  1.00  0.00    -0.341 OA
ATOM     21  C   UNL     1      50.970  73.177  43.709  1.00  0.00     0.179 C 
ATOM     22  C   UNL     1      49.040  73.954  42.215  1.00  0.00     0.178 C 
ATOM     23  C   UNL     1      49.706  72.737  42.947  1.00  0.00     0.177 C 
BRANCH  19  24
ATOM     24  O   UNL     1      50.400  73.976  45.963  1.00  0.00    -0.385 OA
ATOM     25  H   UNL     1      49.552  74.409  46.237  1.00  0.00     0.211 HD
ENDBRANCH  19  24
BRANCH  21  26
ATOM     26  O   UNL     1      51.501  72.091  44.422  1.00  0.00    -0.387 OA
ATOM     27  H   UNL     1      52.211  71.695  43.850  1.00  0.00     0.211 HD
ENDBRANCH  21  26
BRANCH  22  28
ATOM     28  C   UNL     1      49.268  73.875  40.698  1.00  0.00     0.191 C 
BRANCH  28  29
ATOM     29  O   UNL     1      48.161  74.381  40.000  1.00  0.00    -0.394 OA
ATOM     30  H   UNL     1      47.623  74.903  40.656  1.00  0.00     0.210 HD
ENDBRANCH  28  29
ENDBRANCH  22  28
BRANCH  23  31
ATOM     31  O   UNL     1      48.795  72.160  43.847  1.00  0.00    -0.387 OA
ATOM     32  H   UNL     1      47.992  72.743  43.855  1.00  0.00     0.211 HD
ENDBRANCH  23  31
ENDBRANCH   1  18
TORSDOF 11
ENDMDL
MODEL 2
REMARK VINA RESULT:    -5.999      1.853      7.265
REMARK INTER + INTRA:         -10.436
REMARK INTER:                  -9.275
REMARK INTRA:                  -1.161
REMARK UNBOUND:                -1.456
REMARK SMILES COC(=O)C1=CO[C@@H](O[C@H]2O[C@@H](CO)[C@H](O)[C@H](O)[C@@H]2O)[C@@H]2C(CO)=CC[C@H]12
REMARK SMILES IDX 9 1 8 2 5 3 6 4 27 5 7 6 21 7 26 8 22 9 25 10 3 11 4 12 2 13
REMARK SMILES IDX 1 14 23 15 24 16 10 18 19 19 11 20 17 21 12 22 15 23 20 24
REMARK SMILES IDX 18 26 13 28 14 29 16 31
REMARK H PARENT 24 17 20 25 18 27 14 30 16 32
REMARK Flexibility Score: inf
ROOT
ATOM      1  O   UNL     1      49.718  77.991  43.922  1.00  0.00    -0.310 OA
ENDROOT
BRANCH   1   2
ATOM      2  C   UNL     1      49.794  76.880  43.042  1.00  0.00     0.316 C 
ATOM      3  C   UNL     1      48.696  74.714  41.520  1.00  0.00     0.076 C 
ATOM      4  C   UNL     1      48.447  75.989  41.182  1.00  0.00     0.202 C 
ATOM      5  C   UNL     1      49.296  74.383  42.877  1.00  0.00     0.047 C 
ATOM      6  O   UNL     1      48.813  77.041  42.024  1.00  0.00    -0.471 OA
ATOM      7  C   UNL     1      49.505  75.585  43.828  1.00  0.00     0.094 C 
ATOM      8  C   UNL     1      50.678  73.721  42.779  1.00  0.00     0.037 C 
ATOM      9  C   UNL     1      50.711  75.162  44.619  1.00  0.00    -0.039 C 
ATOM     10  C   UNL     1      51.358  74.165  44.026  1.00  0.00    -0.024 C 
BRANCH   3  11
ATOM     11  C   UNL     1      48.314  73.615  40.602  1.00  0.00     0.337 C 
ATOM     12  O   UNL     1      48.871  73.518  39.474  1.00  0.00    -0.246 OA
BRANCH  11  13
ATOM     13  O   UNL     1      47.338  72.686  40.982  1.00  0.00    -0.466 OA
ATOM     14  C   UNL     1      45.955  72.871  40.708  1.00  0.00     0.282 C 
ENDBRANCH  11  13
ENDBRANCH   3  11
BRANCH   9  15
ATOM     15  C   UNL     1      51.156  75.747  45.933  1.00  0.00     0.187 C 
BRANCH  15  16
ATOM     16  O   UNL     1      51.937  76.891  45.728  1.00  0.00    -0.392 OA
ATOM     17  H   UNL     1      52.873  76.575  45.642  1.00  0.00     0.211 HD
ENDBRANCH  15  16
ENDBRANCH   9  15
ENDBRANCH   1   2
BRANCH   1  18
ATOM     18  C   UNL     1      50.521  79.091  43.518  1.00  0.00     0.286 C 
ATOM     19  C   UNL     1      50.455  79.330  41.986  1.00  0.00     0.202 C 
ATOM     20  O   UNL     1      51.866  78.930  43.939  1.00  0.00    -0.341 OA
ATOM     21  C   UNL     1      51.734  80.052  41.482  1.00  0.00     0.179 C 
ATOM     22  C   UNL     1      52.562  80.169  43.902  1.00  0.00     0.178 C 
ATOM     23  C   UNL     1      52.345  80.960  42.566  1.00  0.00     0.177 C 
BRANCH  19  24
ATOM     24  O   UNL     1      49.281  80.027  41.642  1.00  0.00    -0.385 OA
ATOM     25  H   UNL     1      49.047  79.791  40.709  1.00  0.00     0.211 HD
ENDBRANCH  19  24
BRANCH  21  26
ATOM     26  O   UNL     1      51.473  80.800  40.323  1.00  0.00    -0.387 OA
ATOM     27  H   UNL     1      50.995  80.195  39.696  1.00  0.00     0.211 HD
ENDBRANCH  21  26
BRANCH  22  28
ATOM     28  C   UNL     1      54.053  79.881  44.136  1.00  0.00     0.191 C 
BRANCH  28  29
ATOM     29  O   UNL     1      54.831  80.405  43.093  1.00  0.00    -0.394 OA
ATOM     30  H   UNL     1      55.607  80.862  43.517  1.00  0.00     0.210 HD
ENDBRANCH  28  29
ENDBRANCH  22  28
BRANCH  23  31
ATOM     31  O   UNL     1      51.498  82.058  42.788  1.00  0.00    -0.387 OA
ATOM     32  H   UNL     1      51.734  82.744  42.111  1.00  0.00     0.211 HD
ENDBRANCH  23  31
ENDBRANCH   1  18
TORSDOF 11
ENDMDL
MODEL 3
REMARK VINA RESULT:    -5.650      1.977      6.965
REMARK INTER + INTRA:          -9.913
REMARK INTER:                  -8.617
REMARK INTRA:                  -1.296
REMARK UNBOUND:                -1.456
REMARK SMILES COC(=O)C1=CO[C@@H](O[C@H]2O[C@@H](CO)[C@H](O)[C@H](O)[C@@H]2O)[C@@H]2C(CO)=CC[C@H]12
REMARK SMILES IDX 9 1 8 2 5 3 6 4 27 5 7 6 21 7 26 8 22 9 25 10 3 11 4 12 2 13
REMARK SMILES IDX 1 14 23 15 24 16 10 18 19 19 11 20 17 21 12 22 15 23 20 24
REMARK SMILES IDX 18 26 13 28 14 29 16 31
REMARK H PARENT 24 17 20 25 18 27 14 30 16 32
REMARK Flexibility Score: inf
ROOT
ATOM      1  O   UNL     1      50.002  75.962  42.213  1.00  0.00    -0.310 OA
ENDROOT
BRANCH   1   2
ATOM      2  C   UNL     1      49.764  74.819  43.020  1.00  0.00     0.316 C 
ATOM      3  C   UNL     1      50.563  72.588  44.633  1.00  0.00     0.076 C 
ATOM      4  C   UNL     1      50.749  73.847  45.058  1.00  0.00     0.202 C 
ATOM      5  C   UNL     1      50.218  72.313  43.177  1.00  0.00     0.047 C 
ATOM      6  O   UNL     1      50.544  74.933  44.205  1.00  0.00    -0.471 OA
ATOM      7  C   UNL     1      50.188  73.552  42.251  1.00  0.00     0.094 C 
ATOM      8  C   UNL     1      48.841  71.661  42.997  1.00  0.00     0.037 C 
ATOM      9  C   UNL     1      49.146  73.170  41.238  1.00  0.00    -0.039 C 
ATOM     10  C   UNL     1      48.400  72.157  41.665  1.00  0.00    -0.024 C 
BRANCH   3  11
ATOM     11  C   UNL     1      50.768  71.452  45.561  1.00  0.00     0.337 C 
ATOM     12  O   UNL     1      51.646  70.583  45.304  1.00  0.00    -0.246 OA
BRANCH  11  13
ATOM     13  O   UNL     1      49.992  71.340  46.721  1.00  0.00    -0.466 OA
ATOM     14  C   UNL     1      48.576  71.220  46.688  1.00  0.00     0.282 C 
ENDBRANCH  11  13
ENDBRANCH   3  11
BRANCH   9  15
ATOM     15  C   UNL     1      48.949  73.808  39.889  1.00  0.00     0.187 C 
BRANCH  15  16
ATOM     16  O   UNL     1      47.996  74.831  39.958  1.00  0.00    -0.392 OA
ATOM     17  H   UNL     1      48.450  75.603  40.383  1.00  0.00     0.211 HD
ENDBRANCH  15  16
ENDBRANCH   9  15
ENDBRANCH   1   2
BRANCH   1  18
ATOM     18  C   UNL     1      49.382  77.142  42.704  1.00  0.00     0.286 C 
ATOM     19  C   UNL     1      48.494  77.824  41.629  1.00  0.00     0.202 C 
ATOM     20  O   UNL     1      50.342  78.056  43.210  1.00  0.00    -0.341 OA
ATOM     21  C   UNL     1      48.347  79.344  41.916  1.00  0.00     0.179 C 
ATOM     22  C   UNL     1      49.728  79.025  44.049  1.00  0.00     0.178 C 
ATOM     23  C   UNL     1      48.436  79.655  43.422  1.00  0.00     0.177 C 
BRANCH  19  24
ATOM     24  O   UNL     1      47.247  77.179  41.533  1.00  0.00    -0.385 OA
ATOM     25  H   UNL     1      47.390  76.299  41.101  1.00  0.00     0.211 HD
ENDBRANCH  19  24
BRANCH  21  26
ATOM     26  O   UNL     1      47.144  79.845  41.394  1.00  0.00    -0.387 OA
ATOM     27  H   UNL     1      46.826  80.539  42.030  1.00  0.00     0.211 HD
ENDBRANCH  21  26
BRANCH  22  28
ATOM     28  C   UNL     1      50.771  80.108  44.363  1.00  0.00     0.191 C 
BRANCH  28  29
ATOM     29  O   UNL     1      50.722  81.139  43.412  1.00  0.00    -0.394 OA
ATOM     30  H   UNL     1      50.939  80.726  42.532  1.00  0.00     0.210 HD
ENDBRANCH  28  29
ENDBRANCH  22  28
BRANCH  23  31
ATOM     31  O   UNL     1      47.294  79.157  44.070  1.00  0.00    -0.387 OA
ATOM     32  H   UNL     1      46.848  79.932  44.500  1.00  0.00     0.211 HD
ENDBRANCH  23  31
ENDBRANCH   1  18
TORSDOF 11
ENDMDL
MODEL 4
REMARK VINA RESULT:    -5.616      1.304      2.572
REMARK INTER + INTRA:          -9.863
REMARK INTER:                  -8.720
REMARK INTRA:                  -1.143
REMARK UNBOUND:                -1.456
REMARK SMILES COC(=O)C1=CO[C@@H](O[C@H]2O[C@@H](CO)[C@H](O)[C@H](O)[C@@H]2O)[C@@H]2C(CO)=CC[C@H]12
REMARK SMILES IDX 9 1 8 2 5 3 6 4 27 5 7 6 21 7 26 8 22 9 25 10 3 11 4 12 2 13
REMARK SMILES IDX 1 14 23 15 24 16 10 18 19 19 11 20 17 21 12 22 15 23 20 24
REMARK SMILES IDX 18 26 13 28 14 29 16 31
REMARK H PARENT 24 17 20 25 18 27 14 30 16 32
REMARK Flexibility Score: inf
ROOT
ATOM      1  O   UNL     1      49.218  76.158  44.104  1.00  0.00    -0.310 OA
ENDROOT
BRANCH   1   2
ATOM      2  C   UNL     1      50.273  77.039  43.748  1.00  0.00     0.316 C 
ATOM      3  C   UNL     1      51.981  79.308  44.136  1.00  0.00     0.076 C 
ATOM      4  C   UNL     1      52.066  78.237  44.940  1.00  0.00     0.202 C 
ATOM      5  C   UNL     1      50.787  79.479  43.210  1.00  0.00     0.047 C 
ATOM      6  O   UNL     1      51.115  77.217  44.882  1.00  0.00    -0.471 OA
ATOM      7  C   UNL     1      49.683  78.402  43.333  1.00  0.00     0.094 C 
ATOM      8  C   UNL     1      51.171  79.472  41.723  1.00  0.00     0.037 C 
ATOM      9  C   UNL     1      49.136  78.341  41.935  1.00  0.00    -0.039 C 
ATOM     10  C   UNL     1      49.965  78.902  41.062  1.00  0.00    -0.024 C 
BRANCH   3  11
ATOM     11  C   UNL     1      53.012  80.370  44.202  1.00  0.00     0.337 C 
ATOM     12  O   UNL     1      52.746  81.468  44.764  1.00  0.00    -0.246 OA
BRANCH  11  13
ATOM     13  O   UNL     1      54.278  80.160  43.642  1.00  0.00    -0.466 OA
ATOM     14  C   UNL     1      54.612  80.575  42.323  1.00  0.00     0.282 C 
ENDBRANCH  11  13
ENDBRANCH   3  11
BRANCH   9  15
ATOM     15  C   UNL     1      47.811  77.752  41.529  1.00  0.00     0.187 C 
BRANCH  15  16
ATOM     16  O   UNL     1      47.995  76.669  40.662  1.00  0.00    -0.392 OA
ATOM     17  H   UNL     1      47.228  76.059  40.814  1.00  0.00     0.211 HD
ENDBRANCH  15  16
ENDBRANCH   9  15
ENDBRANCH   1   2
BRANCH   1  18
ATOM     18  C   UNL     1      49.561  74.785  43.987  1.00  0.00     0.286 C 
ATOM     19  C   UNL     1      49.105  74.184  42.631  1.00  0.00     0.202 C 
ATOM     20  O   UNL     1      49.040  74.028  45.068  1.00  0.00    -0.341 OA
ATOM     21  C   UNL     1      48.901  72.648  42.747  1.00  0.00     0.179 C 
ATOM     22  C   UNL     1      49.701  72.775  45.176  1.00  0.00     0.178 C 
ATOM     23  C   UNL     1      49.830  72.025  43.805  1.00  0.00     0.177 C 
BRANCH  19  24
ATOM     24  O   UNL     1      50.009  74.524  41.607  1.00  0.00    -0.385 OA
ATOM     25  H   UNL     1      49.490  74.669  40.776  1.00  0.00     0.211 HD
ENDBRANCH  19  24
BRANCH  21  26
ATOM     26  O   UNL     1      49.094  72.015  41.509  1.00  0.00    -0.387 OA
ATOM     27  H   UNL     1      48.209  71.998  41.057  1.00  0.00     0.211 HD
ENDBRANCH  21  26
BRANCH  22  28
ATOM     28  C   UNL     1      48.934  71.923  46.199  1.00  0.00     0.191 C 
BRANCH  28  29
ATOM     29  O   UNL     1      47.552  72.135  46.089  1.00  0.00    -0.394 OA
ATOM     30  H   UNL     1      47.428  73.093  45.850  1.00  0.00     0.210 HD
ENDBRANCH  28  29
ENDBRANCH  22  28
BRANCH  23  31
ATOM     31  O   UNL     1      51.158  72.077  43.351  1.00  0.00    -0.387 OA
ATOM     32  H   UNL     1      51.506  72.976  43.586  1.00  0.00     0.211 HD
ENDBRANCH  23  31
ENDBRANCH   1  18
TORSDOF 11
ENDMDL
MODEL 5
REMARK VINA RESULT:    -5.608      1.475      3.644
REMARK INTER + INTRA:          -9.850
REMARK INTER:                  -8.266
REMARK INTRA:                  -1.584
REMARK UNBOUND:                -1.456
REMARK SMILES COC(=O)C1=CO[C@@H](O[C@H]2O[C@@H](CO)[C@H](O)[C@H](O)[C@@H]2O)[C@@H]2C(CO)=CC[C@H]12
REMARK SMILES IDX 9 1 8 2 5 3 6 4 27 5 7 6 21 7 26 8 22 9 25 10 3 11 4 12 2 13
REMARK SMILES IDX 1 14 23 15 24 16 10 18 19 19 11 20 17 21 12 22 15 23 20 24
REMARK SMILES IDX 18 26 13 28 14 29 16 31
REMARK H PARENT 24 17 20 25 18 27 14 30 16 32
REMARK Flexibility Score: inf
ROOT
ATOM      1  O   UNL     1      48.960  76.939  43.844  1.00  0.00    -0.310 OA
ENDROOT
BRANCH   1   2
ATOM      2  C   UNL     1      49.769  78.105  43.801  1.00  0.00     0.316 C 
ATOM      3  C   UNL     1      51.788  79.804  42.683  1.00  0.00     0.076 C 
ATOM      4  C   UNL     1      50.620  79.614  42.050  1.00  0.00     0.202 C 
ATOM      5  C   UNL     1      52.195  78.895  43.832  1.00  0.00     0.047 C 
ATOM      6  O   UNL     1      49.716  78.644  42.485  1.00  0.00    -0.471 OA
ATOM      7  C   UNL     1      51.226  77.728  44.138  1.00  0.00     0.094 C 
ATOM      8  C   UNL     1      52.340  79.639  45.167  1.00  0.00     0.037 C 
ATOM      9  C   UNL     1      51.400  77.547  45.619  1.00  0.00    -0.039 C 
ATOM     10  C   UNL     1      51.983  78.603  46.175  1.00  0.00    -0.024 C 
BRANCH   3  11
ATOM     11  C   UNL     1      52.725  80.852  42.214  1.00  0.00     0.337 C 
ATOM     12  O   UNL     1      52.274  81.946  41.778  1.00  0.00    -0.246 OA
BRANCH  11  13
ATOM     13  O   UNL     1      54.107  80.631  42.253  1.00  0.00    -0.466 OA
ATOM     14  C   UNL     1      54.973  81.338  43.133  1.00  0.00     0.282 C 
ENDBRANCH  11  13
ENDBRANCH   3  11
BRANCH   9  15
ATOM     15  C   UNL     1      51.003  76.331  46.414  1.00  0.00     0.187 C 
BRANCH  15  16
ATOM     16  O   UNL     1      51.120  75.171  45.639  1.00  0.00    -0.392 OA
ATOM     17  H   UNL     1      50.212  74.777  45.594  1.00  0.00     0.211 HD
ENDBRANCH  15  16
ENDBRANCH   9  15
ENDBRANCH   1   2
BRANCH   1  18
ATOM     18  C   UNL     1      49.277  75.991  42.835  1.00  0.00     0.286 C 
ATOM     19  C   UNL     1      48.181  75.918  41.738  1.00  0.00     0.202 C 
ATOM     20  O   UNL     1      49.512  74.706  43.390  1.00  0.00    -0.341 OA
ATOM     21  C   UNL     1      48.191  74.532  41.036  1.00  0.00     0.179 C 
ATOM     22  C   UNL     1      50.209  73.876  42.470  1.00  0.00     0.178 C 
ATOM     23  C   UNL     1      49.597  73.905  41.026  1.00  0.00     0.177 C 
BRANCH  19  24
ATOM     24  O   UNL     1      48.323  76.978  40.823  1.00  0.00    -0.385 OA
ATOM     25  H   UNL     1      48.398  76.590  39.915  1.00  0.00     0.211 HD
ENDBRANCH  19  24
BRANCH  21  26
ATOM     26  O   UNL     1      47.698  74.623  39.725  1.00  0.00    -0.387 OA
ATOM     27  H   UNL     1      47.543  75.589  39.546  1.00  0.00     0.211 HD
ENDBRANCH  21  26
BRANCH  22  28
ATOM     28  C   UNL     1      50.216  72.447  43.035  1.00  0.00     0.191 C 
BRANCH  28  29
ATOM     29  O   UNL     1      48.941  72.086  43.496  1.00  0.00    -0.394 OA
ATOM     30  H   UNL     1      48.933  72.255  44.477  1.00  0.00     0.210 HD
ENDBRANCH  28  29
ENDBRANCH  22  28
BRANCH  23  31
ATOM     31  O   UNL     1      50.430  74.638  40.165  1.00  0.00    -0.387 OA
ATOM     32  H   UNL     1      50.178  74.385  39.239  1.00  0.00     0.211 HD
ENDBRANCH  23  31
ENDBRANCH   1  18
TORSDOF 11
ENDMDL
MODEL 6
REMARK VINA RESULT:    -5.605      2.766      4.725
REMARK INTER + INTRA:          -9.847
REMARK INTER:                  -8.575
REMARK INTRA:                  -1.272
REMARK UNBOUND:                -1.456
REMARK SMILES COC(=O)C1=CO[C@@H](O[C@H]2O[C@@H](CO)[C@H](O)[C@H](O)[C@@H]2O)[C@@H]2C(CO)=CC[C@H]12
REMARK SMILES IDX 9 1 8 2 5 3 6 4 27 5 7 6 21 7 26 8 22 9 25 10 3 11 4 12 2 13
REMARK SMILES IDX 1 14 23 15 24 16 10 18 19 19 11 20 17 21 12 22 15 23 20 24
REMARK SMILES IDX 18 26 13 28 14 29 16 31
REMARK H PARENT 24 17 20 25 18 27 14 30 16 32
REMARK Flexibility Score: inf
ROOT
ATOM      1  O   UNL     1      49.362  76.286  41.757  1.00  0.00    -0.310 OA
ENDROOT
BRANCH   1   2
ATOM      2  C   UNL     1      48.822  77.084  42.799  1.00  0.00     0.316 C 
ATOM      3  C   UNL     1      47.998  79.555  43.995  1.00  0.00     0.076 C 
ATOM      4  C   UNL     1      47.332  79.039  42.950  1.00  0.00     0.202 C 
ATOM      5  C   UNL     1      49.370  79.018  44.370  1.00  0.00     0.047 C 
ATOM      6  O   UNL     1      47.836  77.947  42.243  1.00  0.00    -0.471 OA
ATOM      7  C   UNL     1      49.945  77.931  43.430  1.00  0.00     0.094 C 
ATOM      8  C   UNL     1      49.408  78.381  45.766  1.00  0.00     0.037 C 
ATOM      9  C   UNL     1      50.776  77.102  44.367  1.00  0.00    -0.039 C 
ATOM     10  C   UNL     1      50.457  77.334  45.636  1.00  0.00    -0.024 C 
BRANCH   3  11
ATOM     11  C   UNL     1      47.435  80.704  44.742  1.00  0.00     0.337 C 
ATOM     12  O   UNL     1      48.124  81.748  44.898  1.00  0.00    -0.246 OA
BRANCH  11  13
ATOM     13  O   UNL     1      46.142  80.633  45.274  1.00  0.00    -0.466 OA
ATOM     14  C   UNL     1      45.887  80.272  46.626  1.00  0.00     0.282 C 
ENDBRANCH  11  13
ENDBRANCH   3  11
BRANCH   9  15
ATOM     15  C   UNL     1      51.860  76.136  43.969  1.00  0.00     0.187 C 
BRANCH  15  16
ATOM     16  O   UNL     1      51.542  74.836  44.381  1.00  0.00    -0.392 OA
ATOM     17  H   UNL     1      51.946  74.228  43.710  1.00  0.00     0.211 HD
ENDBRANCH  15  16
ENDBRANCH   9  15
ENDBRANCH   1   2
BRANCH   1  18
ATOM     18  C   UNL     1      49.058  74.904  41.883  1.00  0.00     0.286 C 
ATOM     19  C   UNL     1      47.900  74.474  40.944  1.00  0.00     0.202 C 
ATOM     20  O   UNL     1      48.762  74.562  43.228  1.00  0.00    -0.341 OA
ATOM     21  C   UNL     1      47.173  73.219  41.500  1.00  0.00     0.179 C 
ATOM     22  C   UNL     1      48.859  73.158  43.427  1.00  0.00     0.178 C 
ATOM     23  C   UNL     1      48.120  72.325  42.323  1.00  0.00     0.177 C 
BRANCH  19  24
ATOM     24  O   UNL     1      48.371  74.277  39.633  1.00  0.00    -0.385 OA
ATOM     25  H   UNL     1      47.898  74.913  39.039  1.00  0.00     0.211 HD
ENDBRANCH  19  24
BRANCH  21  26
ATOM     26  O   UNL     1      46.587  72.471  40.467  1.00  0.00    -0.387 OA
ATOM     27  H   UNL     1      46.216  71.650  40.886  1.00  0.00     0.211 HD
ENDBRANCH  21  26
BRANCH  22  28
ATOM     28  C   UNL     1      48.299  72.839  44.822  1.00  0.00     0.191 C 
BRANCH  28  29
ATOM     29  O   UNL     1      48.595  71.517  45.189  1.00  0.00    -0.394 OA
ATOM     30  H   UNL     1      48.694  71.511  46.180  1.00  0.00     0.210 HD
ENDBRANCH  28  29
ENDBRANCH  22  28
BRANCH  23  31
ATOM     31  O   UNL     1      49.057  71.724  41.466  1.00  0.00    -0.387 OA
ATOM     32  H   UNL     1      48.906  70.745  41.519  1.00  0.00     0.211 HD
ENDBRANCH  23  31
ENDBRANCH   1  18
TORSDOF 11
ENDMDL
MODEL 7
REMARK VINA RESULT:    -5.528      2.454      6.712
REMARK INTER + INTRA:          -9.731
REMARK INTER:                  -8.638
REMARK INTRA:                  -1.092
REMARK UNBOUND:                -1.456
REMARK SMILES COC(=O)C1=CO[C@@H](O[C@H]2O[C@@H](CO)[C@H](O)[C@H](O)[C@@H]2O)[C@@H]2C(CO)=CC[C@H]12
REMARK SMILES IDX 9 1 8 2 5 3 6 4 27 5 7 6 21 7 26 8 22 9 25 10 3 11 4 12 2 13
REMARK SMILES IDX 1 14 23 15 24 16 10 18 19 19 11 20 17 21 12 22 15 23 20 24
REMARK SMILES IDX 18 26 13 28 14 29 16 31
REMARK H PARENT 24 17 20 25 18 27 14 30 16 32
REMARK Flexibility Score: inf
ROOT
ATOM      1  O   UNL     1      49.979  76.384  41.615  1.00  0.00    -0.310 OA
ENDROOT
BRANCH   1   2
ATOM      2  C   UNL     1      49.807  75.210  42.394  1.00  0.00     0.316 C 
ATOM      3  C   UNL     1      50.592  72.643  43.399  1.00  0.00     0.076 C 
ATOM      4  C   UNL     1      51.253  73.754  43.757  1.00  0.00     0.202 C 
ATOM      5  C   UNL     1      49.623  72.671  42.227  1.00  0.00     0.047 C 
ATOM      6  O   UNL     1      51.005  74.974  43.126  1.00  0.00    -0.471 OA
ATOM      7  C   UNL     1      49.536  74.012  41.461  1.00  0.00     0.094 C 
ATOM      8  C   UNL     1      48.175  72.362  42.634  1.00  0.00     0.037 C 
ATOM      9  C   UNL     1      48.111  74.019  40.986  1.00  0.00    -0.039 C 
ATOM     10  C   UNL     1      47.372  73.137  41.649  1.00  0.00    -0.024 C 
BRANCH   3  11
ATOM     11  C   UNL     1      50.859  71.362  44.094  1.00  0.00     0.337 C 
ATOM     12  O   UNL     1      51.472  71.364  45.197  1.00  0.00    -0.246 OA
BRANCH  11  13
ATOM     13  O   UNL     1      50.436  70.152  43.532  1.00  0.00    -0.466 OA
ATOM     14  C   UNL     1      50.130  69.006  44.317  1.00  0.00     0.282 C 
ENDBRANCH  11  13
ENDBRANCH   3  11
BRANCH   9  15
ATOM     15  C   UNL     1      47.550  74.880  39.886  1.00  0.00     0.187 C 
BRANCH  15  16
ATOM     16  O   UNL     1      47.027  76.070  40.405  1.00  0.00    -0.392 OA
ATOM     17  H   UNL     1      47.781  76.714  40.435  1.00  0.00     0.211 HD
ENDBRANCH  15  16
ENDBRANCH   9  15
ENDBRANCH   1   2
BRANCH   1  18
ATOM     18  C   UNL     1      49.560  77.570  42.275  1.00  0.00     0.286 C 
ATOM     19  C   UNL     1      50.054  77.624  43.745  1.00  0.00     0.202 C 
ATOM     20  O   UNL     1      48.150  77.722  42.217  1.00  0.00    -0.341 OA
ATOM     21  C   UNL     1      49.127  78.524  44.608  1.00  0.00     0.179 C 
ATOM     22  C   UNL     1      47.773  79.063  42.503  1.00  0.00     0.178 C 
ATOM     23  C   UNL     1      48.480  79.646  43.775  1.00  0.00     0.177 C 
BRANCH  19  24
ATOM     24  O   UNL     1      51.398  78.035  43.803  1.00  0.00    -0.385 OA
ATOM     25  H   UNL     1      51.414  79.002  44.018  1.00  0.00     0.211 HD
ENDBRANCH  19  24
BRANCH  21  26
ATOM     26  O   UNL     1      49.824  79.076  45.695  1.00  0.00    -0.387 OA
ATOM     27  H   UNL     1      50.550  79.637  45.312  1.00  0.00     0.211 HD
ENDBRANCH  21  26
BRANCH  22  28
ATOM     28  C   UNL     1      46.245  79.100  42.657  1.00  0.00     0.191 C 
BRANCH  28  29
ATOM     29  O   UNL     1      45.875  79.852  43.783  1.00  0.00    -0.394 OA
ATOM     30  H   UNL     1      45.972  79.252  44.572  1.00  0.00     0.210 HD
ENDBRANCH  28  29
ENDBRANCH  22  28
BRANCH  23  31
ATOM     31  O   UNL     1      49.464  80.574  43.395  1.00  0.00    -0.387 OA
ATOM     32  H   UNL     1      50.141  80.074  42.869  1.00  0.00     0.211 HD
ENDBRANCH  23  31
ENDBRANCH   1  18
TORSDOF 11
ENDMDL
MODEL 8
REMARK VINA RESULT:    -5.440      1.954      6.383
REMARK INTER + INTRA:          -9.600
REMARK INTER:                  -7.888
REMARK INTRA:                  -1.712
REMARK UNBOUND:                -1.456
REMARK SMILES COC(=O)C1=CO[C@@H](O[C@H]2O[C@@H](CO)[C@H](O)[C@H](O)[C@@H]2O)[C@@H]2C(CO)=CC[C@H]12
REMARK SMILES IDX 9 1 8 2 5 3 6 4 27 5 7 6 21 7 26 8 22 9 25 10 3 11 4 12 2 13
REMARK SMILES IDX 1 14 23 15 24 16 10 18 19 19 11 20 17 21 12 22 15 23 20 24
REMARK SMILES IDX 18 26 13 28 14 29 16 31
REMARK H PARENT 24 17 20 25 18 27 14 30 16 32
REMARK Flexibility Score: inf
ROOT
ATOM      1  O   UNL     1      50.278  79.175  44.653  1.00  0.00    -0.310 OA
ENDROOT
BRANCH   1   2
ATOM      2  C   UNL     1      50.045  77.783  44.503  1.00  0.00     0.316 C 
ATOM      3  C   UNL     1      50.852  75.044  44.257  1.00  0.00     0.076 C 
ATOM      4  C   UNL     1      51.019  75.710  45.410  1.00  0.00     0.202 C 
ATOM      5  C   UNL     1      50.527  75.796  42.977  1.00  0.00     0.047 C 
ATOM      6  O   UNL     1      50.811  77.089  45.481  1.00  0.00    -0.471 OA
ATOM      7  C   UNL     1      50.492  77.338  43.096  1.00  0.00     0.094 C 
ATOM      8  C   UNL     1      49.159  75.422  42.389  1.00  0.00     0.037 C 
ATOM      9  C   UNL     1      49.466  77.717  42.066  1.00  0.00    -0.039 C 
ATOM     10  C   UNL     1      48.727  76.673  41.708  1.00  0.00    -0.024 C 
BRANCH   3  11
ATOM     11  C   UNL     1      51.061  73.578  44.210  1.00  0.00     0.337 C 
ATOM     12  O   UNL     1      51.837  73.083  43.348  1.00  0.00    -0.246 OA
BRANCH  11  13
ATOM     13  O   UNL     1      50.400  72.742  45.118  1.00  0.00    -0.466 OA
ATOM     14  C   UNL     1      49.029  72.389  44.979  1.00  0.00     0.282 C 
ENDBRANCH  11  13
ENDBRANCH   3  11
BRANCH   9  15
ATOM     15  C   UNL     1      49.276  79.086  41.469  1.00  0.00     0.187 C 
BRANCH  15  16
ATOM     16  O   UNL     1      50.424  79.490  40.778  1.00  0.00    -0.392 OA
ATOM     17  H   UNL     1      50.606  80.421  41.065  1.00  0.00     0.211 HD
ENDBRANCH  15  16
ENDBRANCH   9  15
ENDBRANCH   1   2
BRANCH   1  18
ATOM     18  C   UNL     1      51.604  79.567  44.328  1.00  0.00     0.286 C 
ATOM     19  C   UNL     1      52.424  79.949  45.589  1.00  0.00     0.202 C 
ATOM     20  O   UNL     1      51.612  80.630  43.388  1.00  0.00    -0.341 OA
ATOM     21  C   UNL     1      53.573  80.930  45.226  1.00  0.00     0.179 C 
ATOM     22  C   UNL     1      52.885  80.748  42.766  1.00  0.00     0.178 C 
ATOM     23  C   UNL     1      54.075  80.717  43.786  1.00  0.00     0.177 C 
BRANCH  19  24
ATOM     24  O   UNL     1      52.897  78.795  46.241  1.00  0.00    -0.385 OA
ATOM     25  H   UNL     1      52.736  78.019  45.647  1.00  0.00     0.211 HD
ENDBRANCH  19  24
BRANCH  21  26
ATOM     26  O   UNL     1      54.643  80.815  46.128  1.00  0.00    -0.387 OA
ATOM     27  H   UNL     1      55.460  81.097  45.637  1.00  0.00     0.211 HD
ENDBRANCH  21  26
BRANCH  22  28
ATOM     28  C   UNL     1      52.893  82.050  41.950  1.00  0.00     0.191 C 
BRANCH  28  29
ATOM     29  O   UNL     1      51.907  82.020  40.952  1.00  0.00    -0.394 OA
ATOM     30  H   UNL     1      52.210  81.360  40.271  1.00  0.00     0.210 HD
ENDBRANCH  28  29
ENDBRANCH  22  28
BRANCH  23  31
ATOM     31  O   UNL     1      54.748  79.487  43.702  1.00  0.00    -0.387 OA
ATOM     32  H   UNL     1      54.705  79.201  42.753  1.00  0.00     0.211 HD
ENDBRANCH  23  31
ENDBRANCH   1  18
TORSDOF 11
ENDMDL
MODEL 9
REMARK VINA RESULT:    -5.282      5.212      9.778
REMARK INTER + INTRA:          -9.363
REMARK INTER:                  -7.643
REMARK INTRA:                  -1.720
REMARK UNBOUND:                -1.456
REMARK SMILES COC(=O)C1=CO[C@@H](O[C@H]2O[C@@H](CO)[C@H](O)[C@H](O)[C@@H]2O)[C@@H]2C(CO)=CC[C@H]12
REMARK SMILES IDX 9 1 8 2 5 3 6 4 27 5 7 6 21 7 26 8 22 9 25 10 3 11 4 12 2 13
REMARK SMILES IDX 1 14 23 15 24 16 10 18 19 19 11 20 17 21 12 22 15 23 20 24
REMARK SMILES IDX 18 26 13 28 14 29 16 31
REMARK H PARENT 24 17 20 25 18 27 14 30 16 32
REMARK Flexibility Score: inf
ROOT
ATOM      1  O   UNL     1      49.351  69.413  45.586  1.00  0.00    -0.310 OA
ENDROOT
BRANCH   1   2
ATOM      2  C   UNL     1      50.286  68.358  45.757  1.00  0.00     0.316 C 
ATOM      3  C   UNL     1      52.890  67.170  45.610  1.00  0.00     0.076 C 
ATOM      4  C   UNL     1      52.634  68.164  46.475  1.00  0.00     0.202 C 
ATOM      5  C   UNL     1      51.915  66.863  44.485  1.00  0.00     0.047 C 
ATOM      6  O   UNL     1      51.434  68.875  46.419  1.00  0.00    -0.471 OA
ATOM      7  C   UNL     1      50.697  67.811  44.375  1.00  0.00     0.094 C 
ATOM      8  C   UNL     1      51.304  65.458  44.583  1.00  0.00     0.037 C 
ATOM      9  C   UNL     1      49.633  66.906  43.822  1.00  0.00    -0.039 C 
ATOM     10  C   UNL     1      49.961  65.626  43.965  1.00  0.00    -0.024 C 
BRANCH   3  11
ATOM     11  C   UNL     1      54.163  66.416  45.700  1.00  0.00     0.337 C 
ATOM     12  O   UNL     1      54.749  66.308  46.811  1.00  0.00    -0.246 OA
BRANCH  11  13
ATOM     13  O   UNL     1      54.715  65.827  44.557  1.00  0.00    -0.466 OA
ATOM     14  C   UNL     1      55.752  64.855  44.619  1.00  0.00     0.282 C 
ENDBRANCH  11  13
ENDBRANCH   3  11
BRANCH   9  15
ATOM     15  C   UNL     1      48.354  67.345  43.161  1.00  0.00     0.187 C 
BRANCH  15  16
ATOM     16  O   UNL     1      48.504  68.611  42.583  1.00  0.00    -0.392 OA
ATOM     17  H   UNL     1      47.677  68.776  42.061  1.00  0.00     0.211 HD
ENDBRANCH  15  16
ENDBRANCH   9  15
ENDBRANCH   1   2
BRANCH   1  18
ATOM     18  C   UNL     1      49.908  70.573  44.985  1.00  0.00     0.286 C 
ATOM     19  C   UNL     1      49.995  71.760  45.981  1.00  0.00     0.202 C 
ATOM     20  O   UNL     1      49.185  70.950  43.823  1.00  0.00    -0.341 OA
ATOM     21  C   UNL     1      49.989  73.118  45.226  1.00  0.00     0.179 C 
ATOM     22  C   UNL     1      49.952  71.830  43.012  1.00  0.00     0.178 C 
ATOM     23  C   UNL     1      50.615  72.997  43.824  1.00  0.00     0.177 C 
BRANCH  19  24
ATOM     24  O   UNL     1      51.117  71.624  46.819  1.00  0.00    -0.385 OA
ATOM     25  H   UNL     1      50.798  71.359  47.718  1.00  0.00     0.211 HD
ENDBRANCH  19  24
BRANCH  21  26
ATOM     26  O   UNL     1      50.652  74.112  45.962  1.00  0.00    -0.387 OA
ATOM     27  H   UNL     1      51.604  74.089  45.677  1.00  0.00     0.211 HD
ENDBRANCH  21  26
BRANCH  22  28
ATOM     28  C   UNL     1      49.032  72.379  41.911  1.00  0.00     0.191 C 
BRANCH  28  29
ATOM     29  O   UNL     1      47.859  71.616  41.814  1.00  0.00    -0.394 OA
ATOM     30  H   UNL     1      47.218  71.992  42.477  1.00  0.00     0.210 HD
ENDBRANCH  28  29
ENDBRANCH  22  28
BRANCH  23  31
ATOM     31  O   UNL     1      51.996  72.775  43.946  1.00  0.00    -0.387 OA
ATOM     32  H   UNL     1      52.274  72.255  43.148  1.00  0.00     0.211 HD
ENDBRANCH  23  31
ENDBRANCH   1  18
TORSDOF 11
ENDMDL
