MODEL 1
REMARK VINA RESULT:    -3.168      0.000      0.000
REMARK INTER + INTRA:          -3.080
REMARK INTER:                  -3.909
REMARK INTRA:                   0.828
REMARK UNBOUND:                 0.828
REMARK SMILES CC1=CC=CC(C)(C)CC1=O
REMARK SMILES IDX 1 1 2 2 3 3 10 4 11 5 9 6 4 8 5 9 6 10 7 11 8 12
REMARK H PARENT
REMARK Flexibility Score: 80.00
ROOT
ATOM      1  C   UNL     1      12.121   2.006   1.968  1.00  0.00     0.048 C 
ATOM      2  C   UNL     1      13.243   3.019   1.979  1.00  0.00    -0.008 C 
ATOM      3  C   UNL     1      14.510   2.559   1.880  1.00  0.00     0.007 C 
ENDROOT
BRANCH   2   4
ATOM      4  C   UNL     1      12.849   4.452   2.045  1.00  0.00     0.159 C 
ATOM      5  O   UNL     1      11.630   4.736   2.207  1.00  0.00    -0.295 OA
BRANCH   4   6
ATOM      6  C   UNL     1      13.807   5.596   1.891  1.00  0.00     0.091 CG0
ATOM      7  G   UNL     1      15.007   5.543   2.863  1.00  0.00     0.000 G0
ENDBRANCH   4   6
ENDBRANCH   2   4
BRANCH   3   8
ATOM      8  C   UNL     1      15.788   3.304   1.876  1.00  0.00    -0.003 C 
ATOM      9  C   UNL     1      16.032   4.547   2.305  1.00  0.00    -0.020 C 
BRANCH   9  10
ATOM     10  C   UNL     1      15.010   5.520   2.842  1.00  0.00    -0.010 CG0
ATOM     11  C   UNL     1      14.629   5.151   4.294  1.00  0.00     0.016 C 
ATOM     12  C   UNL     1      15.647   6.930   2.862  1.00  0.00     0.016 C 
ATOM     13  G   UNL     1      13.789   5.558   1.895  1.00  0.00     0.000 G0
ENDBRANCH   9  10
ENDBRANCH   3   8
TORSDOF 0
ENDMDL
MODEL 2
REMARK VINA RESULT:    -2.901     19.080     20.283
REMARK INTER + INTRA:          -2.751
REMARK INTER:                  -3.602
REMARK INTRA:                   0.852
REMARK UNBOUND:                 0.828
REMARK SMILES CC1=CC=CC(C)(C)CC1=O
REMARK SMILES IDX 1 1 2 2 3 3 10 4 11 5 9 6 4 8 5 9 6 10 7 11 8 12
REMARK H PARENT
REMARK Flexibility Score: 80.00
ROOT
ATOM      1  C   UNL     1      23.167 -10.528   5.104  1.00  0.00     0.048 C 
ATOM      2  C   UNL     1      24.086 -10.676   6.296  1.00  0.00    -0.008 C 
ATOM      3  C   UNL     1      24.702  -9.566   6.759  1.00  0.00     0.007 C 
ENDROOT
BRANCH   2   4
ATOM      4  C   UNL     1      24.190 -12.033   6.894  1.00  0.00     0.159 C 
ATOM      5  O   UNL     1      23.606 -12.993   6.320  1.00  0.00    -0.295 OA
BRANCH   4   6
ATOM      6  C   UNL     1      24.919 -12.336   8.170  1.00  0.00     0.091 CG0
ATOM      7  G   UNL     1      26.380 -11.831   8.192  1.00  0.00     0.000 G0
ENDBRANCH   4   6
ENDBRANCH   2   4
BRANCH   3   8
ATOM      8  C   UNL     1      25.650  -9.411   7.884  1.00  0.00    -0.003 C 
ATOM      9  C   UNL     1      26.392 -10.348   8.486  1.00  0.00    -0.020 C 
BRANCH   9  10
ATOM     10  C   UNL     1      26.373 -11.827   8.186  1.00  0.00    -0.010 CG0
ATOM     11  C   UNL     1      27.125 -12.117   6.867  1.00  0.00     0.016 C 
ATOM     12  C   UNL     1      27.116 -12.562   9.327  1.00  0.00     0.016 C 
ATOM     13  G   UNL     1      24.911 -12.329   8.164  1.00  0.00     0.000 G0
ENDBRANCH   9  10
ENDBRANCH   3   8
TORSDOF 0
ENDMDL
MODEL 3
REMARK VINA RESULT:    -2.875     18.267     19.571
REMARK INTER + INTRA:          -2.719
REMARK INTER:                  -3.562
REMARK INTRA:                   0.843
REMARK UNBOUND:                 0.828
REMARK SMILES CC1=CC=CC(C)(C)CC1=O
REMARK SMILES IDX 1 1 2 2 3 3 10 4 11 5 9 6 4 8 5 9 6 10 7 11 8 12
REMARK H PARENT
REMARK Flexibility Score: 80.00
ROOT
ATOM      1  C   UNL     1      26.934  -9.924   9.000  1.00  0.00     0.048 C 
ATOM      2  C   UNL     1      26.035 -10.588   7.982  1.00  0.00    -0.008 C 
ATOM      3  C   UNL     1      26.064 -11.935   7.897  1.00  0.00     0.007 C 
ENDROOT
BRANCH   2   4
ATOM      4  C   UNL     1      25.147  -9.693   7.191  1.00  0.00     0.159 C 
ATOM      5  O   UNL     1      25.248  -8.445   7.354  1.00  0.00    -0.295 OA
BRANCH   4   6
ATOM      6  C   UNL     1      24.103 -10.180   6.230  1.00  0.00     0.091 CG0
ATOM      7  G   UNL     1      24.630 -11.201   5.197  1.00  0.00     0.000 G0
ENDBRANCH   4   6
ENDBRANCH   2   4
BRANCH   3   8
ATOM      8  C   UNL     1      25.314 -12.843   7.001  1.00  0.00    -0.003 C 
ATOM      9  C   UNL     1      24.720 -12.562   5.835  1.00  0.00    -0.020 C 
BRANCH   9  10
ATOM     10  C   UNL     1      24.621 -11.200   5.191  1.00  0.00    -0.010 CG0
ATOM     11  C   UNL     1      25.977 -10.803   4.565  1.00  0.00     0.016 C 
ATOM     12  C   UNL     1      23.577 -11.278   4.052  1.00  0.00     0.016 C 
ATOM     13  G   UNL     1      24.120 -10.175   6.233  1.00  0.00     0.000 G0
ENDBRANCH   9  10
ENDBRANCH   3   8
TORSDOF 0
ENDMDL
MODEL 4
REMARK VINA RESULT:    -2.850     18.533     19.377
REMARK INTER + INTRA:          -2.688
REMARK INTER:                  -3.539
REMARK INTRA:                   0.851
REMARK UNBOUND:                 0.828
REMARK SMILES CC1=CC=CC(C)(C)CC1=O
REMARK SMILES IDX 1 1 2 2 3 3 10 4 11 5 9 6 4 8 5 9 6 10 7 11 8 12
REMARK H PARENT
REMARK Flexibility Score: 80.00
ROOT
ATOM      1  C   UNL     1      21.881 -12.035   7.714  1.00  0.00     0.048 C 
ATOM      2  C   UNL     1      23.309 -11.858   7.251  1.00  0.00    -0.008 C 
ATOM      3  C   UNL     1      24.286 -12.439   7.981  1.00  0.00     0.007 C 
ENDROOT
BRANCH   2   4
ATOM      4  C   UNL     1      23.512 -11.097   5.989  1.00  0.00     0.159 C 
ATOM      5  O   UNL     1      22.508 -10.576   5.430  1.00  0.00    -0.295 OA
BRANCH   4   6
ATOM      6  C   UNL     1      24.839 -10.940   5.307  1.00  0.00     0.091 CG0
ATOM      7  G   UNL     1      25.963 -10.425   6.234  1.00  0.00     0.000 G0
ENDBRANCH   4   6
ENDBRANCH   2   4
BRANCH   3   8
ATOM      8  C   UNL     1      25.752 -12.427   7.779  1.00  0.00    -0.003 C 
ATOM      9  C   UNL     1      26.490 -11.566   7.068  1.00  0.00    -0.020 C 
BRANCH   9  10
ATOM     10  C   UNL     1      25.966 -10.423   6.233  1.00  0.00    -0.010 CG0
ATOM     11  C   UNL     1      25.521  -9.254   7.142  1.00  0.00     0.016 C 
ATOM     12  C   UNL     1      27.117  -9.913   5.334  1.00  0.00     0.016 C 
ATOM     13  G   UNL     1      24.831 -10.933   5.317  1.00  0.00     0.000 G0
ENDBRANCH   9  10
ENDBRANCH   3   8
TORSDOF 0
ENDMDL
MODEL 5
REMARK VINA RESULT:    -2.844      1.827      3.544
REMARK INTER + INTRA:          -2.681
REMARK INTER:                  -3.532
REMARK INTRA:                   0.850
REMARK UNBOUND:                 0.828
REMARK SMILES CC1=CC=CC(C)(C)CC1=O
REMARK SMILES IDX 1 1 2 2 3 3 10 4 11 5 9 6 4 8 5 9 6 10 7 11 8 12
REMARK H PARENT
REMARK Flexibility Score: 80.00
ROOT
ATOM      1  C   UNL     1      17.678   6.305   2.224  1.00  0.00     0.048 C 
ATOM      2  C   UNL     1      16.588   5.299   2.517  1.00  0.00    -0.008 C 
ATOM      3  C   UNL     1      16.639   4.109   1.880  1.00  0.00     0.007 C 
ENDROOT
BRANCH   2   4
ATOM      4  C   UNL     1      15.573   5.691   3.532  1.00  0.00     0.159 C 
ATOM      5  O   UNL     1      15.601   6.867   3.990  1.00  0.00    -0.295 OA
BRANCH   4   6
ATOM      6  C   UNL     1      14.533   4.762   4.083  1.00  0.00     0.091 CG0
ATOM      7  G   UNL     1      13.680   4.064   3.000  1.00  0.00     0.000 G0
ENDBRANCH   4   6
ENDBRANCH   2   4
BRANCH   3   8
ATOM      8  C   UNL     1      15.718   2.954   1.959  1.00  0.00    -0.003 C 
ATOM      9  C   UNL     1      14.454   2.922   2.397  1.00  0.00    -0.020 C 
BRANCH   9  10
ATOM     10  C   UNL     1      13.689   4.080   2.992  1.00  0.00    -0.010 CG0
ATOM     11  C   UNL     1      13.241   5.055   1.879  1.00  0.00     0.016 C 
ATOM     12  C   UNL     1      12.417   3.521   3.673  1.00  0.00     0.016 C 
ATOM     13  G   UNL     1      14.552   4.765   4.075  1.00  0.00     0.000 G0
ENDBRANCH   9  10
ENDBRANCH   3   8
TORSDOF 0
ENDMDL
MODEL 6
REMARK VINA RESULT:    -2.735     18.465     19.425
REMARK INTER + INTRA:          -2.546
REMARK INTER:                  -3.391
REMARK INTRA:                   0.845
REMARK UNBOUND:                 0.828
REMARK SMILES CC1=CC=CC(C)(C)CC1=O
REMARK SMILES IDX 1 1 2 2 3 3 10 4 11 5 9 6 4 8 5 9 6 10 7 11 8 12
REMARK H PARENT
REMARK Flexibility Score: 80.00
ROOT
ATOM      1  C   UNL     1      23.916 -11.045   2.885  1.00  0.00     0.048 C 
ATOM      2  C   UNL     1      24.375 -11.180   4.320  1.00  0.00    -0.008 C 
ATOM      3  C   UNL     1      23.490 -11.655   5.223  1.00  0.00     0.007 C 
ENDROOT
BRANCH   2   4
ATOM      4  C   UNL     1      25.791 -10.825   4.604  1.00  0.00     0.159 C 
ATOM      5  O   UNL     1      26.494 -10.353   3.668  1.00  0.00    -0.295 OA
BRANCH   4   6
ATOM      6  C   UNL     1      26.459 -11.029   5.931  1.00  0.00     0.091 CG0
ATOM      7  G   UNL     1      25.685 -10.421   7.122  1.00  0.00     0.000 G0
ENDBRANCH   4   6
ENDBRANCH   2   4
BRANCH   3   8
ATOM      8  C   UNL     1      23.652 -11.881   6.676  1.00  0.00    -0.003 C 
ATOM      9  C   UNL     1      24.554 -11.348   7.509  1.00  0.00    -0.020 C 
BRANCH   9  10
ATOM     10  C   UNL     1      25.684 -10.424   7.124  1.00  0.00    -0.010 CG0
ATOM     11  C   UNL     1      25.144  -9.002   6.846  1.00  0.00     0.016 C 
ATOM     12  C   UNL     1      26.664 -10.334   8.317  1.00  0.00     0.016 C 
ATOM     13  G   UNL     1      26.448 -11.019   5.919  1.00  0.00     0.000 G0
ENDBRANCH   9  10
ENDBRANCH   3   8
TORSDOF 0
ENDMDL
MODEL 7
REMARK VINA RESULT:    -2.624     18.216     19.070
REMARK INTER + INTRA:          -2.410
REMARK INTER:                  -3.256
REMARK INTRA:                   0.846
REMARK UNBOUND:                 0.828
REMARK SMILES CC1=CC=CC(C)(C)CC1=O
REMARK SMILES IDX 1 1 2 2 3 3 10 4 11 5 9 6 4 8 5 9 6 10 7 11 8 12
REMARK H PARENT
REMARK Flexibility Score: 80.00
ROOT
ATOM      1  C   UNL     1      23.395 -11.423   3.338  1.00  0.00     0.048 C 
ATOM      2  C   UNL     1      24.369 -10.882   4.360  1.00  0.00    -0.008 C 
ATOM      3  C   UNL     1      25.662 -10.750   3.992  1.00  0.00     0.007 C 
ENDROOT
BRANCH   2   4
ATOM      4  C   UNL     1      23.802 -10.486   5.678  1.00  0.00     0.159 C 
ATOM      5  O   UNL     1      22.583 -10.721   5.906  1.00  0.00    -0.295 OA
BRANCH   4   6
ATOM      6  C   UNL     1      24.581  -9.786   6.751  1.00  0.00     0.091 CG0
ATOM      7  G   UNL     1      25.898 -10.496   7.136  1.00  0.00     0.000 G0
ENDBRANCH   4   6
ENDBRANCH   2   4
BRANCH   3   8
ATOM      8  C   UNL     1      26.822 -10.266   4.772  1.00  0.00    -0.003 C 
ATOM      9  C   UNL     1      26.956 -10.175   6.101  1.00  0.00    -0.020 C 
BRANCH   9  10
ATOM     10  C   UNL     1      25.894 -10.490   7.126  1.00  0.00    -0.010 CG0
ATOM     11  C   UNL     1      25.732 -12.020   7.278  1.00  0.00     0.016 C 
ATOM     12  C   UNL     1      26.355  -9.925   8.490  1.00  0.00     0.016 C 
ATOM     13  G   UNL     1      24.576  -9.785   6.735  1.00  0.00     0.000 G0
ENDBRANCH   9  10
ENDBRANCH   3   8
TORSDOF 0
ENDMDL
MODEL 8
REMARK VINA RESULT:    -2.588     18.854     19.621
REMARK INTER + INTRA:          -2.365
REMARK INTER:                  -3.215
REMARK INTRA:                   0.850
REMARK UNBOUND:                 0.828
REMARK SMILES CC1=CC=CC(C)(C)CC1=O
REMARK SMILES IDX 1 1 2 2 3 3 10 4 11 5 9 6 4 8 5 9 6 10 7 11 8 12
REMARK H PARENT
REMARK Flexibility Score: 80.00
ROOT
ATOM      1  C   UNL     1      25.715  -9.375   8.062  1.00  0.00     0.048 C 
ATOM      2  C   UNL     1      25.079 -10.119   6.909  1.00  0.00    -0.008 C 
ATOM      3  C   UNL     1      23.859 -10.665   7.106  1.00  0.00     0.007 C 
ENDROOT
BRANCH   2   4
ATOM      4  C   UNL     1      25.836 -10.138   5.628  1.00  0.00     0.159 C 
ATOM      5  O   UNL     1      26.986  -9.621   5.600  1.00  0.00    -0.295 OA
BRANCH   4   6
ATOM      6  C   UNL     1      25.302 -10.702   4.345  1.00  0.00     0.091 CG0
ATOM      7  G   UNL     1      24.756 -12.142   4.473  1.00  0.00     0.000 G0
ENDBRANCH   4   6
ENDBRANCH   2   4
BRANCH   3   8
ATOM      8  C   UNL     1      23.012 -11.447   6.179  1.00  0.00    -0.003 C 
ATOM      9  C   UNL     1      23.375 -12.111   5.075  1.00  0.00    -0.020 C 
BRANCH   9  10
ATOM     10  C   UNL     1      24.761 -12.153   4.476  1.00  0.00    -0.010 CG0
ATOM     11  C   UNL     1      25.679 -13.072   5.313  1.00  0.00     0.016 C 
ATOM     12  C   UNL     1      24.655 -12.754   3.055  1.00  0.00     0.016 C 
ATOM     13  G   UNL     1      25.310 -10.714   4.350  1.00  0.00     0.000 G0
ENDBRANCH   9  10
ENDBRANCH   3   8
TORSDOF 0
ENDMDL
MODEL 9
REMARK VINA RESULT:    -2.358     18.776     19.454
REMARK INTER + INTRA:          -2.082
REMARK INTER:                  -2.939
REMARK INTRA:                   0.857
REMARK UNBOUND:                 0.828
REMARK SMILES CC1=CC=CC(C)(C)CC1=O
REMARK SMILES IDX 1 1 2 2 3 3 10 4 11 5 9 6 4 8 5 9 6 10 7 11 8 12
REMARK H PARENT
REMARK Flexibility Score: 80.00
ROOT
ATOM      1  C   UNL     1      22.791 -12.270   7.819  1.00  0.00     0.048 C 
ATOM      2  C   UNL     1      23.545 -11.662   6.657  1.00  0.00    -0.008 C 
ATOM      3  C   UNL     1      23.005 -11.777   5.425  1.00  0.00     0.007 C 
ENDROOT
BRANCH   2   4
ATOM      4  C   UNL     1      24.801 -10.936   6.984  1.00  0.00     0.159 C 
ATOM      5  O   UNL     1      25.216 -10.953   8.176  1.00  0.00    -0.295 OA
BRANCH   4   6
ATOM      6  C   UNL     1      25.597 -10.144   5.990  1.00  0.00     0.091 CG0
ATOM      7  G   UNL     1      25.953 -10.926   4.706  1.00  0.00     0.000 G0
ENDBRANCH   4   6
ENDBRANCH   2   4
BRANCH   3   8
ATOM      8  C   UNL     1      23.515 -11.299   4.121  1.00  0.00    -0.003 C 
ATOM      9  C   UNL     1      24.766 -10.963   3.785  1.00  0.00    -0.020 C 
BRANCH   9  10
ATOM     10  C   UNL     1      25.957 -10.931   4.712  1.00  0.00    -0.010 CG0
ATOM     11  C   UNL     1      26.444 -12.367   5.010  1.00  0.00     0.016 C 
ATOM     12  C   UNL     1      27.105 -10.179   3.998  1.00  0.00     0.016 C 
ATOM     13  G   UNL     1      25.592 -10.146   5.992  1.00  0.00     0.000 G0
ENDBRANCH   9  10
ENDBRANCH   3   8
TORSDOF 0
ENDMDL
