MODEL 1
REMARK VINA RESULT:    -3.016      0.000      0.000
REMARK INTER + INTRA:          -3.646
REMARK INTER:                  -3.545
REMARK INTRA:                  -0.101
REMARK UNBOUND:                -0.101
REMARK SMILES O=C([O-])CCC(=O)[O-]
REMARK SMILES IDX 4 1 2 2 1 3 3 4 5 5 6 6 7 7 8 8
REMARK H PARENT
REMARK Flexibility Score: inf
ROOT
ATOM      1  C   UNL     1      21.009  19.114  46.847  1.00  0.00     0.059 C 
ENDROOT
BRANCH   1   2
ATOM      2  C   UNL     1      19.907  20.072  47.183  1.00  0.00     0.042 C 
ATOM      3  O   UNL     1      19.284  19.965  48.272  1.00  0.00    -0.550 OA
ATOM      4  O   UNL     1      19.543  21.059  46.275  1.00  0.00    -0.550 OA
ENDBRANCH   1   2
BRANCH   1   5
ATOM      5  C   UNL     1      21.210  18.074  47.955  1.00  0.00     0.059 C 
BRANCH   5   6
ATOM      6  C   UNL     1      20.893  16.690  47.477  1.00  0.00     0.042 C 
ATOM      7  O   UNL     1      19.921  16.496  46.700  1.00  0.00    -0.550 OA
ATOM      8  O   UNL     1      21.694  15.622  47.857  1.00  0.00    -0.550 OA
ENDBRANCH   5   6
ENDBRANCH   1   5
TORSDOF 3
ENDMDL
MODEL 2
REMARK VINA RESULT:    -3.016      0.253      3.970
REMARK INTER + INTRA:          -3.646
REMARK INTER:                  -3.553
REMARK INTRA:                  -0.093
REMARK UNBOUND:                -0.101
REMARK SMILES O=C([O-])CCC(=O)[O-]
REMARK SMILES IDX 4 1 2 2 1 3 3 4 5 5 6 6 7 7 8 8
REMARK H PARENT
REMARK Flexibility Score: inf
ROOT
ATOM      1  C   UNL     1      21.092  18.074  47.883  1.00  0.00     0.059 C 
ENDROOT
BRANCH   1   2
ATOM      2  C   UNL     1      20.676  16.729  47.371  1.00  0.00     0.042 C 
ATOM      3  O   UNL     1      21.338  15.702  47.674  1.00  0.00    -0.550 OA
ATOM      4  O   UNL     1      19.579  16.616  46.526  1.00  0.00    -0.550 OA
ENDBRANCH   1   2
BRANCH   1   5
ATOM      5  C   UNL     1      20.994  19.148  46.794  1.00  0.00     0.059 C 
BRANCH   5   6
ATOM      6  C   UNL     1      19.947  20.169  47.120  1.00  0.00     0.042 C 
ATOM      7  O   UNL     1      19.422  20.195  48.265  1.00  0.00    -0.550 OA
ATOM      8  O   UNL     1      19.579  21.116  46.174  1.00  0.00    -0.550 OA
ENDBRANCH   5   6
ENDBRANCH   1   5
TORSDOF 3
ENDMDL
MODEL 3
REMARK VINA RESULT:    -3.003      1.030      3.905
REMARK INTER + INTRA:          -3.631
REMARK INTER:                  -3.512
REMARK INTRA:                  -0.119
REMARK UNBOUND:                -0.101
REMARK SMILES O=C([O-])CCC(=O)[O-]
REMARK SMILES IDX 4 1 2 2 1 3 3 4 5 5 6 6 7 7 8 8
REMARK H PARENT
REMARK Flexibility Score: inf
ROOT
ATOM      1  C   UNL     1      20.646  18.147  47.921  1.00  0.00     0.059 C 
ENDROOT
BRANCH   1   2
ATOM      2  C   UNL     1      20.995  16.732  47.571  1.00  0.00     0.042 C 
ATOM      3  O   UNL     1      22.084  16.234  47.960  1.00  0.00    -0.550 OA
ATOM      4  O   UNL     1      20.135  15.979  46.782  1.00  0.00    -0.550 OA
ENDBRANCH   1   2
BRANCH   1   5
ATOM      5  C   UNL     1      21.089  19.124  46.826  1.00  0.00     0.059 C 
BRANCH   5   6
ATOM      6  C   UNL     1      19.916  19.690  46.085  1.00  0.00     0.042 C 
ATOM      7  O   UNL     1      19.143  18.928  45.445  1.00  0.00    -0.550 OA
ATOM      8  O   UNL     1      19.653  21.053  46.133  1.00  0.00    -0.550 OA
ENDBRANCH   5   6
ENDBRANCH   1   5
TORSDOF 3
ENDMDL
MODEL 4
REMARK VINA RESULT:    -2.954      1.712      2.435
REMARK INTER + INTRA:          -3.574
REMARK INTER:                  -3.453
REMARK INTRA:                  -0.121
REMARK UNBOUND:                -0.101
REMARK SMILES O=C([O-])CCC(=O)[O-]
REMARK SMILES IDX 4 1 2 2 1 3 3 4 5 5 6 6 7 7 8 8
REMARK H PARENT
REMARK Flexibility Score: inf
ROOT
ATOM      1  C   UNL     1      21.037  19.164  46.799  1.00  0.00     0.059 C 
ENDROOT
BRANCH   1   2
ATOM      2  C   UNL     1      19.881  19.913  46.207  1.00  0.00     0.042 C 
ATOM      3  O   UNL     1      19.715  19.939  44.960  1.00  0.00    -0.550 OA
ATOM      4  O   UNL     1      19.013  20.616  47.034  1.00  0.00    -0.550 OA
ENDBRANCH   1   2
BRANCH   1   5
ATOM      5  C   UNL     1      20.568  17.934  47.584  1.00  0.00     0.059 C 
BRANCH   5   6
ATOM      6  C   UNL     1      20.828  18.085  49.052  1.00  0.00     0.042 C 
ATOM      7  O   UNL     1      21.224  17.100  49.730  1.00  0.00    -0.550 OA
ATOM      8  O   UNL     1      20.674  19.323  49.663  1.00  0.00    -0.550 OA
ENDBRANCH   5   6
ENDBRANCH   1   5
TORSDOF 3
ENDMDL
MODEL 5
REMARK VINA RESULT:    -2.953      2.628      3.264
REMARK INTER + INTRA:          -3.573
REMARK INTER:                  -3.449
REMARK INTRA:                  -0.123
REMARK UNBOUND:                -0.101
REMARK SMILES O=C([O-])CCC(=O)[O-]
REMARK SMILES IDX 4 1 2 2 1 3 3 4 5 5 6 6 7 7 8 8
REMARK H PARENT
REMARK Flexibility Score: inf
ROOT
ATOM      1  C   UNL     1      18.919  20.644  47.711  1.00  0.00     0.059 C 
ENDROOT
BRANCH   1   2
ATOM      2  C   UNL     1      19.725  20.322  48.933  1.00  0.00     0.042 C 
ATOM      3  O   UNL     1      19.658  21.061  49.949  1.00  0.00    -0.550 OA
ATOM      4  O   UNL     1      20.579  19.226  48.932  1.00  0.00    -0.550 OA
ENDBRANCH   1   2
BRANCH   1   5
ATOM      5  C   UNL     1      19.783  20.630  46.446  1.00  0.00     0.059 C 
BRANCH   5   6
ATOM      6  C   UNL     1      19.369  19.537  45.508  1.00  0.00     0.042 C 
ATOM      7  O   UNL     1      19.226  19.776  44.280  1.00  0.00    -0.550 OA
ATOM      8  O   UNL     1      19.181  18.246  45.984  1.00  0.00    -0.550 OA
ENDBRANCH   5   6
ENDBRANCH   1   5
TORSDOF 3
ENDMDL
MODEL 6
REMARK VINA RESULT:    -2.951      1.197      1.658
REMARK INTER + INTRA:          -3.569
REMARK INTER:                  -3.389
REMARK INTRA:                  -0.180
REMARK UNBOUND:                -0.101
REMARK SMILES O=C([O-])CCC(=O)[O-]
REMARK SMILES IDX 4 1 2 2 1 3 3 4 5 5 6 6 7 7 8 8
REMARK H PARENT
REMARK Flexibility Score: inf
ROOT
ATOM      1  C   UNL     1      20.304  19.564  46.440  1.00  0.00     0.059 C 
ENDROOT
BRANCH   1   2
ATOM      2  C   UNL     1      19.227  20.017  47.378  1.00  0.00     0.042 C 
ATOM      3  O   UNL     1      18.016  19.901  47.055  1.00  0.00    -0.550 OA
ATOM      4  O   UNL     1      19.564  20.605  48.591  1.00  0.00    -0.550 OA
ENDBRANCH   1   2
BRANCH   1   5
ATOM      5  C   UNL     1      21.337  18.682  47.151  1.00  0.00     0.059 C 
BRANCH   5   6
ATOM      6  C   UNL     1      20.724  17.409  47.650  1.00  0.00     0.042 C 
ATOM      7  O   UNL     1      20.726  17.145  48.882  1.00  0.00    -0.550 OA
ATOM      8  O   UNL     1      20.117  16.533  46.760  1.00  0.00    -0.550 OA
ENDBRANCH   5   6
ENDBRANCH   1   5
TORSDOF 3
ENDMDL
MODEL 7
REMARK VINA RESULT:    -2.928      3.573      4.631
REMARK INTER + INTRA:          -3.542
REMARK INTER:                  -3.411
REMARK INTRA:                  -0.132
REMARK UNBOUND:                -0.101
REMARK SMILES O=C([O-])CCC(=O)[O-]
REMARK SMILES IDX 4 1 2 2 1 3 3 4 5 5 6 6 7 7 8 8
REMARK H PARENT
REMARK Flexibility Score: inf
ROOT
ATOM      1  C   UNL     1      19.515  20.865  45.644  1.00  0.00     0.059 C 
ENDROOT
BRANCH   1   2
ATOM      2  C   UNL     1      18.448  21.043  46.681  1.00  0.00     0.042 C 
ATOM      3  O   UNL     1      18.219  20.130  47.518  1.00  0.00    -0.550 OA
ATOM      4  O   UNL     1      17.681  22.201  46.697  1.00  0.00    -0.550 OA
ENDBRANCH   1   2
BRANCH   1   5
ATOM      5  C   UNL     1      19.124  19.806  44.608  1.00  0.00     0.059 C 
BRANCH   5   6
ATOM      6  C   UNL     1      18.261  20.384  43.528  1.00  0.00     0.042 C 
ATOM      7  O   UNL     1      17.194  19.804  43.191  1.00  0.00    -0.550 OA
ATOM      8  O   UNL     1      18.613  21.582  42.921  1.00  0.00    -0.550 OA
ENDBRANCH   5   6
ENDBRANCH   1   5
TORSDOF 3
ENDMDL
MODEL 8
REMARK VINA RESULT:    -2.923      1.373      4.105
REMARK INTER + INTRA:          -3.537
REMARK INTER:                  -3.486
REMARK INTRA:                  -0.051
REMARK UNBOUND:                -0.101
REMARK SMILES O=C([O-])CCC(=O)[O-]
REMARK SMILES IDX 4 1 2 2 1 3 3 4 5 5 6 6 7 7 8 8
REMARK H PARENT
REMARK Flexibility Score: inf
ROOT
ATOM      1  C   UNL     1      21.054  19.121  46.826  1.00  0.00     0.059 C 
ENDROOT
BRANCH   1   2
ATOM      2  C   UNL     1      20.913  17.917  47.709  1.00  0.00     0.042 C 
ATOM      3  O   UNL     1      20.658  16.791  47.209  1.00  0.00    -0.550 OA
ATOM      4  O   UNL     1      21.026  18.050  49.087  1.00  0.00    -0.550 OA
ENDBRANCH   1   2
BRANCH   1   5
ATOM      5  C   UNL     1      20.061  20.222  47.212  1.00  0.00     0.059 C 
BRANCH   5   6
ATOM      6  C   UNL     1      19.331  20.750  46.016  1.00  0.00     0.042 C 
ATOM      7  O   UNL     1      19.532  20.247  44.878  1.00  0.00    -0.550 OA
ATOM      8  O   UNL     1      18.399  21.770  46.162  1.00  0.00    -0.550 OA
ENDBRANCH   5   6
ENDBRANCH   1   5
TORSDOF 3
ENDMDL
MODEL 9
REMARK VINA RESULT:    -2.920      2.654      3.446
REMARK INTER + INTRA:          -3.533
REMARK INTER:                  -3.410
REMARK INTRA:                  -0.123
REMARK UNBOUND:                -0.101
REMARK SMILES O=C([O-])CCC(=O)[O-]
REMARK SMILES IDX 4 1 2 2 1 3 3 4 5 5 6 6 7 7 8 8
REMARK H PARENT
REMARK Flexibility Score: inf
ROOT
ATOM      1  C   UNL     1      19.744  20.631  46.337  1.00  0.00     0.059 C 
ENDROOT
BRANCH   1   2
ATOM      2  C   UNL     1      19.295  19.551  45.399  1.00  0.00     0.042 C 
ATOM      3  O   UNL     1      19.109  18.380  45.823  1.00  0.00    -0.550 OA
ATOM      4  O   UNL     1      19.121  19.831  44.049  1.00  0.00    -0.550 OA
ENDBRANCH   1   2
BRANCH   1   5
ATOM      5  C   UNL     1      18.964  20.592  47.656  1.00  0.00     0.059 C 
BRANCH   5   6
ATOM      6  C   UNL     1      19.859  20.276  48.815  1.00  0.00     0.042 C 
ATOM      7  O   UNL     1      19.900  21.046  49.812  1.00  0.00    -0.550 OA
ATOM      8  O   UNL     1      20.616  19.112  48.814  1.00  0.00    -0.550 OA
ENDBRANCH   5   6
ENDBRANCH   1   5
TORSDOF 3
ENDMDL
