MODEL 1
REMARK VINA RESULT:    -4.278      0.000      0.000
REMARK INTER + INTRA:         -15.913
REMARK INTER:                 -11.280
REMARK INTRA:                  -4.633
REMARK UNBOUND:                -4.633
REMARK SMILES CCCCCCCCCCCCCCCCCCCCCCCCCCCCCC(=O)[O-]
REMARK SMILES IDX 16 1 17 2 18 3 19 4 20 5 21 6 22 7 23 8 24 9 25 10 26 11
REMARK SMILES IDX 27 12 28 13 29 14 30 15 31 16 32 17 15 18 14 19 13 20 12 21
REMARK SMILES IDX 11 22 10 23 9 24 8 25 7 26 6 27 5 28 4 29 3 30 2 31 1 32
REMARK H PARENT
REMARK Flexibility Score: inf
ROOT
ATOM      1  C   UNL     1       4.666  -1.514  -3.654  1.00  0.00     0.000 C 
ENDROOT
BRANCH   1   2
ATOM      2  C   UNL     1       5.345  -0.536  -4.631  1.00  0.00     0.000 C 
BRANCH   2   3
ATOM      3  C   UNL     1       6.329  -1.235  -5.590  1.00  0.00     0.000 C 
BRANCH   3   4
ATOM      4  C   UNL     1       7.244  -2.288  -4.934  1.00  0.00     0.000 C 
BRANCH   4   5
ATOM      5  C   UNL     1       6.972  -3.750  -5.344  1.00  0.00     0.000 C 
BRANCH   5   6
ATOM      6  C   UNL     1       7.346  -4.788  -4.263  1.00  0.00     0.000 C 
BRANCH   6   7
ATOM      7  C   UNL     1       8.625  -4.407  -3.494  1.00  0.00     0.000 C 
BRANCH   7   8
ATOM      8  C   UNL     1       8.744  -5.149  -2.152  1.00  0.00     0.000 C 
BRANCH   8   9
ATOM      9  C   UNL     1       8.250  -4.301  -0.966  1.00  0.00     0.000 C 
BRANCH   9  10
ATOM     10  C   UNL     1       8.117  -2.808  -1.312  1.00  0.00     0.000 C 
BRANCH  10  11
ATOM     11  C   UNL     1       6.852  -2.123  -0.762  1.00  0.00     0.000 C 
BRANCH  11  12
ATOM     12  C   UNL     1       6.923  -0.588  -0.845  1.00  0.00     0.000 C 
BRANCH  12  13
ATOM     13  C   UNL     1       5.600   0.097  -0.451  1.00  0.00     0.006 C 
BRANCH  13  14
ATOM     14  C   UNL     1       5.710   1.067   0.738  1.00  0.00     0.053 C 
BRANCH  14  15
ATOM     15  C   UNL     1       6.120   0.372   1.999  1.00  0.00     0.041 C 
ATOM     16  O   UNL     1       5.302  -0.361   2.617  1.00  0.00    -0.550 OA
ATOM     17  O   UNL     1       7.425   0.481   2.459  1.00  0.00    -0.550 OA
ENDBRANCH  14  15
ENDBRANCH  13  14
ENDBRANCH  12  13
ENDBRANCH  11  12
ENDBRANCH  10  11
ENDBRANCH   9  10
ENDBRANCH   8   9
ENDBRANCH   7   8
ENDBRANCH   6   7
ENDBRANCH   5   6
ENDBRANCH   4   5
ENDBRANCH   3   4
ENDBRANCH   2   3
ENDBRANCH   1   2
BRANCH   1  18
ATOM     18  C   UNL     1       3.135  -1.531  -3.799  1.00  0.00     0.000 C 
BRANCH  18  19
ATOM     19  C   UNL     1       2.657  -1.052  -5.180  1.00  0.00     0.000 C 
BRANCH  19  20
ATOM     20  C   UNL     1       2.231  -2.211  -6.098  1.00  0.00     0.000 C 
BRANCH  20  21
ATOM     21  C   UNL     1       3.402  -2.864  -6.865  1.00  0.00     0.000 C 
BRANCH  21  22
ATOM     22  C   UNL     1       3.448  -4.392  -6.678  1.00  0.00     0.000 C 
BRANCH  22  23
ATOM     23  C   UNL     1       3.467  -4.812  -5.199  1.00  0.00     0.000 C 
BRANCH  23  24
ATOM     24  C   UNL     1       2.410  -5.878  -4.866  1.00  0.00    -0.000 C 
BRANCH  24  25
ATOM     25  C   UNL     1       1.028  -5.237  -4.674  1.00  0.00    -0.000 C 
BRANCH  25  26
ATOM     26  C   UNL     1       0.972  -4.291  -3.460  1.00  0.00    -0.000 C 
BRANCH  26  27
ATOM     27  C   UNL     1       0.021  -4.733  -2.330  1.00  0.00    -0.000 C 
BRANCH  27  28
ATOM     28  C   UNL     1      -0.784  -5.994  -2.679  1.00  0.00    -0.000 C 
BRANCH  28  29
ATOM     29  C   UNL     1      -0.438  -7.152  -1.729  1.00  0.00    -0.000 C 
BRANCH  29  30
ATOM     30  C   UNL     1       0.932  -6.981  -1.045  1.00  0.00    -0.000 C 
BRANCH  30  31
ATOM     31  C   UNL     1       2.088  -7.755  -1.702  1.00  0.00    -0.003 C 
ATOM     32  C   UNL     1       2.681  -8.834  -0.797  1.00  0.00     0.004 C 
ENDBRANCH  30  31
ENDBRANCH  29  30
ENDBRANCH  28  29
ENDBRANCH  27  28
ENDBRANCH  26  27
ENDBRANCH  25  26
ENDBRANCH  24  25
ENDBRANCH  23  24
ENDBRANCH  22  23
ENDBRANCH  21  22
ENDBRANCH  20  21
ENDBRANCH  19  20
ENDBRANCH  18  19
ENDBRANCH   1  18
TORSDOF 28
ENDMDL
MODEL 2
REMARK VINA RESULT:    -4.062      1.071      2.370
REMARK INTER + INTRA:         -15.345
REMARK INTER:                 -10.913
REMARK INTRA:                  -4.432
REMARK UNBOUND:                -4.633
REMARK SMILES CCCCCCCCCCCCCCCCCCCCCCCCCCCCCC(=O)[O-]
REMARK SMILES IDX 16 1 17 2 18 3 19 4 20 5 21 6 22 7 23 8 24 9 25 10 26 11
REMARK SMILES IDX 27 12 28 13 29 14 30 15 31 16 32 17 15 18 14 19 13 20 12 21
REMARK SMILES IDX 11 22 10 23 9 24 8 25 7 26 6 27 5 28 4 29 3 30 2 31 1 32
REMARK H PARENT
REMARK Flexibility Score: inf
ROOT
ATOM      1  C   UNL     1       2.786  -1.877  -3.958  1.00  0.00     0.000 C 
ENDROOT
BRANCH   1   2
ATOM      2  C   UNL     1       4.174  -1.299  -3.624  1.00  0.00     0.000 C 
BRANCH   2   3
ATOM      3  C   UNL     1       4.873  -0.673  -4.847  1.00  0.00     0.000 C 
BRANCH   3   4
ATOM      4  C   UNL     1       6.247  -1.281  -5.196  1.00  0.00     0.000 C 
BRANCH   4   5
ATOM      5  C   UNL     1       6.218  -2.452  -6.199  1.00  0.00     0.000 C 
BRANCH   5   6
ATOM      6  C   UNL     1       6.646  -3.808  -5.596  1.00  0.00     0.000 C 
BRANCH   6   7
ATOM      7  C   UNL     1       6.672  -3.790  -4.056  1.00  0.00     0.000 C 
BRANCH   7   8
ATOM      8  C   UNL     1       8.104  -3.804  -3.495  1.00  0.00     0.000 C 
BRANCH   8   9
ATOM      9  C   UNL     1       8.138  -4.063  -1.979  1.00  0.00     0.000 C 
BRANCH   9  10
ATOM     10  C   UNL     1       8.426  -2.791  -1.162  1.00  0.00     0.000 C 
BRANCH  10  11
ATOM     11  C   UNL     1       7.221  -2.232  -0.383  1.00  0.00     0.000 C 
BRANCH  11  12
ATOM     12  C   UNL     1       6.378  -1.251  -1.215  1.00  0.00     0.000 C 
BRANCH  12  13
ATOM     13  C   UNL     1       5.745  -0.131  -0.367  1.00  0.00     0.006 C 
BRANCH  13  14
ATOM     14  C   UNL     1       6.676   0.469   0.701  1.00  0.00     0.053 C 
BRANCH  14  15
ATOM     15  C   UNL     1       6.048   0.472   2.061  1.00  0.00     0.041 C 
ATOM     16  O   UNL     1       5.276  -0.461   2.408  1.00  0.00    -0.550 OA
ATOM     17  O   UNL     1       6.364   1.474   2.969  1.00  0.00    -0.550 OA
ENDBRANCH  14  15
ENDBRANCH  13  14
ENDBRANCH  12  13
ENDBRANCH  11  12
ENDBRANCH  10  11
ENDBRANCH   9  10
ENDBRANCH   8   9
ENDBRANCH   7   8
ENDBRANCH   6   7
ENDBRANCH   5   6
ENDBRANCH   4   5
ENDBRANCH   3   4
ENDBRANCH   2   3
ENDBRANCH   1   2
BRANCH   1  18
ATOM     18  C   UNL     1       2.249  -1.384  -5.313  1.00  0.00     0.000 C 
BRANCH  18  19
ATOM     19  C   UNL     1       2.253  -2.478  -6.394  1.00  0.00     0.000 C 
BRANCH  19  20
ATOM     20  C   UNL     1       2.795  -3.823  -5.878  1.00  0.00     0.000 C 
BRANCH  20  21
ATOM     21  C   UNL     1       2.610  -4.992  -6.870  1.00  0.00     0.000 C 
BRANCH  21  22
ATOM     22  C   UNL     1       3.028  -6.346  -6.267  1.00  0.00     0.000 C 
BRANCH  22  23
ATOM     23  C   UNL     1       3.738  -6.201  -4.910  1.00  0.00     0.000 C 
BRANCH  23  24
ATOM     24  C   UNL     1       4.168  -7.551  -4.313  1.00  0.00    -0.000 C 
BRANCH  24  25
ATOM     25  C   UNL     1       3.005  -8.214  -3.563  1.00  0.00    -0.000 C 
BRANCH  25  26
ATOM     26  C   UNL     1       3.373  -8.609  -2.120  1.00  0.00    -0.000 C 
BRANCH  26  27
ATOM     27  C   UNL     1       2.284  -8.325  -1.066  1.00  0.00    -0.000 C 
BRANCH  27  28
ATOM     28  C   UNL     1       1.143  -7.446  -1.602  1.00  0.00    -0.000 C 
BRANCH  28  29
ATOM     29  C   UNL     1       1.170  -6.051  -0.956  1.00  0.00    -0.000 C 
BRANCH  29  30
ATOM     30  C   UNL     1       0.400  -4.995  -1.771  1.00  0.00    -0.000 C 
BRANCH  30  31
ATOM     31  C   UNL     1       0.791  -4.907  -3.257  1.00  0.00    -0.003 C 
ATOM     32  C   UNL     1      -0.272  -5.476  -4.194  1.00  0.00     0.004 C 
ENDBRANCH  30  31
ENDBRANCH  29  30
ENDBRANCH  28  29
ENDBRANCH  27  28
ENDBRANCH  26  27
ENDBRANCH  25  26
ENDBRANCH  24  25
ENDBRANCH  23  24
ENDBRANCH  22  23
ENDBRANCH  21  22
ENDBRANCH  20  21
ENDBRANCH  19  20
ENDBRANCH  18  19
ENDBRANCH   1  18
TORSDOF 28
ENDMDL
MODEL 3
REMARK VINA RESULT:    -4.040      1.728      4.107
REMARK INTER + INTRA:         -15.287
REMARK INTER:                 -10.236
REMARK INTRA:                  -5.052
REMARK UNBOUND:                -4.633
REMARK SMILES CCCCCCCCCCCCCCCCCCCCCCCCCCCCCC(=O)[O-]
REMARK SMILES IDX 16 1 17 2 18 3 19 4 20 5 21 6 22 7 23 8 24 9 25 10 26 11
REMARK SMILES IDX 27 12 28 13 29 14 30 15 31 16 32 17 15 18 14 19 13 20 12 21
REMARK SMILES IDX 11 22 10 23 9 24 8 25 7 26 6 27 5 28 4 29 3 30 2 31 1 32
REMARK H PARENT
REMARK Flexibility Score: inf
ROOT
ATOM      1  C   UNL     1       1.583  -3.568  -3.885  1.00  0.00     0.000 C 
ENDROOT
BRANCH   1   2
ATOM      2  C   UNL     1       2.349  -2.248  -3.676  1.00  0.00     0.000 C 
BRANCH   2   3
ATOM      3  C   UNL     1       2.603  -1.489  -4.993  1.00  0.00     0.000 C 
BRANCH   3   4
ATOM      4  C   UNL     1       2.309  -2.291  -6.277  1.00  0.00     0.000 C 
BRANCH   4   5
ATOM      5  C   UNL     1       3.550  -2.770  -7.058  1.00  0.00     0.000 C 
BRANCH   5   6
ATOM      6  C   UNL     1       4.894  -2.364  -6.416  1.00  0.00     0.000 C 
BRANCH   6   7
ATOM      7  C   UNL     1       5.568  -3.528  -5.665  1.00  0.00     0.000 C 
BRANCH   7   8
ATOM      8  C   UNL     1       6.099  -3.106  -4.285  1.00  0.00     0.000 C 
BRANCH   8   9
ATOM      9  C   UNL     1       6.706  -1.691  -4.297  1.00  0.00     0.000 C 
BRANCH   9  10
ATOM     10  C   UNL     1       6.704  -1.028  -2.909  1.00  0.00     0.000 C 
BRANCH  10  11
ATOM     11  C   UNL     1       5.309  -0.821  -2.290  1.00  0.00     0.000 C 
BRANCH  11  12
ATOM     12  C   UNL     1       5.371  -0.364  -0.822  1.00  0.00     0.000 C 
BRANCH  12  13
ATOM     13  C   UNL     1       6.577  -0.948  -0.060  1.00  0.00     0.006 C 
BRANCH  13  14
ATOM     14  C   UNL     1       7.078  -0.083   1.109  1.00  0.00     0.053 C 
BRANCH  14  15
ATOM     15  C   UNL     1       5.957   0.395   1.980  1.00  0.00     0.041 C 
ATOM     16  O   UNL     1       5.345  -0.412   2.730  1.00  0.00    -0.550 OA
ATOM     17  O   UNL     1       5.629   1.743   2.012  1.00  0.00    -0.550 OA
ENDBRANCH  14  15
ENDBRANCH  13  14
ENDBRANCH  12  13
ENDBRANCH  11  12
ENDBRANCH  10  11
ENDBRANCH   9  10
ENDBRANCH   8   9
ENDBRANCH   7   8
ENDBRANCH   6   7
ENDBRANCH   5   6
ENDBRANCH   4   5
ENDBRANCH   3   4
ENDBRANCH   2   3
ENDBRANCH   1   2
BRANCH   1  18
ATOM     18  C   UNL     1       0.770  -3.984  -2.647  1.00  0.00     0.000 C 
BRANCH  18  19
ATOM     19  C   UNL     1       0.388  -5.473  -2.652  1.00  0.00     0.000 C 
BRANCH  19  20
ATOM     20  C   UNL     1       1.099  -6.274  -1.547  1.00  0.00     0.000 C 
BRANCH  20  21
ATOM     21  C   UNL     1       1.316  -7.762  -1.896  1.00  0.00     0.000 C 
BRANCH  21  22
ATOM     22  C   UNL     1       1.932  -7.954  -3.295  1.00  0.00     0.000 C 
BRANCH  22  23
ATOM     23  C   UNL     1       3.457  -8.150  -3.254  1.00  0.00     0.000 C 
BRANCH  23  24
ATOM     24  C   UNL     1       4.174  -7.511  -4.454  1.00  0.00    -0.000 C 
BRANCH  24  25
ATOM     25  C   UNL     1       3.331  -6.378  -5.057  1.00  0.00    -0.000 C 
BRANCH  25  26
ATOM     26  C   UNL     1       3.342  -6.379  -6.598  1.00  0.00    -0.000 C 
BRANCH  26  27
ATOM     27  C   UNL     1       1.956  -6.257  -7.261  1.00  0.00    -0.000 C 
BRANCH  27  28
ATOM     28  C   UNL     1       0.873  -5.738  -6.302  1.00  0.00    -0.000 C 
BRANCH  28  29
ATOM     29  C   UNL     1      -0.252  -6.771  -6.129  1.00  0.00    -0.000 C 
BRANCH  29  30
ATOM     30  C   UNL     1      -1.548  -6.161  -5.561  1.00  0.00    -0.000 C 
BRANCH  30  31
ATOM     31  C   UNL     1      -2.350  -7.088  -4.631  1.00  0.00    -0.003 C 
ATOM     32  C   UNL     1      -1.638  -8.407  -4.335  1.00  0.00     0.004 C 
ENDBRANCH  30  31
ENDBRANCH  29  30
ENDBRANCH  28  29
ENDBRANCH  27  28
ENDBRANCH  26  27
ENDBRANCH  25  26
ENDBRANCH  24  25
ENDBRANCH  23  24
ENDBRANCH  22  23
ENDBRANCH  21  22
ENDBRANCH  20  21
ENDBRANCH  19  20
ENDBRANCH  18  19
ENDBRANCH   1  18
TORSDOF 28
ENDMDL
MODEL 4
REMARK VINA RESULT:    -4.030      1.459      2.421
REMARK INTER + INTRA:         -15.260
REMARK INTER:                 -10.029
REMARK INTRA:                  -5.230
REMARK UNBOUND:                -4.633
REMARK SMILES CCCCCCCCCCCCCCCCCCCCCCCCCCCCCC(=O)[O-]
REMARK SMILES IDX 16 1 17 2 18 3 19 4 20 5 21 6 22 7 23 8 24 9 25 10 26 11
REMARK SMILES IDX 27 12 28 13 29 14 30 15 31 16 32 17 15 18 14 19 13 20 12 21
REMARK SMILES IDX 11 22 10 23 9 24 8 25 7 26 6 27 5 28 4 29 3 30 2 31 1 32
REMARK H PARENT
REMARK Flexibility Score: inf
ROOT
ATOM      1  C   UNL     1       7.027  -0.298  -5.554  1.00  0.00     0.000 C 
ENDROOT
BRANCH   1   2
ATOM      2  C   UNL     1       7.279  -1.141  -6.818  1.00  0.00     0.000 C 
BRANCH   2   3
ATOM      3  C   UNL     1       5.986  -1.742  -7.404  1.00  0.00     0.000 C 
BRANCH   3   4
ATOM      4  C   UNL     1       5.833  -3.266  -7.222  1.00  0.00     0.000 C 
BRANCH   4   5
ATOM      5  C   UNL     1       6.865  -3.928  -6.287  1.00  0.00     0.000 C 
BRANCH   5   6
ATOM      6  C   UNL     1       6.249  -4.584  -5.032  1.00  0.00     0.000 C 
BRANCH   6   7
ATOM      7  C   UNL     1       7.129  -4.413  -3.780  1.00  0.00     0.000 C 
BRANCH   7   8
ATOM      8  C   UNL     1       8.242  -3.371  -3.985  1.00  0.00     0.000 C 
BRANCH   8   9
ATOM      9  C   UNL     1       8.432  -2.464  -2.756  1.00  0.00     0.000 C 
BRANCH   9  10
ATOM     10  C   UNL     1       7.790  -3.043  -1.482  1.00  0.00     0.000 C 
BRANCH  10  11
ATOM     11  C   UNL     1       7.008  -2.027  -0.629  1.00  0.00     0.000 C 
BRANCH  11  12
ATOM     12  C   UNL     1       7.459  -0.575  -0.872  1.00  0.00     0.000 C 
BRANCH  12  13
ATOM     13  C   UNL     1       6.290   0.429  -0.850  1.00  0.00     0.006 C 
BRANCH  13  14
ATOM     14  C   UNL     1       5.675   0.668   0.540  1.00  0.00     0.053 C 
BRANCH  14  15
ATOM     15  C   UNL     1       5.413   2.119   0.801  1.00  0.00     0.041 C 
ATOM     16  O   UNL     1       5.670   2.982  -0.081  1.00  0.00    -0.550 OA
ATOM     17  O   UNL     1       4.826   2.515   1.995  1.00  0.00    -0.550 OA
ENDBRANCH  14  15
ENDBRANCH  13  14
ENDBRANCH  12  13
ENDBRANCH  11  12
ENDBRANCH  10  11
ENDBRANCH   9  10
ENDBRANCH   8   9
ENDBRANCH   7   8
ENDBRANCH   6   7
ENDBRANCH   5   6
ENDBRANCH   4   5
ENDBRANCH   3   4
ENDBRANCH   2   3
ENDBRANCH   1   2
BRANCH   1  18
ATOM     18  C   UNL     1       5.540  -0.237  -5.168  1.00  0.00     0.000 C 
BRANCH  18  19
ATOM     19  C   UNL     1       5.236  -0.943  -3.837  1.00  0.00     0.000 C 
BRANCH  19  20
ATOM     20  C   UNL     1       4.009  -1.869  -3.920  1.00  0.00     0.000 C 
BRANCH  20  21
ATOM     21  C   UNL     1       2.935  -1.394  -4.922  1.00  0.00     0.000 C 
BRANCH  21  22
ATOM     22  C   UNL     1       2.466  -2.523  -5.860  1.00  0.00     0.000 C 
BRANCH  22  23
ATOM     23  C   UNL     1       2.564  -3.914  -5.213  1.00  0.00     0.000 C 
BRANCH  23  24
ATOM     24  C   UNL     1       1.215  -4.423  -4.680  1.00  0.00    -0.000 C 
BRANCH  24  25
ATOM     25  C   UNL     1       1.089  -4.165  -3.172  1.00  0.00    -0.000 C 
BRANCH  25  26
ATOM     26  C   UNL     1       0.368  -5.306  -2.429  1.00  0.00    -0.000 C 
BRANCH  26  27
ATOM     27  C   UNL     1       1.054  -5.776  -1.131  1.00  0.00    -0.000 C 
BRANCH  27  28
ATOM     28  C   UNL     1       1.356  -7.283  -1.121  1.00  0.00    -0.000 C 
BRANCH  28  29
ATOM     29  C   UNL     1       1.862  -7.754  -2.494  1.00  0.00    -0.000 C 
BRANCH  29  30
ATOM     30  C   UNL     1       3.151  -8.593  -2.405  1.00  0.00    -0.000 C 
BRANCH  30  31
ATOM     31  C   UNL     1       4.111  -8.439  -3.598  1.00  0.00    -0.003 C 
ATOM     32  C   UNL     1       3.764  -7.258  -4.502  1.00  0.00     0.004 C 
ENDBRANCH  30  31
ENDBRANCH  29  30
ENDBRANCH  28  29
ENDBRANCH  27  28
ENDBRANCH  26  27
ENDBRANCH  25  26
ENDBRANCH  24  25
ENDBRANCH  23  24
ENDBRANCH  22  23
ENDBRANCH  21  22
ENDBRANCH  20  21
ENDBRANCH  19  20
ENDBRANCH  18  19
ENDBRANCH   1  18
TORSDOF 28
ENDMDL
MODEL 5
REMARK VINA RESULT:    -3.982      1.414      2.613
REMARK INTER + INTRA:         -15.134
REMARK INTER:                 -10.820
REMARK INTRA:                  -4.314
REMARK UNBOUND:                -4.633
REMARK SMILES CCCCCCCCCCCCCCCCCCCCCCCCCCCCCC(=O)[O-]
REMARK SMILES IDX 16 1 17 2 18 3 19 4 20 5 21 6 22 7 23 8 24 9 25 10 26 11
REMARK SMILES IDX 27 12 28 13 29 14 30 15 31 16 32 17 15 18 14 19 13 20 12 21
REMARK SMILES IDX 11 22 10 23 9 24 8 25 7 26 6 27 5 28 4 29 3 30 2 31 1 32
REMARK H PARENT
REMARK Flexibility Score: inf
ROOT
ATOM      1  C   UNL     1       4.225  -1.685  -3.926  1.00  0.00     0.000 C 
ENDROOT
BRANCH   1   2
ATOM      2  C   UNL     1       4.824  -0.623  -4.867  1.00  0.00     0.000 C 
BRANCH   2   3
ATOM      3  C   UNL     1       6.177  -1.050  -5.469  1.00  0.00     0.000 C 
BRANCH   3   4
ATOM      4  C   UNL     1       6.090  -2.111  -6.584  1.00  0.00     0.000 C 
BRANCH   4   5
ATOM      5  C   UNL     1       6.563  -3.526  -6.192  1.00  0.00     0.000 C 
BRANCH   5   6
ATOM      6  C   UNL     1       7.607  -3.548  -5.054  1.00  0.00     0.000 C 
BRANCH   6   7
ATOM      7  C   UNL     1       7.045  -4.138  -3.746  1.00  0.00     0.000 C 
BRANCH   7   8
ATOM      8  C   UNL     1       8.147  -4.419  -2.710  1.00  0.00     0.000 C 
BRANCH   8   9
ATOM      9  C   UNL     1       8.249  -3.311  -1.646  1.00  0.00     0.000 C 
BRANCH   9  10
ATOM     10  C   UNL     1       7.120  -2.271  -1.756  1.00  0.00     0.000 C 
BRANCH  10  11
ATOM     11  C   UNL     1       7.592  -0.819  -1.957  1.00  0.00     0.000 C 
BRANCH  11  12
ATOM     12  C   UNL     1       6.453   0.204  -1.801  1.00  0.00     0.000 C 
BRANCH  12  13
ATOM     13  C   UNL     1       5.514  -0.117  -0.622  1.00  0.00     0.006 C 
BRANCH  13  14
ATOM     14  C   UNL     1       5.585   0.882   0.546  1.00  0.00     0.053 C 
BRANCH  14  15
ATOM     15  C   UNL     1       6.182   0.272   1.777  1.00  0.00     0.041 C 
ATOM     16  O   UNL     1       7.418   0.369   2.000  1.00  0.00    -0.550 OA
ATOM     17  O   UNL     1       5.363  -0.350   2.710  1.00  0.00    -0.550 OA
ENDBRANCH  14  15
ENDBRANCH  13  14
ENDBRANCH  12  13
ENDBRANCH  11  12
ENDBRANCH  10  11
ENDBRANCH   9  10
ENDBRANCH   8   9
ENDBRANCH   7   8
ENDBRANCH   6   7
ENDBRANCH   5   6
ENDBRANCH   4   5
ENDBRANCH   3   4
ENDBRANCH   2   3
ENDBRANCH   1   2
BRANCH   1  18
ATOM     18  C   UNL     1       2.709  -1.859  -4.115  1.00  0.00     0.000 C 
BRANCH  18  19
ATOM     19  C   UNL     1       2.250  -1.598  -5.559  1.00  0.00     0.000 C 
BRANCH  19  20
ATOM     20  C   UNL     1       2.327  -2.854  -6.444  1.00  0.00     0.000 C 
BRANCH  20  21
ATOM     21  C   UNL     1       2.071  -4.173  -5.682  1.00  0.00     0.000 C 
BRANCH  21  22
ATOM     22  C   UNL     1       3.296  -5.106  -5.693  1.00  0.00     0.000 C 
BRANCH  22  23
ATOM     23  C   UNL     1       3.178  -6.256  -4.679  1.00  0.00     0.000 C 
BRANCH  23  24
ATOM     24  C   UNL     1       1.745  -6.446  -4.154  1.00  0.00    -0.000 C 
BRANCH  24  25
ATOM     25  C   UNL     1       1.754  -6.911  -2.691  1.00  0.00    -0.000 C 
BRANCH  25  26
ATOM     26  C   UNL     1       1.001  -5.948  -1.754  1.00  0.00    -0.000 C 
BRANCH  26  27
ATOM     27  C   UNL     1       0.472  -4.665  -2.425  1.00  0.00    -0.000 C 
BRANCH  27  28
ATOM     28  C   UNL     1      -1.062  -4.584  -2.445  1.00  0.00    -0.000 C 
BRANCH  28  29
ATOM     29  C   UNL     1      -1.678  -5.896  -2.959  1.00  0.00    -0.000 C 
BRANCH  29  30
ATOM     30  C   UNL     1      -3.214  -5.839  -3.068  1.00  0.00    -0.000 C 
BRANCH  30  31
ATOM     31  C   UNL     1      -3.867  -4.607  -2.417  1.00  0.00    -0.003 C 
ATOM     32  C   UNL     1      -5.335  -4.430  -2.801  1.00  0.00     0.004 C 
ENDBRANCH  30  31
ENDBRANCH  29  30
ENDBRANCH  28  29
ENDBRANCH  27  28
ENDBRANCH  26  27
ENDBRANCH  25  26
ENDBRANCH  24  25
ENDBRANCH  23  24
ENDBRANCH  22  23
ENDBRANCH  21  22
ENDBRANCH  20  21
ENDBRANCH  19  20
ENDBRANCH  18  19
ENDBRANCH   1  18
TORSDOF 28
ENDMDL
MODEL 6
REMARK VINA RESULT:    -3.973      1.423      2.636
REMARK INTER + INTRA:         -15.108
REMARK INTER:                 -10.609
REMARK INTRA:                  -4.499
REMARK UNBOUND:                -4.633
REMARK SMILES CCCCCCCCCCCCCCCCCCCCCCCCCCCCCC(=O)[O-]
REMARK SMILES IDX 16 1 17 2 18 3 19 4 20 5 21 6 22 7 23 8 24 9 25 10 26 11
REMARK SMILES IDX 27 12 28 13 29 14 30 15 31 16 32 17 15 18 14 19 13 20 12 21
REMARK SMILES IDX 11 22 10 23 9 24 8 25 7 26 6 27 5 28 4 29 3 30 2 31 1 32
REMARK H PARENT
REMARK Flexibility Score: inf
ROOT
ATOM      1  C   UNL     1       2.712  -1.523  -4.367  1.00  0.00     0.000 C 
ENDROOT
BRANCH   1   2
ATOM      2  C   UNL     1       3.901  -1.490  -5.346  1.00  0.00     0.000 C 
BRANCH   2   3
ATOM      3  C   UNL     1       5.113  -0.716  -4.790  1.00  0.00     0.000 C 
BRANCH   3   4
ATOM      4  C   UNL     1       6.135  -1.573  -4.017  1.00  0.00     0.000 C 
BRANCH   4   5
ATOM      5  C   UNL     1       5.902  -3.097  -4.076  1.00  0.00     0.000 C 
BRANCH   5   6
ATOM      6  C   UNL     1       6.982  -3.869  -4.865  1.00  0.00     0.000 C 
BRANCH   6   7
ATOM      7  C   UNL     1       7.411  -5.171  -4.163  1.00  0.00     0.000 C 
BRANCH   7   8
ATOM      8  C   UNL     1       8.730  -5.011  -3.388  1.00  0.00     0.000 C 
BRANCH   8   9
ATOM      9  C   UNL     1       8.525  -5.055  -1.863  1.00  0.00     0.000 C 
BRANCH   9  10
ATOM     10  C   UNL     1       8.712  -3.681  -1.196  1.00  0.00     0.000 C 
BRANCH  10  11
ATOM     11  C   UNL     1       7.415  -3.020  -0.696  1.00  0.00     0.000 C 
BRANCH  11  12
ATOM     12  C   UNL     1       7.515  -1.485  -0.633  1.00  0.00     0.000 C 
BRANCH  12  13
ATOM     13  C   UNL     1       6.171  -0.807  -0.302  1.00  0.00     0.006 C 
BRANCH  13  14
ATOM     14  C   UNL     1       6.292   0.499   0.502  1.00  0.00     0.053 C 
BRANCH  14  15
ATOM     15  C   UNL     1       6.273   0.256   1.980  1.00  0.00     0.041 C 
ATOM     16  O   UNL     1       5.269  -0.275   2.526  1.00  0.00    -0.550 OA
ATOM     17  O   UNL     1       7.391   0.558   2.747  1.00  0.00    -0.550 OA
ENDBRANCH  14  15
ENDBRANCH  13  14
ENDBRANCH  12  13
ENDBRANCH  11  12
ENDBRANCH  10  11
ENDBRANCH   9  10
ENDBRANCH   8   9
ENDBRANCH   7   8
ENDBRANCH   6   7
ENDBRANCH   5   6
ENDBRANCH   4   5
ENDBRANCH   3   4
ENDBRANCH   2   3
ENDBRANCH   1   2
BRANCH   1  18
ATOM     18  C   UNL     1       2.197  -2.949  -4.107  1.00  0.00     0.000 C 
BRANCH  18  19
ATOM     19  C   UNL     1       1.972  -3.750  -5.400  1.00  0.00     0.000 C 
BRANCH  19  20
ATOM     20  C   UNL     1       1.926  -5.269  -5.158  1.00  0.00     0.000 C 
BRANCH  20  21
ATOM     21  C   UNL     1       3.315  -5.910  -4.942  1.00  0.00     0.000 C 
BRANCH  21  22
ATOM     22  C   UNL     1       3.235  -7.239  -4.167  1.00  0.00     0.000 C 
BRANCH  22  23
ATOM     23  C   UNL     1       1.878  -7.443  -3.472  1.00  0.00     0.000 C 
BRANCH  23  24
ATOM     24  C   UNL     1       1.962  -7.300  -1.943  1.00  0.00    -0.000 C 
BRANCH  24  25
ATOM     25  C   UNL     1       0.713  -6.601  -1.389  1.00  0.00    -0.000 C 
BRANCH  25  26
ATOM     26  C   UNL     1       0.623  -5.121  -1.804  1.00  0.00    -0.000 C 
BRANCH  26  27
ATOM     27  C   UNL     1      -0.718  -4.700  -2.437  1.00  0.00    -0.000 C 
BRANCH  27  28
ATOM     28  C   UNL     1      -1.608  -5.895  -2.812  1.00  0.00    -0.000 C 
BRANCH  28  29
ATOM     29  C   UNL     1      -2.343  -5.643  -4.138  1.00  0.00    -0.000 C 
BRANCH  29  30
ATOM     30  C   UNL     1      -1.539  -6.103  -5.369  1.00  0.00    -0.000 C 
BRANCH  30  31
ATOM     31  C   UNL     1      -1.144  -7.590  -5.370  1.00  0.00    -0.003 C 
ATOM     32  C   UNL     1      -0.344  -8.000  -6.605  1.00  0.00     0.004 C 
ENDBRANCH  30  31
ENDBRANCH  29  30
ENDBRANCH  28  29
ENDBRANCH  27  28
ENDBRANCH  26  27
ENDBRANCH  25  26
ENDBRANCH  24  25
ENDBRANCH  23  24
ENDBRANCH  22  23
ENDBRANCH  21  22
ENDBRANCH  20  21
ENDBRANCH  19  20
ENDBRANCH  18  19
ENDBRANCH   1  18
TORSDOF 28
ENDMDL
MODEL 7
REMARK VINA RESULT:    -3.957      2.718      5.624
REMARK INTER + INTRA:         -15.067
REMARK INTER:                 -10.445
REMARK INTRA:                  -4.622
REMARK UNBOUND:                -4.633
REMARK SMILES CCCCCCCCCCCCCCCCCCCCCCCCCCCCCC(=O)[O-]
REMARK SMILES IDX 16 1 17 2 18 3 19 4 20 5 21 6 22 7 23 8 24 9 25 10 26 11
REMARK SMILES IDX 27 12 28 13 29 14 30 15 31 16 32 17 15 18 14 19 13 20 12 21
REMARK SMILES IDX 11 22 10 23 9 24 8 25 7 26 6 27 5 28 4 29 3 30 2 31 1 32
REMARK H PARENT
REMARK Flexibility Score: inf
ROOT
ATOM      1  C   UNL     1       5.891   0.181  -0.738  1.00  0.00     0.000 C 
ENDROOT
BRANCH   1   2
ATOM      2  C   UNL     1       6.937   0.819  -1.672  1.00  0.00     0.000 C 
BRANCH   2   3
ATOM      3  C   UNL     1       7.146   2.321  -1.399  1.00  0.00     0.000 C 
BRANCH   3   4
ATOM      4  C   UNL     1       8.571   2.713  -0.960  1.00  0.00     0.000 C 
BRANCH   4   5
ATOM      5  C   UNL     1       9.504   1.536  -0.608  1.00  0.00     0.000 C 
BRANCH   5   6
ATOM      6  C   UNL     1       9.889   1.462   0.885  1.00  0.00     0.000 C 
BRANCH   6   7
ATOM      7  C   UNL     1       9.455   0.139   1.544  1.00  0.00     0.000 C 
BRANCH   7   8
ATOM      8  C   UNL     1       8.491   0.360   2.723  1.00  0.00     0.000 C 
BRANCH   8   9
ATOM      9  C   UNL     1       8.226   1.852   2.992  1.00  0.00     0.000 C 
BRANCH   9  10
ATOM     10  C   UNL     1       6.726   2.192   3.048  1.00  0.00     0.000 C 
BRANCH  10  11
ATOM     11  C   UNL     1       6.225   3.109   1.918  1.00  0.00     0.000 C 
BRANCH  11  12
ATOM     12  C   UNL     1       4.843   2.693   1.382  1.00  0.00     0.000 C 
BRANCH  12  13
ATOM     13  C   UNL     1       3.944   3.897   1.037  1.00  0.00     0.006 C 
BRANCH  13  14
ATOM     14  C   UNL     1       2.752   4.100   1.987  1.00  0.00     0.053 C 
BRANCH  14  15
ATOM     15  C   UNL     1       3.152   4.784   3.259  1.00  0.00     0.041 C 
ATOM     16  O   UNL     1       3.105   6.040   3.349  1.00  0.00    -0.550 OA
ATOM     17  O   UNL     1       3.518   4.030   4.366  1.00  0.00    -0.550 OA
ENDBRANCH  14  15
ENDBRANCH  13  14
ENDBRANCH  12  13
ENDBRANCH  11  12
ENDBRANCH  10  11
ENDBRANCH   9  10
ENDBRANCH   8   9
ENDBRANCH   7   8
ENDBRANCH   6   7
ENDBRANCH   5   6
ENDBRANCH   4   5
ENDBRANCH   3   4
ENDBRANCH   2   3
ENDBRANCH   1   2
BRANCH   1  18
ATOM     18  C   UNL     1       6.382  -1.133  -0.107  1.00  0.00     0.000 C 
BRANCH  18  19
ATOM     19  C   UNL     1       7.677  -1.660  -0.747  1.00  0.00     0.000 C 
BRANCH  19  20
ATOM     20  C   UNL     1       7.505  -3.053  -1.378  1.00  0.00     0.000 C 
BRANCH  20  21
ATOM     21  C   UNL     1       7.743  -3.081  -2.904  1.00  0.00     0.000 C 
BRANCH  21  22
ATOM     22  C   UNL     1       6.450  -2.837  -3.705  1.00  0.00     0.000 C 
BRANCH  22  23
ATOM     23  C   UNL     1       6.489  -1.531  -4.517  1.00  0.00     0.000 C 
BRANCH  23  24
ATOM     24  C   UNL     1       5.129  -0.816  -4.564  1.00  0.00    -0.000 C 
BRANCH  24  25
ATOM     25  C   UNL     1       4.151  -1.432  -3.554  1.00  0.00    -0.000 C 
BRANCH  25  26
ATOM     26  C   UNL     1       2.727  -1.590  -4.123  1.00  0.00    -0.000 C 
BRANCH  26  27
ATOM     27  C   UNL     1       2.658  -2.109  -5.573  1.00  0.00    -0.000 C 
BRANCH  27  28
ATOM     28  C   UNL     1       2.142  -3.552  -5.672  1.00  0.00    -0.000 C 
BRANCH  28  29
ATOM     29  C   UNL     1       1.999  -4.186  -4.279  1.00  0.00    -0.000 C 
BRANCH  29  30
ATOM     30  C   UNL     1       0.702  -5.001  -4.117  1.00  0.00    -0.000 C 
BRANCH  30  31
ATOM     31  C   UNL     1      -0.080  -4.729  -2.820  1.00  0.00    -0.003 C 
ATOM     32  C   UNL     1       0.749  -4.958  -1.558  1.00  0.00     0.004 C 
ENDBRANCH  30  31
ENDBRANCH  29  30
ENDBRANCH  28  29
ENDBRANCH  27  28
ENDBRANCH  26  27
ENDBRANCH  25  26
ENDBRANCH  24  25
ENDBRANCH  23  24
ENDBRANCH  22  23
ENDBRANCH  21  22
ENDBRANCH  20  21
ENDBRANCH  19  20
ENDBRANCH  18  19
ENDBRANCH   1  18
TORSDOF 28
ENDMDL
MODEL 8
REMARK VINA RESULT:    -3.906      1.438      2.667
REMARK INTER + INTRA:         -14.934
REMARK INTER:                 -10.207
REMARK INTRA:                  -4.727
REMARK UNBOUND:                -4.633
REMARK SMILES CCCCCCCCCCCCCCCCCCCCCCCCCCCCCC(=O)[O-]
REMARK SMILES IDX 16 1 17 2 18 3 19 4 20 5 21 6 22 7 23 8 24 9 25 10 26 11
REMARK SMILES IDX 27 12 28 13 29 14 30 15 31 16 32 17 15 18 14 19 13 20 12 21
REMARK SMILES IDX 11 22 10 23 9 24 8 25 7 26 6 27 5 28 4 29 3 30 2 31 1 32
REMARK H PARENT
REMARK Flexibility Score: inf
ROOT
ATOM      1  C   UNL     1       6.866  -0.344  -5.259  1.00  0.00     0.000 C 
ENDROOT
BRANCH   1   2
ATOM      2  C   UNL     1       7.302  -0.978  -6.593  1.00  0.00     0.000 C 
BRANCH   2   3
ATOM      3  C   UNL     1       6.118  -1.543  -7.403  1.00  0.00     0.000 C 
BRANCH   3   4
ATOM      4  C   UNL     1       6.187  -3.056  -7.690  1.00  0.00     0.000 C 
BRANCH   4   5
ATOM      5  C   UNL     1       7.012  -3.885  -6.684  1.00  0.00     0.000 C 
BRANCH   5   6
ATOM      6  C   UNL     1       6.187  -4.456  -5.511  1.00  0.00     0.000 C 
BRANCH   6   7
ATOM      7  C   UNL     1       6.865  -4.235  -4.146  1.00  0.00     0.000 C 
BRANCH   7   8
ATOM      8  C   UNL     1       8.269  -3.622  -4.283  1.00  0.00     0.000 C 
BRANCH   8   9
ATOM      9  C   UNL     1       8.803  -3.075  -2.947  1.00  0.00     0.000 C 
BRANCH   9  10
ATOM     10  C   UNL     1       8.296  -3.869  -1.730  1.00  0.00     0.000 C 
BRANCH  10  11
ATOM     11  C   UNL     1       7.508  -3.043  -0.698  1.00  0.00     0.000 C 
BRANCH  11  12
ATOM     12  C   UNL     1       7.313  -1.579  -1.131  1.00  0.00     0.000 C 
BRANCH  12  13
ATOM     13  C   UNL     1       6.308  -0.817  -0.245  1.00  0.00     0.006 C 
BRANCH  13  14
ATOM     14  C   UNL     1       6.944  -0.010   0.900  1.00  0.00     0.053 C 
BRANCH  14  15
ATOM     15  C   UNL     1       5.927   0.465   1.891  1.00  0.00     0.041 C 
ATOM     16  O   UNL     1       5.248  -0.365   2.554  1.00  0.00    -0.550 OA
ATOM     17  O   UNL     1       5.771   1.824   2.128  1.00  0.00    -0.550 OA
ENDBRANCH  14  15
ENDBRANCH  13  14
ENDBRANCH  12  13
ENDBRANCH  11  12
ENDBRANCH  10  11
ENDBRANCH   9  10
ENDBRANCH   8   9
ENDBRANCH   7   8
ENDBRANCH   6   7
ENDBRANCH   5   6
ENDBRANCH   4   5
ENDBRANCH   3   4
ENDBRANCH   2   3
ENDBRANCH   1   2
BRANCH   1  18
ATOM     18  C   UNL     1       5.342  -0.376  -5.057  1.00  0.00     0.000 C 
BRANCH  18  19
ATOM     19  C   UNL     1       4.919  -1.157  -3.802  1.00  0.00     0.000 C 
BRANCH  19  20
ATOM     20  C   UNL     1       3.481  -1.698  -3.894  1.00  0.00     0.000 C 
BRANCH  20  21
ATOM     21  C   UNL     1       2.619  -1.001  -4.969  1.00  0.00     0.000 C 
BRANCH  21  22
ATOM     22  C   UNL     1       2.018  -1.998  -5.978  1.00  0.00     0.000 C 
BRANCH  22  23
ATOM     23  C   UNL     1       2.927  -3.214  -6.227  1.00  0.00     0.000 C 
BRANCH  23  24
ATOM     24  C   UNL     1       2.236  -4.320  -7.041  1.00  0.00    -0.000 C 
BRANCH  24  25
ATOM     25  C   UNL     1       2.619  -5.710  -6.514  1.00  0.00    -0.000 C 
BRANCH  25  26
ATOM     26  C   UNL     1       1.599  -6.266  -5.502  1.00  0.00    -0.000 C 
BRANCH  26  27
ATOM     27  C   UNL     1       1.911  -5.958  -4.024  1.00  0.00    -0.000 C 
BRANCH  27  28
ATOM     28  C   UNL     1       1.235  -4.674  -3.520  1.00  0.00    -0.000 C 
BRANCH  28  29
ATOM     29  C   UNL     1       0.362  -4.955  -2.287  1.00  0.00    -0.000 C 
BRANCH  29  30
ATOM     30  C   UNL     1      -0.833  -5.878  -2.593  1.00  0.00    -0.000 C 
BRANCH  30  31
ATOM     31  C   UNL     1      -2.149  -5.150  -2.922  1.00  0.00    -0.003 C 
ATOM     32  C   UNL     1      -3.386  -5.874  -2.392  1.00  0.00     0.004 C 
ENDBRANCH  30  31
ENDBRANCH  29  30
ENDBRANCH  28  29
ENDBRANCH  27  28
ENDBRANCH  26  27
ENDBRANCH  25  26
ENDBRANCH  24  25
ENDBRANCH  23  24
ENDBRANCH  22  23
ENDBRANCH  21  22
ENDBRANCH  20  21
ENDBRANCH  19  20
ENDBRANCH  18  19
ENDBRANCH   1  18
TORSDOF 28
ENDMDL
MODEL 9
REMARK VINA RESULT:    -3.881      2.588      6.146
REMARK INTER + INTRA:         -14.866
REMARK INTER:                 -10.412
REMARK INTRA:                  -4.455
REMARK UNBOUND:                -4.633
REMARK SMILES CCCCCCCCCCCCCCCCCCCCCCCCCCCCCC(=O)[O-]
REMARK SMILES IDX 16 1 17 2 18 3 19 4 20 5 21 6 22 7 23 8 24 9 25 10 26 11
REMARK SMILES IDX 27 12 28 13 29 14 30 15 31 16 32 17 15 18 14 19 13 20 12 21
REMARK SMILES IDX 11 22 10 23 9 24 8 25 7 26 6 27 5 28 4 29 3 30 2 31 1 32
REMARK H PARENT
REMARK Flexibility Score: inf
ROOT
ATOM      1  C   UNL     1       5.564   0.234   0.089  1.00  0.00     0.000 C 
ENDROOT
BRANCH   1   2
ATOM      2  C   UNL     1       5.958  -0.276   1.488  1.00  0.00     0.000 C 
BRANCH   2   3
ATOM      3  C   UNL     1       6.570   0.826   2.376  1.00  0.00     0.000 C 
BRANCH   3   4
ATOM      4  C   UNL     1       7.836   0.411   3.152  1.00  0.00     0.000 C 
BRANCH   4   5
ATOM      5  C   UNL     1       9.175   0.797   2.491  1.00  0.00     0.000 C 
BRANCH   5   6
ATOM      6  C   UNL     1       9.647  -0.189   1.401  1.00  0.00     0.000 C 
BRANCH   6   7
ATOM      7  C   UNL     1       9.712   0.457   0.005  1.00  0.00     0.000 C 
BRANCH   7   8
ATOM      8  C   UNL     1       9.212   1.911   0.009  1.00  0.00     0.000 C 
BRANCH   8   9
ATOM      9  C   UNL     1       8.846   2.411  -1.400  1.00  0.00     0.000 C 
BRANCH   9  10
ATOM     10  C   UNL     1       7.340   2.681  -1.567  1.00  0.00     0.000 C 
BRANCH  10  11
ATOM     11  C   UNL     1       6.891   4.107  -1.199  1.00  0.00     0.000 C 
BRANCH  11  12
ATOM     12  C   UNL     1       6.411   4.221   0.259  1.00  0.00     0.000 C 
BRANCH  12  13
ATOM     13  C   UNL     1       4.958   3.746   0.453  1.00  0.00     0.006 C 
BRANCH  13  14
ATOM     14  C   UNL     1       4.473   3.746   1.913  1.00  0.00     0.053 C 
BRANCH  14  15
ATOM     15  C   UNL     1       2.983   3.867   2.014  1.00  0.00     0.041 C 
ATOM     16  O   UNL     1       2.297   4.147   0.995  1.00  0.00    -0.550 OA
ATOM     17  O   UNL     1       2.346   3.608   3.220  1.00  0.00    -0.550 OA
ENDBRANCH  14  15
ENDBRANCH  13  14
ENDBRANCH  12  13
ENDBRANCH  11  12
ENDBRANCH  10  11
ENDBRANCH   9  10
ENDBRANCH   8   9
ENDBRANCH   7   8
ENDBRANCH   6   7
ENDBRANCH   5   6
ENDBRANCH   4   5
ENDBRANCH   3   4
ENDBRANCH   2   3
ENDBRANCH   1   2
BRANCH   1  18
ATOM     18  C   UNL     1       5.863  -0.788  -1.021  1.00  0.00     0.000 C 
BRANCH  18  19
ATOM     19  C   UNL     1       6.877  -1.861  -0.592  1.00  0.00     0.000 C 
BRANCH  19  20
ATOM     20  C   UNL     1       7.457  -2.643  -1.784  1.00  0.00     0.000 C 
BRANCH  20  21
ATOM     21  C   UNL     1       8.774  -2.053  -2.335  1.00  0.00     0.000 C 
BRANCH  21  22
ATOM     22  C   UNL     1       8.539  -0.811  -3.215  1.00  0.00     0.000 C 
BRANCH  22  23
ATOM     23  C   UNL     1       8.223  -1.167  -4.678  1.00  0.00     0.000 C 
BRANCH  23  24
ATOM     24  C   UNL     1       7.372  -0.098  -5.383  1.00  0.00    -0.000 C 
BRANCH  24  25
ATOM     25  C   UNL     1       5.965  -0.632  -5.687  1.00  0.00    -0.000 C 
BRANCH  25  26
ATOM     26  C   UNL     1       5.097  -0.780  -4.423  1.00  0.00    -0.000 C 
BRANCH  26  27
ATOM     27  C   UNL     1       4.291  -2.092  -4.335  1.00  0.00    -0.000 C 
BRANCH  27  28
ATOM     28  C   UNL     1       2.813  -1.917  -4.714  1.00  0.00    -0.000 C 
BRANCH  28  29
ATOM     29  C   UNL     1       1.913  -2.832  -3.867  1.00  0.00    -0.000 C 
BRANCH  29  30
ATOM     30  C   UNL     1       1.716  -4.227  -4.490  1.00  0.00    -0.000 C 
BRANCH  30  31
ATOM     31  C   UNL     1       1.059  -5.266  -3.565  1.00  0.00    -0.003 C 
ATOM     32  C   UNL     1       0.533  -4.665  -2.263  1.00  0.00     0.004 C 
ENDBRANCH  30  31
ENDBRANCH  29  30
ENDBRANCH  28  29
ENDBRANCH  27  28
ENDBRANCH  26  27
ENDBRANCH  25  26
ENDBRANCH  24  25
ENDBRANCH  23  24
ENDBRANCH  22  23
ENDBRANCH  21  22
ENDBRANCH  20  21
ENDBRANCH  19  20
ENDBRANCH  18  19
ENDBRANCH   1  18
TORSDOF 28
ENDMDL
