MODEL 1
REMARK VINA RESULT:    -5.628      0.000      0.000
REMARK INTER + INTRA:          -7.107
REMARK INTER:                  -6.780
REMARK INTRA:                  -0.328
REMARK UNBOUND:                -0.328
REMARK SMILES O=c1c(O)c(-c2ccc(O)c(O)c2)oc2cc(O)cc(O)c12
REMARK SMILES IDX 5 1 3 2 2 3 1 4 22 5 20 6 19 7 17 8 16 9 15 10 14 11 6 12
REMARK SMILES IDX 7 13 8 14 9 15 13 16 11 17 10 18 12 20 4 22 21 24 18 26
REMARK H PARENT 10 19 12 21 4 23 21 25 18 27
REMARK Flexibility Score: inf
ROOT
ATOM      1  C   UNL     1     -10.445  -3.492 -38.509  1.00  0.00     0.180 A 
ATOM      2  C   UNL     1     -11.633  -3.721 -39.227  1.00  0.00     0.208 A 
ATOM      3  C   UNL     1     -12.225  -2.654 -39.921  1.00  0.00     0.238 A 
ATOM      4  O   UNL     1     -13.257  -2.878 -40.606  1.00  0.00    -0.285 OA
ATOM      5  C   UNL     1     -11.632  -1.369 -39.877  1.00  0.00     0.111 A 
ATOM      6  C   UNL     1     -12.167  -0.207 -40.511  1.00  0.00     0.134 A 
ATOM      7  C   UNL     1     -11.429   0.983 -40.509  1.00  0.00     0.093 A 
ATOM      8  C   UNL     1     -10.205   1.070 -39.842  1.00  0.00     0.123 A 
ATOM      9  C   UNL     1      -9.702  -0.042 -39.171  1.00  0.00     0.094 A 
ATOM     10  C   UNL     1     -10.399  -1.253 -39.184  1.00  0.00     0.146 A 
ATOM     11  O   UNL     1      -9.879  -2.292 -38.541  1.00  0.00    -0.452 OA
ENDROOT
BRANCH   1  12
ATOM     12  C   UNL     1      -9.776  -4.559 -37.732  1.00  0.00     0.025 A 
ATOM     13  C   UNL     1      -8.693  -5.250 -38.298  1.00  0.00     0.016 A 
ATOM     14  C   UNL     1      -8.033  -6.247 -37.574  1.00  0.00     0.051 A 
ATOM     15  C   UNL     1      -8.434  -6.558 -36.271  1.00  0.00     0.157 A 
ATOM     16  C   UNL     1     -10.165  -4.859 -36.414  1.00  0.00     0.062 A 
ATOM     17  C   UNL     1      -9.502  -5.859 -35.685  1.00  0.00     0.158 A 
BRANCH  15  18
ATOM     18  O   UNL     1      -7.758  -7.559 -35.575  1.00  0.00    -0.504 OA
ATOM     19  H   UNL     1      -6.803  -7.444 -35.259  1.00  0.00     0.293 HD
ENDBRANCH  15  18
BRANCH  17  20
ATOM     20  O   UNL     1      -9.899  -6.155 -34.382  1.00  0.00    -0.504 OA
ATOM     21  H   UNL     1      -9.683  -5.536 -33.608  1.00  0.00     0.293 HD
ENDBRANCH  17  20
ENDBRANCH   1  12
BRANCH   2  22
ATOM     22  O   UNL     1     -12.188  -5.002 -39.275  1.00  0.00    -0.502 OA
ATOM     23  H   UNL     1     -12.000  -5.648 -40.033  1.00  0.00     0.293 HD
ENDBRANCH   2  22
BRANCH   6  24
ATOM     24  O   UNL     1     -13.422  -0.162 -41.125  1.00  0.00    -0.507 OA
ATOM     25  H   UNL     1     -13.666   0.447 -41.891  1.00  0.00     0.293 HD
ENDBRANCH   6  24
BRANCH   8  26
ATOM     26  O   UNL     1      -9.484   2.262 -39.833  1.00  0.00    -0.508 OA
ATOM     27  H   UNL     1      -9.810   3.082 -40.331  1.00  0.00     0.293 HD
ENDBRANCH   8  26
TORSDOF 6
ENDMDL
MODEL 2
REMARK VINA RESULT:    -5.349     13.502     16.285
REMARK INTER + INTRA:          -6.771
REMARK INTER:                  -6.489
REMARK INTRA:                  -0.282
REMARK UNBOUND:                -0.328
REMARK SMILES O=c1c(O)c(-c2ccc(O)c(O)c2)oc2cc(O)cc(O)c12
REMARK SMILES IDX 5 1 3 2 2 3 1 4 22 5 20 6 19 7 17 8 16 9 15 10 14 11 6 12
REMARK SMILES IDX 7 13 8 14 9 15 13 16 11 17 10 18 12 20 4 22 21 24 18 26
REMARK H PARENT 10 19 12 21 4 23 21 25 18 27
REMARK Flexibility Score: inf
ROOT
ATOM      1  C   UNL     1     -14.529  -4.277 -23.823  1.00  0.00     0.180 A 
ATOM      2  C   UNL     1     -15.018  -2.977 -23.608  1.00  0.00     0.208 A 
ATOM      3  C   UNL     1     -14.274  -2.093 -22.809  1.00  0.00     0.238 A 
ATOM      4  O   UNL     1     -14.689  -0.914 -22.665  1.00  0.00    -0.285 OA
ATOM      5  C   UNL     1     -13.059  -2.524 -22.225  1.00  0.00     0.111 A 
ATOM      6  C   UNL     1     -12.244  -1.727 -21.367  1.00  0.00     0.134 A 
ATOM      7  C   UNL     1     -10.998  -2.211 -20.950  1.00  0.00     0.093 A 
ATOM      8  C   UNL     1     -10.567  -3.491 -21.308  1.00  0.00     0.123 A 
ATOM      9  C   UNL     1     -11.381  -4.300 -22.096  1.00  0.00     0.094 A 
ATOM     10  C   UNL     1     -12.614  -3.831 -22.557  1.00  0.00     0.146 A 
ATOM     11  O   UNL     1     -13.354  -4.630 -23.315  1.00  0.00    -0.452 OA
ENDROOT
BRANCH   1  12
ATOM     12  C   UNL     1     -15.268  -5.273 -24.632  1.00  0.00     0.025 A 
ATOM     13  C   UNL     1     -16.385  -5.919 -24.081  1.00  0.00     0.016 A 
ATOM     14  C   UNL     1     -17.109  -6.846 -24.834  1.00  0.00     0.051 A 
ATOM     15  C   UNL     1     -16.740  -7.131 -26.152  1.00  0.00     0.157 A 
ATOM     16  C   UNL     1     -14.909  -5.545 -25.965  1.00  0.00     0.062 A 
ATOM     17  C   UNL     1     -15.637  -6.475 -26.723  1.00  0.00     0.158 A 
BRANCH  15  18
ATOM     18  O   UNL     1     -17.480  -8.063 -26.878  1.00  0.00    -0.504 OA
ATOM     19  H   UNL     1     -17.277  -9.054 -26.845  1.00  0.00     0.293 HD
ENDBRANCH  15  18
BRANCH  17  20
ATOM     20  O   UNL     1     -15.270  -6.744 -28.041  1.00  0.00    -0.504 OA
ATOM     21  H   UNL     1     -15.748  -6.311 -28.824  1.00  0.00     0.293 HD
ENDBRANCH  17  20
ENDBRANCH   1  12
BRANCH   2  22
ATOM     22  O   UNL     1     -16.208  -2.564 -24.213  1.00  0.00    -0.502 OA
ATOM     23  H   UNL     1     -16.245  -2.235 -25.171  1.00  0.00     0.293 HD
ENDBRANCH   2  22
BRANCH   6  24
ATOM     24  O   UNL     1     -12.622  -0.474 -20.875  1.00  0.00    -0.507 OA
ATOM     25  H   UNL     1     -13.383   0.081 -21.238  1.00  0.00     0.293 HD
ENDBRANCH   6  24
BRANCH   8  26
ATOM     26  O   UNL     1      -9.332  -3.971 -20.876  1.00  0.00    -0.508 OA
ATOM     27  H   UNL     1      -8.577  -3.343 -20.628  1.00  0.00     0.293 HD
ENDBRANCH   8  26
TORSDOF 6
ENDMDL
MODEL 3
REMARK VINA RESULT:    -5.323      1.545      3.353
REMARK INTER + INTRA:          -6.739
REMARK INTER:                  -6.447
REMARK INTRA:                  -0.292
REMARK UNBOUND:                -0.328
REMARK SMILES O=c1c(O)c(-c2ccc(O)c(O)c2)oc2cc(O)cc(O)c12
REMARK SMILES IDX 5 1 3 2 2 3 1 4 22 5 20 6 19 7 17 8 16 9 15 10 14 11 6 12
REMARK SMILES IDX 7 13 8 14 9 15 13 16 11 17 10 18 12 20 4 22 21 24 18 26
REMARK H PARENT 10 19 12 21 4 23 21 25 18 27
REMARK Flexibility Score: inf
ROOT
ATOM      1  C   UNL     1     -11.036  -3.773 -38.326  1.00  0.00     0.180 A 
ATOM      2  C   UNL     1     -10.584  -2.484 -38.661  1.00  0.00     0.208 A 
ATOM      3  C   UNL     1     -11.435  -1.630 -39.381  1.00  0.00     0.238 A 
ATOM      4  O   UNL     1     -11.045  -0.459 -39.630  1.00  0.00    -0.285 OA
ATOM      5  C   UNL     1     -12.720  -2.079 -39.770  1.00  0.00     0.111 A 
ATOM      6  C   UNL     1     -13.649  -1.313 -40.535  1.00  0.00     0.134 A 
ATOM      7  C   UNL     1     -14.941  -1.807 -40.751  1.00  0.00     0.093 A 
ATOM      8  C   UNL     1     -15.316  -3.070 -40.284  1.00  0.00     0.123 A 
ATOM      9  C   UNL     1     -14.397  -3.850 -39.587  1.00  0.00     0.094 A 
ATOM     10  C   UNL     1     -13.112  -3.369 -39.325  1.00  0.00     0.146 A 
ATOM     11  O   UNL     1     -12.271  -4.141 -38.648  1.00  0.00    -0.452 OA
ENDROOT
BRANCH   1  12
ATOM     12  C   UNL     1     -10.189  -4.739 -37.591  1.00  0.00     0.025 A 
ATOM     13  C   UNL     1      -9.190  -5.445 -38.278  1.00  0.00     0.016 A 
ATOM     14  C   UNL     1      -8.365  -6.345 -37.599  1.00  0.00     0.051 A 
ATOM     15  C   UNL     1      -8.514  -6.543 -36.224  1.00  0.00     0.157 A 
ATOM     16  C   UNL     1     -10.325  -4.924 -36.203  1.00  0.00     0.062 A 
ATOM     17  C   UNL     1      -9.496  -5.827 -35.520  1.00  0.00     0.158 A 
BRANCH  15  18
ATOM     18  O   UNL     1      -7.678  -7.451 -35.574  1.00  0.00    -0.504 OA
ATOM     19  H   UNL     1      -6.788  -7.174 -35.179  1.00  0.00     0.293 HD
ENDBRANCH  15  18
BRANCH  17  20
ATOM     20  O   UNL     1      -9.642  -6.009 -34.145  1.00  0.00    -0.504 OA
ATOM     21  H   UNL     1      -8.839  -6.107 -33.534  1.00  0.00     0.293 HD
ENDBRANCH  17  20
ENDBRANCH   1  12
BRANCH   2  22
ATOM     22  O   UNL     1      -9.321  -2.054 -38.248  1.00  0.00    -0.502 OA
ATOM     23  H   UNL     1      -8.569  -1.868 -38.901  1.00  0.00     0.293 HD
ENDBRANCH   2  22
BRANCH   6  24
ATOM     24  O   UNL     1     -13.346  -0.082 -41.125  1.00  0.00    -0.507 OA
ATOM     25  H   UNL     1     -13.736   0.252 -41.994  1.00  0.00     0.293 HD
ENDBRANCH   6  24
BRANCH   8  26
ATOM     26  O   UNL     1     -16.599  -3.560 -40.516  1.00  0.00    -0.508 OA
ATOM     27  H   UNL     1     -17.309  -3.553 -39.794  1.00  0.00     0.293 HD
ENDBRANCH   8  26
TORSDOF 6
ENDMDL
MODEL 4
REMARK VINA RESULT:    -5.261      9.664     11.233
REMARK INTER + INTRA:          -6.665
REMARK INTER:                  -6.446
REMARK INTRA:                  -0.219
REMARK UNBOUND:                -0.328
REMARK SMILES O=c1c(O)c(-c2ccc(O)c(O)c2)oc2cc(O)cc(O)c12
REMARK SMILES IDX 5 1 3 2 2 3 1 4 22 5 20 6 19 7 17 8 16 9 15 10 14 11 6 12
REMARK SMILES IDX 7 13 8 14 9 15 13 16 11 17 10 18 12 20 4 22 21 24 18 26
REMARK H PARENT 10 19 12 21 4 23 21 25 18 27
REMARK Flexibility Score: inf
ROOT
ATOM      1  C   UNL     1     -13.857   6.355 -37.550  1.00  0.00     0.180 A 
ATOM      2  C   UNL     1     -12.763   6.068 -36.714  1.00  0.00     0.208 A 
ATOM      3  C   UNL     1     -11.553   6.750 -36.917  1.00  0.00     0.238 A 
ATOM      4  O   UNL     1     -10.595   6.528 -36.131  1.00  0.00    -0.285 OA
ATOM      5  C   UNL     1     -11.445   7.698 -37.963  1.00  0.00     0.111 A 
ATOM      6  C   UNL     1     -10.256   8.417 -38.285  1.00  0.00     0.134 A 
ATOM      7  C   UNL     1     -10.299   9.425 -39.257  1.00  0.00     0.093 A 
ATOM      8  C   UNL     1     -11.474   9.694 -39.963  1.00  0.00     0.123 A 
ATOM      9  C   UNL     1     -12.625   8.956 -39.697  1.00  0.00     0.094 A 
ATOM     10  C   UNL     1     -12.622   7.969 -38.708  1.00  0.00     0.146 A 
ATOM     11  O   UNL     1     -13.744   7.296 -38.480  1.00  0.00    -0.452 OA
ENDROOT
BRANCH   1  12
ATOM     12  C   UNL     1     -15.157   5.661 -37.414  1.00  0.00     0.025 A 
ATOM     13  C   UNL     1     -15.985   5.954 -36.319  1.00  0.00     0.016 A 
ATOM     14  C   UNL     1     -17.226   5.326 -36.182  1.00  0.00     0.051 A 
ATOM     15  C   UNL     1     -17.665   4.409 -37.142  1.00  0.00     0.157 A 
ATOM     16  C   UNL     1     -15.609   4.754 -38.389  1.00  0.00     0.062 A 
ATOM     17  C   UNL     1     -16.855   4.123 -38.254  1.00  0.00     0.158 A 
BRANCH  15  18
ATOM     18  O   UNL     1     -18.906   3.796 -36.977  1.00  0.00    -0.504 OA
ATOM     19  H   UNL     1     -19.578   3.731 -37.732  1.00  0.00     0.293 HD
ENDBRANCH  15  18
BRANCH  17  20
ATOM     20  O   UNL     1     -17.292   3.220 -39.222  1.00  0.00    -0.504 OA
ATOM     21  H   UNL     1     -17.371   2.229 -39.025  1.00  0.00     0.293 HD
ENDBRANCH  17  20
ENDBRANCH   1  12
BRANCH   2  22
ATOM     22  O   UNL     1     -12.899   5.146 -35.673  1.00  0.00    -0.502 OA
ATOM     23  H   UNL     1     -13.225   5.410 -34.751  1.00  0.00     0.293 HD
ENDBRANCH   2  22
BRANCH   6  24
ATOM     24  O   UNL     1      -9.009   8.164 -37.705  1.00  0.00    -0.507 OA
ATOM     25  H   UNL     1      -8.711   8.512 -36.806  1.00  0.00     0.293 HD
ENDBRANCH   6  24
BRANCH   8  26
ATOM     26  O   UNL     1     -11.505  10.688 -40.938  1.00  0.00    -0.508 OA
ATOM     27  H   UNL     1     -12.373  10.982 -41.370  1.00  0.00     0.293 HD
ENDBRANCH   8  26
TORSDOF 6
ENDMDL
MODEL 5
REMARK VINA RESULT:    -5.178     10.906     13.355
REMARK INTER + INTRA:          -6.565
REMARK INTER:                  -6.259
REMARK INTRA:                  -0.307
REMARK UNBOUND:                -0.328
REMARK SMILES O=c1c(O)c(-c2ccc(O)c(O)c2)oc2cc(O)cc(O)c12
REMARK SMILES IDX 5 1 3 2 2 3 1 4 22 5 20 6 19 7 17 8 16 9 15 10 14 11 6 12
REMARK SMILES IDX 7 13 8 14 9 15 13 16 11 17 10 18 12 20 4 22 21 24 18 26
REMARK H PARENT 10 19 12 21 4 23 21 25 18 27
REMARK Flexibility Score: inf
ROOT
ATOM      1  C   UNL     1     -18.211   5.618 -34.937  1.00  0.00     0.180 A 
ATOM      2  C   UNL     1     -18.642   4.890 -33.814  1.00  0.00     0.208 A 
ATOM      3  C   UNL     1     -19.531   5.494 -32.911  1.00  0.00     0.238 A 
ATOM      4  O   UNL     1     -19.955   4.817 -31.938  1.00  0.00    -0.285 OA
ATOM      5  C   UNL     1     -19.965   6.823 -33.132  1.00  0.00     0.111 A 
ATOM      6  C   UNL     1     -20.833   7.547 -32.261  1.00  0.00     0.134 A 
ATOM      7  C   UNL     1     -21.301   8.810 -32.645  1.00  0.00     0.093 A 
ATOM      8  C   UNL     1     -20.880   9.401 -33.839  1.00  0.00     0.123 A 
ATOM      9  C   UNL     1     -19.987   8.727 -34.667  1.00  0.00     0.094 A 
ATOM     10  C   UNL     1     -19.530   7.450 -34.328  1.00  0.00     0.146 A 
ATOM     11  O   UNL     1     -18.688   6.838 -35.151  1.00  0.00    -0.452 OA
ENDROOT
BRANCH   1  12
ATOM     12  C   UNL     1     -17.257   5.059 -35.921  1.00  0.00     0.025 A 
ATOM     13  C   UNL     1     -15.882   5.082 -35.640  1.00  0.00     0.016 A 
ATOM     14  C   UNL     1     -14.965   4.540 -36.545  1.00  0.00     0.051 A 
ATOM     15  C   UNL     1     -15.407   3.954 -37.734  1.00  0.00     0.157 A 
ATOM     16  C   UNL     1     -17.702   4.450 -37.108  1.00  0.00     0.062 A 
ATOM     17  C   UNL     1     -16.783   3.904 -38.017  1.00  0.00     0.158 A 
BRANCH  15  18
ATOM     18  O   UNL     1     -14.469   3.423 -38.619  1.00  0.00    -0.504 OA
ATOM     19  H   UNL     1     -13.938   2.589 -38.403  1.00  0.00     0.293 HD
ENDBRANCH  15  18
BRANCH  17  20
ATOM     20  O   UNL     1     -17.232   3.309 -39.195  1.00  0.00    -0.504 OA
ATOM     21  H   UNL     1     -17.675   2.397 -39.194  1.00  0.00     0.293 HD
ENDBRANCH  17  20
ENDBRANCH   1  12
BRANCH   2  22
ATOM     22  O   UNL     1     -18.218   3.571 -33.628  1.00  0.00    -0.502 OA
ATOM     23  H   UNL     1     -18.639   2.957 -32.941  1.00  0.00     0.293 HD
ENDBRANCH   2  22
BRANCH   6  24
ATOM     24  O   UNL     1     -21.239   7.087 -31.004  1.00  0.00    -0.507 OA
ATOM     25  H   UNL     1     -22.141   6.681 -30.804  1.00  0.00     0.293 HD
ENDBRANCH   6  24
BRANCH   8  26
ATOM     26  O   UNL     1     -21.339  10.664 -34.205  1.00  0.00    -0.508 OA
ATOM     27  H   UNL     1     -20.912  11.509 -33.844  1.00  0.00     0.293 HD
ENDBRANCH   8  26
TORSDOF 6
ENDMDL
MODEL 6
REMARK VINA RESULT:    -5.095      9.048     11.827
REMARK INTER + INTRA:          -6.465
REMARK INTER:                  -6.407
REMARK INTRA:                  -0.058
REMARK UNBOUND:                -0.328
REMARK SMILES O=c1c(O)c(-c2ccc(O)c(O)c2)oc2cc(O)cc(O)c12
REMARK SMILES IDX 5 1 3 2 2 3 1 4 22 5 20 6 19 7 17 8 16 9 15 10 14 11 6 12
REMARK SMILES IDX 7 13 8 14 9 15 13 16 11 17 10 18 12 20 4 22 21 24 18 26
REMARK H PARENT 10 19 12 21 4 23 21 25 18 27
REMARK Flexibility Score: inf
ROOT
ATOM      1  C   UNL     1     -12.533   6.667 -36.526  1.00  0.00     0.180 A 
ATOM      2  C   UNL     1     -13.784   6.168 -36.122  1.00  0.00     0.208 A 
ATOM      3  C   UNL     1     -13.835   5.193 -35.114  1.00  0.00     0.238 A 
ATOM      4  O   UNL     1     -14.960   4.790 -34.719  1.00  0.00    -0.285 OA
ATOM      5  C   UNL     1     -12.635   4.717 -34.532  1.00  0.00     0.111 A 
ATOM      6  C   UNL     1     -12.566   3.702 -33.532  1.00  0.00     0.134 A 
ATOM      7  C   UNL     1     -11.335   3.402 -32.935  1.00  0.00     0.093 A 
ATOM      8  C   UNL     1     -10.161   4.036 -33.350  1.00  0.00     0.123 A 
ATOM      9  C   UNL     1     -10.209   4.985 -34.368  1.00  0.00     0.094 A 
ATOM     10  C   UNL     1     -11.428   5.331 -34.957  1.00  0.00     0.146 A 
ATOM     11  O   UNL     1     -11.431   6.249 -35.916  1.00  0.00    -0.452 OA
ENDROOT
BRANCH   1  12
ATOM     12  C   UNL     1     -12.397   7.678 -37.599  1.00  0.00     0.025 A 
ATOM     13  C   UNL     1     -11.622   8.826 -37.373  1.00  0.00     0.016 A 
ATOM     14  C   UNL     1     -11.463   9.782 -38.380  1.00  0.00     0.051 A 
ATOM     15  C   UNL     1     -12.062   9.600 -39.630  1.00  0.00     0.157 A 
ATOM     16  C   UNL     1     -12.982   7.486 -38.864  1.00  0.00     0.062 A 
ATOM     17  C   UNL     1     -12.823   8.445 -39.876  1.00  0.00     0.158 A 
BRANCH  15  18
ATOM     18  O   UNL     1     -11.888  10.572 -40.614  1.00  0.00    -0.504 OA
ATOM     19  H   UNL     1     -12.149  11.540 -40.466  1.00  0.00     0.293 HD
ENDBRANCH  15  18
BRANCH  17  20
ATOM     20  O   UNL     1     -13.412   8.250 -41.125  1.00  0.00    -0.504 OA
ATOM     21  H   UNL     1     -14.154   8.853 -41.461  1.00  0.00     0.293 HD
ENDBRANCH  17  20
ENDBRANCH   1  12
BRANCH   2  22
ATOM     22  O   UNL     1     -14.958   6.668 -36.693  1.00  0.00    -0.502 OA
ATOM     23  H   UNL     1     -15.413   7.507 -36.354  1.00  0.00     0.293 HD
ENDBRANCH   2  22
BRANCH   6  24
ATOM     24  O   UNL     1     -13.663   2.945 -33.111  1.00  0.00    -0.507 OA
ATOM     25  H   UNL     1     -14.092   3.009 -32.200  1.00  0.00     0.293 HD
ENDBRANCH   6  24
BRANCH   8  26
ATOM     26  O   UNL     1      -8.938   3.720 -32.762  1.00  0.00    -0.508 OA
ATOM     27  H   UNL     1      -8.210   4.415 -32.647  1.00  0.00     0.293 HD
ENDBRANCH   8  26
TORSDOF 6
ENDMDL
MODEL 7
REMARK VINA RESULT:    -5.049     16.133     17.345
REMARK INTER + INTRA:          -6.410
REMARK INTER:                  -6.182
REMARK INTRA:                  -0.228
REMARK UNBOUND:                -0.328
REMARK SMILES O=c1c(O)c(-c2ccc(O)c(O)c2)oc2cc(O)cc(O)c12
REMARK SMILES IDX 5 1 3 2 2 3 1 4 22 5 20 6 19 7 17 8 16 9 15 10 14 11 6 12
REMARK SMILES IDX 7 13 8 14 9 15 13 16 11 17 10 18 12 20 4 22 21 24 18 26
REMARK H PARENT 10 19 12 21 4 23 21 25 18 27
REMARK Flexibility Score: inf
ROOT
ATOM      1  C   UNL     1     -10.440   5.630 -24.282  1.00  0.00     0.180 A 
ATOM      2  C   UNL     1     -10.571   5.714 -22.884  1.00  0.00     0.208 A 
ATOM      3  C   UNL     1     -11.827   6.015 -22.334  1.00  0.00     0.238 A 
ATOM      4  O   UNL     1     -11.948   6.034 -21.081  1.00  0.00    -0.285 OA
ATOM      5  C   UNL     1     -12.933   6.244 -23.187  1.00  0.00     0.111 A 
ATOM      6  C   UNL     1     -14.242   6.595 -22.740  1.00  0.00     0.134 A 
ATOM      7  C   UNL     1     -15.291   6.670 -23.664  1.00  0.00     0.093 A 
ATOM      8  C   UNL     1     -15.064   6.471 -25.028  1.00  0.00     0.123 A 
ATOM      9  C   UNL     1     -13.779   6.186 -25.482  1.00  0.00     0.094 A 
ATOM     10  C   UNL     1     -12.718   6.069 -24.579  1.00  0.00     0.146 A 
ATOM     11  O   UNL     1     -11.511   5.786 -25.052  1.00  0.00    -0.452 OA
ENDROOT
BRANCH   1  12
ATOM     12  C   UNL     1      -9.145   5.342 -24.937  1.00  0.00     0.025 A 
ATOM     13  C   UNL     1      -8.617   4.043 -24.882  1.00  0.00     0.016 A 
ATOM     14  C   UNL     1      -7.406   3.744 -25.512  1.00  0.00     0.051 A 
ATOM     15  C   UNL     1      -6.712   4.731 -26.217  1.00  0.00     0.157 A 
ATOM     16  C   UNL     1      -8.456   6.329 -25.665  1.00  0.00     0.062 A 
ATOM     17  C   UNL     1      -7.241   6.030 -26.299  1.00  0.00     0.158 A 
BRANCH  15  18
ATOM     18  O   UNL     1      -5.505   4.404 -26.833  1.00  0.00    -0.504 OA
ATOM     19  H   UNL     1      -5.021   3.535 -26.641  1.00  0.00     0.293 HD
ENDBRANCH  15  18
BRANCH  17  20
ATOM     20  O   UNL     1      -6.561   7.017 -27.012  1.00  0.00    -0.504 OA
ATOM     21  H   UNL     1      -6.490   7.968 -26.666  1.00  0.00     0.293 HD
ENDBRANCH  17  20
ENDBRANCH   1  12
BRANCH   2  22
ATOM     22  O   UNL     1      -9.470   5.461 -22.060  1.00  0.00    -0.502 OA
ATOM     23  H   UNL     1      -8.597   5.967 -22.149  1.00  0.00     0.293 HD
ENDBRANCH   2  22
BRANCH   6  24
ATOM     24  O   UNL     1     -14.556   6.905 -21.413  1.00  0.00    -0.507 OA
ATOM     25  H   UNL     1     -14.082   6.528 -20.606  1.00  0.00     0.293 HD
ENDBRANCH   6  24
BRANCH   8  26
ATOM     26  O   UNL     1     -16.111   6.563 -25.943  1.00  0.00    -0.508 OA
ATOM     27  H   UNL     1     -15.945   6.770 -26.920  1.00  0.00     0.293 HD
ENDBRANCH   8  26
TORSDOF 6
ENDMDL
MODEL 8
REMARK VINA RESULT:    -5.015     10.036     10.970
REMARK INTER + INTRA:          -6.369
REMARK INTER:                  -6.124
REMARK INTRA:                  -0.245
REMARK UNBOUND:                -0.328
REMARK SMILES O=c1c(O)c(-c2ccc(O)c(O)c2)oc2cc(O)cc(O)c12
REMARK SMILES IDX 5 1 3 2 2 3 1 4 22 5 20 6 19 7 17 8 16 9 15 10 14 11 6 12
REMARK SMILES IDX 7 13 8 14 9 15 13 16 11 17 10 18 12 20 4 22 21 24 18 26
REMARK H PARENT 10 19 12 21 4 23 21 25 18 27
REMARK Flexibility Score: inf
ROOT
ATOM      1  C   UNL     1     -14.270   6.096 -37.263  1.00  0.00     0.180 A 
ATOM      2  C   UNL     1     -14.419   6.201 -38.658  1.00  0.00     0.208 A 
ATOM      3  C   UNL     1     -13.312   6.575 -39.435  1.00  0.00     0.238 A 
ATOM      4  O   UNL     1     -13.438   6.614 -40.687  1.00  0.00    -0.285 OA
ATOM      5  C   UNL     1     -12.073   6.854 -38.809  1.00  0.00     0.111 A 
ATOM      6  C   UNL     1     -10.896   7.280 -39.494  1.00  0.00     0.134 A 
ATOM      7  C   UNL     1      -9.692   7.402 -38.790  1.00  0.00     0.093 A 
ATOM      8  C   UNL     1      -9.638   7.176 -37.412  1.00  0.00     0.123 A 
ATOM      9  C   UNL     1     -10.795   6.818 -36.724  1.00  0.00     0.094 A 
ATOM     10  C   UNL     1     -12.003   6.653 -37.406  1.00  0.00     0.146 A 
ATOM     11  O   UNL     1     -13.079   6.300 -36.713  1.00  0.00    -0.452 OA
ENDROOT
BRANCH   1  12
ATOM     12  C   UNL     1     -15.397   5.731 -36.376  1.00  0.00     0.025 A 
ATOM     13  C   UNL     1     -15.374   4.502 -35.699  1.00  0.00     0.016 A 
ATOM     14  C   UNL     1     -16.417   4.147 -34.840  1.00  0.00     0.051 A 
ATOM     15  C   UNL     1     -17.489   5.019 -34.631  1.00  0.00     0.157 A 
ATOM     16  C   UNL     1     -16.466   6.617 -36.148  1.00  0.00     0.062 A 
ATOM     17  C   UNL     1     -17.514   6.263 -35.284  1.00  0.00     0.158 A 
BRANCH  15  18
ATOM     18  O   UNL     1     -18.517   4.637 -33.770  1.00  0.00    -0.504 OA
ATOM     19  H   UNL     1     -19.445   4.411 -34.107  1.00  0.00     0.293 HD
ENDBRANCH  15  18
BRANCH  17  20
ATOM     20  O   UNL     1     -18.573   7.143 -35.071  1.00  0.00    -0.504 OA
ATOM     21  H   UNL     1     -19.524   6.811 -34.955  1.00  0.00     0.293 HD
ENDBRANCH  17  20
ENDBRANCH   1  12
BRANCH   2  22
ATOM     22  O   UNL     1     -15.645   5.899 -39.258  1.00  0.00    -0.502 OA
ATOM     23  H   UNL     1     -15.717   5.318 -40.085  1.00  0.00     0.293 HD
ENDBRANCH   2  22
BRANCH   6  24
ATOM     24  O   UNL     1     -10.863   7.621 -40.850  1.00  0.00    -0.507 OA
ATOM     25  H   UNL     1     -10.742   6.963 -41.606  1.00  0.00     0.293 HD
ENDBRANCH   6  24
BRANCH   8  26
ATOM     26  O   UNL     1      -8.439   7.314 -36.716  1.00  0.00    -0.508 OA
ATOM     27  H   UNL     1      -7.549   7.365 -37.198  1.00  0.00     0.293 HD
ENDBRANCH   8  26
TORSDOF 6
ENDMDL
