MODEL 1
REMARK VINA RESULT:    -4.163      0.000      0.000
REMARK INTER + INTRA:         -10.187
REMARK INTER:                  -7.813
REMARK INTRA:                  -2.373
REMARK UNBOUND:                -2.373
REMARK SMILES CCCCCCCCC=CCCCCCCCC(=O)[O-]
REMARK SMILES IDX 10 1 9 2 11 3 12 4 13 5 14 6 15 7 16 8 17 9 18 10 19 11
REMARK SMILES IDX 20 12 8 13 7 14 6 15 5 16 4 17 3 18 2 19 1 20
REMARK H PARENT
REMARK Flexibility Score: inf
ROOT
ATOM      1  C   UNL     1      23.528  46.599  35.410  1.00  0.00    -0.031 C 
ATOM      2  C   UNL     1      23.485  47.683  36.197  1.00  0.00    -0.031 C 
ENDROOT
BRANCH   1   3
ATOM      3  C   UNL     1      24.404  46.571  34.189  1.00  0.00     0.027 C 
BRANCH   3   4
ATOM      4  C   UNL     1      23.584  46.277  32.925  1.00  0.00     0.004 C 
BRANCH   4   5
ATOM      5  C   UNL     1      22.068  46.230  33.193  1.00  0.00     0.000 C 
BRANCH   5   6
ATOM      6  C   UNL     1      21.260  47.396  32.587  1.00  0.00     0.000 C 
BRANCH   6   7
ATOM      7  C   UNL     1      21.317  48.712  33.384  1.00  0.00     0.000 C 
BRANCH   7   8
ATOM      8  C   UNL     1      22.179  49.787  32.701  1.00  0.00     0.006 C 
BRANCH   8   9
ATOM      9  C   UNL     1      23.377  50.201  33.564  1.00  0.00     0.053 C 
BRANCH   9  10
ATOM     10  C   UNL     1      24.633  50.306  32.753  1.00  0.00     0.041 C 
ATOM     11  O   UNL     1      25.365  51.325  32.847  1.00  0.00    -0.550 OA
ATOM     12  O   UNL     1      25.012  49.261  31.921  1.00  0.00    -0.550 OA
ENDBRANCH   9  10
ENDBRANCH   8   9
ENDBRANCH   7   8
ENDBRANCH   6   7
ENDBRANCH   5   6
ENDBRANCH   4   5
ENDBRANCH   3   4
ENDBRANCH   1   3
BRANCH   2  13
ATOM     13  C   UNL     1      22.616  47.736  37.425  1.00  0.00     0.027 C 
BRANCH  13  14
ATOM     14  C   UNL     1      21.214  48.288  37.126  1.00  0.00     0.004 C 
BRANCH  14  15
ATOM     15  C   UNL     1      21.240  49.798  36.827  1.00  0.00     0.000 C 
BRANCH  15  16
ATOM     16  C   UNL     1      22.021  50.598  37.881  1.00  0.00     0.000 C 
BRANCH  16  17
ATOM     17  C   UNL     1      21.419  50.464  39.290  1.00  0.00    -0.000 C 
BRANCH  17  18
ATOM     18  C   UNL     1      22.460  50.661  40.407  1.00  0.00    -0.000 C 
BRANCH  18  19
ATOM     19  C   UNL     1      23.831  50.014  40.140  1.00  0.00    -0.003 C 
ATOM     20  C   UNL     1      24.983  50.740  40.834  1.00  0.00     0.004 C 
ENDBRANCH  18  19
ENDBRANCH  17  18
ENDBRANCH  16  17
ENDBRANCH  15  16
ENDBRANCH  14  15
ENDBRANCH  13  14
ENDBRANCH   2  13
TORSDOF 15
ENDMDL
MODEL 2
REMARK VINA RESULT:    -4.152      1.335      1.985
REMARK INTER + INTRA:         -10.166
REMARK INTER:                  -7.979
REMARK INTRA:                  -2.187
REMARK UNBOUND:                -2.373
REMARK SMILES CCCCCCCCC=CCCCCCCCC(=O)[O-]
REMARK SMILES IDX 10 1 9 2 11 3 12 4 13 5 14 6 15 7 16 8 17 9 18 10 19 11
REMARK SMILES IDX 20 12 8 13 7 14 6 15 5 16 4 17 3 18 2 19 1 20
REMARK H PARENT
REMARK Flexibility Score: inf
ROOT
ATOM      1  C   UNL     1      23.383  46.971  36.337  1.00  0.00    -0.031 C 
ATOM      2  C   UNL     1      23.524  46.750  37.652  1.00  0.00    -0.031 C 
ENDROOT
BRANCH   1   3
ATOM      3  C   UNL     1      23.982  46.026  35.333  1.00  0.00     0.027 C 
BRANCH   3   4
ATOM      4  C   UNL     1      24.666  46.792  34.192  1.00  0.00     0.004 C 
BRANCH   4   5
ATOM      5  C   UNL     1      23.903  46.687  32.859  1.00  0.00     0.000 C 
BRANCH   5   6
ATOM      6  C   UNL     1      22.431  46.242  32.980  1.00  0.00     0.000 C 
BRANCH   6   7
ATOM      7  C   UNL     1      21.398  47.382  32.929  1.00  0.00     0.000 C 
BRANCH   7   8
ATOM      8  C   UNL     1      22.048  48.769  32.791  1.00  0.00     0.006 C 
BRANCH   8   9
ATOM      9  C   UNL     1      22.002  49.561  34.104  1.00  0.00     0.053 C 
BRANCH   9  10
ATOM     10  C   UNL     1      23.223  50.413  34.279  1.00  0.00     0.041 C 
ATOM     11  O   UNL     1      23.260  51.290  35.180  1.00  0.00    -0.550 OA
ATOM     12  O   UNL     1      24.332  50.211  33.468  1.00  0.00    -0.550 OA
ENDBRANCH   9  10
ENDBRANCH   8   9
ENDBRANCH   7   8
ENDBRANCH   6   7
ENDBRANCH   5   6
ENDBRANCH   4   5
ENDBRANCH   3   4
ENDBRANCH   1   3
BRANCH   2  13
ATOM     13  C   UNL     1      22.934  47.681  38.678  1.00  0.00     0.027 C 
BRANCH  13  14
ATOM     14  C   UNL     1      21.767  48.508  38.115  1.00  0.00     0.004 C 
BRANCH  14  15
ATOM     15  C   UNL     1      22.043  50.020  38.190  1.00  0.00     0.000 C 
BRANCH  15  16
ATOM     16  C   UNL     1      23.467  50.341  38.671  1.00  0.00     0.000 C 
BRANCH  16  17
ATOM     17  C   UNL     1      23.480  51.198  39.948  1.00  0.00    -0.000 C 
BRANCH  17  18
ATOM     18  C   UNL     1      22.088  51.334  40.591  1.00  0.00    -0.000 C 
BRANCH  18  19
ATOM     19  C   UNL     1      21.902  50.560  41.908  1.00  0.00    -0.003 C 
ATOM     20  C   UNL     1      21.027  49.316  41.754  1.00  0.00     0.004 C 
ENDBRANCH  18  19
ENDBRANCH  17  18
ENDBRANCH  16  17
ENDBRANCH  15  16
ENDBRANCH  14  15
ENDBRANCH  13  14
ENDBRANCH   2  13
TORSDOF 15
ENDMDL
MODEL 3
REMARK VINA RESULT:    -4.120      2.841      6.181
REMARK INTER + INTRA:         -10.106
REMARK INTER:                  -7.373
REMARK INTRA:                  -2.732
REMARK UNBOUND:                -2.373
REMARK SMILES CCCCCCCCC=CCCCCCCCC(=O)[O-]
REMARK SMILES IDX 10 1 9 2 11 3 12 4 13 5 14 6 15 7 16 8 17 9 18 10 19 11
REMARK SMILES IDX 20 12 8 13 7 14 6 15 5 16 4 17 3 18 2 19 1 20
REMARK H PARENT
REMARK Flexibility Score: inf
ROOT
ATOM      1  C   UNL     1      23.497  46.938  37.024  1.00  0.00    -0.031 C 
ATOM      2  C   UNL     1      23.500  47.177  35.705  1.00  0.00    -0.031 C 
ENDROOT
BRANCH   1   3
ATOM      3  C   UNL     1      22.735  47.829  37.964  1.00  0.00     0.027 C 
BRANCH   3   4
ATOM      4  C   UNL     1      21.465  48.376  37.300  1.00  0.00     0.004 C 
BRANCH   4   5
ATOM      5  C   UNL     1      21.438  49.914  37.236  1.00  0.00     0.000 C 
BRANCH   5   6
ATOM      6  C   UNL     1      22.816  50.586  37.059  1.00  0.00     0.000 C 
BRANCH   6   7
ATOM      7  C   UNL     1      23.078  51.790  37.982  1.00  0.00     0.000 C 
BRANCH   7   8
ATOM      8  C   UNL     1      22.016  51.939  39.085  1.00  0.00     0.006 C 
BRANCH   8   9
ATOM      9  C   UNL     1      22.621  51.815  40.489  1.00  0.00     0.053 C 
BRANCH   9  10
ATOM     10  C   UNL     1      23.054  50.411  40.783  1.00  0.00     0.041 C 
ATOM     11  O   UNL     1      24.278  50.117  40.814  1.00  0.00    -0.550 OA
ATOM     12  O   UNL     1      22.105  49.434  41.058  1.00  0.00    -0.550 OA
ENDBRANCH   9  10
ENDBRANCH   8   9
ENDBRANCH   7   8
ENDBRANCH   6   7
ENDBRANCH   5   6
ENDBRANCH   4   5
ENDBRANCH   3   4
ENDBRANCH   1   3
BRANCH   2  13
ATOM     13  C   UNL     1      24.255  46.300  34.743  1.00  0.00     0.027 C 
BRANCH  13  14
ATOM     14  C   UNL     1      23.668  46.347  33.323  1.00  0.00     0.004 C 
BRANCH  14  15
ATOM     15  C   UNL     1      22.129  46.370  33.336  1.00  0.00     0.000 C 
BRANCH  15  16
ATOM     16  C   UNL     1      21.548  47.604  32.628  1.00  0.00     0.000 C 
BRANCH  16  17
ATOM     17  C   UNL     1      21.052  48.673  33.616  1.00  0.00    -0.000 C 
BRANCH  17  18
ATOM     18  C   UNL     1      21.782  50.020  33.456  1.00  0.00    -0.000 C 
BRANCH  18  19
ATOM     19  C   UNL     1      23.053  49.972  32.589  1.00  0.00    -0.003 C 
ATOM     20  C   UNL     1      24.341  50.048  33.409  1.00  0.00     0.004 C 
ENDBRANCH  18  19
ENDBRANCH  17  18
ENDBRANCH  16  17
ENDBRANCH  15  16
ENDBRANCH  14  15
ENDBRANCH  13  14
ENDBRANCH   2  13
TORSDOF 15
ENDMDL
MODEL 4
REMARK VINA RESULT:    -4.096      3.011      6.274
REMARK INTER + INTRA:         -10.062
REMARK INTER:                  -7.526
REMARK INTRA:                  -2.535
REMARK UNBOUND:                -2.373
REMARK SMILES CCCCCCCCC=CCCCCCCCC(=O)[O-]
REMARK SMILES IDX 10 1 9 2 11 3 12 4 13 5 14 6 15 7 16 8 17 9 18 10 19 11
REMARK SMILES IDX 20 12 8 13 7 14 6 15 5 16 4 17 3 18 2 19 1 20
REMARK H PARENT
REMARK Flexibility Score: inf
ROOT
ATOM      1  C   UNL     1      24.219  50.482  33.407  1.00  0.00    -0.031 C 
ATOM      2  C   UNL     1      24.896  49.818  32.460  1.00  0.00    -0.031 C 
ENDROOT
BRANCH   1   3
ATOM      3  C   UNL     1      23.765  51.896  33.177  1.00  0.00     0.027 C 
BRANCH   3   4
ATOM      4  C   UNL     1      23.208  52.515  34.467  1.00  0.00     0.004 C 
BRANCH   4   5
ATOM      5  C   UNL     1      22.801  51.459  35.511  1.00  0.00     0.000 C 
BRANCH   5   6
ATOM      6  C   UNL     1      21.986  51.999  36.704  1.00  0.00     0.000 C 
BRANCH   6   7
ATOM      7  C   UNL     1      22.088  51.165  37.994  1.00  0.00     0.000 C 
BRANCH   7   8
ATOM      8  C   UNL     1      23.475  50.531  38.187  1.00  0.00     0.006 C 
BRANCH   8   9
ATOM      9  C   UNL     1      23.701  50.063  39.630  1.00  0.00     0.053 C 
BRANCH   9  10
ATOM     10  C   UNL     1      22.758  48.963  40.009  1.00  0.00     0.041 C 
ATOM     11  O   UNL     1      22.705  47.909  39.323  1.00  0.00    -0.550 OA
ATOM     12  O   UNL     1      21.962  49.088  41.141  1.00  0.00    -0.550 OA
ENDBRANCH   9  10
ENDBRANCH   8   9
ENDBRANCH   7   8
ENDBRANCH   6   7
ENDBRANCH   5   6
ENDBRANCH   4   5
ENDBRANCH   3   4
ENDBRANCH   1   3
BRANCH   2  13
ATOM     13  C   UNL     1      25.362  48.401  32.665  1.00  0.00     0.027 C 
BRANCH  13  14
ATOM     14  C   UNL     1      24.439  47.378  31.986  1.00  0.00     0.004 C 
BRANCH  14  15
ATOM     15  C   UNL     1      23.897  46.338  32.983  1.00  0.00     0.000 C 
BRANCH  15  16
ATOM     16  C   UNL     1      24.636  46.367  34.331  1.00  0.00     0.000 C 
BRANCH  16  17
ATOM     17  C   UNL     1      23.675  46.406  35.530  1.00  0.00    -0.000 C 
BRANCH  17  18
ATOM     18  C   UNL     1      23.196  47.831  35.866  1.00  0.00    -0.000 C 
BRANCH  18  19
ATOM     19  C   UNL     1      21.681  48.059  35.717  1.00  0.00    -0.003 C 
ATOM     20  C   UNL     1      21.271  48.449  34.297  1.00  0.00     0.004 C 
ENDBRANCH  18  19
ENDBRANCH  17  18
ENDBRANCH  16  17
ENDBRANCH  15  16
ENDBRANCH  14  15
ENDBRANCH  13  14
ENDBRANCH   2  13
TORSDOF 15
ENDMDL
MODEL 5
REMARK VINA RESULT:    -4.073      1.518      2.644
REMARK INTER + INTRA:         -10.018
REMARK INTER:                  -8.040
REMARK INTRA:                  -1.979
REMARK UNBOUND:                -2.373
REMARK SMILES CCCCCCCCC=CCCCCCCCC(=O)[O-]
REMARK SMILES IDX 10 1 9 2 11 3 12 4 13 5 14 6 15 7 16 8 17 9 18 10 19 11
REMARK SMILES IDX 20 12 8 13 7 14 6 15 5 16 4 17 3 18 2 19 1 20
REMARK H PARENT
REMARK Flexibility Score: inf
ROOT
ATOM      1  C   UNL     1      23.134  48.243  37.467  1.00  0.00    -0.031 C 
ATOM      2  C   UNL     1      21.900  48.743  37.627  1.00  0.00    -0.031 C 
ENDROOT
BRANCH   1   3
ATOM      3  C   UNL     1      23.475  46.866  37.962  1.00  0.00     0.027 C 
BRANCH   3   4
ATOM      4  C   UNL     1      23.811  45.925  36.797  1.00  0.00     0.004 C 
BRANCH   4   5
ATOM      5  C   UNL     1      23.391  46.493  35.429  1.00  0.00     0.000 C 
BRANCH   5   6
ATOM      6  C   UNL     1      24.445  46.354  34.311  1.00  0.00     0.000 C 
BRANCH   6   7
ATOM      7  C   UNL     1      23.873  46.251  32.885  1.00  0.00     0.000 C 
BRANCH   7   8
ATOM      8  C   UNL     1      24.478  47.287  31.923  1.00  0.00     0.006 C 
BRANCH   8   9
ATOM      9  C   UNL     1      25.310  48.344  32.661  1.00  0.00     0.053 C 
BRANCH   9  10
ATOM     10  C   UNL     1      24.586  49.652  32.755  1.00  0.00     0.041 C 
ATOM     11  O   UNL     1      25.217  50.710  33.013  1.00  0.00    -0.550 OA
ATOM     12  O   UNL     1      23.218  49.707  32.522  1.00  0.00    -0.550 OA
ENDBRANCH   9  10
ENDBRANCH   8   9
ENDBRANCH   7   8
ENDBRANCH   6   7
ENDBRANCH   5   6
ENDBRANCH   4   5
ENDBRANCH   3   4
ENDBRANCH   1   3
BRANCH   2  13
ATOM     13  C   UNL     1      21.534  50.119  37.140  1.00  0.00     0.027 C 
BRANCH  13  14
ATOM     14  C   UNL     1      22.745  50.883  36.582  1.00  0.00     0.004 C 
BRANCH  14  15
ATOM     15  C   UNL     1      23.119  52.091  37.458  1.00  0.00     0.000 C 
BRANCH  15  16
ATOM     16  C   UNL     1      22.030  52.440  38.485  1.00  0.00     0.000 C 
BRANCH  16  17
ATOM     17  C   UNL     1      22.550  52.408  39.932  1.00  0.00    -0.000 C 
BRANCH  17  18
ATOM     18  C   UNL     1      21.925  51.277  40.769  1.00  0.00    -0.000 C 
BRANCH  18  19
ATOM     19  C   UNL     1      22.815  50.034  40.950  1.00  0.00    -0.003 C 
ATOM     20  C   UNL     1      24.264  50.267  40.523  1.00  0.00     0.004 C 
ENDBRANCH  18  19
ENDBRANCH  17  18
ENDBRANCH  16  17
ENDBRANCH  15  16
ENDBRANCH  14  15
ENDBRANCH  13  14
ENDBRANCH   2  13
TORSDOF 15
ENDMDL
MODEL 6
REMARK VINA RESULT:    -4.073      2.511      6.494
REMARK INTER + INTRA:         -10.018
REMARK INTER:                  -7.495
REMARK INTRA:                  -2.522
REMARK UNBOUND:                -2.373
REMARK SMILES CCCCCCCCC=CCCCCCCCC(=O)[O-]
REMARK SMILES IDX 10 1 9 2 11 3 12 4 13 5 14 6 15 7 16 8 17 9 18 10 19 11
REMARK SMILES IDX 20 12 8 13 7 14 6 15 5 16 4 17 3 18 2 19 1 20
REMARK H PARENT
REMARK Flexibility Score: inf
ROOT
ATOM      1  C   UNL     1      22.847  51.471  36.231  1.00  0.00    -0.031 C 
ATOM      2  C   UNL     1      22.531  51.957  35.022  1.00  0.00    -0.031 C 
ENDROOT
BRANCH   1   3
ATOM      3  C   UNL     1      22.507  52.236  37.479  1.00  0.00     0.027 C 
BRANCH   3   4
ATOM      4  C   UNL     1      22.858  51.429  38.736  1.00  0.00     0.004 C 
BRANCH   4   5
ATOM      5  C   UNL     1      21.644  50.698  39.337  1.00  0.00     0.000 C 
BRANCH   5   6
ATOM      6  C   UNL     1      21.695  49.159  39.246  1.00  0.00     0.000 C 
BRANCH   6   7
ATOM      7  C   UNL     1      20.875  48.546  38.096  1.00  0.00     0.000 C 
BRANCH   7   8
ATOM      8  C   UNL     1      21.749  48.090  36.916  1.00  0.00     0.006 C 
BRANCH   8   9
ATOM      9  C   UNL     1      23.228  47.970  37.305  1.00  0.00     0.053 C 
BRANCH   9  10
ATOM     10  C   UNL     1      23.593  46.562  37.664  1.00  0.00     0.041 C 
ATOM     11  O   UNL     1      23.534  46.176  38.860  1.00  0.00    -0.550 OA
ATOM     12  O   UNL     1      23.965  45.666  36.670  1.00  0.00    -0.550 OA
ENDBRANCH   9  10
ENDBRANCH   8   9
ENDBRANCH   7   8
ENDBRANCH   6   7
ENDBRANCH   5   6
ENDBRANCH   4   5
ENDBRANCH   3   4
ENDBRANCH   1   3
BRANCH   2  13
ATOM     13  C   UNL     1      22.860  51.210  33.758  1.00  0.00     0.027 C 
BRANCH  13  14
ATOM     14  C   UNL     1      23.971  50.170  33.966  1.00  0.00     0.004 C 
BRANCH  14  15
ATOM     15  C   UNL     1      24.671  49.800  32.646  1.00  0.00     0.000 C 
BRANCH  15  16
ATOM     16  C   UNL     1      25.277  48.388  32.670  1.00  0.00     0.000 C 
BRANCH  16  17
ATOM     17  C   UNL     1      24.621  47.482  33.725  1.00  0.00    -0.000 C 
BRANCH  17  18
ATOM     18  C   UNL     1      23.772  46.357  33.103  1.00  0.00    -0.000 C 
BRANCH  18  19
ATOM     19  C   UNL     1      22.296  46.340  33.538  1.00  0.00    -0.003 C 
ATOM     20  C   UNL     1      21.562  47.644  33.222  1.00  0.00     0.004 C 
ENDBRANCH  18  19
ENDBRANCH  17  18
ENDBRANCH  16  17
ENDBRANCH  15  16
ENDBRANCH  14  15
ENDBRANCH  13  14
ENDBRANCH   2  13
TORSDOF 15
ENDMDL
MODEL 7
REMARK VINA RESULT:    -4.019      2.966      6.074
REMARK INTER + INTRA:          -9.917
REMARK INTER:                  -8.158
REMARK INTRA:                  -1.759
REMARK UNBOUND:                -2.373
REMARK SMILES CCCCCCCCC=CCCCCCCCC(=O)[O-]
REMARK SMILES IDX 10 1 9 2 11 3 12 4 13 5 14 6 15 7 16 8 17 9 18 10 19 11
REMARK SMILES IDX 20 12 8 13 7 14 6 15 5 16 4 17 3 18 2 19 1 20
REMARK H PARENT
REMARK Flexibility Score: inf
ROOT
ATOM      1  C   UNL     1      23.460  46.790  35.904  1.00  0.00    -0.031 C 
ATOM      2  C   UNL     1      24.079  46.317  34.813  1.00  0.00    -0.031 C 
ENDROOT
BRANCH   1   3
ATOM      3  C   UNL     1      23.539  46.052  37.211  1.00  0.00     0.027 C 
BRANCH   3   4
ATOM      4  C   UNL     1      23.500  47.023  38.399  1.00  0.00     0.004 C 
BRANCH   4   5
ATOM      5  C   UNL     1      22.895  48.391  38.033  1.00  0.00     0.000 C 
BRANCH   5   6
ATOM      6  C   UNL     1      21.375  48.519  38.265  1.00  0.00     0.000 C 
BRANCH   6   7
ATOM      7  C   UNL     1      20.969  49.422  39.443  1.00  0.00     0.000 C 
BRANCH   7   8
ATOM      8  C   UNL     1      21.952  49.343  40.623  1.00  0.00     0.006 C 
BRANCH   8   9
ATOM      9  C   UNL     1      22.419  50.731  41.079  1.00  0.00     0.053 C 
BRANCH   9  10
ATOM     10  C   UNL     1      23.769  51.071  40.524  1.00  0.00     0.041 C 
ATOM     11  O   UNL     1      24.689  50.212  40.523  1.00  0.00    -0.550 OA
ATOM     12  O   UNL     1      23.998  52.326  39.975  1.00  0.00    -0.550 OA
ENDBRANCH   9  10
ENDBRANCH   8   9
ENDBRANCH   7   8
ENDBRANCH   6   7
ENDBRANCH   5   6
ENDBRANCH   4   5
ENDBRANCH   3   4
ENDBRANCH   1   3
BRANCH   2  13
ATOM     13  C   UNL     1      24.014  47.037  33.492  1.00  0.00     0.027 C 
BRANCH  13  14
ATOM     14  C   UNL     1      25.303  47.815  33.187  1.00  0.00     0.004 C 
BRANCH  14  15
ATOM     15  C   UNL     1      25.199  48.613  31.875  1.00  0.00     0.000 C 
BRANCH  15  16
ATOM     16  C   UNL     1      24.249  49.817  31.988  1.00  0.00     0.000 C 
BRANCH  16  17
ATOM     17  C   UNL     1      24.637  50.771  33.129  1.00  0.00    -0.000 C 
BRANCH  17  18
ATOM     18  C   UNL     1      23.417  51.328  33.885  1.00  0.00    -0.000 C 
BRANCH  18  19
ATOM     19  C   UNL     1      23.119  50.646  35.232  1.00  0.00    -0.003 C 
ATOM     20  C   UNL     1      22.866  51.640  36.365  1.00  0.00     0.004 C 
ENDBRANCH  18  19
ENDBRANCH  17  18
ENDBRANCH  16  17
ENDBRANCH  15  16
ENDBRANCH  14  15
ENDBRANCH  13  14
ENDBRANCH   2  13
TORSDOF 15
ENDMDL
MODEL 8
REMARK VINA RESULT:    -3.967      2.903      5.996
REMARK INTER + INTRA:          -9.820
REMARK INTER:                  -7.406
REMARK INTRA:                  -2.414
REMARK UNBOUND:                -2.373
REMARK SMILES CCCCCCCCC=CCCCCCCCC(=O)[O-]
REMARK SMILES IDX 10 1 9 2 11 3 12 4 13 5 14 6 15 7 16 8 17 9 18 10 19 11
REMARK SMILES IDX 20 12 8 13 7 14 6 15 5 16 4 17 3 18 2 19 1 20
REMARK H PARENT
REMARK Flexibility Score: inf
ROOT
ATOM      1  C   UNL     1      24.735  50.090  33.121  1.00  0.00    -0.031 C 
ATOM      2  C   UNL     1      24.397  49.226  32.154  1.00  0.00    -0.031 C 
ENDROOT
BRANCH   1   3
ATOM      3  C   UNL     1      24.081  51.441  33.206  1.00  0.00     0.027 C 
BRANCH   3   4
ATOM      4  C   UNL     1      22.800  51.384  34.049  1.00  0.00     0.004 C 
BRANCH   4   5
ATOM      5  C   UNL     1      22.877  52.253  35.317  1.00  0.00     0.000 C 
BRANCH   5   6
ATOM      6  C   UNL     1      22.485  51.538  36.626  1.00  0.00     0.000 C 
BRANCH   6   7
ATOM      7  C   UNL     1      23.171  52.076  37.894  1.00  0.00     0.000 C 
BRANCH   7   8
ATOM      8  C   UNL     1      22.984  51.156  39.111  1.00  0.00     0.006 C 
BRANCH   8   9
ATOM      9  C   UNL     1      23.677  49.800  38.922  1.00  0.00     0.053 C 
BRANCH   9  10
ATOM     10  C   UNL     1      22.757  48.660  39.235  1.00  0.00     0.041 C 
ATOM     11  O   UNL     1      23.156  47.697  39.940  1.00  0.00    -0.550 OA
ATOM     12  O   UNL     1      21.446  48.679  38.775  1.00  0.00    -0.550 OA
ENDBRANCH   9  10
ENDBRANCH   8   9
ENDBRANCH   7   8
ENDBRANCH   6   7
ENDBRANCH   5   6
ENDBRANCH   4   5
ENDBRANCH   3   4
ENDBRANCH   1   3
BRANCH   2  13
ATOM     13  C   UNL     1      25.037  47.868  32.047  1.00  0.00     0.027 C 
BRANCH  13  14
ATOM     14  C   UNL     1      24.001  46.734  32.008  1.00  0.00     0.004 C 
BRANCH  14  15
ATOM     15  C   UNL     1      22.571  47.251  32.242  1.00  0.00     0.000 C 
BRANCH  15  16
ATOM     16  C   UNL     1      21.980  46.780  33.581  1.00  0.00     0.000 C 
BRANCH  16  17
ATOM     17  C   UNL     1      21.978  47.888  34.647  1.00  0.00    -0.000 C 
BRANCH  17  18
ATOM     18  C   UNL     1      23.171  47.789  35.616  1.00  0.00    -0.000 C 
BRANCH  18  19
ATOM     19  C   UNL     1      23.836  46.402  35.688  1.00  0.00    -0.003 C 
ATOM     20  C   UNL     1      23.741  45.763  37.074  1.00  0.00     0.004 C 
ENDBRANCH  18  19
ENDBRANCH  17  18
ENDBRANCH  16  17
ENDBRANCH  15  16
ENDBRANCH  14  15
ENDBRANCH  13  14
ENDBRANCH   2  13
TORSDOF 15
ENDMDL
MODEL 9
REMARK VINA RESULT:    -3.890      1.729      2.619
REMARK INTER + INTRA:          -9.675
REMARK INTER:                  -7.228
REMARK INTRA:                  -2.447
REMARK UNBOUND:                -2.373
REMARK SMILES CCCCCCCCC=CCCCCCCCC(=O)[O-]
REMARK SMILES IDX 10 1 9 2 11 3 12 4 13 5 14 6 15 7 16 8 17 9 18 10 19 11
REMARK SMILES IDX 20 12 8 13 7 14 6 15 5 16 4 17 3 18 2 19 1 20
REMARK H PARENT
REMARK Flexibility Score: inf
ROOT
ATOM      1  C   UNL     1      24.336  46.002  35.105  1.00  0.00    -0.031 C 
ATOM      2  C   UNL     1      23.788  46.486  36.229  1.00  0.00    -0.031 C 
ENDROOT
BRANCH   1   3
ATOM      3  C   UNL     1      24.516  46.880  33.899  1.00  0.00     0.027 C 
BRANCH   3   4
ATOM      4  C   UNL     1      23.743  46.329  32.693  1.00  0.00     0.004 C 
BRANCH   4   5
ATOM      5  C   UNL     1      22.638  47.283  32.204  1.00  0.00     0.000 C 
BRANCH   5   6
ATOM      6  C   UNL     1      21.902  48.058  33.317  1.00  0.00     0.000 C 
BRANCH   6   7
ATOM      7  C   UNL     1      21.812  49.579  33.103  1.00  0.00     0.000 C 
BRANCH   7   8
ATOM      8  C   UNL     1      22.999  50.140  32.301  1.00  0.00     0.006 C 
BRANCH   8   9
ATOM      9  C   UNL     1      24.174  50.531  33.206  1.00  0.00     0.053 C 
BRANCH   9  10
ATOM     10  C   UNL     1      24.681  51.905  32.891  1.00  0.00     0.041 C 
ATOM     11  O   UNL     1      25.683  52.056  32.145  1.00  0.00    -0.550 OA
ATOM     12  O   UNL     1      24.023  53.021  33.394  1.00  0.00    -0.550 OA
ENDBRANCH   9  10
ENDBRANCH   8   9
ENDBRANCH   7   8
ENDBRANCH   6   7
ENDBRANCH   5   6
ENDBRANCH   4   5
ENDBRANCH   3   4
ENDBRANCH   1   3
BRANCH   2  13
ATOM     13  C   UNL     1      23.597  45.627  37.450  1.00  0.00     0.027 C 
BRANCH  13  14
ATOM     14  C   UNL     1      23.574  46.451  38.747  1.00  0.00     0.004 C 
BRANCH  14  15
ATOM     15  C   UNL     1      23.500  47.962  38.469  1.00  0.00     0.000 C 
BRANCH  15  16
ATOM     16  C   UNL     1      22.067  48.512  38.556  1.00  0.00     0.000 C 
BRANCH  16  17
ATOM     17  C   UNL     1      21.664  49.312  37.307  1.00  0.00    -0.000 C 
BRANCH  17  18
ATOM     18  C   UNL     1      22.866  49.971  36.605  1.00  0.00    -0.000 C 
BRANCH  18  19
ATOM     19  C   UNL     1      22.858  51.510  36.609  1.00  0.00    -0.003 C 
ATOM     20  C   UNL     1      21.662  52.105  35.868  1.00  0.00     0.004 C 
ENDBRANCH  18  19
ENDBRANCH  17  18
ENDBRANCH  16  17
ENDBRANCH  15  16
ENDBRANCH  14  15
ENDBRANCH  13  14
ENDBRANCH   2  13
TORSDOF 15
ENDMDL
