MODEL 1
REMARK VINA RESULT:    -4.552      0.000      0.000
REMARK INTER + INTRA:          -5.269
REMARK INTER:                  -5.217
REMARK INTRA:                  -0.052
REMARK UNBOUND:                -0.052
REMARK SMILES COc1cc(C=O)ccc1O
REMARK SMILES IDX 3 1 10 2 9 3 8 4 5 5 4 6 2 7 1 8 11 9 6 11 7 12
REMARK H PARENT 11 10
REMARK Flexibility Score: inf
ROOT
ATOM      1  C   UNL     1     149.855 149.150 145.723  1.00  0.00     0.161 A 
ATOM      2  C   UNL     1     150.891 148.230 145.479  1.00  0.00     0.157 A 
ATOM      3  C   UNL     1     152.219 148.666 145.436  1.00  0.00     0.051 A 
ATOM      4  C   UNL     1     152.528 150.012 145.634  1.00  0.00     0.015 A 
ATOM      5  C   UNL     1     151.507 150.944 145.879  1.00  0.00     0.018 A 
ATOM      6  C   UNL     1     150.174 150.508 145.923  1.00  0.00     0.062 A 
ENDROOT
BRANCH   1   7
ATOM      7  O   UNL     1     148.531 148.683 145.761  1.00  0.00    -0.493 OA
ATOM      8  C   UNL     1     147.405 149.475 146.125  1.00  0.00     0.278 C 
ENDBRANCH   1   7
BRANCH   2   9
ATOM      9  O   UNL     1     150.620 146.876 145.276  1.00  0.00    -0.504 OA
ATOM     10  H   UNL     1     150.597 146.463 144.352  1.00  0.00     0.293 HD
ENDBRANCH   2   9
BRANCH   5  11
ATOM     11  C   UNL     1     151.815 152.371 146.091  1.00  0.00     0.260 C 
ATOM     12  O   UNL     1     150.974 153.267 145.808  1.00  0.00    -0.298 OA
ENDBRANCH   5  11
TORSDOF 3
ENDMDL
MODEL 2
REMARK VINA RESULT:    -4.347      2.017      3.164
REMARK INTER + INTRA:          -5.034
REMARK INTER:                  -4.982
REMARK INTRA:                  -0.052
REMARK UNBOUND:                -0.052
REMARK SMILES COc1cc(C=O)ccc1O
REMARK SMILES IDX 3 1 10 2 9 3 8 4 5 5 4 6 2 7 1 8 11 9 6 11 7 12
REMARK H PARENT 11 10
REMARK Flexibility Score: inf
ROOT
ATOM      1  C   UNL     1     151.994 150.049 145.810  1.00  0.00     0.161 A 
ATOM      2  C   UNL     1     153.114 150.858 145.545  1.00  0.00     0.157 A 
ATOM      3  C   UNL     1     152.973 152.248 145.472  1.00  0.00     0.051 A 
ATOM      4  C   UNL     1     151.724 152.842 145.659  1.00  0.00     0.015 A 
ATOM      5  C   UNL     1     150.595 152.050 145.923  1.00  0.00     0.018 A 
ATOM      6  C   UNL     1     150.736 150.656 145.998  1.00  0.00     0.062 A 
ENDROOT
BRANCH   1   7
ATOM      7  O   UNL     1     152.166 148.657 145.878  1.00  0.00    -0.493 OA
ATOM      8  C   UNL     1     151.114 147.705 145.753  1.00  0.00     0.278 C 
ENDBRANCH   1   7
BRANCH   2   9
ATOM      9  O   UNL     1     154.378 150.300 145.353  1.00  0.00    -0.504 OA
ATOM     10  H   UNL     1     155.174 150.556 145.924  1.00  0.00     0.293 HD
ENDBRANCH   2   9
BRANCH   5  11
ATOM     11  C   UNL     1     149.268 152.660 146.124  1.00  0.00     0.260 C 
ATOM     12  O   UNL     1     148.671 153.247 145.181  1.00  0.00    -0.298 OA
ENDBRANCH   5  11
TORSDOF 3
ENDMDL
MODEL 3
REMARK VINA RESULT:    -4.188      1.588      4.299
REMARK INTER + INTRA:          -4.853
REMARK INTER:                  -4.799
REMARK INTRA:                  -0.053
REMARK UNBOUND:                -0.052
REMARK SMILES COc1cc(C=O)ccc1O
REMARK SMILES IDX 3 1 10 2 9 3 8 4 5 5 4 6 2 7 1 8 11 9 6 11 7 12
REMARK H PARENT 11 10
REMARK Flexibility Score: inf
ROOT
ATOM      1  C   UNL     1     150.207 151.259 145.838  1.00  0.00     0.161 A 
ATOM      2  C   UNL     1     148.832 151.164 145.554  1.00  0.00     0.157 A 
ATOM      3  C   UNL     1     148.228 149.909 145.431  1.00  0.00     0.051 A 
ATOM      4  C   UNL     1     148.980 148.744 145.587  1.00  0.00     0.015 A 
ATOM      5  C   UNL     1     150.352 148.820 145.871  1.00  0.00     0.018 A 
ATOM      6  C   UNL     1     150.960 150.079 145.996  1.00  0.00     0.062 A 
ENDROOT
BRANCH   1   7
ATOM      7  O   UNL     1     150.786 152.533 145.957  1.00  0.00    -0.493 OA
ATOM      8  C   UNL     1     152.166 152.816 145.748  1.00  0.00     0.278 C 
ENDBRANCH   1   7
BRANCH   2   9
ATOM      9  O   UNL     1     148.048 152.307 145.391  1.00  0.00    -0.504 OA
ATOM     10  H   UNL     1     147.542 152.496 144.534  1.00  0.00     0.293 HD
ENDBRANCH   2   9
BRANCH   5  11
ATOM     11  C   UNL     1     151.163 147.599 146.040  1.00  0.00     0.260 C 
ATOM     12  O   UNL     1     152.387 147.585 145.740  1.00  0.00    -0.298 OA
ENDBRANCH   5  11
TORSDOF 3
ENDMDL
MODEL 4
REMARK VINA RESULT:    -3.846      2.534      3.995
REMARK INTER + INTRA:          -4.460
REMARK INTER:                  -4.387
REMARK INTRA:                  -0.074
REMARK UNBOUND:                -0.052
REMARK SMILES COc1cc(C=O)ccc1O
REMARK SMILES IDX 3 1 10 2 9 3 8 4 5 5 4 6 2 7 1 8 11 9 6 11 7 12
REMARK H PARENT 11 10
REMARK Flexibility Score: inf
ROOT
ATOM      1  C   UNL     1     150.552 150.825 143.500  1.00  0.00     0.161 A 
ATOM      2  C   UNL     1     151.748 150.956 144.230  1.00  0.00     0.157 A 
ATOM      3  C   UNL     1     151.830 150.460 145.535  1.00  0.00     0.051 A 
ATOM      4  C   UNL     1     150.731 149.833 146.124  1.00  0.00     0.015 A 
ATOM      5  C   UNL     1     149.530 149.694 145.411  1.00  0.00     0.018 A 
ATOM      6  C   UNL     1     149.446 150.190 144.101  1.00  0.00     0.062 A 
ENDROOT
BRANCH   1   7
ATOM      7  O   UNL     1     150.499 151.332 142.192  1.00  0.00    -0.493 OA
ATOM      8  C   UNL     1     150.605 150.540 141.013  1.00  0.00     0.278 C 
ENDBRANCH   1   7
BRANCH   2   9
ATOM      9  O   UNL     1     152.868 151.576 143.675  1.00  0.00    -0.504 OA
ATOM     10  H   UNL     1     152.797 152.219 142.895  1.00  0.00     0.293 HD
ENDBRANCH   2   9
BRANCH   5  11
ATOM     11  C   UNL     1     148.358 149.034 146.017  1.00  0.00     0.260 C 
ATOM     12  O   UNL     1     147.254 149.635 146.121  1.00  0.00    -0.298 OA
ENDBRANCH   5  11
TORSDOF 3
ENDMDL
MODEL 5
REMARK VINA RESULT:    -3.823      2.595      2.943
REMARK INTER + INTRA:          -4.434
REMARK INTER:                  -4.384
REMARK INTRA:                  -0.051
REMARK UNBOUND:                -0.052
REMARK SMILES COc1cc(C=O)ccc1O
REMARK SMILES IDX 3 1 10 2 9 3 8 4 5 5 4 6 2 7 1 8 11 9 6 11 7 12
REMARK H PARENT 11 10
REMARK Flexibility Score: inf
ROOT
ATOM      1  C   UNL     1     150.786 150.176 143.375  1.00  0.00     0.161 A 
ATOM      2  C   UNL     1     151.218 149.226 144.318  1.00  0.00     0.157 A 
ATOM      3  C   UNL     1     151.140 149.512 145.686  1.00  0.00     0.051 A 
ATOM      4  C   UNL     1     150.636 150.737 146.124  1.00  0.00     0.015 A 
ATOM      5  C   UNL     1     150.200 151.696 145.197  1.00  0.00     0.018 A 
ATOM      6  C   UNL     1     150.277 151.411 143.824  1.00  0.00     0.062 A 
ENDROOT
BRANCH   1   7
ATOM      7  O   UNL     1     150.875 149.861 142.009  1.00  0.00    -0.493 OA
ATOM      8  C   UNL     1     150.695 150.797 140.950  1.00  0.00     0.278 C 
ENDBRANCH   1   7
BRANCH   2   9
ATOM      9  O   UNL     1     151.728 147.991 143.918  1.00  0.00    -0.504 OA
ATOM     10  H   UNL     1     152.715 147.845 143.745  1.00  0.00     0.293 HD
ENDBRANCH   2   9
BRANCH   5  11
ATOM     11  C   UNL     1     149.664 152.996 145.641  1.00  0.00     0.260 C 
ATOM     12  O   UNL     1     150.283 154.070 145.408  1.00  0.00    -0.298 OA
ENDBRANCH   5  11
TORSDOF 3
ENDMDL
MODEL 6
REMARK VINA RESULT:    -3.137     10.530     12.137
REMARK INTER + INTRA:          -3.648
REMARK INTER:                  -3.578
REMARK INTRA:                  -0.070
REMARK UNBOUND:                -0.052
REMARK SMILES COc1cc(C=O)ccc1O
REMARK SMILES IDX 3 1 10 2 9 3 8 4 5 5 4 6 2 7 1 8 11 9 6 11 7 12
REMARK H PARENT 11 10
REMARK Flexibility Score: inf
ROOT
ATOM      1  C   UNL     1     158.645 153.871 138.990  1.00  0.00     0.161 A 
ATOM      2  C   UNL     1     157.536 154.356 139.707  1.00  0.00     0.157 A 
ATOM      3  C   UNL     1     156.454 154.924 139.025  1.00  0.00     0.051 A 
ATOM      4  C   UNL     1     156.465 155.014 137.633  1.00  0.00     0.015 A 
ATOM      5  C   UNL     1     157.563 154.535 136.900  1.00  0.00     0.018 A 
ATOM      6  C   UNL     1     158.649 153.965 137.584  1.00  0.00     0.062 A 
ENDROOT
BRANCH   1   7
ATOM      7  O   UNL     1     159.715 153.306 139.701  1.00  0.00    -0.493 OA
ATOM      8  C   UNL     1     160.883 154.016 140.103  1.00  0.00     0.278 C 
ENDBRANCH   1   7
BRANCH   2   9
ATOM      9  O   UNL     1     157.489 154.283 141.099  1.00  0.00    -0.504 OA
ATOM     10  H   UNL     1     157.752 155.062 141.690  1.00  0.00     0.293 HD
ENDBRANCH   2   9
BRANCH   5  11
ATOM     11  C   UNL     1     157.593 154.622 135.428  1.00  0.00     0.260 C 
ATOM     12  O   UNL     1     158.467 155.309 134.834  1.00  0.00    -0.298 OA
ENDBRANCH   5  11
TORSDOF 3
ENDMDL
MODEL 7
REMARK VINA RESULT:    -3.126     10.802     12.255
REMARK INTER + INTRA:          -3.635
REMARK INTER:                  -3.561
REMARK INTRA:                  -0.074
REMARK UNBOUND:                -0.052
REMARK SMILES COc1cc(C=O)ccc1O
REMARK SMILES IDX 3 1 10 2 9 3 8 4 5 5 4 6 2 7 1 8 11 9 6 11 7 12
REMARK H PARENT 11 10
REMARK Flexibility Score: inf
ROOT
ATOM      1  C   UNL     1     147.413 158.797 139.182  1.00  0.00     0.161 A 
ATOM      2  C   UNL     1     146.907 157.641 139.804  1.00  0.00     0.157 A 
ATOM      3  C   UNL     1     146.407 156.589 139.028  1.00  0.00     0.051 A 
ATOM      4  C   UNL     1     146.404 156.677 137.636  1.00  0.00     0.015 A 
ATOM      5  C   UNL     1     146.905 157.823 136.998  1.00  0.00     0.018 A 
ATOM      6  C   UNL     1     147.408 158.879 137.775  1.00  0.00     0.062 A 
ENDROOT
BRANCH   1   7
ATOM      7  O   UNL     1     147.908 159.835 139.986  1.00  0.00    -0.493 OA
ATOM      8  C   UNL     1     147.314 161.125 140.098  1.00  0.00     0.278 C 
ENDBRANCH   1   7
BRANCH   2   9
ATOM      9  O   UNL     1     146.893 157.517 141.194  1.00  0.00    -0.504 OA
ATOM     10  H   UNL     1     147.706 157.217 141.717  1.00  0.00     0.293 HD
ENDBRANCH   2   9
BRANCH   5  11
ATOM     11  C   UNL     1     146.911 157.934 135.527  1.00  0.00     0.260 C 
ATOM     12  O   UNL     1     146.253 157.132 134.811  1.00  0.00    -0.298 OA
ENDBRANCH   5  11
TORSDOF 3
ENDMDL
MODEL 8
REMARK VINA RESULT:    -3.066      9.614     11.361
REMARK INTER + INTRA:          -3.567
REMARK INTER:                  -3.494
REMARK INTRA:                  -0.073
REMARK UNBOUND:                -0.052
REMARK SMILES COc1cc(C=O)ccc1O
REMARK SMILES IDX 3 1 10 2 9 3 8 4 5 5 4 6 2 7 1 8 11 9 6 11 7 12
REMARK H PARENT 11 10
REMARK Flexibility Score: inf
ROOT
ATOM      1  C   UNL     1     142.422 147.270 139.064  1.00  0.00     0.161 A 
ATOM      2  C   UNL     1     143.575 146.863 139.761  1.00  0.00     0.157 A 
ATOM      3  C   UNL     1     144.699 146.421 139.057  1.00  0.00     0.051 A 
ATOM      4  C   UNL     1     144.688 146.378 137.662  1.00  0.00     0.015 A 
ATOM      5  C   UNL     1     143.547 146.779 136.950  1.00  0.00     0.018 A 
ATOM      6  C   UNL     1     142.418 147.224 137.656  1.00  0.00     0.062 A 
ENDROOT
BRANCH   1   7
ATOM      7  O   UNL     1     141.309 147.710 139.798  1.00  0.00    -0.493 OA
ATOM      8  C   UNL     1     140.940 149.075 139.967  1.00  0.00     0.278 C 
ENDBRANCH   1   7
BRANCH   2   9
ATOM      9  O   UNL     1     143.623 146.893 141.155  1.00  0.00    -0.504 OA
ATOM     10  H   UNL     1     143.843 146.071 141.705  1.00  0.00     0.293 HD
ENDBRANCH   2   9
BRANCH   5  11
ATOM     11  C   UNL     1     143.516 146.741 135.476  1.00  0.00     0.260 C 
ATOM     12  O   UNL     1     142.863 145.855 134.861  1.00  0.00    -0.298 OA
ENDBRANCH   5  11
TORSDOF 3
ENDMDL
MODEL 9
REMARK VINA RESULT:    -3.037      8.509      9.599
REMARK INTER + INTRA:          -3.534
REMARK INTER:                  -3.464
REMARK INTRA:                  -0.070
REMARK UNBOUND:                -0.052
REMARK SMILES COc1cc(C=O)ccc1O
REMARK SMILES IDX 3 1 10 2 9 3 8 4 5 5 4 6 2 7 1 8 11 9 6 11 7 12
REMARK H PARENT 11 10
REMARK Flexibility Score: inf
ROOT
ATOM      1  C   UNL     1     153.299 142.965 139.243  1.00  0.00     0.161 A 
ATOM      2  C   UNL     1     152.069 143.567 139.568  1.00  0.00     0.157 A 
ATOM      3  C   UNL     1     151.903 144.948 139.419  1.00  0.00     0.051 A 
ATOM      4  C   UNL     1     152.952 145.739 138.948  1.00  0.00     0.015 A 
ATOM      5  C   UNL     1     154.186 145.156 138.618  1.00  0.00     0.018 A 
ATOM      6  C   UNL     1     154.353 143.770 138.767  1.00  0.00     0.062 A 
ENDROOT
BRANCH   1   7
ATOM      7  O   UNL     1     153.436 141.577 139.403  1.00  0.00    -0.493 OA
ATOM      8  C   UNL     1     153.963 140.945 140.565  1.00  0.00     0.278 C 
ENDBRANCH   1   7
BRANCH   2   9
ATOM      9  O   UNL     1     150.998 142.808 140.042  1.00  0.00    -0.504 OA
ATOM     10  H   UNL     1     150.181 143.233 140.464  1.00  0.00     0.293 HD
ENDBRANCH   2   9
BRANCH   5  11
ATOM     11  C   UNL     1     155.305 145.976 138.119  1.00  0.00     0.260 C 
ATOM     12  O   UNL     1     156.142 146.486 138.911  1.00  0.00    -0.298 OA
ENDBRANCH   5  11
TORSDOF 3
ENDMDL
