MODEL 1
REMARK VINA RESULT:    -5.118      0.000      0.000
REMARK INTER + INTRA:          -5.694
REMARK INTER:                  -5.567
REMARK INTRA:                  -0.128
REMARK UNBOUND:                -0.128
REMARK SMILES Cc1ccc(C(C)C)cc1O
REMARK SMILES IDX 1 1 2 2 10 3 9 4 5 5 4 6 3 7 11 8 6 10 7 11 8 12
REMARK H PARENT 11 9
REMARK Flexibility Score: inf
ROOT
ATOM      1  C   UNL     1      53.620  17.357  54.636  1.00  0.00     0.048 C 
ATOM      2  C   UNL     1      53.431  18.612  55.439  1.00  0.00    -0.009 A 
ATOM      3  C   UNL     1      52.679  19.680  54.919  1.00  0.00     0.118 A 
ATOM      4  C   UNL     1      52.507  20.849  55.673  1.00  0.00     0.050 A 
ATOM      5  C   UNL     1      53.081  20.968  56.953  1.00  0.00    -0.042 A 
ATOM      6  C   UNL     1      53.829  19.896  57.464  1.00  0.00     0.004 A 
ATOM      7  C   UNL     1      54.003  18.730  56.715  1.00  0.00     0.007 A 
ENDROOT
BRANCH   3   8
ATOM      8  O   UNL     1      52.105  19.576  53.651  1.00  0.00    -0.508 OA
ATOM      9  H   UNL     1      52.603  19.153  52.876  1.00  0.00     0.293 HD
ENDBRANCH   3   8
BRANCH   5  10
ATOM     10  C   UNL     1      52.900  22.229  57.778  1.00  0.00     0.013 C 
ATOM     11  C   UNL     1      52.115  21.941  59.063  1.00  0.00     0.012 C 
ATOM     12  C   UNL     1      54.252  22.882  58.093  1.00  0.00     0.012 C 
ENDBRANCH   5  10
TORSDOF 2
ENDMDL
MODEL 2
REMARK VINA RESULT:    -5.024      3.352      5.064
REMARK INTER + INTRA:          -5.592
REMARK INTER:                  -5.480
REMARK INTRA:                  -0.112
REMARK UNBOUND:                -0.128
REMARK SMILES Cc1ccc(C(C)C)cc1O
REMARK SMILES IDX 1 1 2 2 10 3 9 4 5 5 4 6 3 7 11 8 6 10 7 11 8 12
REMARK H PARENT 11 9
REMARK Flexibility Score: inf
ROOT
ATOM      1  C   UNL     1      54.340  23.057  58.056  1.00  0.00     0.048 C 
ATOM      2  C   UNL     1      53.870  21.728  58.575  1.00  0.00    -0.009 A 
ATOM      3  C   UNL     1      53.199  21.646  59.807  1.00  0.00     0.118 A 
ATOM      4  C   UNL     1      52.763  20.403  60.286  1.00  0.00     0.050 A 
ATOM      5  C   UNL     1      52.990  19.229  59.544  1.00  0.00    -0.042 A 
ATOM      6  C   UNL     1      53.660  19.322  58.314  1.00  0.00     0.004 A 
ATOM      7  C   UNL     1      54.096  20.558  57.835  1.00  0.00     0.007 A 
ENDROOT
BRANCH   3   8
ATOM      8  O   UNL     1      52.967  22.803  60.554  1.00  0.00    -0.508 OA
ATOM      9  H   UNL     1      52.323  23.518  60.238  1.00  0.00     0.293 HD
ENDBRANCH   3   8
BRANCH   5  10
ATOM     10  C   UNL     1      52.522  17.878  60.053  1.00  0.00     0.013 C 
ATOM     11  C   UNL     1      53.711  16.993  60.445  1.00  0.00     0.012 C 
ATOM     12  C   UNL     1      51.543  18.036  61.223  1.00  0.00     0.012 C 
ENDBRANCH   5  10
TORSDOF 2
ENDMDL
MODEL 3
REMARK VINA RESULT:    -4.970      5.616      7.684
REMARK INTER + INTRA:          -5.534
REMARK INTER:                  -5.406
REMARK INTRA:                  -0.127
REMARK UNBOUND:                -0.128
REMARK SMILES Cc1ccc(C(C)C)cc1O
REMARK SMILES IDX 1 1 2 2 10 3 9 4 5 5 4 6 3 7 11 8 6 10 7 11 8 12
REMARK H PARENT 11 9
REMARK Flexibility Score: inf
ROOT
ATOM      1  C   UNL     1      49.612  20.896  64.273  1.00  0.00     0.048 C 
ATOM      2  C   UNL     1      50.226  19.933  63.298  1.00  0.00    -0.009 A 
ATOM      3  C   UNL     1      49.642  18.672  63.083  1.00  0.00     0.118 A 
ATOM      4  C   UNL     1      50.221  17.778  62.173  1.00  0.00     0.050 A 
ATOM      5  C   UNL     1      51.387  18.128  61.466  1.00  0.00    -0.042 A 
ATOM      6  C   UNL     1      51.962  19.389  61.687  1.00  0.00     0.004 A 
ATOM      7  C   UNL     1      51.388  20.282  62.594  1.00  0.00     0.007 A 
ENDROOT
BRANCH   3   8
ATOM      8  O   UNL     1      48.486  18.312  63.777  1.00  0.00    -0.508 OA
ATOM      9  H   UNL     1      48.514  17.662  64.554  1.00  0.00     0.293 HD
ENDBRANCH   3   8
BRANCH   5  10
ATOM     10  C   UNL     1      52.022  17.167  60.477  1.00  0.00     0.013 C 
ATOM     11  C   UNL     1      52.762  17.924  59.368  1.00  0.00     0.012 C 
ATOM     12  C   UNL     1      52.955  16.179  61.187  1.00  0.00     0.012 C 
ENDBRANCH   5  10
TORSDOF 2
ENDMDL
MODEL 4
REMARK VINA RESULT:    -4.946      3.681      4.750
REMARK INTER + INTRA:          -5.507
REMARK INTER:                  -5.381
REMARK INTRA:                  -0.126
REMARK UNBOUND:                -0.128
REMARK SMILES Cc1ccc(C(C)C)cc1O
REMARK SMILES IDX 1 1 2 2 10 3 9 4 5 5 4 6 3 7 11 8 6 10 7 11 8 12
REMARK H PARENT 11 9
REMARK Flexibility Score: inf
ROOT
ATOM      1  C   UNL     1      53.314  15.534  61.588  1.00  0.00     0.048 C 
ATOM      2  C   UNL     1      53.314  16.576  60.507  1.00  0.00    -0.009 A 
ATOM      3  C   UNL     1      53.064  16.213  59.172  1.00  0.00     0.118 A 
ATOM      4  C   UNL     1      53.066  17.191  58.168  1.00  0.00     0.050 A 
ATOM      5  C   UNL     1      53.316  18.540  58.481  1.00  0.00    -0.042 A 
ATOM      6  C   UNL     1      53.564  18.893  59.817  1.00  0.00     0.004 A 
ATOM      7  C   UNL     1      53.563  17.921  60.819  1.00  0.00     0.007 A 
ENDROOT
BRANCH   3   8
ATOM      8  O   UNL     1      52.814  14.879  58.847  1.00  0.00    -0.508 OA
ATOM      9  H   UNL     1      53.511  14.305  58.386  1.00  0.00     0.293 HD
ENDBRANCH   3   8
BRANCH   5  10
ATOM     10  C   UNL     1      53.321  19.607  57.401  1.00  0.00     0.013 C 
ATOM     11  C   UNL     1      54.251  20.767  57.774  1.00  0.00     0.012 C 
ATOM     12  C   UNL     1      53.698  19.014  56.038  1.00  0.00     0.012 C 
ENDBRANCH   5  10
TORSDOF 2
ENDMDL
MODEL 5
REMARK VINA RESULT:    -4.927      5.042      7.028
REMARK INTER + INTRA:          -5.487
REMARK INTER:                  -5.377
REMARK INTRA:                  -0.110
REMARK UNBOUND:                -0.128
REMARK SMILES Cc1ccc(C(C)C)cc1O
REMARK SMILES IDX 1 1 2 2 10 3 9 4 5 5 4 6 3 7 11 8 6 10 7 11 8 12
REMARK H PARENT 11 9
REMARK Flexibility Score: inf
ROOT
ATOM      1  C   UNL     1      49.419  19.971  64.261  1.00  0.00     0.048 C 
ATOM      2  C   UNL     1      50.313  19.532  63.136  1.00  0.00    -0.009 A 
ATOM      3  C   UNL     1      51.235  20.430  62.570  1.00  0.00     0.118 A 
ATOM      4  C   UNL     1      52.065  20.014  61.521  1.00  0.00     0.050 A 
ATOM      5  C   UNL     1      51.988  18.700  61.023  1.00  0.00    -0.042 A 
ATOM      6  C   UNL     1      51.065  17.810  61.595  1.00  0.00     0.004 A 
ATOM      7  C   UNL     1      50.236  18.222  62.640  1.00  0.00     0.007 A 
ENDROOT
BRANCH   3   8
ATOM      8  O   UNL     1      51.322  21.737  63.054  1.00  0.00    -0.508 OA
ATOM      9  H   UNL     1      52.179  22.273  62.984  1.00  0.00     0.293 HD
ENDBRANCH   3   8
BRANCH   5  10
ATOM     10  C   UNL     1      52.883  18.238  59.887  1.00  0.00     0.013 C 
ATOM     11  C   UNL     1      53.470  19.433  59.126  1.00  0.00     0.012 C 
ATOM     12  C   UNL     1      53.993  17.311  60.399  1.00  0.00     0.012 C 
ENDBRANCH   5  10
TORSDOF 2
ENDMDL
MODEL 6
REMARK VINA RESULT:    -4.794      4.618      6.288
REMARK INTER + INTRA:          -5.342
REMARK INTER:                  -5.228
REMARK INTRA:                  -0.114
REMARK UNBOUND:                -0.128
REMARK SMILES Cc1ccc(C(C)C)cc1O
REMARK SMILES IDX 1 1 2 2 10 3 9 4 5 5 4 6 3 7 11 8 6 10 7 11 8 12
REMARK H PARENT 11 9
REMARK Flexibility Score: inf
ROOT
ATOM      1  C   UNL     1      49.301  18.575  63.344  1.00  0.00     0.048 C 
ATOM      2  C   UNL     1      50.427  18.599  62.350  1.00  0.00    -0.009 A 
ATOM      3  C   UNL     1      50.506  17.618  61.346  1.00  0.00     0.118 A 
ATOM      4  C   UNL     1      51.559  17.646  60.422  1.00  0.00     0.050 A 
ATOM      5  C   UNL     1      52.544  18.649  60.486  1.00  0.00    -0.042 A 
ATOM      6  C   UNL     1      52.456  19.624  61.492  1.00  0.00     0.004 A 
ATOM      7  C   UNL     1      51.408  19.599  62.415  1.00  0.00     0.007 A 
ENDROOT
BRANCH   3   8
ATOM      8  O   UNL     1      49.536  16.618  61.270  1.00  0.00    -0.508 OA
ATOM      9  H   UNL     1      49.489  15.870  61.953  1.00  0.00     0.293 HD
ENDBRANCH   3   8
BRANCH   5  10
ATOM     10  C   UNL     1      53.689  18.688  59.490  1.00  0.00     0.013 C 
ATOM     11  C   UNL     1      53.706  17.428  58.617  1.00  0.00     0.012 C 
ATOM     12  C   UNL     1      53.629  19.955  58.628  1.00  0.00     0.012 C 
ENDBRANCH   5  10
TORSDOF 2
ENDMDL
MODEL 7
REMARK VINA RESULT:    -4.766      4.756      5.956
REMARK INTER + INTRA:          -5.312
REMARK INTER:                  -5.184
REMARK INTRA:                  -0.128
REMARK UNBOUND:                -0.128
REMARK SMILES Cc1ccc(C(C)C)cc1O
REMARK SMILES IDX 1 1 2 2 10 3 9 4 5 5 4 6 3 7 11 8 6 10 7 11 8 12
REMARK H PARENT 11 9
REMARK Flexibility Score: inf
ROOT
ATOM      1  C   UNL     1      53.878  18.172  58.615  1.00  0.00     0.048 C 
ATOM      2  C   UNL     1      52.926  18.265  59.773  1.00  0.00    -0.009 A 
ATOM      3  C   UNL     1      52.258  17.118  60.236  1.00  0.00     0.118 A 
ATOM      4  C   UNL     1      51.371  17.213  61.317  1.00  0.00     0.050 A 
ATOM      5  C   UNL     1      51.139  18.449  61.949  1.00  0.00    -0.042 A 
ATOM      6  C   UNL     1      51.812  19.588  61.480  1.00  0.00     0.004 A 
ATOM      7  C   UNL     1      52.696  19.497  60.403  1.00  0.00     0.007 A 
ENDROOT
BRANCH   3   8
ATOM      8  O   UNL     1      52.479  15.886  59.619  1.00  0.00    -0.508 OA
ATOM      9  H   UNL     1      53.081  15.798  58.809  1.00  0.00     0.293 HD
ENDBRANCH   3   8
BRANCH   5  10
ATOM     10  C   UNL     1      50.181  18.562  63.121  1.00  0.00     0.013 C 
ATOM     11  C   UNL     1      50.203  19.974  63.719  1.00  0.00     0.012 C 
ATOM     12  C   UNL     1      48.759  18.158  62.713  1.00  0.00     0.012 C 
ENDBRANCH   5  10
TORSDOF 2
ENDMDL
MODEL 8
REMARK VINA RESULT:    -4.760      3.302      4.187
REMARK INTER + INTRA:          -5.305
REMARK INTER:                  -5.206
REMARK INTRA:                  -0.099
REMARK UNBOUND:                -0.128
REMARK SMILES Cc1ccc(C(C)C)cc1O
REMARK SMILES IDX 1 1 2 2 10 3 9 4 5 5 4 6 3 7 11 8 6 10 7 11 8 12
REMARK H PARENT 11 9
REMARK Flexibility Score: inf
ROOT
ATOM      1  C   UNL     1      53.096  17.043  60.906  1.00  0.00     0.048 C 
ATOM      2  C   UNL     1      53.198  18.286  60.068  1.00  0.00    -0.009 A 
ATOM      3  C   UNL     1      52.929  19.545  60.633  1.00  0.00     0.118 A 
ATOM      4  C   UNL     1      53.025  20.701  59.846  1.00  0.00     0.050 A 
ATOM      5  C   UNL     1      53.391  20.617  58.489  1.00  0.00    -0.042 A 
ATOM      6  C   UNL     1      53.658  19.355  57.935  1.00  0.00     0.004 A 
ATOM      7  C   UNL     1      53.563  18.202  58.716  1.00  0.00     0.007 A 
ENDROOT
BRANCH   3   8
ATOM      8  O   UNL     1      52.565  19.644  61.977  1.00  0.00    -0.508 OA
ATOM      9  H   UNL     1      51.696  20.080  62.261  1.00  0.00     0.293 HD
ENDBRANCH   3   8
BRANCH   5  10
ATOM     10  C   UNL     1      53.499  21.862  57.627  1.00  0.00     0.013 C 
ATOM     11  C   UNL     1      52.111  22.410  57.272  1.00  0.00     0.012 C 
ATOM     12  C   UNL     1      54.357  22.934  58.310  1.00  0.00     0.012 C 
ENDBRANCH   5  10
TORSDOF 2
ENDMDL
MODEL 9
REMARK VINA RESULT:    -4.710      4.161      4.849
REMARK INTER + INTRA:          -5.251
REMARK INTER:                  -5.123
REMARK INTRA:                  -0.127
REMARK UNBOUND:                -0.128
REMARK SMILES Cc1ccc(C(C)C)cc1O
REMARK SMILES IDX 1 1 2 2 10 3 9 4 5 5 4 6 3 7 11 8 6 10 7 11 8 12
REMARK H PARENT 11 9
REMARK Flexibility Score: inf
ROOT
ATOM      1  C   UNL     1      53.249  15.470  61.618  1.00  0.00     0.048 C 
ATOM      2  C   UNL     1      53.053  16.753  60.863  1.00  0.00    -0.009 A 
ATOM      3  C   UNL     1      51.764  17.291  60.702  1.00  0.00     0.118 A 
ATOM      4  C   UNL     1      51.589  18.489  59.996  1.00  0.00     0.050 A 
ATOM      5  C   UNL     1      52.693  19.165  59.444  1.00  0.00    -0.042 A 
ATOM      6  C   UNL     1      53.976  18.620  59.611  1.00  0.00     0.004 A 
ATOM      7  C   UNL     1      54.154  17.427  60.313  1.00  0.00     0.007 A 
ENDROOT
BRANCH   3   8
ATOM      8  O   UNL     1      50.660  16.632  61.244  1.00  0.00    -0.508 OA
ATOM      9  H   UNL     1      49.734  16.729  60.844  1.00  0.00     0.293 HD
ENDBRANCH   3   8
BRANCH   5  10
ATOM     10  C   UNL     1      52.514  20.463  58.678  1.00  0.00     0.013 C 
ATOM     11  C   UNL     1      52.147  21.616  59.620  1.00  0.00     0.012 C 
ATOM     12  C   UNL     1      53.766  20.799  57.858  1.00  0.00     0.012 C 
ENDBRANCH   5  10
TORSDOF 2
ENDMDL
