MODEL 1
REMARK VINA RESULT:    -4.851      0.000      0.000
REMARK INTER + INTRA:         -10.056
REMARK INTER:                  -8.822
REMARK INTRA:                  -1.235
REMARK UNBOUND:                -1.235
REMARK SMILES CCCCCC=CCC=CCCCCCCCC(=O)[O-]
REMARK SMILES IDX 11 1 12 2 13 3 14 4 15 5 16 6 17 7 18 8 19 9 20 10 10 11
REMARK SMILES IDX 9 12 8 13 7 14 6 15 5 16 4 17 3 18 2 19 1 20
REMARK H PARENT
REMARK Flexibility Score: inf
ROOT
ATOM      1  C   UNL     1       2.483   5.628   2.525  1.00  0.00     0.027 C 
ENDROOT
BRANCH   1   2
ATOM      2  C   UNL     1       0.959   5.795   2.587  1.00  0.00     0.004 C 
BRANCH   2   3
ATOM      3  C   UNL     1       0.530   7.189   3.074  1.00  0.00     0.000 C 
BRANCH   3   4
ATOM      4  C   UNL     1       1.415   7.798   4.176  1.00  0.00     0.000 C 
BRANCH   4   5
ATOM      5  C   UNL     1       0.629   8.154   5.449  1.00  0.00     0.000 C 
BRANCH   5   6
ATOM      6  C   UNL     1      -0.803   8.632   5.144  1.00  0.00     0.006 C 
BRANCH   6   7
ATOM      7  C   UNL     1      -1.827   8.271   6.234  1.00  0.00     0.053 C 
BRANCH   7   8
ATOM      8  C   UNL     1      -3.069   9.105   6.131  1.00  0.00     0.041 C 
ATOM      9  O   UNL     1      -3.545   9.401   5.003  1.00  0.00    -0.550 OA
ATOM     10  O   UNL     1      -3.684   9.579   7.284  1.00  0.00    -0.550 OA
ENDBRANCH   7   8
ENDBRANCH   6   7
ENDBRANCH   5   6
ENDBRANCH   4   5
ENDBRANCH   3   4
ENDBRANCH   2   3
ENDBRANCH   1   2
BRANCH   1  11
ATOM     11  C   UNL     1       2.913   5.150   1.167  1.00  0.00    -0.031 C 
ATOM     12  C   UNL     1       2.055   5.111   0.136  1.00  0.00    -0.027 C 
BRANCH  12  13
ATOM     13  C   UNL     1       2.476   4.632  -1.227  1.00  0.00     0.054 C 
BRANCH  13  14
ATOM     14  C   UNL     1       2.345   5.742  -2.238  1.00  0.00    -0.027 C 
ATOM     15  C   UNL     1       3.294   6.666  -2.477  1.00  0.00    -0.031 C 
BRANCH  15  16
ATOM     16  C   UNL     1       4.622   6.701  -1.754  1.00  0.00     0.027 C 
BRANCH  16  17
ATOM     17  C   UNL     1       5.820   6.575  -2.713  1.00  0.00     0.004 C 
BRANCH  17  18
ATOM     18  C   UNL     1       6.227   5.124  -3.046  1.00  0.00     0.000 C 
BRANCH  18  19
ATOM     19  C   UNL     1       6.417   4.204  -1.829  1.00  0.00    -0.003 C 
ATOM     20  C   UNL     1       7.882   3.866  -1.554  1.00  0.00     0.004 C 
ENDBRANCH  18  19
ENDBRANCH  17  18
ENDBRANCH  16  17
ENDBRANCH  15  16
ENDBRANCH  13  14
ENDBRANCH  12  13
ENDBRANCH   1  11
TORSDOF 14
ENDMDL
MODEL 2
REMARK VINA RESULT:    -4.846      5.088      8.677
REMARK INTER + INTRA:         -10.046
REMARK INTER:                  -7.465
REMARK INTRA:                  -2.581
REMARK UNBOUND:                -1.235
REMARK SMILES CCCCCC=CCC=CCCCCCCCC(=O)[O-]
REMARK SMILES IDX 11 1 12 2 13 3 14 4 15 5 16 6 17 7 18 8 19 9 20 10 10 11
REMARK SMILES IDX 9 12 8 13 7 14 6 15 5 16 4 17 3 18 2 19 1 20
REMARK H PARENT
REMARK Flexibility Score: inf
ROOT
ATOM      1  C   UNL     1       0.192   4.561   2.648  1.00  0.00     0.027 C 
ENDROOT
BRANCH   1   2
ATOM      2  C   UNL     1       1.247   3.453   2.531  1.00  0.00     0.004 C 
BRANCH   2   3
ATOM      3  C   UNL     1       2.672   4.002   2.351  1.00  0.00     0.000 C 
BRANCH   3   4
ATOM      4  C   UNL     1       3.684   3.555   3.421  1.00  0.00     0.000 C 
BRANCH   4   5
ATOM      5  C   UNL     1       3.977   4.646   4.465  1.00  0.00     0.000 C 
BRANCH   5   6
ATOM      6  C   UNL     1       3.476   4.266   5.871  1.00  0.00     0.006 C 
BRANCH   6   7
ATOM      7  C   UNL     1       4.320   3.180   6.561  1.00  0.00     0.053 C 
BRANCH   7   8
ATOM      8  C   UNL     1       5.758   3.588   6.688  1.00  0.00     0.041 C 
ATOM      9  O   UNL     1       6.085   4.541   7.445  1.00  0.00    -0.550 OA
ATOM     10  O   UNL     1       6.733   2.931   5.947  1.00  0.00    -0.550 OA
ENDBRANCH   7   8
ENDBRANCH   6   7
ENDBRANCH   5   6
ENDBRANCH   4   5
ENDBRANCH   3   4
ENDBRANCH   2   3
ENDBRANCH   1   2
BRANCH   1  11
ATOM     11  C   UNL     1       0.619   5.603   3.642  1.00  0.00    -0.031 C 
ATOM     12  C   UNL     1       0.742   6.893   3.295  1.00  0.00    -0.027 C 
BRANCH  12  13
ATOM     13  C   UNL     1       1.172   7.943   4.283  1.00  0.00     0.054 C 
BRANCH  13  14
ATOM     14  C   UNL     1       1.380   7.330   5.644  1.00  0.00    -0.027 C 
ATOM     15  C   UNL     1       0.829   7.798   6.778  1.00  0.00    -0.031 C 
BRANCH  15  16
ATOM     16  C   UNL     1      -0.079   9.006   6.826  1.00  0.00     0.027 C 
BRANCH  16  17
ATOM     17  C   UNL     1      -1.567   8.624   6.915  1.00  0.00     0.004 C 
BRANCH  17  18
ATOM     18  C   UNL     1      -2.263   8.432   5.551  1.00  0.00     0.000 C 
BRANCH  18  19
ATOM     19  C   UNL     1      -2.511   6.970   5.144  1.00  0.00    -0.003 C 
ATOM     20  C   UNL     1      -2.296   5.982   6.291  1.00  0.00     0.004 C 
ENDBRANCH  18  19
ENDBRANCH  17  18
ENDBRANCH  16  17
ENDBRANCH  15  16
ENDBRANCH  13  14
ENDBRANCH  12  13
ENDBRANCH   1  11
TORSDOF 14
ENDMDL
MODEL 3
REMARK VINA RESULT:    -4.816      4.353      5.590
REMARK INTER + INTRA:          -9.993
REMARK INTER:                  -8.513
REMARK INTRA:                  -1.479
REMARK UNBOUND:                -1.235
REMARK SMILES CCCCCC=CCC=CCCCCCCCC(=O)[O-]
REMARK SMILES IDX 11 1 12 2 13 3 14 4 15 5 16 6 17 7 18 8 19 9 20 10 10 11
REMARK SMILES IDX 9 12 8 13 7 14 6 15 5 16 4 17 3 18 2 19 1 20
REMARK H PARENT
REMARK Flexibility Score: inf
ROOT
ATOM      1  C   UNL     1       1.076   7.894   4.343  1.00  0.00     0.027 C 
ENDROOT
BRANCH   1   2
ATOM      2  C   UNL     1       1.064   7.530   5.833  1.00  0.00     0.004 C 
BRANCH   2   3
ATOM      3  C   UNL     1       0.661   6.068   6.088  1.00  0.00     0.000 C 
BRANCH   3   4
ATOM      4  C   UNL     1       1.516   5.327   7.131  1.00  0.00     0.000 C 
BRANCH   4   5
ATOM      5  C   UNL     1       3.008   5.277   6.760  1.00  0.00     0.000 C 
BRANCH   5   6
ATOM      6  C   UNL     1       3.372   4.022   5.946  1.00  0.00     0.006 C 
BRANCH   6   7
ATOM      7  C   UNL     1       4.800   4.042   5.374  1.00  0.00     0.053 C 
BRANCH   7   8
ATOM      8  C   UNL     1       5.806   3.544   6.368  1.00  0.00     0.041 C 
ATOM      9  O   UNL     1       6.224   2.357   6.311  1.00  0.00    -0.550 OA
ATOM     10  O   UNL     1       6.260   4.387   7.376  1.00  0.00    -0.550 OA
ENDBRANCH   7   8
ENDBRANCH   6   7
ENDBRANCH   5   6
ENDBRANCH   4   5
ENDBRANCH   3   4
ENDBRANCH   2   3
ENDBRANCH   1   2
BRANCH   1  11
ATOM     11  C   UNL     1       1.392   6.690   3.502  1.00  0.00    -0.031 C 
ATOM     12  C   UNL     1       2.653   6.387   3.160  1.00  0.00    -0.027 C 
BRANCH  12  13
ATOM     13  C   UNL     1       2.979   5.184   2.316  1.00  0.00     0.054 C 
BRANCH  13  14
ATOM     14  C   UNL     1       2.013   5.072   1.165  1.00  0.00    -0.027 C 
ATOM     15  C   UNL     1       2.341   5.280  -0.123  1.00  0.00    -0.031 C 
BRANCH  15  16
ATOM     16  C   UNL     1       3.734   5.652  -0.578  1.00  0.00     0.027 C 
BRANCH  16  17
ATOM     17  C   UNL     1       3.895   5.585  -2.107  1.00  0.00     0.004 C 
BRANCH  17  18
ATOM     18  C   UNL     1       5.256   5.037  -2.587  1.00  0.00     0.000 C 
BRANCH  18  19
ATOM     19  C   UNL     1       6.321   6.105  -2.884  1.00  0.00    -0.003 C 
ATOM     20  C   UNL     1       7.575   5.535  -3.546  1.00  0.00     0.004 C 
ENDBRANCH  18  19
ENDBRANCH  17  18
ENDBRANCH  16  17
ENDBRANCH  15  16
ENDBRANCH  13  14
ENDBRANCH  12  13
ENDBRANCH   1  11
TORSDOF 14
ENDMDL
MODEL 4
REMARK VINA RESULT:    -4.804     13.253     15.624
REMARK INTER + INTRA:          -9.971
REMARK INTER:                  -8.138
REMARK INTRA:                  -1.833
REMARK UNBOUND:                -1.235
REMARK SMILES CCCCCC=CCC=CCCCCCCCC(=O)[O-]
REMARK SMILES IDX 11 1 12 2 13 3 14 4 15 5 16 6 17 7 18 8 19 9 20 10 10 11
REMARK SMILES IDX 9 12 8 13 7 14 6 15 5 16 4 17 3 18 2 19 1 20
REMARK H PARENT
REMARK Flexibility Score: inf
ROOT
ATOM      1  C   UNL     1      -0.849  -5.145   1.507  1.00  0.00     0.027 C 
ENDROOT
BRANCH   1   2
ATOM      2  C   UNL     1      -2.324  -4.736   1.606  1.00  0.00     0.004 C 
BRANCH   2   3
ATOM      3  C   UNL     1      -3.074  -4.873   0.270  1.00  0.00     0.000 C 
BRANCH   3   4
ATOM      4  C   UNL     1      -2.187  -5.188  -0.947  1.00  0.00     0.000 C 
BRANCH   4   5
ATOM      5  C   UNL     1      -2.922  -5.991  -2.034  1.00  0.00     0.000 C 
BRANCH   5   6
ATOM      6  C   UNL     1      -4.357  -6.366  -1.622  1.00  0.00     0.006 C 
BRANCH   6   7
ATOM      7  C   UNL     1      -5.286  -6.679  -2.808  1.00  0.00     0.053 C 
BRANCH   7   8
ATOM      8  C   UNL     1      -6.446  -5.731  -2.872  1.00  0.00     0.041 C 
ATOM      9  O   UNL     1      -7.292  -5.822  -3.802  1.00  0.00    -0.550 OA
ATOM     10  O   UNL     1      -6.577  -4.730  -1.917  1.00  0.00    -0.550 OA
ENDBRANCH   7   8
ENDBRANCH   6   7
ENDBRANCH   5   6
ENDBRANCH   4   5
ENDBRANCH   3   4
ENDBRANCH   2   3
ENDBRANCH   1   2
BRANCH   1  11
ATOM     11  C   UNL     1      -0.549  -6.294   2.427  1.00  0.00    -0.031 C 
ATOM     12  C   UNL     1      -1.494  -6.816   3.224  1.00  0.00    -0.027 C 
BRANCH  12  13
ATOM     13  C   UNL     1      -1.204  -7.965   4.151  1.00  0.00     0.054 C 
BRANCH  13  14
ATOM     14  C   UNL     1       0.256  -7.982   4.527  1.00  0.00    -0.027 C 
ATOM     15  C   UNL     1       0.715  -8.175   5.776  1.00  0.00    -0.031 C 
BRANCH  15  16
ATOM     16  C   UNL     1      -0.187  -8.405   6.968  1.00  0.00     0.027 C 
BRANCH  16  17
ATOM     17  C   UNL     1      -0.525  -7.101   7.713  1.00  0.00     0.004 C 
BRANCH  17  18
ATOM     18  C   UNL     1      -1.922  -6.525   7.400  1.00  0.00     0.000 C 
BRANCH  18  19
ATOM     19  C   UNL     1      -1.925  -5.112   6.796  1.00  0.00    -0.003 C 
ATOM     20  C   UNL     1      -0.565  -4.693   6.239  1.00  0.00     0.004 C 
ENDBRANCH  18  19
ENDBRANCH  17  18
ENDBRANCH  16  17
ENDBRANCH  15  16
ENDBRANCH  13  14
ENDBRANCH  12  13
ENDBRANCH   1  11
TORSDOF 14
ENDMDL
MODEL 5
REMARK VINA RESULT:    -4.766     12.418     14.647
REMARK INTER + INTRA:          -9.902
REMARK INTER:                  -7.615
REMARK INTRA:                  -2.286
REMARK UNBOUND:                -1.235
REMARK SMILES CCCCCC=CCC=CCCCCCCCC(=O)[O-]
REMARK SMILES IDX 11 1 12 2 13 3 14 4 15 5 16 6 17 7 18 8 19 9 20 10 10 11
REMARK SMILES IDX 9 12 8 13 7 14 6 15 5 16 4 17 3 18 2 19 1 20
REMARK H PARENT
REMARK Flexibility Score: inf
ROOT
ATOM      1  C   UNL     1      -1.979  -3.683   0.142  1.00  0.00     0.027 C 
ENDROOT
BRANCH   1   2
ATOM      2  C   UNL     1      -1.131  -4.765  -0.540  1.00  0.00     0.004 C 
BRANCH   2   3
ATOM      3  C   UNL     1      -1.176  -4.680  -2.075  1.00  0.00     0.000 C 
BRANCH   3   4
ATOM      4  C   UNL     1      -2.528  -5.051  -2.711  1.00  0.00     0.000 C 
BRANCH   4   5
ATOM      5  C   UNL     1      -2.960  -6.495  -2.404  1.00  0.00     0.000 C 
BRANCH   5   6
ATOM      6  C   UNL     1      -4.330  -6.565  -1.705  1.00  0.00     0.006 C 
BRANCH   6   7
ATOM      7  C   UNL     1      -5.161  -5.276  -1.832  1.00  0.00     0.053 C 
BRANCH   7   8
ATOM      8  C   UNL     1      -6.336  -5.459  -2.745  1.00  0.00     0.041 C 
ATOM      9  O   UNL     1      -6.645  -6.606  -3.165  1.00  0.00    -0.550 OA
ATOM     10  O   UNL     1      -7.074  -4.354  -3.154  1.00  0.00    -0.550 OA
ENDBRANCH   7   8
ENDBRANCH   6   7
ENDBRANCH   5   6
ENDBRANCH   4   5
ENDBRANCH   3   4
ENDBRANCH   2   3
ENDBRANCH   1   2
BRANCH   1  11
ATOM     11  C   UNL     1      -2.686  -4.239   1.345  1.00  0.00    -0.031 C 
ATOM     12  C   UNL     1      -2.394  -5.456   1.828  1.00  0.00    -0.027 C 
BRANCH  12  13
ATOM     13  C   UNL     1      -3.098  -6.022   3.031  1.00  0.00     0.054 C 
BRANCH  13  14
ATOM     14  C   UNL     1      -3.688  -4.914   3.865  1.00  0.00    -0.027 C 
ATOM     15  C   UNL     1      -3.279  -4.601   5.108  1.00  0.00    -0.031 C 
BRANCH  15  16
ATOM     16  C   UNL     1      -2.165  -5.327   5.825  1.00  0.00     0.027 C 
BRANCH  16  17
ATOM     17  C   UNL     1      -0.871  -4.496   5.902  1.00  0.00     0.004 C 
BRANCH  17  18
ATOM     18  C   UNL     1      -0.067  -4.436   4.586  1.00  0.00     0.000 C 
BRANCH  18  19
ATOM     19  C   UNL     1       1.010  -5.522   4.429  1.00  0.00    -0.003 C 
ATOM     20  C   UNL     1       0.537  -6.724   3.612  1.00  0.00     0.004 C 
ENDBRANCH  18  19
ENDBRANCH  17  18
ENDBRANCH  16  17
ENDBRANCH  15  16
ENDBRANCH  13  14
ENDBRANCH  12  13
ENDBRANCH   1  11
TORSDOF 14
ENDMDL
MODEL 6
REMARK VINA RESULT:    -4.760     12.732     15.352
REMARK INTER + INTRA:          -9.890
REMARK INTER:                  -8.220
REMARK INTRA:                  -1.669
REMARK UNBOUND:                -1.235
REMARK SMILES CCCCCC=CCC=CCCCCCCCC(=O)[O-]
REMARK SMILES IDX 11 1 12 2 13 3 14 4 15 5 16 6 17 7 18 8 19 9 20 10 10 11
REMARK SMILES IDX 9 12 8 13 7 14 6 15 5 16 4 17 3 18 2 19 1 20
REMARK H PARENT
REMARK Flexibility Score: inf
ROOT
ATOM      1  C   UNL     1      -1.144  -4.507  -0.017  1.00  0.00     0.027 C 
ENDROOT
BRANCH   1   2
ATOM      2  C   UNL     1      -2.379  -4.384  -0.919  1.00  0.00     0.004 C 
BRANCH   2   3
ATOM      3  C   UNL     1      -2.209  -5.104  -2.267  1.00  0.00     0.000 C 
BRANCH   3   4
ATOM      4  C   UNL     1      -2.919  -6.465  -2.376  1.00  0.00     0.000 C 
BRANCH   4   5
ATOM      5  C   UNL     1      -4.330  -6.457  -1.763  1.00  0.00     0.000 C 
BRANCH   5   6
ATOM      6  C   UNL     1      -5.434  -6.317  -2.826  1.00  0.00     0.006 C 
BRANCH   6   7
ATOM      7  C   UNL     1      -6.402  -5.148  -2.571  1.00  0.00     0.053 C 
BRANCH   7   8
ATOM      8  C   UNL     1      -7.658  -5.277  -3.380  1.00  0.00     0.041 C 
ATOM      9  O   UNL     1      -7.667  -5.962  -4.438  1.00  0.00    -0.550 OA
ATOM     10  O   UNL     1      -8.812  -4.616  -2.978  1.00  0.00    -0.550 OA
ENDBRANCH   7   8
ENDBRANCH   6   7
ENDBRANCH   5   6
ENDBRANCH   4   5
ENDBRANCH   3   4
ENDBRANCH   2   3
ENDBRANCH   1   2
BRANCH   1  11
ATOM     11  C   UNL     1      -1.455  -5.323   1.205  1.00  0.00    -0.031 C 
ATOM     12  C   UNL     1      -2.651  -5.251   1.809  1.00  0.00    -0.027 C 
BRANCH  12  13
ATOM     13  C   UNL     1      -2.971  -6.063   3.035  1.00  0.00     0.054 C 
BRANCH  13  14
ATOM     14  C   UNL     1      -1.737  -6.767   3.536  1.00  0.00    -0.027 C 
ATOM     15  C   UNL     1      -1.294  -6.710   4.806  1.00  0.00    -0.031 C 
BRANCH  15  16
ATOM     16  C   UNL     1      -1.990  -5.927   5.895  1.00  0.00     0.027 C 
BRANCH  16  17
ATOM     17  C   UNL     1      -1.596  -4.438   5.897  1.00  0.00     0.004 C 
BRANCH  17  18
ATOM     18  C   UNL     1      -2.773  -3.462   5.690  1.00  0.00     0.000 C 
BRANCH  18  19
ATOM     19  C   UNL     1      -4.154  -4.012   6.081  1.00  0.00    -0.003 C 
ATOM     20  C   UNL     1      -5.194  -3.872   4.970  1.00  0.00     0.004 C 
ENDBRANCH  18  19
ENDBRANCH  17  18
ENDBRANCH  16  17
ENDBRANCH  15  16
ENDBRANCH  13  14
ENDBRANCH  12  13
ENDBRANCH   1  11
TORSDOF 14
ENDMDL
MODEL 7
REMARK VINA RESULT:    -4.759     12.978     14.773
REMARK INTER + INTRA:          -9.890
REMARK INTER:                  -8.222
REMARK INTRA:                  -1.668
REMARK UNBOUND:                -1.235
REMARK SMILES CCCCCC=CCC=CCCCCCCCC(=O)[O-]
REMARK SMILES IDX 11 1 12 2 13 3 14 4 15 5 16 6 17 7 18 8 19 9 20 10 10 11
REMARK SMILES IDX 9 12 8 13 7 14 6 15 5 16 4 17 3 18 2 19 1 20
REMARK H PARENT
REMARK Flexibility Score: inf
ROOT
ATOM      1  C   UNL     1      -3.229  -3.569   2.074  1.00  0.00     0.027 C 
ENDROOT
BRANCH   1   2
ATOM      2  C   UNL     1      -3.353  -4.441   3.330  1.00  0.00     0.004 C 
BRANCH   2   3
ATOM      3  C   UNL     1      -3.104  -5.932   3.050  1.00  0.00     0.000 C 
BRANCH   3   4
ATOM      4  C   UNL     1      -1.922  -6.553   3.815  1.00  0.00     0.000 C 
BRANCH   4   5
ATOM      5  C   UNL     1      -0.555  -6.147   3.242  1.00  0.00     0.000 C 
BRANCH   5   6
ATOM      6  C   UNL     1       0.612  -6.899   3.908  1.00  0.00     0.006 C 
BRANCH   6   7
ATOM      7  C   UNL     1       0.245  -7.557   5.250  1.00  0.00     0.053 C 
BRANCH   7   8
ATOM      8  C   UNL     1       1.376  -8.375   5.797  1.00  0.00     0.041 C 
ATOM      9  O   UNL     1       1.438  -8.634   7.029  1.00  0.00    -0.550 OA
ATOM     10  O   UNL     1       2.377  -8.830   4.947  1.00  0.00    -0.550 OA
ENDBRANCH   7   8
ENDBRANCH   6   7
ENDBRANCH   5   6
ENDBRANCH   4   5
ENDBRANCH   3   4
ENDBRANCH   2   3
ENDBRANCH   1   2
BRANCH   1  11
ATOM     11  C   UNL     1      -2.778  -4.389   0.898  1.00  0.00    -0.031 C 
ATOM     12  C   UNL     1      -1.643  -4.105   0.241  1.00  0.00    -0.027 C 
BRANCH  12  13
ATOM     13  C   UNL     1      -1.185  -4.918  -0.939  1.00  0.00     0.054 C 
BRANCH  13  14
ATOM     14  C   UNL     1      -1.839  -4.424  -2.204  1.00  0.00    -0.027 C 
ATOM     15  C   UNL     1      -2.744  -5.124  -2.913  1.00  0.00    -0.031 C 
BRANCH  15  16
ATOM     16  C   UNL     1      -3.221  -6.503  -2.521  1.00  0.00     0.027 C 
BRANCH  16  17
ATOM     17  C   UNL     1      -4.538  -6.469  -1.724  1.00  0.00     0.004 C 
BRANCH  17  18
ATOM     18  C   UNL     1      -5.813  -6.601  -2.584  1.00  0.00     0.000 C 
BRANCH  18  19
ATOM     19  C   UNL     1      -6.768  -5.398  -2.524  1.00  0.00    -0.003 C 
ATOM     20  C   UNL     1      -6.146  -4.169  -1.862  1.00  0.00     0.004 C 
ENDBRANCH  18  19
ENDBRANCH  17  18
ENDBRANCH  16  17
ENDBRANCH  15  16
ENDBRANCH  13  14
ENDBRANCH  12  13
ENDBRANCH   1  11
TORSDOF 14
ENDMDL
MODEL 8
REMARK VINA RESULT:    -4.741     12.591     13.929
REMARK INTER + INTRA:          -9.856
REMARK INTER:                  -8.374
REMARK INTRA:                  -1.482
REMARK UNBOUND:                -1.235
REMARK SMILES CCCCCC=CCC=CCCCCCCCC(=O)[O-]
REMARK SMILES IDX 11 1 12 2 13 3 14 4 15 5 16 6 17 7 18 8 19 9 20 10 10 11
REMARK SMILES IDX 9 12 8 13 7 14 6 15 5 16 4 17 3 18 2 19 1 20
REMARK H PARENT
REMARK Flexibility Score: inf
ROOT
ATOM      1  C   UNL     1      -0.165  -6.530   3.906  1.00  0.00     0.027 C 
ENDROOT
BRANCH   1   2
ATOM      2  C   UNL     1      -1.034  -7.507   4.709  1.00  0.00     0.004 C 
BRANCH   2   3
ATOM      3  C   UNL     1      -1.171  -7.106   6.188  1.00  0.00     0.000 C 
BRANCH   3   4
ATOM      4  C   UNL     1      -1.459  -5.616   6.437  1.00  0.00     0.000 C 
BRANCH   4   5
ATOM      5  C   UNL     1      -2.953  -5.321   6.657  1.00  0.00     0.000 C 
BRANCH   5   6
ATOM      6  C   UNL     1      -3.368  -3.942   6.111  1.00  0.00     0.006 C 
BRANCH   6   7
ATOM      7  C   UNL     1      -4.473  -4.003   5.041  1.00  0.00     0.053 C 
BRANCH   7   8
ATOM      8  C   UNL     1      -5.828  -3.730   5.624  1.00  0.00     0.041 C 
ATOM      9  O   UNL     1      -6.793  -3.421   4.875  1.00  0.00    -0.550 OA
ATOM     10  O   UNL     1      -6.016  -3.793   6.999  1.00  0.00    -0.550 OA
ENDBRANCH   7   8
ENDBRANCH   6   7
ENDBRANCH   5   6
ENDBRANCH   4   5
ENDBRANCH   3   4
ENDBRANCH   2   3
ENDBRANCH   1   2
BRANCH   1  11
ATOM     11  C   UNL     1      -0.925  -5.980   2.733  1.00  0.00    -0.031 C 
ATOM     12  C   UNL     1      -2.255  -5.811   2.778  1.00  0.00    -0.027 C 
BRANCH  12  13
ATOM     13  C   UNL     1      -3.026  -5.263   1.608  1.00  0.00     0.054 C 
BRANCH  13  14
ATOM     14  C   UNL     1      -2.099  -4.982   0.453  1.00  0.00    -0.027 C 
ATOM     15  C   UNL     1      -2.495  -4.874  -0.828  1.00  0.00    -0.031 C 
BRANCH  15  16
ATOM     16  C   UNL     1      -3.934  -5.020  -1.269  1.00  0.00     0.027 C 
BRANCH  16  17
ATOM     17  C   UNL     1      -4.237  -6.414  -1.847  1.00  0.00     0.004 C 
BRANCH  17  18
ATOM     18  C   UNL     1      -5.673  -6.589  -2.383  1.00  0.00     0.000 C 
BRANCH  18  19
ATOM     19  C   UNL     1      -6.450  -5.282  -2.609  1.00  0.00    -0.003 C 
ATOM     20  C   UNL     1      -7.451  -5.368  -3.761  1.00  0.00     0.004 C 
ENDBRANCH  18  19
ENDBRANCH  17  18
ENDBRANCH  16  17
ENDBRANCH  15  16
ENDBRANCH  13  14
ENDBRANCH  12  13
ENDBRANCH   1  11
TORSDOF 14
ENDMDL
MODEL 9
REMARK VINA RESULT:    -4.692      1.398      2.384
REMARK INTER + INTRA:          -9.767
REMARK INTER:                  -7.747
REMARK INTRA:                  -2.020
REMARK UNBOUND:                -1.235
REMARK SMILES CCCCCC=CCC=CCCCCCCCC(=O)[O-]
REMARK SMILES IDX 11 1 12 2 13 3 14 4 15 5 16 6 17 7 18 8 19 9 20 10 10 11
REMARK SMILES IDX 9 12 8 13 7 14 6 15 5 16 4 17 3 18 2 19 1 20
REMARK H PARENT
REMARK Flexibility Score: inf
ROOT
ATOM      1  C   UNL     1       0.839   4.444   0.724  1.00  0.00     0.027 C 
ENDROOT
BRANCH   1   2
ATOM      2  C   UNL     1       1.669   4.328   2.010  1.00  0.00     0.004 C 
BRANCH   2   3
ATOM      3  C   UNL     1       2.827   5.338   2.067  1.00  0.00     0.000 C 
BRANCH   3   4
ATOM      4  C   UNL     1       2.839   6.249   3.308  1.00  0.00     0.000 C 
BRANCH   4   5
ATOM      5  C   UNL     1       1.562   7.096   3.444  1.00  0.00     0.000 C 
BRANCH   5   6
ATOM      6  C   UNL     1       1.135   7.286   4.911  1.00  0.00     0.006 C 
BRANCH   6   7
ATOM      7  C   UNL     1       0.374   8.598   5.174  1.00  0.00     0.053 C 
BRANCH   7   8
ATOM      8  C   UNL     1      -1.096   8.364   5.353  1.00  0.00     0.041 C 
ATOM      9  O   UNL     1      -1.733   8.972   6.254  1.00  0.00    -0.550 OA
ATOM     10  O   UNL     1      -1.757   7.451   4.539  1.00  0.00    -0.550 OA
ENDBRANCH   7   8
ENDBRANCH   6   7
ENDBRANCH   5   6
ENDBRANCH   4   5
ENDBRANCH   3   4
ENDBRANCH   2   3
ENDBRANCH   1   2
BRANCH   1  11
ATOM     11  C   UNL     1       1.570   5.249  -0.312  1.00  0.00    -0.031 C 
ATOM     12  C   UNL     1       1.569   4.892  -1.605  1.00  0.00    -0.027 C 
BRANCH  12  13
ATOM     13  C   UNL     1       2.300   5.691  -2.650  1.00  0.00     0.054 C 
BRANCH  13  14
ATOM     14  C   UNL     1       3.192   6.717  -1.999  1.00  0.00    -0.027 C 
ATOM     15  C   UNL     1       4.535   6.715  -2.080  1.00  0.00    -0.031 C 
BRANCH  15  16
ATOM     16  C   UNL     1       5.321   5.675  -2.845  1.00  0.00     0.027 C 
BRANCH  16  17
ATOM     17  C   UNL     1       6.340   4.935  -1.960  1.00  0.00     0.004 C 
BRANCH  17  18
ATOM     18  C   UNL     1       6.101   3.415  -1.838  1.00  0.00     0.000 C 
BRANCH  18  19
ATOM     19  C   UNL     1       4.652   3.004  -1.531  1.00  0.00    -0.003 C 
ATOM     20  C   UNL     1       4.416   2.695  -0.052  1.00  0.00     0.004 C 
ENDBRANCH  18  19
ENDBRANCH  17  18
ENDBRANCH  16  17
ENDBRANCH  15  16
ENDBRANCH  13  14
ENDBRANCH  12  13
ENDBRANCH   1  11
TORSDOF 14
ENDMDL
