MODEL 1
REMARK VINA RESULT:    -3.817      0.000      0.000
REMARK INTER + INTRA:          -7.908
REMARK INTER:                  -6.495
REMARK INTRA:                  -1.414
REMARK UNBOUND:                -1.414
REMARK SMILES CCCCCCCCCCCCCC(=O)[O-]
REMARK SMILES IDX 8 1 9 2 10 3 11 4 12 5 13 6 14 7 15 8 16 9 7 10 6 11 5 12
REMARK SMILES IDX 4 13 3 14 2 15 1 16
REMARK H PARENT
REMARK Flexibility Score: inf
ROOT
ATOM      1  C   UNL     1      25.659  32.889  36.660  1.00  0.00     0.000 C 
ENDROOT
BRANCH   1   2
ATOM      2  C   UNL     1      26.942  32.162  36.239  1.00  0.00     0.000 C 
BRANCH   2   3
ATOM      3  C   UNL     1      28.177  32.811  36.874  1.00  0.00     0.000 C 
BRANCH   3   4
ATOM      4  C   UNL     1      29.310  32.957  35.851  1.00  0.00     0.000 C 
BRANCH   4   5
ATOM      5  C   UNL     1      29.184  31.907  34.737  1.00  0.00     0.006 C 
BRANCH   5   6
ATOM      6  C   UNL     1      30.543  31.320  34.336  1.00  0.00     0.053 C 
BRANCH   6   7
ATOM      7  C   UNL     1      30.437  30.452  33.119  1.00  0.00     0.041 C 
ATOM      8  O   UNL     1      30.767  30.900  31.989  1.00  0.00    -0.550 OA
ATOM      9  O   UNL     1      30.005  29.137  33.238  1.00  0.00    -0.550 OA
ENDBRANCH   6   7
ENDBRANCH   5   6
ENDBRANCH   4   5
ENDBRANCH   3   4
ENDBRANCH   2   3
ENDBRANCH   1   2
BRANCH   1  10
ATOM     10  C   UNL     1      25.010  33.598  35.462  1.00  0.00     0.000 C 
BRANCH  10  11
ATOM     11  C   UNL     1      25.975  33.776  34.275  1.00  0.00    -0.000 C 
BRANCH  11  12
ATOM     12  C   UNL     1      26.590  35.181  34.138  1.00  0.00    -0.000 C 
BRANCH  12  13
ATOM     13  C   UNL     1      27.353  35.374  32.815  1.00  0.00    -0.000 C 
BRANCH  13  14
ATOM     14  C   UNL     1      27.562  34.052  32.058  1.00  0.00    -0.000 C 
BRANCH  14  15
ATOM     15  C   UNL     1      27.162  34.147  30.578  1.00  0.00    -0.003 C 
ATOM     16  C   UNL     1      25.646  34.068  30.414  1.00  0.00     0.004 C 
ENDBRANCH  14  15
ENDBRANCH  13  14
ENDBRANCH  12  13
ENDBRANCH  11  12
ENDBRANCH  10  11
ENDBRANCH   1  10
TORSDOF 12
ENDMDL
MODEL 2
REMARK VINA RESULT:    -3.803      2.384      4.754
REMARK INTER + INTRA:          -7.884
REMARK INTER:                  -6.437
REMARK INTRA:                  -1.448
REMARK UNBOUND:                -1.414
REMARK SMILES CCCCCCCCCCCCCC(=O)[O-]
REMARK SMILES IDX 8 1 9 2 10 3 11 4 12 5 13 6 14 7 15 8 16 9 7 10 6 11 5 12
REMARK SMILES IDX 4 13 3 14 2 15 1 16
REMARK H PARENT
REMARK Flexibility Score: inf
ROOT
ATOM      1  C   UNL     1      25.466  34.060  35.582  1.00  0.00     0.000 C 
ENDROOT
BRANCH   1   2
ATOM      2  C   UNL     1      26.307  34.018  34.301  1.00  0.00     0.000 C 
BRANCH   2   3
ATOM      3  C   UNL     1      26.671  35.433  33.834  1.00  0.00     0.000 C 
BRANCH   3   4
ATOM      4  C   UNL     1      27.743  35.392  32.738  1.00  0.00     0.000 C 
BRANCH   4   5
ATOM      5  C   UNL     1      27.928  33.965  32.201  1.00  0.00     0.006 C 
BRANCH   5   6
ATOM      6  C   UNL     1      27.520  33.841  30.727  1.00  0.00     0.053 C 
BRANCH   6   7
ATOM      7  C   UNL     1      26.031  33.868  30.558  1.00  0.00     0.041 C 
ATOM      8  O   UNL     1      25.505  34.614  29.691  1.00  0.00    -0.550 OA
ATOM      9  O   UNL     1      25.228  33.043  31.335  1.00  0.00    -0.550 OA
ENDBRANCH   6   7
ENDBRANCH   5   6
ENDBRANCH   4   5
ENDBRANCH   3   4
ENDBRANCH   2   3
ENDBRANCH   1   2
BRANCH   1  10
ATOM     10  C   UNL     1      26.264  33.528  36.781  1.00  0.00     0.000 C 
BRANCH  10  11
ATOM     11  C   UNL     1      27.436  32.618  36.367  1.00  0.00    -0.000 C 
BRANCH  11  12
ATOM     12  C   UNL     1      28.835  33.144  36.736  1.00  0.00    -0.000 C 
BRANCH  12  13
ATOM     13  C   UNL     1      29.733  33.370  35.507  1.00  0.00    -0.000 C 
BRANCH  13  14
ATOM     14  C   UNL     1      30.712  32.208  35.272  1.00  0.00    -0.000 C 
BRANCH  14  15
ATOM     15  C   UNL     1      30.254  31.266  34.149  1.00  0.00    -0.003 C 
ATOM     16  C   UNL     1      29.532  30.046  34.717  1.00  0.00     0.004 C 
ENDBRANCH  14  15
ENDBRANCH  13  14
ENDBRANCH  12  13
ENDBRANCH  11  12
ENDBRANCH  10  11
ENDBRANCH   1  10
TORSDOF 12
ENDMDL
MODEL 3
REMARK VINA RESULT:    -3.721      2.037      4.779
REMARK INTER + INTRA:          -7.745
REMARK INTER:                  -6.179
REMARK INTRA:                  -1.566
REMARK UNBOUND:                -1.414
REMARK SMILES CCCCCCCCCCCCCC(=O)[O-]
REMARK SMILES IDX 8 1 9 2 10 3 11 4 12 5 13 6 14 7 15 8 16 9 7 10 6 11 5 12
REMARK SMILES IDX 4 13 3 14 2 15 1 16
REMARK H PARENT
REMARK Flexibility Score: inf
ROOT
ATOM      1  C   UNL     1      26.297  32.279  36.403  1.00  0.00     0.000 C 
ENDROOT
BRANCH   1   2
ATOM      2  C   UNL     1      25.970  33.730  36.779  1.00  0.00     0.000 C 
BRANCH   2   3
ATOM      3  C   UNL     1      25.392  34.493  35.581  1.00  0.00     0.000 C 
BRANCH   3   4
ATOM      4  C   UNL     1      25.988  33.982  34.264  1.00  0.00     0.000 C 
BRANCH   4   5
ATOM      5  C   UNL     1      26.996  34.989  33.689  1.00  0.00     0.006 C 
BRANCH   5   6
ATOM      6  C   UNL     1      26.674  35.370  32.238  1.00  0.00     0.053 C 
BRANCH   6   7
ATOM      7  C   UNL     1      26.844  34.208  31.307  1.00  0.00     0.041 C 
ATOM      8  O   UNL     1      27.993  33.871  30.917  1.00  0.00    -0.550 OA
ATOM      9  O   UNL     1      25.736  33.478  30.897  1.00  0.00    -0.550 OA
ENDBRANCH   6   7
ENDBRANCH   5   6
ENDBRANCH   4   5
ENDBRANCH   3   4
ENDBRANCH   2   3
ENDBRANCH   1   2
BRANCH   1  10
ATOM     10  C   UNL     1      27.737  31.921  36.799  1.00  0.00     0.000 C 
BRANCH  10  11
ATOM     11  C   UNL     1      28.683  33.136  36.789  1.00  0.00    -0.000 C 
BRANCH  11  12
ATOM     12  C   UNL     1      29.665  33.191  35.605  1.00  0.00    -0.000 C 
BRANCH  12  13
ATOM     13  C   UNL     1      29.287  32.224  34.468  1.00  0.00    -0.000 C 
BRANCH  13  14
ATOM     14  C   UNL     1      30.350  31.136  34.244  1.00  0.00    -0.000 C 
BRANCH  14  15
ATOM     15  C   UNL     1      29.784  29.716  34.393  1.00  0.00    -0.003 C 
ATOM     16  C   UNL     1      30.029  29.173  35.799  1.00  0.00     0.004 C 
ENDBRANCH  14  15
ENDBRANCH  13  14
ENDBRANCH  12  13
ENDBRANCH  11  12
ENDBRANCH  10  11
ENDBRANCH   1  10
TORSDOF 12
ENDMDL
MODEL 4
REMARK VINA RESULT:    -3.691      2.390      5.113
REMARK INTER + INTRA:          -7.694
REMARK INTER:                  -6.265
REMARK INTRA:                  -1.429
REMARK UNBOUND:                -1.414
REMARK SMILES CCCCCCCCCCCCCC(=O)[O-]
REMARK SMILES IDX 8 1 9 2 10 3 11 4 12 5 13 6 14 7 15 8 16 9 7 10 6 11 5 12
REMARK SMILES IDX 4 13 3 14 2 15 1 16
REMARK H PARENT
REMARK Flexibility Score: inf
ROOT
ATOM      1  C   UNL     1      25.556  32.954  36.376  1.00  0.00     0.000 C 
ENDROOT
BRANCH   1   2
ATOM      2  C   UNL     1      25.751  33.077  34.860  1.00  0.00     0.000 C 
BRANCH   2   3
ATOM      3  C   UNL     1      26.368  34.432  34.492  1.00  0.00     0.000 C 
BRANCH   3   4
ATOM      4  C   UNL     1      27.796  34.260  33.960  1.00  0.00     0.000 C 
BRANCH   4   5
ATOM      5  C   UNL     1      28.007  35.076  32.676  1.00  0.00     0.006 C 
BRANCH   5   6
ATOM      6  C   UNL     1      26.697  35.308  31.913  1.00  0.00     0.053 C 
BRANCH   6   7
ATOM      7  C   UNL     1      26.636  34.499  30.653  1.00  0.00     0.041 C 
ATOM      8  O   UNL     1      27.615  33.785  30.310  1.00  0.00    -0.550 OA
ATOM      9  O   UNL     1      25.485  34.508  29.876  1.00  0.00    -0.550 OA
ENDBRANCH   6   7
ENDBRANCH   5   6
ENDBRANCH   4   5
ENDBRANCH   3   4
ENDBRANCH   2   3
ENDBRANCH   1   2
BRANCH   1  10
ATOM     10  C   UNL     1      26.817  32.396  37.050  1.00  0.00     0.000 C 
BRANCH  10  11
ATOM     11  C   UNL     1      27.420  31.195  36.296  1.00  0.00    -0.000 C 
BRANCH  11  12
ATOM     12  C   UNL     1      28.554  30.462  37.034  1.00  0.00    -0.000 C 
BRANCH  12  13
ATOM     13  C   UNL     1      29.867  30.425  36.231  1.00  0.00    -0.000 C 
BRANCH  13  14
ATOM     14  C   UNL     1      29.995  31.609  35.259  1.00  0.00    -0.000 C 
BRANCH  14  15
ATOM     15  C   UNL     1      31.017  32.654  35.730  1.00  0.00    -0.003 C 
ATOM     16  C   UNL     1      30.364  33.686  36.647  1.00  0.00     0.004 C 
ENDBRANCH  14  15
ENDBRANCH  13  14
ENDBRANCH  12  13
ENDBRANCH  11  12
ENDBRANCH  10  11
ENDBRANCH   1  10
TORSDOF 12
ENDMDL
MODEL 5
REMARK VINA RESULT:    -3.672      1.052      1.858
REMARK INTER + INTRA:          -7.662
REMARK INTER:                  -5.863
REMARK INTRA:                  -1.799
REMARK UNBOUND:                -1.414
REMARK SMILES CCCCCCCCCCCCCC(=O)[O-]
REMARK SMILES IDX 8 1 9 2 10 3 11 4 12 5 13 6 14 7 15 8 16 9 7 10 6 11 5 12
REMARK SMILES IDX 4 13 3 14 2 15 1 16
REMARK H PARENT
REMARK Flexibility Score: inf
ROOT
ATOM      1  C   UNL     1      26.306  32.033  37.047  1.00  0.00     0.000 C 
ENDROOT
BRANCH   1   2
ATOM      2  C   UNL     1      27.746  31.682  36.651  1.00  0.00     0.000 C 
BRANCH   2   3
ATOM      3  C   UNL     1      28.687  32.869  36.888  1.00  0.00     0.000 C 
BRANCH   3   4
ATOM      4  C   UNL     1      29.457  33.225  35.610  1.00  0.00     0.000 C 
BRANCH   4   5
ATOM      5  C   UNL     1      29.196  32.191  34.504  1.00  0.00     0.006 C 
BRANCH   5   6
ATOM      6  C   UNL     1      30.437  31.343  34.198  1.00  0.00     0.053 C 
BRANCH   6   7
ATOM      7  C   UNL     1      30.157  29.877  34.339  1.00  0.00     0.041 C 
ATOM      8  O   UNL     1      30.072  29.355  35.482  1.00  0.00    -0.550 OA
ATOM      9  O   UNL     1      29.955  29.096  33.209  1.00  0.00    -0.550 OA
ENDBRANCH   6   7
ENDBRANCH   5   6
ENDBRANCH   4   5
ENDBRANCH   3   4
ENDBRANCH   2   3
ENDBRANCH   1   2
BRANCH   1  10
ATOM     10  C   UNL     1      26.113  33.554  37.125  1.00  0.00     0.000 C 
BRANCH  10  11
ATOM     11  C   UNL     1      25.244  34.109  35.980  1.00  0.00    -0.000 C 
BRANCH  11  12
ATOM     12  C   UNL     1      25.124  33.194  34.748  1.00  0.00    -0.000 C 
BRANCH  12  13
ATOM     13  C   UNL     1      26.047  33.620  33.593  1.00  0.00    -0.000 C 
BRANCH  13  14
ATOM     14  C   UNL     1      26.689  34.997  33.830  1.00  0.00    -0.000 C 
BRANCH  14  15
ATOM     15  C   UNL     1      27.503  35.487  32.623  1.00  0.00    -0.003 C 
ATOM     16  C   UNL     1      27.564  34.421  31.533  1.00  0.00     0.004 C 
ENDBRANCH  14  15
ENDBRANCH  13  14
ENDBRANCH  12  13
ENDBRANCH  11  12
ENDBRANCH  10  11
ENDBRANCH   1  10
TORSDOF 12
ENDMDL
MODEL 6
REMARK VINA RESULT:    -3.509      2.142      4.751
REMARK INTER + INTRA:          -7.385
REMARK INTER:                  -6.287
REMARK INTRA:                  -1.098
REMARK UNBOUND:                -1.414
REMARK SMILES CCCCCCCCCCCCCC(=O)[O-]
REMARK SMILES IDX 8 1 9 2 10 3 11 4 12 5 13 6 14 7 15 8 16 9 7 10 6 11 5 12
REMARK SMILES IDX 4 13 3 14 2 15 1 16
REMARK H PARENT
REMARK Flexibility Score: inf
ROOT
ATOM      1  C   UNL     1      25.956  33.284  36.780  1.00  0.00     0.000 C 
ENDROOT
BRANCH   1   2
ATOM      2  C   UNL     1      24.904  33.109  35.678  1.00  0.00     0.000 C 
BRANCH   2   3
ATOM      3  C   UNL     1      25.501  33.399  34.295  1.00  0.00     0.000 C 
BRANCH   3   4
ATOM      4  C   UNL     1      26.427  34.620  34.340  1.00  0.00     0.000 C 
BRANCH   4   5
ATOM      5  C   UNL     1      27.659  34.409  33.447  1.00  0.00     0.006 C 
BRANCH   5   6
ATOM      6  C   UNL     1      27.588  35.234  32.155  1.00  0.00     0.053 C 
BRANCH   6   7
ATOM      7  C   UNL     1      27.101  34.415  30.999  1.00  0.00     0.041 C 
ATOM      8  O   UNL     1      27.900  33.681  30.359  1.00  0.00    -0.550 OA
ATOM      9  O   UNL     1      25.757  34.436  30.649  1.00  0.00    -0.550 OA
ENDBRANCH   6   7
ENDBRANCH   5   6
ENDBRANCH   4   5
ENDBRANCH   3   4
ENDBRANCH   2   3
ENDBRANCH   1   2
BRANCH   1  10
ATOM     10  C   UNL     1      26.715  31.973  37.028  1.00  0.00     0.000 C 
BRANCH  10  11
ATOM     11  C   UNL     1      28.119  31.962  36.394  1.00  0.00    -0.000 C 
BRANCH  11  12
ATOM     12  C   UNL     1      28.841  30.603  36.428  1.00  0.00    -0.000 C 
BRANCH  12  13
ATOM     13  C   UNL     1      29.268  30.117  35.031  1.00  0.00    -0.000 C 
BRANCH  13  14
ATOM     14  C   UNL     1      29.912  31.233  34.191  1.00  0.00    -0.000 C 
BRANCH  14  15
ATOM     15  C   UNL     1      30.680  30.691  32.976  1.00  0.00    -0.003 C 
ATOM     16  C   UNL     1      30.309  29.237  32.696  1.00  0.00     0.004 C 
ENDBRANCH  14  15
ENDBRANCH  13  14
ENDBRANCH  12  13
ENDBRANCH  11  12
ENDBRANCH  10  11
ENDBRANCH   1  10
TORSDOF 12
ENDMDL
MODEL 7
REMARK VINA RESULT:    -3.405      2.250      5.103
REMARK INTER + INTRA:          -7.207
REMARK INTER:                  -6.034
REMARK INTRA:                  -1.173
REMARK UNBOUND:                -1.414
REMARK SMILES CCCCCCCCCCCCCC(=O)[O-]
REMARK SMILES IDX 8 1 9 2 10 3 11 4 12 5 13 6 14 7 15 8 16 9 7 10 6 11 5 12
REMARK SMILES IDX 4 13 3 14 2 15 1 16
REMARK H PARENT
REMARK Flexibility Score: inf
ROOT
ATOM      1  C   UNL     1      27.212  32.134  36.082  1.00  0.00     0.000 C 
ENDROOT
BRANCH   1   2
ATOM      2  C   UNL     1      28.285  33.208  35.864  1.00  0.00     0.000 C 
BRANCH   2   3
ATOM      3  C   UNL     1      28.341  33.642  34.395  1.00  0.00     0.000 C 
BRANCH   3   4
ATOM      4  C   UNL     1      27.015  34.276  33.958  1.00  0.00     0.000 C 
BRANCH   4   5
ATOM      5  C   UNL     1      27.257  35.460  33.010  1.00  0.00     0.006 C 
BRANCH   5   6
ATOM      6  C   UNL     1      26.420  35.359  31.728  1.00  0.00     0.053 C 
BRANCH   6   7
ATOM      7  C   UNL     1      26.755  34.128  30.941  1.00  0.00     0.041 C 
ATOM      8  O   UNL     1      25.836  33.402  30.479  1.00  0.00    -0.550 OA
ATOM      9  O   UNL     1      28.081  33.802  30.690  1.00  0.00    -0.550 OA
ENDBRANCH   6   7
ENDBRANCH   5   6
ENDBRANCH   4   5
ENDBRANCH   3   4
ENDBRANCH   2   3
ENDBRANCH   1   2
BRANCH   1  10
ATOM     10  C   UNL     1      27.768  30.960  36.901  1.00  0.00     0.000 C 
BRANCH  10  11
ATOM     11  C   UNL     1      29.305  30.871  36.859  1.00  0.00    -0.000 C 
BRANCH  11  12
ATOM     12  C   UNL     1      29.869  29.674  36.072  1.00  0.00    -0.000 C 
BRANCH  12  13
ATOM     13  C   UNL     1      29.510  29.718  34.576  1.00  0.00    -0.000 C 
BRANCH  13  14
ATOM     14  C   UNL     1      30.458  30.622  33.770  1.00  0.00    -0.000 C 
BRANCH  14  15
ATOM     15  C   UNL     1      30.663  30.129  32.329  1.00  0.00    -0.003 C 
ATOM     16  C   UNL     1      30.349  28.640  32.208  1.00  0.00     0.004 C 
ENDBRANCH  14  15
ENDBRANCH  13  14
ENDBRANCH  12  13
ENDBRANCH  11  12
ENDBRANCH  10  11
ENDBRANCH   1  10
TORSDOF 12
ENDMDL
MODEL 8
REMARK VINA RESULT:    -3.349      2.914      5.865
REMARK INTER + INTRA:          -7.111
REMARK INTER:                  -6.264
REMARK INTRA:                  -0.847
REMARK UNBOUND:                -1.414
REMARK SMILES CCCCCCCCCCCCCC(=O)[O-]
REMARK SMILES IDX 8 1 9 2 10 3 11 4 12 5 13 6 14 7 15 8 16 9 7 10 6 11 5 12
REMARK SMILES IDX 4 13 3 14 2 15 1 16
REMARK H PARENT
REMARK Flexibility Score: inf
ROOT
ATOM      1  C   UNL     1      26.888  32.793  35.902  1.00  0.00     0.000 C 
ENDROOT
BRANCH   1   2
ATOM      2  C   UNL     1      26.451  33.291  34.519  1.00  0.00     0.000 C 
BRANCH   2   3
ATOM      3  C   UNL     1      26.459  34.823  34.457  1.00  0.00     0.000 C 
BRANCH   3   4
ATOM      4  C   UNL     1      27.044  35.317  33.129  1.00  0.00     0.000 C 
BRANCH   4   5
ATOM      5  C   UNL     1      27.744  34.175  32.377  1.00  0.00     0.006 C 
BRANCH   5   6
ATOM      6  C   UNL     1      27.420  34.183  30.877  1.00  0.00     0.053 C 
BRANCH   6   7
ATOM      7  C   UNL     1      25.968  33.917  30.620  1.00  0.00     0.041 C 
ATOM      8  O   UNL     1      25.345  33.072  31.317  1.00  0.00    -0.550 OA
ATOM      9  O   UNL     1      25.295  34.626  29.634  1.00  0.00    -0.550 OA
ENDBRANCH   6   7
ENDBRANCH   5   6
ENDBRANCH   4   5
ENDBRANCH   3   4
ENDBRANCH   2   3
ENDBRANCH   1   2
BRANCH   1  10
ATOM     10  C   UNL     1      27.862  31.613  35.778  1.00  0.00     0.000 C 
BRANCH  10  11
ATOM     11  C   UNL     1      29.165  31.983  35.043  1.00  0.00    -0.000 C 
BRANCH  11  12
ATOM     12  C   UNL     1      30.182  30.837  34.899  1.00  0.00    -0.000 C 
BRANCH  12  13
ATOM     13  C   UNL     1      29.549  29.536  34.375  1.00  0.00    -0.000 C 
BRANCH  13  14
ATOM     14  C   UNL     1      30.545  28.365  34.350  1.00  0.00    -0.000 C 
BRANCH  14  15
ATOM     15  C   UNL     1      30.225  27.292  35.402  1.00  0.00    -0.003 C 
ATOM     16  C   UNL     1      30.167  25.904  34.770  1.00  0.00     0.004 C 
ENDBRANCH  14  15
ENDBRANCH  13  14
ENDBRANCH  12  13
ENDBRANCH  11  12
ENDBRANCH  10  11
ENDBRANCH   1  10
TORSDOF 12
ENDMDL
MODEL 9
REMARK VINA RESULT:    -3.324      1.928      2.614
REMARK INTER + INTRA:          -7.069
REMARK INTER:                  -6.105
REMARK INTRA:                  -0.964
REMARK UNBOUND:                -1.414
REMARK SMILES CCCCCCCCCCCCCC(=O)[O-]
REMARK SMILES IDX 8 1 9 2 10 3 11 4 12 5 13 6 14 7 15 8 16 9 7 10 6 11 5 12
REMARK SMILES IDX 4 13 3 14 2 15 1 16
REMARK H PARENT
REMARK Flexibility Score: inf
ROOT
ATOM      1  C   UNL     1      29.132  33.408  34.950  1.00  0.00     0.000 C 
ENDROOT
BRANCH   1   2
ATOM      2  C   UNL     1      29.895  32.217  35.542  1.00  0.00     0.000 C 
BRANCH   2   3
ATOM      3  C   UNL     1      29.143  31.621  36.738  1.00  0.00     0.000 C 
BRANCH   3   4
ATOM      4  C   UNL     1      29.334  30.101  36.806  1.00  0.00     0.000 C 
BRANCH   4   5
ATOM      5  C   UNL     1      29.688  29.528  35.425  1.00  0.00     0.006 C 
BRANCH   5   6
ATOM      6  C   UNL     1      30.756  28.431  35.508  1.00  0.00     0.053 C 
BRANCH   6   7
ATOM      7  C   UNL     1      30.414  27.255  34.644  1.00  0.00     0.041 C 
ATOM      8  O   UNL     1      29.781  26.278  35.124  1.00  0.00    -0.550 OA
ATOM      9  O   UNL     1      30.766  27.254  33.300  1.00  0.00    -0.550 OA
ENDBRANCH   6   7
ENDBRANCH   5   6
ENDBRANCH   4   5
ENDBRANCH   3   4
ENDBRANCH   2   3
ENDBRANCH   1   2
BRANCH   1  10
ATOM     10  C   UNL     1      27.642  33.344  35.316  1.00  0.00     0.000 C 
BRANCH  10  11
ATOM     11  C   UNL     1      26.721  33.791  34.166  1.00  0.00    -0.000 C 
BRANCH  11  12
ATOM     12  C   UNL     1      26.726  35.302  33.873  1.00  0.00    -0.000 C 
BRANCH  12  13
ATOM     13  C   UNL     1      27.054  35.626  32.404  1.00  0.00    -0.000 C 
BRANCH  13  14
ATOM     14  C   UNL     1      27.779  34.472  31.694  1.00  0.00    -0.000 C 
BRANCH  14  15
ATOM     15  C   UNL     1      27.102  34.067  30.376  1.00  0.00    -0.003 C 
ATOM     16  C   UNL     1      25.586  34.220  30.468  1.00  0.00     0.004 C 
ENDBRANCH  14  15
ENDBRANCH  13  14
ENDBRANCH  12  13
ENDBRANCH  11  12
ENDBRANCH  10  11
ENDBRANCH   1  10
TORSDOF 12
ENDMDL
