MODEL 1
REMARK VINA RESULT:    -3.961      0.000      0.000
REMARK INTER + INTRA:          -4.776
REMARK INTER:                  -4.656
REMARK INTRA:                  -0.120
REMARK UNBOUND:                -0.120
REMARK SMILES O=C([O-])CCC(=O)[O-]
REMARK SMILES IDX 4 1 2 2 1 3 3 4 5 5 6 6 7 7 8 8
REMARK H PARENT
REMARK Flexibility Score: inf
ROOT
ATOM      1  C   UNL     1      14.797   1.161  27.758  1.00  0.00     0.059 C 
ENDROOT
BRANCH   1   2
ATOM      2  C   UNL     1      13.526   0.602  28.314  1.00  0.00     0.042 C 
ATOM      3  O   UNL     1      12.642   0.148  27.541  1.00  0.00    -0.550 OA
ATOM      4  O   UNL     1      13.295   0.627  29.684  1.00  0.00    -0.550 OA
ENDBRANCH   1   2
BRANCH   1   5
ATOM      5  C   UNL     1      15.123   0.515  26.411  1.00  0.00     0.059 C 
BRANCH   5   6
ATOM      6  C   UNL     1      15.047   1.527  25.312  1.00  0.00     0.042 C 
ATOM      7  O   UNL     1      16.101   1.982  24.796  1.00  0.00    -0.550 OA
ATOM      8  O   UNL     1      13.813   2.006  24.893  1.00  0.00    -0.550 OA
ENDBRANCH   5   6
ENDBRANCH   1   5
TORSDOF 3
ENDMDL
MODEL 2
REMARK VINA RESULT:    -3.921      0.140      3.942
REMARK INTER + INTRA:          -4.728
REMARK INTER:                  -4.610
REMARK INTRA:                  -0.118
REMARK UNBOUND:                -0.120
REMARK SMILES O=C([O-])CCC(=O)[O-]
REMARK SMILES IDX 4 1 2 2 1 3 3 4 5 5 6 6 7 7 8 8
REMARK H PARENT
REMARK Flexibility Score: inf
ROOT
ATOM      1  C   UNL     1      15.122   0.497  26.329  1.00  0.00     0.059 C 
ENDROOT
BRANCH   1   2
ATOM      2  C   UNL     1      14.954   1.488  25.221  1.00  0.00     0.042 C 
ATOM      3  O   UNL     1      15.963   2.009  24.678  1.00  0.00    -0.550 OA
ATOM      4  O   UNL     1      13.681   1.875  24.822  1.00  0.00    -0.550 OA
ENDBRANCH   1   2
BRANCH   1   5
ATOM      5  C   UNL     1      14.774   1.133  27.675  1.00  0.00     0.059 C 
BRANCH   5   6
ATOM      6  C   UNL     1      13.530   0.521  28.237  1.00  0.00     0.042 C 
ATOM      7  O   UNL     1      12.679  -0.002  27.471  1.00  0.00    -0.550 OA
ATOM      8  O   UNL     1      13.286   0.573  29.603  1.00  0.00    -0.550 OA
ENDBRANCH   5   6
ENDBRANCH   1   5
TORSDOF 3
ENDMDL
MODEL 3
REMARK VINA RESULT:    -3.900      1.964      3.663
REMARK INTER + INTRA:          -4.704
REMARK INTER:                  -4.522
REMARK INTRA:                  -0.181
REMARK UNBOUND:                -0.120
REMARK SMILES O=C([O-])CCC(=O)[O-]
REMARK SMILES IDX 4 1 2 2 1 3 3 4 5 5 6 6 7 7 8 8
REMARK H PARENT
REMARK Flexibility Score: inf
ROOT
ATOM      1  C   UNL     1      14.715   0.326  26.476  1.00  0.00     0.059 C 
ENDROOT
BRANCH   1   2
ATOM      2  C   UNL     1      13.375  -0.271  26.184  1.00  0.00     0.042 C 
ATOM      3  O   UNL     1      13.252  -1.517  26.048  1.00  0.00    -0.550 OA
ATOM      4  O   UNL     1      12.269   0.552  26.011  1.00  0.00    -0.550 OA
ENDBRANCH   1   2
BRANCH   1   5
ATOM      5  C   UNL     1      14.673   1.122  27.781  1.00  0.00     0.059 C 
BRANCH   5   6
ATOM      6  C   UNL     1      14.305   0.233  28.926  1.00  0.00     0.042 C 
ATOM      7  O   UNL     1      13.344   0.537  29.680  1.00  0.00    -0.550 OA
ATOM      8  O   UNL     1      15.055  -0.905  29.191  1.00  0.00    -0.550 OA
ENDBRANCH   5   6
ENDBRANCH   1   5
TORSDOF 3
ENDMDL
MODEL 4
REMARK VINA RESULT:    -3.895      1.891      2.337
REMARK INTER + INTRA:          -4.698
REMARK INTER:                  -4.521
REMARK INTRA:                  -0.177
REMARK UNBOUND:                -0.120
REMARK SMILES O=C([O-])CCC(=O)[O-]
REMARK SMILES IDX 4 1 2 2 1 3 3 4 5 5 6 6 7 7 8 8
REMARK H PARENT
REMARK Flexibility Score: inf
ROOT
ATOM      1  C   UNL     1      14.737   1.189  27.725  1.00  0.00     0.059 C 
ENDROOT
BRANCH   1   2
ATOM      2  C   UNL     1      14.302   0.339  28.877  1.00  0.00     0.042 C 
ATOM      3  O   UNL     1      13.329   0.693  29.594  1.00  0.00    -0.550 OA
ATOM      4  O   UNL     1      15.002  -0.820  29.189  1.00  0.00    -0.550 OA
ENDBRANCH   1   2
BRANCH   1   5
ATOM      5  C   UNL     1      14.792   0.363  26.440  1.00  0.00     0.059 C 
BRANCH   5   6
ATOM      6  C   UNL     1      13.443  -0.202  26.122  1.00  0.00     0.042 C 
ATOM      7  O   UNL     1      13.282  -1.448  26.042  1.00  0.00    -0.550 OA
ATOM      8  O   UNL     1      12.377   0.649  25.864  1.00  0.00    -0.550 OA
ENDBRANCH   5   6
ENDBRANCH   1   5
TORSDOF 3
ENDMDL
MODEL 5
REMARK VINA RESULT:    -3.865      2.623      2.947
REMARK INTER + INTRA:          -4.663
REMARK INTER:                  -4.502
REMARK INTRA:                  -0.162
REMARK UNBOUND:                -0.120
REMARK SMILES O=C([O-])CCC(=O)[O-]
REMARK SMILES IDX 4 1 2 2 1 3 3 4 5 5 6 6 7 7 8 8
REMARK H PARENT
REMARK Flexibility Score: inf
ROOT
ATOM      1  C   UNL     1      13.982  -1.510  26.284  1.00  0.00     0.059 C 
ENDROOT
BRANCH   1   2
ATOM      2  C   UNL     1      15.226  -1.860  27.036  1.00  0.00     0.042 C 
ATOM      3  O   UNL     1      16.271  -2.190  26.415  1.00  0.00    -0.550 OA
ATOM      4  O   UNL     1      15.220  -1.870  28.426  1.00  0.00    -0.550 OA
ENDBRANCH   1   2
BRANCH   1   5
ATOM      5  C   UNL     1      13.405  -0.188  26.789  1.00  0.00     0.059 C 
BRANCH   5   6
ATOM      6  C   UNL     1      14.393   0.921  26.603  1.00  0.00     0.042 C 
ATOM      7  O   UNL     1      14.805   1.574  27.596  1.00  0.00    -0.550 OA
ATOM      8  O   UNL     1      14.819   1.264  25.327  1.00  0.00    -0.550 OA
ENDBRANCH   5   6
ENDBRANCH   1   5
TORSDOF 3
ENDMDL
MODEL 6
REMARK VINA RESULT:    -3.842      2.590      3.660
REMARK INTER + INTRA:          -4.636
REMARK INTER:                  -4.483
REMARK INTRA:                  -0.153
REMARK UNBOUND:                -0.120
REMARK SMILES O=C([O-])CCC(=O)[O-]
REMARK SMILES IDX 4 1 2 2 1 3 3 4 5 5 6 6 7 7 8 8
REMARK H PARENT
REMARK Flexibility Score: inf
ROOT
ATOM      1  C   UNL     1      13.416  -0.161  26.758  1.00  0.00     0.059 C 
ENDROOT
BRANCH   1   2
ATOM      2  C   UNL     1      14.415   0.940  26.589  1.00  0.00     0.042 C 
ATOM      3  O   UNL     1      14.777   1.626  27.580  1.00  0.00    -0.550 OA
ATOM      4  O   UNL     1      14.909   1.242  25.326  1.00  0.00    -0.550 OA
ENDBRANCH   1   2
BRANCH   1   5
ATOM      5  C   UNL     1      14.023  -1.503  26.348  1.00  0.00     0.059 C 
BRANCH   5   6
ATOM      6  C   UNL     1      15.228  -1.810  27.180  1.00  0.00     0.042 C 
ATOM      7  O   UNL     1      16.301  -2.170  26.630  1.00  0.00    -0.550 OA
ATOM      8  O   UNL     1      15.150  -1.747  28.565  1.00  0.00    -0.550 OA
ENDBRANCH   5   6
ENDBRANCH   1   5
TORSDOF 3
ENDMDL
MODEL 7
REMARK VINA RESULT:    -3.830      2.692      3.315
REMARK INTER + INTRA:          -4.622
REMARK INTER:                  -4.586
REMARK INTRA:                  -0.036
REMARK UNBOUND:                -0.120
REMARK SMILES O=C([O-])CCC(=O)[O-]
REMARK SMILES IDX 4 1 2 2 1 3 3 4 5 5 6 6 7 7 8 8
REMARK H PARENT
REMARK Flexibility Score: inf
ROOT
ATOM      1  C   UNL     1      13.955  -1.466  26.259  1.00  0.00     0.059 C 
ENDROOT
BRANCH   1   2
ATOM      2  C   UNL     1      15.216  -1.798  26.993  1.00  0.00     0.042 C 
ATOM      3  O   UNL     1      16.212  -2.249  26.369  1.00  0.00    -0.550 OA
ATOM      4  O   UNL     1      15.275  -1.656  28.374  1.00  0.00    -0.550 OA
ENDBRANCH   1   2
BRANCH   1   5
ATOM      5  C   UNL     1      13.212  -0.328  26.959  1.00  0.00     0.059 C 
BRANCH   5   6
ATOM      6  C   UNL     1      12.354   0.415  25.984  1.00  0.00     0.042 C 
ATOM      7  O   UNL     1      12.882   1.102  25.072  1.00  0.00    -0.550 OA
ATOM      8  O   UNL     1      10.971   0.388  26.114  1.00  0.00    -0.550 OA
ENDBRANCH   5   6
ENDBRANCH   1   5
TORSDOF 3
ENDMDL
MODEL 8
REMARK VINA RESULT:    -3.826      1.771      2.255
REMARK INTER + INTRA:          -4.617
REMARK INTER:                  -4.479
REMARK INTRA:                  -0.138
REMARK UNBOUND:                -0.120
REMARK SMILES O=C([O-])CCC(=O)[O-]
REMARK SMILES IDX 4 1 2 2 1 3 3 4 5 5 6 6 7 7 8 8
REMARK H PARENT
REMARK Flexibility Score: inf
ROOT
ATOM      1  C   UNL     1      13.898   0.364  27.444  1.00  0.00     0.059 C 
ENDROOT
BRANCH   1   2
ATOM      2  C   UNL     1      14.249  -0.945  26.813  1.00  0.00     0.042 C 
ATOM      3  O   UNL     1      13.410  -1.547  26.092  1.00  0.00    -0.550 OA
ATOM      4  O   UNL     1      15.487  -1.527  27.060  1.00  0.00    -0.550 OA
ENDBRANCH   1   2
BRANCH   1   5
ATOM      5  C   UNL     1      14.884   1.450  27.010  1.00  0.00     0.059 C 
BRANCH   5   6
ATOM      6  C   UNL     1      14.775   1.699  25.539  1.00  0.00     0.042 C 
ATOM      7  O   UNL     1      13.645   1.838  25.003  1.00  0.00    -0.550 OA
ATOM      8  O   UNL     1      15.919   1.729  24.752  1.00  0.00    -0.550 OA
ENDBRANCH   5   6
ENDBRANCH   1   5
TORSDOF 3
ENDMDL
MODEL 9
REMARK VINA RESULT:    -3.784      2.664      3.627
REMARK INTER + INTRA:          -4.568
REMARK INTER:                  -4.539
REMARK INTRA:                  -0.030
REMARK UNBOUND:                -0.120
REMARK SMILES O=C([O-])CCC(=O)[O-]
REMARK SMILES IDX 4 1 2 2 1 3 3 4 5 5 6 6 7 7 8 8
REMARK H PARENT
REMARK Flexibility Score: inf
ROOT
ATOM      1  C   UNL     1      13.371  -0.154  26.899  1.00  0.00     0.059 C 
ENDROOT
BRANCH   1   2
ATOM      2  C   UNL     1      12.311   0.377  25.988  1.00  0.00     0.042 C 
ATOM      3  O   UNL     1      12.622   1.102  25.007  1.00  0.00    -0.550 OA
ATOM      4  O   UNL     1      10.972   0.112  26.250  1.00  0.00    -0.550 OA
ENDBRANCH   1   2
BRANCH   1   5
ATOM      5  C   UNL     1      14.090  -1.338  26.252  1.00  0.00     0.059 C 
BRANCH   5   6
ATOM      6  C   UNL     1      15.224  -1.797  27.113  1.00  0.00     0.042 C 
ATOM      7  O   UNL     1      16.249  -2.308  26.591  1.00  0.00    -0.550 OA
ATOM      8  O   UNL     1      15.127  -1.708  28.495  1.00  0.00    -0.550 OA
ENDBRANCH   5   6
ENDBRANCH   1   5
TORSDOF 3
ENDMDL
