MODEL 1
REMARK VINA RESULT:    -3.475      0.000      0.000
REMARK INTER + INTRA:          -4.915
REMARK INTER:                  -4.694
REMARK INTRA:                  -0.222
REMARK UNBOUND:                -0.222
REMARK SMILES CCCCCCCC(=O)[O-]
REMARK SMILES IDX 5 1 6 2 7 3 8 4 9 5 10 6 4 7 3 8 2 9 1 10
REMARK H PARENT
REMARK Flexibility Score: inf
ROOT
ATOM      1  C   UNL     1       5.778  -5.776  -9.255  1.00  0.00     0.000 C 
ENDROOT
BRANCH   1   2
ATOM      2  C   UNL     1       4.960  -6.595  -8.249  1.00  0.00     0.006 C 
BRANCH   2   3
ATOM      3  C   UNL     1       5.712  -6.748  -6.923  1.00  0.00     0.053 C 
BRANCH   3   4
ATOM      4  C   UNL     1       4.985  -6.041  -5.823  1.00  0.00     0.041 C 
ATOM      5  O   UNL     1       5.112  -4.797  -5.677  1.00  0.00    -0.550 OA
ATOM      6  O   UNL     1       4.207  -6.764  -4.928  1.00  0.00    -0.550 OA
ENDBRANCH   3   4
ENDBRANCH   2   3
ENDBRANCH   1   2
BRANCH   1   7
ATOM      7  C   UNL     1       5.571  -4.270  -9.033  1.00  0.00     0.000 C 
BRANCH   7   8
ATOM      8  C   UNL     1       4.549  -3.663 -10.009  1.00  0.00    -0.000 C 
BRANCH   8   9
ATOM      9  C   UNL     1       3.601  -2.666  -9.329  1.00  0.00    -0.003 C 
ATOM     10  C   UNL     1       3.911  -1.234  -9.757  1.00  0.00     0.004 C 
ENDBRANCH   8   9
ENDBRANCH   7   8
ENDBRANCH   1   7
TORSDOF 6
ENDMDL
MODEL 2
REMARK VINA RESULT:    -3.396     19.639     20.565
REMARK INTER + INTRA:          -4.809
REMARK INTER:                  -4.402
REMARK INTRA:                  -0.407
REMARK UNBOUND:                -0.222
REMARK SMILES CCCCCCCC(=O)[O-]
REMARK SMILES IDX 5 1 6 2 7 3 8 4 9 5 10 6 4 7 3 8 2 9 1 10
REMARK H PARENT
REMARK Flexibility Score: inf
ROOT
ATOM      1  C   UNL     1      -7.929  -5.715   8.449  1.00  0.00     0.000 C 
ENDROOT
BRANCH   1   2
ATOM      2  C   UNL     1      -8.150  -4.214   8.672  1.00  0.00     0.006 C 
BRANCH   2   3
ATOM      3  C   UNL     1      -9.257  -3.680   7.757  1.00  0.00     0.053 C 
BRANCH   3   4
ATOM      4  C   UNL     1      -8.735  -2.575   6.893  1.00  0.00     0.041 C 
ATOM      5  O   UNL     1      -8.085  -1.625   7.403  1.00  0.00    -0.550 OA
ATOM      6  O   UNL     1      -9.012  -2.567   5.532  1.00  0.00    -0.550 OA
ENDBRANCH   3   4
ENDBRANCH   2   3
ENDBRANCH   1   2
BRANCH   1   7
ATOM      7  C   UNL     1      -7.507  -5.999   7.000  1.00  0.00     0.000 C 
BRANCH   7   8
ATOM      8  C   UNL     1      -8.251  -7.200   6.392  1.00  0.00    -0.000 C 
BRANCH   8   9
ATOM      9  C   UNL     1      -9.767  -7.138   6.625  1.00  0.00    -0.003 C 
ATOM     10  C   UNL     1     -10.504  -6.756   5.344  1.00  0.00     0.004 C 
ENDBRANCH   8   9
ENDBRANCH   7   8
ENDBRANCH   1   7
TORSDOF 6
ENDMDL
MODEL 3
REMARK VINA RESULT:    -3.395     10.695     12.248
REMARK INTER + INTRA:          -4.807
REMARK INTER:                  -4.595
REMARK INTRA:                  -0.211
REMARK UNBOUND:                -0.222
REMARK SMILES CCCCCCCC(=O)[O-]
REMARK SMILES IDX 5 1 6 2 7 3 8 4 9 5 10 6 4 7 3 8 2 9 1 10
REMARK H PARENT
REMARK Flexibility Score: inf
ROOT
ATOM      1  C   UNL     1       6.322  -6.901   4.214  1.00  0.00     0.000 C 
ENDROOT
BRANCH   1   2
ATOM      2  C   UNL     1       5.003  -7.631   3.931  1.00  0.00     0.006 C 
BRANCH   2   3
ATOM      3  C   UNL     1       4.357  -7.117   2.641  1.00  0.00     0.053 C 
BRANCH   3   4
ATOM      4  C   UNL     1       3.577  -8.207   1.975  1.00  0.00     0.041 C 
ATOM      5  O   UNL     1       3.860  -8.562   0.801  1.00  0.00    -0.550 OA
ATOM      6  O   UNL     1       2.504  -8.795   2.633  1.00  0.00    -0.550 OA
ENDBRANCH   3   4
ENDBRANCH   2   3
ENDBRANCH   1   2
BRANCH   1   7
ATOM      7  C   UNL     1       7.503  -7.625   3.550  1.00  0.00     0.000 C 
BRANCH   7   8
ATOM      8  C   UNL     1       8.862  -7.014   3.932  1.00  0.00    -0.000 C 
BRANCH   8   9
ATOM      9  C   UNL     1       8.748  -5.972   5.053  1.00  0.00    -0.003 C 
ATOM     10  C   UNL     1       9.125  -4.581   4.550  1.00  0.00     0.004 C 
ENDBRANCH   8   9
ENDBRANCH   7   8
ENDBRANCH   1   7
TORSDOF 6
ENDMDL
MODEL 4
REMARK VINA RESULT:    -3.278     19.827     20.819
REMARK INTER + INTRA:          -4.649
REMARK INTER:                  -4.309
REMARK INTRA:                  -0.341
REMARK UNBOUND:                -0.222
REMARK SMILES CCCCCCCC(=O)[O-]
REMARK SMILES IDX 5 1 6 2 7 3 8 4 9 5 10 6 4 7 3 8 2 9 1 10
REMARK H PARENT
REMARK Flexibility Score: inf
ROOT
ATOM      1  C   UNL     1     -10.183  -5.599   6.561  1.00  0.00     0.000 C 
ENDROOT
BRANCH   1   2
ATOM      2  C   UNL     1      -8.994  -4.953   7.283  1.00  0.00     0.006 C 
BRANCH   2   3
ATOM      3  C   UNL     1      -9.357  -3.557   7.799  1.00  0.00     0.053 C 
BRANCH   3   4
ATOM      4  C   UNL     1      -8.722  -2.502   6.950  1.00  0.00     0.041 C 
ATOM      5  O   UNL     1      -8.037  -1.588   7.480  1.00  0.00    -0.550 OA
ATOM      6  O   UNL     1      -8.928  -2.499   5.576  1.00  0.00    -0.550 OA
ENDBRANCH   3   4
ENDBRANCH   2   3
ENDBRANCH   1   2
BRANCH   1   7
ATOM      7  C   UNL     1      -9.806  -6.983   6.012  1.00  0.00     0.000 C 
BRANCH   7   8
ATOM      8  C   UNL     1      -8.389  -7.416   6.423  1.00  0.00    -0.000 C 
BRANCH   8   9
ATOM      9  C   UNL     1      -8.374  -8.749   7.183  1.00  0.00    -0.003 C 
ATOM     10  C   UNL     1      -8.251  -8.523   8.687  1.00  0.00     0.004 C 
ENDBRANCH   8   9
ENDBRANCH   7   8
ENDBRANCH   1   7
TORSDOF 6
ENDMDL
MODEL 5
REMARK VINA RESULT:    -3.212     23.931     24.587
REMARK INTER + INTRA:          -4.560
REMARK INTER:                  -4.178
REMARK INTRA:                  -0.382
REMARK UNBOUND:                -0.222
REMARK SMILES CCCCCCCC(=O)[O-]
REMARK SMILES IDX 5 1 6 2 7 3 8 4 9 5 10 6 4 7 3 8 2 9 1 10
REMARK H PARENT
REMARK Flexibility Score: inf
ROOT
ATOM      1  C   UNL     1      -5.672   7.129  10.116  1.00  0.00     0.000 C 
ENDROOT
BRANCH   1   2
ATOM      2  C   UNL     1      -7.199   6.995  10.059  1.00  0.00     0.006 C 
BRANCH   2   3
ATOM      3  C   UNL     1      -7.730   7.341   8.664  1.00  0.00     0.053 C 
BRANCH   3   4
ATOM      4  C   UNL     1      -9.192   7.651   8.722  1.00  0.00     0.041 C 
ATOM      5  O   UNL     1      -9.688   8.514   7.950  1.00  0.00    -0.550 OA
ATOM      6  O   UNL     1      -9.999   7.025   9.663  1.00  0.00    -0.550 OA
ENDBRANCH   3   4
ENDBRANCH   2   3
ENDBRANCH   1   2
BRANCH   1   7
ATOM      7  C   UNL     1      -5.162   8.065   9.010  1.00  0.00     0.000 C 
BRANCH   7   8
ATOM      8  C   UNL     1      -4.773   9.454   9.544  1.00  0.00    -0.000 C 
BRANCH   8   9
ATOM      9  C   UNL     1      -4.833  10.542   8.462  1.00  0.00    -0.003 C 
ATOM     10  C   UNL     1      -5.419   9.994   7.164  1.00  0.00     0.004 C 
ENDBRANCH   8   9
ENDBRANCH   7   8
ENDBRANCH   1   7
TORSDOF 6
ENDMDL
MODEL 6
REMARK VINA RESULT:    -3.186     19.120     20.440
REMARK INTER + INTRA:          -4.525
REMARK INTER:                  -4.233
REMARK INTRA:                  -0.292
REMARK UNBOUND:                -0.222
REMARK SMILES CCCCCCCC(=O)[O-]
REMARK SMILES IDX 5 1 6 2 7 3 8 4 9 5 10 6 4 7 3 8 2 9 1 10
REMARK H PARENT
REMARK Flexibility Score: inf
ROOT
ATOM      1  C   UNL     1       6.094   7.099   5.775  1.00  0.00     0.000 C 
ENDROOT
BRANCH   1   2
ATOM      2  C   UNL     1       6.821   8.175   4.958  1.00  0.00     0.006 C 
BRANCH   2   3
ATOM      3  C   UNL     1       7.130   9.404   5.819  1.00  0.00     0.053 C 
BRANCH   3   4
ATOM      4  C   UNL     1       6.200  10.526   5.485  1.00  0.00     0.041 C 
ATOM      5  O   UNL     1       5.574  11.125   6.398  1.00  0.00    -0.550 OA
ATOM      6  O   UNL     1       5.985  10.879   4.158  1.00  0.00    -0.550 OA
ENDBRANCH   3   4
ENDBRANCH   2   3
ENDBRANCH   1   2
BRANCH   1   7
ATOM      7  C   UNL     1       6.046   7.479   7.262  1.00  0.00     0.000 C 
BRANCH   7   8
ATOM      8  C   UNL     1       6.068   6.251   8.187  1.00  0.00    -0.000 C 
BRANCH   8   9
ATOM      9  C   UNL     1       6.614   6.572   9.585  1.00  0.00    -0.003 C 
ATOM     10  C   UNL     1       6.737   8.079   9.794  1.00  0.00     0.004 C 
ENDBRANCH   8   9
ENDBRANCH   7   8
ENDBRANCH   1   7
TORSDOF 6
ENDMDL
MODEL 7
REMARK VINA RESULT:    -3.170     19.056     20.008
REMARK INTER + INTRA:          -4.503
REMARK INTER:                  -4.076
REMARK INTRA:                  -0.427
REMARK UNBOUND:                -0.222
REMARK SMILES CCCCCCCC(=O)[O-]
REMARK SMILES IDX 5 1 6 2 7 3 8 4 9 5 10 6 4 7 3 8 2 9 1 10
REMARK H PARENT
REMARK Flexibility Score: inf
ROOT
ATOM      1  C   UNL     1       5.927   7.253   5.881  1.00  0.00     0.000 C 
ENDROOT
BRANCH   1   2
ATOM      2  C   UNL     1       6.641   6.283   6.831  1.00  0.00     0.006 C 
BRANCH   2   3
ATOM      3  C   UNL     1       5.895   6.170   8.164  1.00  0.00     0.053 C 
BRANCH   3   4
ATOM      4  C   UNL     1       6.509   7.072   9.187  1.00  0.00     0.041 C 
ATOM      5  O   UNL     1       7.509   6.691   9.851  1.00  0.00    -0.550 OA
ATOM      6  O   UNL     1       5.947   8.316   9.444  1.00  0.00    -0.550 OA
ENDBRANCH   3   4
ENDBRANCH   2   3
ENDBRANCH   1   2
BRANCH   1   7
ATOM      7  C   UNL     1       6.933   7.962   4.963  1.00  0.00     0.000 C 
BRANCH   7   8
ATOM      8  C   UNL     1       6.818   9.494   5.029  1.00  0.00    -0.000 C 
BRANCH   8   9
ATOM      9  C   UNL     1       6.965  10.037   6.458  1.00  0.00    -0.003 C 
ATOM     10  C   UNL     1       5.704  10.778   6.896  1.00  0.00     0.004 C 
ENDBRANCH   8   9
ENDBRANCH   7   8
ENDBRANCH   1   7
TORSDOF 6
ENDMDL
MODEL 8
REMARK VINA RESULT:    -3.114     23.970     25.032
REMARK INTER + INTRA:          -4.428
REMARK INTER:                  -4.065
REMARK INTRA:                  -0.363
REMARK UNBOUND:                -0.222
REMARK SMILES CCCCCCCC(=O)[O-]
REMARK SMILES IDX 5 1 6 2 7 3 8 4 9 5 10 6 4 7 3 8 2 9 1 10
REMARK H PARENT
REMARK Flexibility Score: inf
ROOT
ATOM      1  C   UNL     1      -5.498  10.127   7.339  1.00  0.00     0.000 C 
ENDROOT
BRANCH   1   2
ATOM      2  C   UNL     1      -6.553  11.091   6.782  1.00  0.00     0.006 C 
BRANCH   2   3
ATOM      3  C   UNL     1      -7.920  10.842   7.427  1.00  0.00     0.053 C 
BRANCH   3   4
ATOM      4  C   UNL     1      -8.992  10.799   6.385  1.00  0.00     0.041 C 
ATOM      5  O   UNL     1      -8.735  11.125   5.196  1.00  0.00    -0.550 OA
ATOM      6  O   UNL     1     -10.289  10.446   6.736  1.00  0.00    -0.550 OA
ENDBRANCH   3   4
ENDBRANCH   2   3
ENDBRANCH   1   2
BRANCH   1   7
ATOM      7  C   UNL     1      -4.776  10.742   8.546  1.00  0.00     0.000 C 
BRANCH   7   8
ATOM      8  C   UNL     1      -4.784   9.819   9.775  1.00  0.00    -0.000 C 
BRANCH   8   9
ATOM      9  C   UNL     1      -5.689   8.593   9.588  1.00  0.00    -0.003 C 
ATOM     10  C   UNL     1      -4.903   7.297   9.769  1.00  0.00     0.004 C 
ENDBRANCH   8   9
ENDBRANCH   7   8
ENDBRANCH   1   7
TORSDOF 6
ENDMDL
MODEL 9
REMARK VINA RESULT:    -3.065     19.461     20.832
REMARK INTER + INTRA:          -4.362
REMARK INTER:                  -3.869
REMARK INTRA:                  -0.493
REMARK UNBOUND:                -0.222
REMARK SMILES CCCCCCCC(=O)[O-]
REMARK SMILES IDX 5 1 6 2 7 3 8 4 9 5 10 6 4 7 3 8 2 9 1 10
REMARK H PARENT
REMARK Flexibility Score: inf
ROOT
ATOM      1  C   UNL     1       7.336   9.836   8.385  1.00  0.00     0.000 C 
ENDROOT
BRANCH   1   2
ATOM      2  C   UNL     1       7.397  10.616   7.065  1.00  0.00     0.006 C 
BRANCH   2   3
ATOM      3  C   UNL     1       6.119  10.410   6.246  1.00  0.00     0.053 C 
BRANCH   3   4
ATOM      4  C   UNL     1       6.454  10.115   4.818  1.00  0.00     0.041 C 
ATOM      5  O   UNL     1       7.267   9.197   4.534  1.00  0.00    -0.550 OA
ATOM      6  O   UNL     1       5.906  10.889   3.803  1.00  0.00    -0.550 OA
ENDBRANCH   3   4
ENDBRANCH   2   3
ENDBRANCH   1   2
BRANCH   1   7
ATOM      7  C   UNL     1       6.146   8.866   8.395  1.00  0.00     0.000 C 
BRANCH   7   8
ATOM      8  C   UNL     1       6.472   7.536   9.094  1.00  0.00    -0.000 C 
BRANCH   8   9
ATOM      9  C   UNL     1       6.111   6.313   8.239  1.00  0.00    -0.003 C 
ATOM     10  C   UNL     1       6.185   6.642   6.751  1.00  0.00     0.004 C 
ENDBRANCH   8   9
ENDBRANCH   7   8
ENDBRANCH   1   7
TORSDOF 6
ENDMDL
