MODEL 1
REMARK VINA RESULT:     8.897      0.000      0.000
REMARK INTER + INTRA:          10.193
REMARK INTER:                  10.718
REMARK INTRA:                  -0.525
REMARK UNBOUND:                -0.525
REMARK SMILES Oc1cc(O)c2c(c1)O[C@H](c1ccc(O)c(O)c1)[C@@H](O)C2
REMARK SMILES IDX 21 1 19 2 10 3 9 4 7 5 8 6 2 7 3 8 4 9 6 10 20 11 11 13
REMARK SMILES IDX 18 14 12 15 16 16 13 17 14 18 17 19 15 21 5 23 1 25
REMARK H PARENT 20 12 17 20 15 22 5 24 1 26
REMARK Flexibility Score: inf
ROOT
ATOM      1  C   UNL     1      10.896 -34.503 -11.330  1.00  0.00     0.079 C 
ATOM      2  C   UNL     1      11.619 -35.836 -11.577  1.00  0.00     0.164 C 
ATOM      3  C   UNL     1      10.787 -37.020 -11.031  1.00  0.00     0.232 C 
ATOM      4  O   UNL     1       9.445 -36.975 -11.529  1.00  0.00    -0.482 OA
ATOM      5  C   UNL     1       8.787 -35.783 -11.858  1.00  0.00     0.131 A 
ATOM      6  C   UNL     1       7.448 -35.831 -12.257  1.00  0.00     0.093 A 
ATOM      7  C   UNL     1       6.764 -34.652 -12.578  1.00  0.00     0.122 A 
ATOM      8  C   UNL     1       7.422 -33.423 -12.495  1.00  0.00     0.092 A 
ATOM      9  C   UNL     1       8.765 -33.362 -12.098  1.00  0.00     0.126 A 
ATOM     10  C   UNL     1       9.461 -34.547 -11.796  1.00  0.00     0.039 A 
ENDROOT
BRANCH   2  11
ATOM     11  O   UNL     1      11.824 -35.996 -12.957  1.00  0.00    -0.389 OA
ATOM     12  H   UNL     1      11.959 -36.967 -13.117  1.00  0.00     0.211 HD
ENDBRANCH   2  11
BRANCH   3  13
ATOM     13  C   UNL     1      10.820 -37.076  -9.514  1.00  0.00    -0.001 A 
ATOM     14  C   UNL     1       9.641 -37.084  -8.743  1.00  0.00     0.057 A 
ATOM     15  C   UNL     1      12.061 -37.066  -8.855  1.00  0.00     0.012 A 
ATOM     16  C   UNL     1       9.702 -37.101  -7.346  1.00  0.00     0.157 A 
ATOM     17  C   UNL     1      12.124 -37.085  -7.460  1.00  0.00     0.050 A 
ATOM     18  C   UNL     1      10.949 -37.104  -6.699  1.00  0.00     0.157 A 
BRANCH  16  19
ATOM     19  O   UNL     1       8.513 -37.113  -6.616  1.00  0.00    -0.504 OA
ATOM     20  H   UNL     1       8.423 -36.637  -5.727  1.00  0.00     0.293 HD
ENDBRANCH  16  19
BRANCH  18  21
ATOM     21  O   UNL     1      11.015 -37.122  -5.307  1.00  0.00    -0.504 OA
ATOM     22  H   UNL     1      10.689 -37.917  -4.770  1.00  0.00     0.293 HD
ENDBRANCH  18  21
ENDBRANCH   3  13
BRANCH   9  23
ATOM     23  O   UNL     1       9.408 -32.127 -12.001  1.00  0.00    -0.507 OA
ATOM     24  H   UNL     1       9.424 -31.603 -11.134  1.00  0.00     0.293 HD
ENDBRANCH   9  23
BRANCH   7  25
ATOM     25  O   UNL     1       5.429 -34.692 -12.975  1.00  0.00    -0.508 OA
ATOM     26  H   UNL     1       4.874 -35.536 -12.885  1.00  0.00     0.293 HD
ENDBRANCH   7  25
TORSDOF 6
ENDMDL
