MODEL 1
REMARK VINA RESULT:    -5.157      0.000      0.000
REMARK INTER + INTRA:         -15.505
REMARK INTER:                 -11.790
REMARK INTRA:                  -3.715
REMARK UNBOUND:                -3.715
REMARK SMILES CCCCCCCCCCCCCCCCCCCCCCCC(=O)[O-]
REMARK SMILES IDX 13 1 14 2 15 3 16 4 17 5 18 6 19 7 20 8 21 9 22 10 23 11
REMARK SMILES IDX 24 12 25 13 26 14 12 15 11 16 10 17 9 18 8 19 7 20 6 21 5 22
REMARK SMILES IDX 4 23 3 24 2 25 1 26
REMARK H PARENT
REMARK Flexibility Score: inf
ROOT
ATOM      1  C   UNL     1      10.137  18.526  31.975  1.00  0.00     0.000 C 
ENDROOT
BRANCH   1   2
ATOM      2  C   UNL     1       9.689  17.689  33.188  1.00  0.00     0.000 C 
BRANCH   2   3
ATOM      3  C   UNL     1       8.402  18.225  33.838  1.00  0.00     0.000 C 
BRANCH   3   4
ATOM      4  C   UNL     1       8.155  17.748  35.281  1.00  0.00     0.000 C 
BRANCH   4   5
ATOM      5  C   UNL     1       9.168  16.686  35.769  1.00  0.00     0.000 C 
BRANCH   5   6
ATOM      6  C   UNL     1      10.086  17.188  36.899  1.00  0.00     0.000 C 
BRANCH   6   7
ATOM      7  C   UNL     1      10.144  18.729  37.007  1.00  0.00     0.000 C 
BRANCH   7   8
ATOM      8  C   UNL     1      11.564  19.306  36.850  1.00  0.00     0.000 C 
BRANCH   8   9
ATOM      9  C   UNL     1      12.181  19.122  35.450  1.00  0.00     0.000 C 
BRANCH   9  10
ATOM     10  C   UNL     1      13.004  17.829  35.263  1.00  0.00     0.006 C 
BRANCH  10  11
ATOM     11  C   UNL     1      14.160  17.652  36.260  1.00  0.00     0.053 C 
BRANCH  11  12
ATOM     12  C   UNL     1      13.934  16.497  37.188  1.00  0.00     0.041 C 
ATOM     13  O   UNL     1      13.444  16.689  38.333  1.00  0.00    -0.550 OA
ATOM     14  O   UNL     1      14.286  15.210  36.799  1.00  0.00    -0.550 OA
ENDBRANCH  11  12
ENDBRANCH  10  11
ENDBRANCH   9  10
ENDBRANCH   8   9
ENDBRANCH   7   8
ENDBRANCH   6   7
ENDBRANCH   5   6
ENDBRANCH   4   5
ENDBRANCH   3   4
ENDBRANCH   2   3
ENDBRANCH   1   2
BRANCH   1  15
ATOM     15  C   UNL     1       9.727  17.885  30.639  1.00  0.00     0.000 C 
BRANCH  15  16
ATOM     16  C   UNL     1       8.962  18.861  29.727  1.00  0.00     0.000 C 
BRANCH  16  17
ATOM     17  C   UNL     1       8.171  19.913  30.532  1.00  0.00     0.000 C 
BRANCH  17  18
ATOM     18  C   UNL     1       8.169  21.312  29.888  1.00  0.00    -0.000 C 
BRANCH  18  19
ATOM     19  C   UNL     1       8.119  22.445  30.928  1.00  0.00    -0.000 C 
BRANCH  19  20
ATOM     20  C   UNL     1       9.510  23.014  31.250  1.00  0.00    -0.000 C 
BRANCH  20  21
ATOM     21  C   UNL     1       9.947  22.732  32.698  1.00  0.00    -0.000 C 
BRANCH  21  22
ATOM     22  C   UNL     1       8.961  21.825  33.452  1.00  0.00    -0.000 C 
BRANCH  22  23
ATOM     23  C   UNL     1       9.369  21.597  34.918  1.00  0.00    -0.000 C 
BRANCH  23  24
ATOM     24  C   UNL     1      10.404  22.621  35.420  1.00  0.00    -0.000 C 
BRANCH  24  25
ATOM     25  C   UNL     1       9.935  23.504  36.590  1.00  0.00    -0.003 C 
ATOM     26  C   UNL     1       9.123  22.734  37.632  1.00  0.00     0.004 C 
ENDBRANCH  24  25
ENDBRANCH  23  24
ENDBRANCH  22  23
ENDBRANCH  21  22
ENDBRANCH  20  21
ENDBRANCH  19  20
ENDBRANCH  18  19
ENDBRANCH  17  18
ENDBRANCH  16  17
ENDBRANCH  15  16
ENDBRANCH   1  15
TORSDOF 22
ENDMDL
MODEL 2
REMARK VINA RESULT:    -5.135      1.531      2.531
REMARK INTER + INTRA:         -15.454
REMARK INTER:                 -11.866
REMARK INTRA:                  -3.588
REMARK UNBOUND:                -3.715
REMARK SMILES CCCCCCCCCCCCCCCCCCCCCCCC(=O)[O-]
REMARK SMILES IDX 13 1 14 2 15 3 16 4 17 5 18 6 19 7 20 8 21 9 22 10 23 11
REMARK SMILES IDX 24 12 25 13 26 14 12 15 11 16 10 17 9 18 8 19 7 20 6 21 5 22
REMARK SMILES IDX 4 23 3 24 2 25 1 26
REMARK H PARENT
REMARK Flexibility Score: inf
ROOT
ATOM      1  C   UNL     1      10.026  17.373  33.681  1.00  0.00     0.000 C 
ENDROOT
BRANCH   1   2
ATOM      2  C   UNL     1       8.664  17.453  34.395  1.00  0.00     0.000 C 
BRANCH   2   3
ATOM      3  C   UNL     1       8.140  18.894  34.517  1.00  0.00     0.000 C 
BRANCH   3   4
ATOM      4  C   UNL     1       8.628  19.658  35.762  1.00  0.00     0.000 C 
BRANCH   4   5
ATOM      5  C   UNL     1       8.244  18.984  37.100  1.00  0.00     0.000 C 
BRANCH   5   6
ATOM      6  C   UNL     1       9.437  18.796  38.055  1.00  0.00     0.000 C 
BRANCH   6   7
ATOM      7  C   UNL     1      10.793  19.212  37.438  1.00  0.00     0.000 C 
BRANCH   7   8
ATOM      8  C   UNL     1      11.766  18.034  37.235  1.00  0.00     0.000 C 
BRANCH   8   9
ATOM      9  C   UNL     1      12.711  18.183  36.027  1.00  0.00     0.000 C 
BRANCH   9  10
ATOM     10  C   UNL     1      13.228  16.853  35.435  1.00  0.00     0.006 C 
BRANCH  10  11
ATOM     11  C   UNL     1      13.755  15.850  36.472  1.00  0.00     0.053 C 
BRANCH  11  12
ATOM     12  C   UNL     1      15.075  16.271  37.046  1.00  0.00     0.041 C 
ATOM     13  O   UNL     1      16.128  16.164  36.361  1.00  0.00    -0.550 OA
ATOM     14  O   UNL     1      15.147  16.760  38.345  1.00  0.00    -0.550 OA
ENDBRANCH  11  12
ENDBRANCH  10  11
ENDBRANCH   9  10
ENDBRANCH   8   9
ENDBRANCH   7   8
ENDBRANCH   6   7
ENDBRANCH   5   6
ENDBRANCH   4   5
ENDBRANCH   3   4
ENDBRANCH   2   3
ENDBRANCH   1   2
BRANCH   1  15
ATOM     15  C   UNL     1      10.152  18.399  32.543  1.00  0.00     0.000 C 
BRANCH  15  16
ATOM     16  C   UNL     1       9.799  17.802  31.168  1.00  0.00     0.000 C 
BRANCH  16  17
ATOM     17  C   UNL     1       9.142  18.839  30.234  1.00  0.00     0.000 C 
BRANCH  17  18
ATOM     18  C   UNL     1       8.341  19.923  30.979  1.00  0.00    -0.000 C 
BRANCH  18  19
ATOM     19  C   UNL     1       8.390  21.289  30.273  1.00  0.00    -0.000 C 
BRANCH  19  20
ATOM     20  C   UNL     1       8.901  22.411  31.191  1.00  0.00    -0.000 C 
BRANCH  20  21
ATOM     21  C   UNL     1       8.750  22.073  32.685  1.00  0.00    -0.000 C 
BRANCH  21  22
ATOM     22  C   UNL     1      10.097  22.026  33.424  1.00  0.00    -0.000 C 
BRANCH  22  23
ATOM     23  C   UNL     1      11.299  22.020  32.463  1.00  0.00    -0.000 C 
BRANCH  23  24
ATOM     24  C   UNL     1      12.263  23.197  32.701  1.00  0.00    -0.000 C 
BRANCH  24  25
ATOM     25  C   UNL     1      11.635  24.595  32.554  1.00  0.00    -0.003 C 
ATOM     26  C   UNL     1      11.729  25.148  31.132  1.00  0.00     0.004 C 
ENDBRANCH  24  25
ENDBRANCH  23  24
ENDBRANCH  22  23
ENDBRANCH  21  22
ENDBRANCH  20  21
ENDBRANCH  19  20
ENDBRANCH  18  19
ENDBRANCH  17  18
ENDBRANCH  16  17
ENDBRANCH  15  16
ENDBRANCH   1  15
TORSDOF 22
ENDMDL
MODEL 3
REMARK VINA RESULT:    -5.127      1.404      2.373
REMARK INTER + INTRA:         -15.437
REMARK INTER:                 -11.548
REMARK INTRA:                  -3.889
REMARK UNBOUND:                -3.715
REMARK SMILES CCCCCCCCCCCCCCCCCCCCCCCC(=O)[O-]
REMARK SMILES IDX 13 1 14 2 15 3 16 4 17 5 18 6 19 7 20 8 21 9 22 10 23 11
REMARK SMILES IDX 24 12 25 13 26 14 12 15 11 16 10 17 9 18 8 19 7 20 6 21 5 22
REMARK SMILES IDX 4 23 3 24 2 25 1 26
REMARK H PARENT
REMARK Flexibility Score: inf
ROOT
ATOM      1  C   UNL     1      10.215  17.643  33.345  1.00  0.00     0.000 C 
ENDROOT
BRANCH   1   2
ATOM      2  C   UNL     1       8.942  17.936  34.159  1.00  0.00     0.000 C 
BRANCH   2   3
ATOM      3  C   UNL     1       8.978  17.313  35.565  1.00  0.00     0.000 C 
BRANCH   3   4
ATOM      4  C   UNL     1      10.371  16.860  36.039  1.00  0.00     0.000 C 
BRANCH   4   5
ATOM      5  C   UNL     1      10.892  17.630  37.275  1.00  0.00     0.000 C 
BRANCH   5   6
ATOM      6  C   UNL     1      11.786  18.831  36.916  1.00  0.00     0.000 C 
BRANCH   6   7
ATOM      7  C   UNL     1      12.890  18.493  35.887  1.00  0.00     0.000 C 
BRANCH   7   8
ATOM      8  C   UNL     1      14.306  18.893  36.346  1.00  0.00     0.000 C 
BRANCH   8   9
ATOM      9  C   UNL     1      14.543  18.784  37.865  1.00  0.00     0.000 C 
BRANCH   9  10
ATOM     10  C   UNL     1      14.767  17.349  38.390  1.00  0.00     0.006 C 
BRANCH  10  11
ATOM     11  C   UNL     1      15.346  16.369  37.358  1.00  0.00     0.053 C 
BRANCH  11  12
ATOM     12  C   UNL     1      14.616  15.060  37.350  1.00  0.00     0.041 C 
ATOM     13  O   UNL     1      13.722  14.837  36.491  1.00  0.00    -0.550 OA
ATOM     14  O   UNL     1      14.906  14.094  38.306  1.00  0.00    -0.550 OA
ENDBRANCH  11  12
ENDBRANCH  10  11
ENDBRANCH   9  10
ENDBRANCH   8   9
ENDBRANCH   7   8
ENDBRANCH   6   7
ENDBRANCH   5   6
ENDBRANCH   4   5
ENDBRANCH   3   4
ENDBRANCH   2   3
ENDBRANCH   1   2
BRANCH   1  15
ATOM     15  C   UNL     1       9.972  17.720  31.829  1.00  0.00     0.000 C 
BRANCH  15  16
ATOM     16  C   UNL     1       8.655  18.439  31.479  1.00  0.00     0.000 C 
BRANCH  16  17
ATOM     17  C   UNL     1       8.898  19.847  30.894  1.00  0.00     0.000 C 
BRANCH  17  18
ATOM     18  C   UNL     1       8.254  20.978  31.718  1.00  0.00    -0.000 C 
BRANCH  18  19
ATOM     19  C   UNL     1       9.287  21.981  32.258  1.00  0.00    -0.000 C 
BRANCH  19  20
ATOM     20  C   UNL     1      10.611  21.311  32.658  1.00  0.00    -0.000 C 
BRANCH  20  21
ATOM     21  C   UNL     1      10.947  21.501  34.148  1.00  0.00    -0.000 C 
BRANCH  21  22
ATOM     22  C   UNL     1       9.784  21.112  35.076  1.00  0.00    -0.000 C 
BRANCH  22  23
ATOM     23  C   UNL     1       9.469  22.201  36.116  1.00  0.00    -0.000 C 
BRANCH  23  24
ATOM     24  C   UNL     1       9.160  21.627  37.511  1.00  0.00    -0.000 C 
BRANCH  24  25
ATOM     25  C   UNL     1       8.264  20.374  37.517  1.00  0.00    -0.003 C 
ATOM     26  C   UNL     1       8.371  19.568  38.811  1.00  0.00     0.004 C 
ENDBRANCH  24  25
ENDBRANCH  23  24
ENDBRANCH  22  23
ENDBRANCH  21  22
ENDBRANCH  20  21
ENDBRANCH  19  20
ENDBRANCH  18  19
ENDBRANCH  17  18
ENDBRANCH  16  17
ENDBRANCH  15  16
ENDBRANCH   1  15
TORSDOF 22
ENDMDL
MODEL 4
REMARK VINA RESULT:    -5.119      2.021      2.931
REMARK INTER + INTRA:         -15.417
REMARK INTER:                 -12.620
REMARK INTRA:                  -2.797
REMARK UNBOUND:                -3.715
REMARK SMILES CCCCCCCCCCCCCCCCCCCCCCCC(=O)[O-]
REMARK SMILES IDX 13 1 14 2 15 3 16 4 17 5 18 6 19 7 20 8 21 9 22 10 23 11
REMARK SMILES IDX 24 12 25 13 26 14 12 15 11 16 10 17 9 18 8 19 7 20 6 21 5 22
REMARK SMILES IDX 4 23 3 24 2 25 1 26
REMARK H PARENT
REMARK Flexibility Score: inf
ROOT
ATOM      1  C   UNL     1       9.857  19.717  33.989  1.00  0.00     0.000 C 
ENDROOT
BRANCH   1   2
ATOM      2  C   UNL     1       8.374  19.340  34.159  1.00  0.00     0.000 C 
BRANCH   2   3
ATOM      3  C   UNL     1       8.087  18.644  35.501  1.00  0.00     0.000 C 
BRANCH   3   4
ATOM      4  C   UNL     1       8.365  17.129  35.519  1.00  0.00     0.000 C 
BRANCH   4   5
ATOM      5  C   UNL     1       9.737  16.753  36.125  1.00  0.00     0.000 C 
BRANCH   5   6
ATOM      6  C   UNL     1      10.138  17.631  37.325  1.00  0.00     0.000 C 
BRANCH   6   7
ATOM      7  C   UNL     1      11.391  18.498  37.062  1.00  0.00     0.000 C 
BRANCH   7   8
ATOM      8  C   UNL     1      12.686  17.679  36.899  1.00  0.00     0.000 C 
BRANCH   8   9
ATOM      9  C   UNL     1      13.320  17.209  38.222  1.00  0.00     0.000 C 
BRANCH   9  10
ATOM     10  C   UNL     1      14.851  17.007  38.178  1.00  0.00     0.006 C 
BRANCH  10  11
ATOM     11  C   UNL     1      15.379  16.377  36.880  1.00  0.00     0.053 C 
BRANCH  11  12
ATOM     12  C   UNL     1      15.899  17.407  35.923  1.00  0.00     0.041 C 
ATOM     13  O   UNL     1      15.999  18.612  36.280  1.00  0.00    -0.550 OA
ATOM     14  O   UNL     1      16.250  17.043  34.628  1.00  0.00    -0.550 OA
ENDBRANCH  11  12
ENDBRANCH  10  11
ENDBRANCH   9  10
ENDBRANCH   8   9
ENDBRANCH   7   8
ENDBRANCH   6   7
ENDBRANCH   5   6
ENDBRANCH   4   5
ENDBRANCH   3   4
ENDBRANCH   2   3
ENDBRANCH   1   2
BRANCH   1  15
ATOM     15  C   UNL     1      10.538  18.921  32.865  1.00  0.00     0.000 C 
BRANCH  15  16
ATOM     16  C   UNL     1       9.560  17.992  32.123  1.00  0.00     0.000 C 
BRANCH  16  17
ATOM     17  C   UNL     1       9.965  17.777  30.649  1.00  0.00     0.000 C 
BRANCH  17  18
ATOM     18  C   UNL     1       9.139  18.611  29.652  1.00  0.00    -0.000 C 
BRANCH  18  19
ATOM     19  C   UNL     1       8.298  19.698  30.342  1.00  0.00    -0.000 C 
BRANCH  19  20
ATOM     20  C   UNL     1       7.981  20.880  29.412  1.00  0.00    -0.000 C 
BRANCH  20  21
ATOM     21  C   UNL     1       7.971  22.231  30.149  1.00  0.00    -0.000 C 
BRANCH  21  22
ATOM     22  C   UNL     1       8.062  22.077  31.676  1.00  0.00    -0.000 C 
BRANCH  22  23
ATOM     23  C   UNL     1       8.967  23.140  32.325  1.00  0.00    -0.000 C 
BRANCH  23  24
ATOM     24  C   UNL     1      10.372  23.195  31.698  1.00  0.00    -0.000 C 
BRANCH  24  25
ATOM     25  C   UNL     1      11.487  22.550  32.542  1.00  0.00    -0.003 C 
ATOM     26  C   UNL     1      12.624  23.517  32.873  1.00  0.00     0.004 C 
ENDBRANCH  24  25
ENDBRANCH  23  24
ENDBRANCH  22  23
ENDBRANCH  21  22
ENDBRANCH  20  21
ENDBRANCH  19  20
ENDBRANCH  18  19
ENDBRANCH  17  18
ENDBRANCH  16  17
ENDBRANCH  15  16
ENDBRANCH   1  15
TORSDOF 22
ENDMDL
MODEL 5
REMARK VINA RESULT:    -5.111      1.058      1.658
REMARK INTER + INTRA:         -15.400
REMARK INTER:                 -11.687
REMARK INTRA:                  -3.713
REMARK UNBOUND:                -3.715
REMARK SMILES CCCCCCCCCCCCCCCCCCCCCCCC(=O)[O-]
REMARK SMILES IDX 13 1 14 2 15 3 16 4 17 5 18 6 19 7 20 8 21 9 22 10 23 11
REMARK SMILES IDX 24 12 25 13 26 14 12 15 11 16 10 17 9 18 8 19 7 20 6 21 5 22
REMARK SMILES IDX 4 23 3 24 2 25 1 26
REMARK H PARENT
REMARK Flexibility Score: inf
ROOT
ATOM      1  C   UNL     1      10.039  17.367  31.088  1.00  0.00     0.000 C 
ENDROOT
BRANCH   1   2
ATOM      2  C   UNL     1      10.152  18.097  32.439  1.00  0.00     0.000 C 
BRANCH   2   3
ATOM      3  C   UNL     1       9.947  17.159  33.641  1.00  0.00     0.000 C 
BRANCH   3   4
ATOM      4  C   UNL     1       8.695  17.453  34.488  1.00  0.00     0.000 C 
BRANCH   4   5
ATOM      5  C   UNL     1       8.225  18.924  34.419  1.00  0.00     0.000 C 
BRANCH   5   6
ATOM      6  C   UNL     1       8.343  19.668  35.762  1.00  0.00     0.000 C 
BRANCH   6   7
ATOM      7  C   UNL     1       9.036  18.838  36.868  1.00  0.00     0.000 C 
BRANCH   7   8
ATOM      8  C   UNL     1       9.949  19.673  37.786  1.00  0.00     0.000 C 
BRANCH   8   9
ATOM      9  C   UNL     1      11.409  19.790  37.305  1.00  0.00     0.000 C 
BRANCH   9  10
ATOM     10  C   UNL     1      11.888  18.645  36.386  1.00  0.00     0.006 C 
BRANCH  10  11
ATOM     11  C   UNL     1      13.407  18.414  36.387  1.00  0.00     0.053 C 
BRANCH  11  12
ATOM     12  C   UNL     1      13.777  17.096  36.999  1.00  0.00     0.041 C 
ATOM     13  O   UNL     1      14.375  16.224  36.314  1.00  0.00    -0.550 OA
ATOM     14  O   UNL     1      13.442  16.822  38.320  1.00  0.00    -0.550 OA
ENDBRANCH  11  12
ENDBRANCH  10  11
ENDBRANCH   9  10
ENDBRANCH   8   9
ENDBRANCH   7   8
ENDBRANCH   6   7
ENDBRANCH   5   6
ENDBRANCH   4   5
ENDBRANCH   3   4
ENDBRANCH   2   3
ENDBRANCH   1   2
BRANCH   1  15
ATOM     15  C   UNL     1       9.336  18.219  30.020  1.00  0.00     0.000 C 
BRANCH  15  16
ATOM     16  C   UNL     1       8.583  19.419  30.624  1.00  0.00     0.000 C 
BRANCH  16  17
ATOM     17  C   UNL     1       8.186  20.457  29.552  1.00  0.00     0.000 C 
BRANCH  17  18
ATOM     18  C   UNL     1       8.168  21.906  30.073  1.00  0.00    -0.000 C 
BRANCH  18  19
ATOM     19  C   UNL     1       8.406  21.996  31.590  1.00  0.00    -0.000 C 
BRANCH  19  20
ATOM     20  C   UNL     1       9.770  22.610  31.940  1.00  0.00    -0.000 C 
BRANCH  20  21
ATOM     21  C   UNL     1      10.724  21.601  32.604  1.00  0.00    -0.000 C 
BRANCH  21  22
ATOM     22  C   UNL     1      10.834  21.798  34.125  1.00  0.00    -0.000 C 
BRANCH  22  23
ATOM     23  C   UNL     1      10.350  23.187  34.578  1.00  0.00    -0.000 C 
BRANCH  23  24
ATOM     24  C   UNL     1       9.152  23.120  35.543  1.00  0.00    -0.000 C 
BRANCH  24  25
ATOM     25  C   UNL     1       9.520  23.099  37.038  1.00  0.00    -0.003 C 
ATOM     26  C   UNL     1      10.235  24.369  37.497  1.00  0.00     0.004 C 
ENDBRANCH  24  25
ENDBRANCH  23  24
ENDBRANCH  22  23
ENDBRANCH  21  22
ENDBRANCH  20  21
ENDBRANCH  19  20
ENDBRANCH  18  19
ENDBRANCH  17  18
ENDBRANCH  16  17
ENDBRANCH  15  16
ENDBRANCH   1  15
TORSDOF 22
ENDMDL
MODEL 6
REMARK VINA RESULT:    -5.082      1.534      3.991
REMARK INTER + INTRA:         -15.333
REMARK INTER:                 -11.238
REMARK INTRA:                  -4.095
REMARK UNBOUND:                -3.715
REMARK SMILES CCCCCCCCCCCCCCCCCCCCCCCC(=O)[O-]
REMARK SMILES IDX 13 1 14 2 15 3 16 4 17 5 18 6 19 7 20 8 21 9 22 10 23 11
REMARK SMILES IDX 24 12 25 13 26 14 12 15 11 16 10 17 9 18 8 19 7 20 6 21 5 22
REMARK SMILES IDX 4 23 3 24 2 25 1 26
REMARK H PARENT
REMARK Flexibility Score: inf
ROOT
ATOM      1  C   UNL     1      11.839  21.253  35.304  1.00  0.00     0.000 C 
ENDROOT
BRANCH   1   2
ATOM      2  C   UNL     1      10.812  21.925  36.234  1.00  0.00     0.000 C 
BRANCH   2   3
ATOM      3  C   UNL     1       9.398  21.338  36.081  1.00  0.00     0.000 C 
BRANCH   3   4
ATOM      4  C   UNL     1       8.790  20.763  37.374  1.00  0.00     0.000 C 
BRANCH   4   5
ATOM      5  C   UNL     1       8.236  19.328  37.219  1.00  0.00     0.000 C 
BRANCH   5   6
ATOM      6  C   UNL     1       8.706  18.625  35.932  1.00  0.00     0.000 C 
BRANCH   6   7
ATOM      7  C   UNL     1       9.579  17.376  36.196  1.00  0.00     0.000 C 
BRANCH   7   8
ATOM      8  C   UNL     1      10.852  17.319  35.329  1.00  0.00     0.000 C 
BRANCH   8   9
ATOM      9  C   UNL     1      12.136  16.950  36.096  1.00  0.00     0.000 C 
BRANCH   9  10
ATOM     10  C   UNL     1      12.853  18.136  36.777  1.00  0.00     0.006 C 
BRANCH  10  11
ATOM     11  C   UNL     1      14.326  18.314  36.376  1.00  0.00     0.053 C 
BRANCH  11  12
ATOM     12  C   UNL     1      15.182  17.177  36.849  1.00  0.00     0.041 C 
ATOM     13  O   UNL     1      15.998  16.627  36.062  1.00  0.00    -0.550 OA
ATOM     14  O   UNL     1      15.061  16.709  38.152  1.00  0.00    -0.550 OA
ENDBRANCH  11  12
ENDBRANCH  10  11
ENDBRANCH   9  10
ENDBRANCH   8   9
ENDBRANCH   7   8
ENDBRANCH   6   7
ENDBRANCH   5   6
ENDBRANCH   4   5
ENDBRANCH   3   4
ENDBRANCH   2   3
ENDBRANCH   1   2
BRANCH   1  15
ATOM     15  C   UNL     1      11.189  20.667  34.041  1.00  0.00     0.000 C 
BRANCH  15  16
ATOM     16  C   UNL     1      11.788  21.246  32.746  1.00  0.00     0.000 C 
BRANCH  16  17
ATOM     17  C   UNL     1      11.869  22.787  32.779  1.00  0.00     0.000 C 
BRANCH  17  18
ATOM     18  C   UNL     1      10.764  23.482  31.963  1.00  0.00    -0.000 C 
BRANCH  18  19
ATOM     19  C   UNL     1       9.476  23.703  32.774  1.00  0.00    -0.000 C 
BRANCH  19  20
ATOM     20  C   UNL     1       8.309  22.833  32.281  1.00  0.00    -0.000 C 
BRANCH  20  21
ATOM     21  C   UNL     1       8.568  22.223  30.892  1.00  0.00    -0.000 C 
BRANCH  21  22
ATOM     22  C   UNL     1       8.347  20.702  30.859  1.00  0.00    -0.000 C 
BRANCH  22  23
ATOM     23  C   UNL     1       8.336  20.075  32.265  1.00  0.00    -0.000 C 
BRANCH  23  24
ATOM     24  C   UNL     1       8.541  18.549  32.244  1.00  0.00    -0.000 C 
BRANCH  24  25
ATOM     25  C   UNL     1       9.925  18.084  31.755  1.00  0.00    -0.003 C 
ATOM     26  C   UNL     1       9.933  17.672  30.284  1.00  0.00     0.004 C 
ENDBRANCH  24  25
ENDBRANCH  23  24
ENDBRANCH  22  23
ENDBRANCH  21  22
ENDBRANCH  20  21
ENDBRANCH  19  20
ENDBRANCH  18  19
ENDBRANCH  17  18
ENDBRANCH  16  17
ENDBRANCH  15  16
ENDBRANCH   1  15
TORSDOF 22
ENDMDL
MODEL 7
REMARK VINA RESULT:    -5.045      1.264      5.378
REMARK INTER + INTRA:         -15.248
REMARK INTER:                 -11.602
REMARK INTRA:                  -3.646
REMARK UNBOUND:                -3.715
REMARK SMILES CCCCCCCCCCCCCCCCCCCCCCCC(=O)[O-]
REMARK SMILES IDX 13 1 14 2 15 3 16 4 17 5 18 6 19 7 20 8 21 9 22 10 23 11
REMARK SMILES IDX 24 12 25 13 26 14 12 15 11 16 10 17 9 18 8 19 7 20 6 21 5 22
REMARK SMILES IDX 4 23 3 24 2 25 1 26
REMARK H PARENT
REMARK Flexibility Score: inf
ROOT
ATOM      1  C   UNL     1       9.809  21.761  38.493  1.00  0.00     0.000 C 
ENDROOT
BRANCH   1   2
ATOM      2  C   UNL     1       8.976  22.609  37.514  1.00  0.00     0.000 C 
BRANCH   2   3
ATOM      3  C   UNL     1       9.811  23.163  36.347  1.00  0.00     0.000 C 
BRANCH   3   4
ATOM      4  C   UNL     1       9.357  22.703  34.949  1.00  0.00     0.000 C 
BRANCH   4   5
ATOM      5  C   UNL     1       9.802  21.266  34.589  1.00  0.00     0.000 C 
BRANCH   5   6
ATOM      6  C   UNL     1      11.330  21.095  34.529  1.00  0.00     0.000 C 
BRANCH   6   7
ATOM      7  C   UNL     1      11.885  20.129  35.602  1.00  0.00     0.000 C 
BRANCH   7   8
ATOM      8  C   UNL     1      13.287  20.513  36.113  1.00  0.00     0.000 C 
BRANCH   8   9
ATOM      9  C   UNL     1      14.167  19.321  36.533  1.00  0.00     0.000 C 
BRANCH   9  10
ATOM     10  C   UNL     1      14.052  18.073  35.630  1.00  0.00     0.006 C 
BRANCH  10  11
ATOM     11  C   UNL     1      15.157  17.025  35.838  1.00  0.00     0.053 C 
BRANCH  11  12
ATOM     12  C   UNL     1      14.773  15.994  36.856  1.00  0.00     0.041 C 
ATOM     13  O   UNL     1      13.876  15.148  36.596  1.00  0.00    -0.550 OA
ATOM     14  O   UNL     1      15.390  15.981  38.102  1.00  0.00    -0.550 OA
ENDBRANCH  11  12
ENDBRANCH  10  11
ENDBRANCH   9  10
ENDBRANCH   8   9
ENDBRANCH   7   8
ENDBRANCH   6   7
ENDBRANCH   5   6
ENDBRANCH   4   5
ENDBRANCH   3   4
ENDBRANCH   2   3
ENDBRANCH   1   2
BRANCH   1  15
ATOM     15  C   UNL     1       9.514  20.258  38.362  1.00  0.00     0.000 C 
BRANCH  15  16
ATOM     16  C   UNL     1       8.103  19.980  37.813  1.00  0.00     0.000 C 
BRANCH  16  17
ATOM     17  C   UNL     1       8.109  18.901  36.709  1.00  0.00     0.000 C 
BRANCH  17  18
ATOM     18  C   UNL     1       9.395  18.054  36.680  1.00  0.00    -0.000 C 
BRANCH  18  19
ATOM     19  C   UNL     1       9.377  16.986  35.573  1.00  0.00    -0.000 C 
BRANCH  19  20
ATOM     20  C   UNL     1       8.951  17.553  34.210  1.00  0.00    -0.000 C 
BRANCH  20  21
ATOM     21  C   UNL     1      10.021  17.352  33.121  1.00  0.00    -0.000 C 
BRANCH  21  22
ATOM     22  C   UNL     1      10.170  18.573  32.200  1.00  0.00    -0.000 C 
BRANCH  22  23
ATOM     23  C   UNL     1       9.639  18.311  30.780  1.00  0.00    -0.000 C 
BRANCH  23  24
ATOM     24  C   UNL     1       8.680  19.410  30.285  1.00  0.00    -0.000 C 
BRANCH  24  25
ATOM     25  C   UNL     1       8.410  20.542  31.294  1.00  0.00    -0.003 C 
ATOM     26  C   UNL     1       8.388  21.927  30.649  1.00  0.00     0.004 C 
ENDBRANCH  24  25
ENDBRANCH  23  24
ENDBRANCH  22  23
ENDBRANCH  21  22
ENDBRANCH  20  21
ENDBRANCH  19  20
ENDBRANCH  18  19
ENDBRANCH  17  18
ENDBRANCH  16  17
ENDBRANCH  15  16
ENDBRANCH   1  15
TORSDOF 22
ENDMDL
MODEL 8
REMARK VINA RESULT:    -5.001      1.707      3.123
REMARK INTER + INTRA:         -15.148
REMARK INTER:                 -11.372
REMARK INTRA:                  -3.776
REMARK UNBOUND:                -3.715
REMARK SMILES CCCCCCCCCCCCCCCCCCCCCCCC(=O)[O-]
REMARK SMILES IDX 13 1 14 2 15 3 16 4 17 5 18 6 19 7 20 8 21 9 22 10 23 11
REMARK SMILES IDX 24 12 25 13 26 14 12 15 11 16 10 17 9 18 8 19 7 20 6 21 5 22
REMARK SMILES IDX 4 23 3 24 2 25 1 26
REMARK H PARENT
REMARK Flexibility Score: inf
ROOT
ATOM      1  C   UNL     1       8.252  19.259  34.723  1.00  0.00     0.000 C 
ENDROOT
BRANCH   1   2
ATOM      2  C   UNL     1       7.886  18.781  36.140  1.00  0.00     0.000 C 
BRANCH   2   3
ATOM      3  C   UNL     1       8.740  19.447  37.233  1.00  0.00     0.000 C 
BRANCH   3   4
ATOM      4  C   UNL     1      10.186  18.928  37.332  1.00  0.00     0.000 C 
BRANCH   4   5
ATOM      5  C   UNL     1      11.258  20.007  37.054  1.00  0.00     0.000 C 
BRANCH   5   6
ATOM      6  C   UNL     1      11.961  19.837  35.695  1.00  0.00     0.000 C 
BRANCH   6   7
ATOM      7  C   UNL     1      12.387  18.380  35.399  1.00  0.00     0.000 C 
BRANCH   7   8
ATOM      8  C   UNL     1      13.709  17.973  36.079  1.00  0.00     0.000 C 
BRANCH   8   9
ATOM      9  C   UNL     1      13.552  16.976  37.243  1.00  0.00     0.000 C 
BRANCH   9  10
ATOM     10  C   UNL     1      14.482  17.229  38.450  1.00  0.00     0.006 C 
BRANCH  10  11
ATOM     11  C   UNL     1      15.132  18.621  38.480  1.00  0.00     0.053 C 
BRANCH  11  12
ATOM     12  C   UNL     1      14.671  19.435  39.652  1.00  0.00     0.041 C 
ATOM     13  O   UNL     1      13.440  19.613  39.855  1.00  0.00    -0.550 OA
ATOM     14  O   UNL     1      15.600  20.018  40.506  1.00  0.00    -0.550 OA
ENDBRANCH  11  12
ENDBRANCH  10  11
ENDBRANCH   9  10
ENDBRANCH   8   9
ENDBRANCH   7   8
ENDBRANCH   6   7
ENDBRANCH   5   6
ENDBRANCH   4   5
ENDBRANCH   3   4
ENDBRANCH   2   3
ENDBRANCH   1   2
BRANCH   1  15
ATOM     15  C   UNL     1       8.238  18.115  33.698  1.00  0.00     0.000 C 
BRANCH  15  16
ATOM     16  C   UNL     1       9.653  17.716  33.239  1.00  0.00     0.000 C 
BRANCH  16  17
ATOM     17  C   UNL     1       9.754  17.587  31.705  1.00  0.00     0.000 C 
BRANCH  17  18
ATOM     18  C   UNL     1       9.960  18.932  30.984  1.00  0.00    -0.000 C 
BRANCH  18  19
ATOM     19  C   UNL     1       8.654  19.502  30.405  1.00  0.00    -0.000 C 
BRANCH  19  20
ATOM     20  C   UNL     1       8.319  20.895  30.959  1.00  0.00    -0.000 C 
BRANCH  20  21
ATOM     21  C   UNL     1       9.378  21.411  31.951  1.00  0.00    -0.000 C 
BRANCH  21  22
ATOM     22  C   UNL     1       8.837  22.505  32.885  1.00  0.00    -0.000 C 
BRANCH  22  23
ATOM     23  C   UNL     1       9.790  22.810  34.054  1.00  0.00    -0.000 C 
BRANCH  23  24
ATOM     24  C   UNL     1       9.082  22.809  35.422  1.00  0.00    -0.000 C 
BRANCH  24  25
ATOM     25  C   UNL     1       9.898  23.414  36.579  1.00  0.00    -0.003 C 
ATOM     26  C   UNL     1       9.291  23.129  37.952  1.00  0.00     0.004 C 
ENDBRANCH  24  25
ENDBRANCH  23  24
ENDBRANCH  22  23
ENDBRANCH  21  22
ENDBRANCH  20  21
ENDBRANCH  19  20
ENDBRANCH  18  19
ENDBRANCH  17  18
ENDBRANCH  16  17
ENDBRANCH  15  16
ENDBRANCH   1  15
TORSDOF 22
ENDMDL
MODEL 9
REMARK VINA RESULT:    -4.968      1.457      2.701
REMARK INTER + INTRA:         -15.072
REMARK INTER:                 -11.292
REMARK INTRA:                  -3.779
REMARK UNBOUND:                -3.715
REMARK SMILES CCCCCCCCCCCCCCCCCCCCCCCC(=O)[O-]
REMARK SMILES IDX 13 1 14 2 15 3 16 4 17 5 18 6 19 7 20 8 21 9 22 10 23 11
REMARK SMILES IDX 24 12 25 13 26 14 12 15 11 16 10 17 9 18 8 19 7 20 6 21 5 22
REMARK SMILES IDX 4 23 3 24 2 25 1 26
REMARK H PARENT
REMARK Flexibility Score: inf
ROOT
ATOM      1  C   UNL     1       8.431  17.757  34.782  1.00  0.00     0.000 C 
ENDROOT
BRANCH   1   2
ATOM      2  C   UNL     1       9.754  16.978  34.914  1.00  0.00     0.000 C 
BRANCH   2   3
ATOM      3  C   UNL     1      10.514  17.314  36.209  1.00  0.00     0.000 C 
BRANCH   3   4
ATOM      4  C   UNL     1       9.776  18.269  37.166  1.00  0.00     0.000 C 
BRANCH   4   5
ATOM      5  C   UNL     1      10.651  18.784  38.332  1.00  0.00     0.000 C 
BRANCH   5   6
ATOM      6  C   UNL     1      12.162  18.649  38.070  1.00  0.00     0.000 C 
BRANCH   6   7
ATOM      7  C   UNL     1      12.872  20.004  37.840  1.00  0.00     0.000 C 
BRANCH   7   8
ATOM      8  C   UNL     1      13.829  20.002  36.632  1.00  0.00     0.000 C 
BRANCH   8   9
ATOM      9  C   UNL     1      15.274  19.577  36.958  1.00  0.00     0.000 C 
BRANCH   9  10
ATOM     10  C   UNL     1      15.831  18.431  36.085  1.00  0.00     0.006 C 
BRANCH  10  11
ATOM     11  C   UNL     1      14.778  17.425  35.596  1.00  0.00     0.053 C 
BRANCH  11  12
ATOM     12  C   UNL     1      14.728  16.197  36.454  1.00  0.00     0.041 C 
ATOM     13  O   UNL     1      15.749  15.829  37.094  1.00  0.00    -0.550 OA
ATOM     14  O   UNL     1      13.561  15.446  36.530  1.00  0.00    -0.550 OA
ENDBRANCH  11  12
ENDBRANCH  10  11
ENDBRANCH   9  10
ENDBRANCH   8   9
ENDBRANCH   7   8
ENDBRANCH   6   7
ENDBRANCH   5   6
ENDBRANCH   4   5
ENDBRANCH   3   4
ENDBRANCH   2   3
ENDBRANCH   1   2
BRANCH   1  15
ATOM     15  C   UNL     1       8.201  18.280  33.355  1.00  0.00     0.000 C 
BRANCH  15  16
ATOM     16  C   UNL     1       9.368  17.945  32.408  1.00  0.00     0.000 C 
BRANCH  16  17
ATOM     17  C   UNL     1       9.273  18.712  31.072  1.00  0.00     0.000 C 
BRANCH  17  18
ATOM     18  C   UNL     1       8.242  19.856  31.088  1.00  0.00    -0.000 C 
BRANCH  18  19
ATOM     19  C   UNL     1       8.270  20.699  29.802  1.00  0.00    -0.000 C 
BRANCH  19  20
ATOM     20  C   UNL     1       8.347  22.208  30.085  1.00  0.00    -0.000 C 
BRANCH  20  21
ATOM     21  C   UNL     1       8.804  22.521  31.522  1.00  0.00    -0.000 C 
BRANCH  21  22
ATOM     22  C   UNL     1      10.121  23.313  31.568  1.00  0.00    -0.000 C 
BRANCH  22  23
ATOM     23  C   UNL     1      11.054  22.844  32.699  1.00  0.00    -0.000 C 
BRANCH  23  24
ATOM     24  C   UNL     1      11.355  21.335  32.642  1.00  0.00    -0.000 C 
BRANCH  24  25
ATOM     25  C   UNL     1      11.169  20.582  33.972  1.00  0.00    -0.003 C 
ATOM     26  C   UNL     1      10.100  21.206  34.868  1.00  0.00     0.004 C 
ENDBRANCH  24  25
ENDBRANCH  23  24
ENDBRANCH  22  23
ENDBRANCH  21  22
ENDBRANCH  20  21
ENDBRANCH  19  20
ENDBRANCH  18  19
ENDBRANCH  17  18
ENDBRANCH  16  17
ENDBRANCH  15  16
ENDBRANCH   1  15
TORSDOF 22
ENDMDL
