MODEL 1
REMARK VINA RESULT:    29.855      0.000      0.000
REMARK INTER + INTRA:          36.555
REMARK INTER:                  36.836
REMARK INTRA:                  -0.281
REMARK UNBOUND:                -0.281
REMARK SMILES O=c1c(O)c(-c2cc(O)c(O)c(O)c2)oc2cc(O)cc(O)c12
REMARK SMILES IDX 5 1 3 2 2 3 1 4 23 5 21 6 20 7 18 8 17 9 16 10 15 11 6 12
REMARK SMILES IDX 7 13 8 14 14 15 10 16 12 17 9 18 11 20 13 22 4 24 22 26
REMARK SMILES IDX 19 28
REMARK H PARENT 9 19 11 21 13 23 4 25 22 27 19 29
REMARK Flexibility Score: inf
ROOT
ATOM      1  C   UNL     1       9.360   2.174   8.873  1.00  0.00     0.180 A 
ATOM      2  C   UNL     1       9.467   3.520   8.481  1.00  0.00     0.208 A 
ATOM      3  C   UNL     1      10.539   3.907   7.662  1.00  0.00     0.238 A 
ATOM      4  O   UNL     1      10.601   5.102   7.271  1.00  0.00    -0.285 OA
ATOM      5  C   UNL     1      11.500   2.948   7.258  1.00  0.00     0.111 A 
ATOM      6  C   UNL     1      12.649   3.238   6.463  1.00  0.00     0.134 A 
ATOM      7  C   UNL     1      13.460   2.188   6.013  1.00  0.00     0.093 A 
ATOM      8  C   UNL     1      13.201   0.867   6.386  1.00  0.00     0.123 A 
ATOM      9  C   UNL     1      12.116   0.581   7.212  1.00  0.00     0.094 A 
ATOM     10  C   UNL     1      11.268   1.603   7.647  1.00  0.00     0.146 A 
ATOM     11  O   UNL     1      10.239   1.286   8.423  1.00  0.00    -0.452 OA
ENDROOT
BRANCH   1  12
ATOM     12  C   UNL     1       8.272   1.695   9.755  1.00  0.00     0.029 A 
ATOM     13  C   UNL     1       8.544   1.429  11.106  1.00  0.00     0.062 A 
ATOM     14  C   UNL     1       7.530   0.997  11.967  1.00  0.00     0.162 A 
ATOM     15  C   UNL     1       6.956   1.556   9.283  1.00  0.00     0.062 A 
ATOM     16  C   UNL     1       6.220   0.839  11.486  1.00  0.00     0.200 A 
ATOM     17  C   UNL     1       5.934   1.124  10.140  1.00  0.00     0.162 A 
BRANCH  14  18
ATOM     18  O   UNL     1       7.846   0.728  13.299  1.00  0.00    -0.504 OA
ATOM     19  H   UNL     1       7.790   1.438  14.020  1.00  0.00     0.293 HD
ENDBRANCH  14  18
BRANCH  16  20
ATOM     20  O   UNL     1       5.216   0.403  12.351  1.00  0.00    -0.502 OA
ATOM     21  H   UNL     1       5.339   0.386  13.356  1.00  0.00     0.293 HD
ENDBRANCH  16  20
BRANCH  17  22
ATOM     22  O   UNL     1       4.632   0.983   9.659  1.00  0.00    -0.504 OA
ATOM     23  H   UNL     1       4.209   1.682   9.058  1.00  0.00     0.293 HD
ENDBRANCH  17  22
ENDBRANCH   1  12
BRANCH   2  24
ATOM     24  O   UNL     1       8.496   4.445   8.874  1.00  0.00    -0.502 OA
ATOM     25  H   UNL     1       8.316   5.297   8.356  1.00  0.00     0.293 HD
ENDBRANCH   2  24
BRANCH   6  26
ATOM     26  O   UNL     1      13.048   4.530   6.110  1.00  0.00    -0.507 OA
ATOM     27  H   UNL     1      12.562   5.374   6.372  1.00  0.00     0.293 HD
ENDBRANCH   6  26
BRANCH   8  28
ATOM     28  O   UNL     1      14.022  -0.169   5.948  1.00  0.00    -0.508 OA
ATOM     29  H   UNL     1      14.910  -0.367   6.396  1.00  0.00     0.293 HD
ENDBRANCH   8  28
TORSDOF 7
ENDMDL
MODEL 2
REMARK VINA RESULT:    31.201      1.186      2.783
REMARK INTER + INTRA:          38.216
REMARK INTER:                  38.539
REMARK INTRA:                  -0.322
REMARK UNBOUND:                -0.281
REMARK SMILES O=c1c(O)c(-c2cc(O)c(O)c(O)c2)oc2cc(O)cc(O)c12
REMARK SMILES IDX 5 1 3 2 2 3 1 4 23 5 21 6 20 7 18 8 17 9 16 10 15 11 6 12
REMARK SMILES IDX 7 13 8 14 14 15 10 16 12 17 9 18 11 20 13 22 4 24 22 26
REMARK SMILES IDX 19 28
REMARK H PARENT 9 19 11 21 13 23 4 25 22 27 19 29
REMARK Flexibility Score: inf
ROOT
ATOM      1  C   UNL     1       9.304   1.520   8.987  1.00  0.00     0.180 A 
ATOM      2  C   UNL     1      10.141   0.457   8.607  1.00  0.00     0.208 A 
ATOM      3  C   UNL     1      11.216   0.714   7.741  1.00  0.00     0.238 A 
ATOM      4  O   UNL     1      11.995  -0.230   7.447  1.00  0.00    -0.285 OA
ATOM      5  C   UNL     1      11.431   2.026   7.253  1.00  0.00     0.111 A 
ATOM      6  C   UNL     1      12.464   2.392   6.339  1.00  0.00     0.134 A 
ATOM      7  C   UNL     1      12.663   3.743   6.027  1.00  0.00     0.093 A 
ATOM      8  C   UNL     1      11.825   4.733   6.544  1.00  0.00     0.123 A 
ATOM      9  C   UNL     1      10.776   4.379   7.390  1.00  0.00     0.094 A 
ATOM     10  C   UNL     1      10.574   3.044   7.748  1.00  0.00     0.146 A 
ATOM     11  O   UNL     1       9.570   2.752   8.565  1.00  0.00    -0.452 OA
ENDROOT
BRANCH   1  12
ATOM     12  C   UNL     1       8.137   1.323   9.876  1.00  0.00     0.029 A 
ATOM     13  C   UNL     1       8.331   1.241  11.264  1.00  0.00     0.062 A 
ATOM     14  C   UNL     1       7.245   1.077  12.129  1.00  0.00     0.162 A 
ATOM     15  C   UNL     1       6.829   1.275   9.366  1.00  0.00     0.062 A 
ATOM     16  C   UNL     1       5.941   1.008  11.613  1.00  0.00     0.200 A 
ATOM     17  C   UNL     1       5.734   1.112  10.227  1.00  0.00     0.162 A 
BRANCH  14  18
ATOM     18  O   UNL     1       7.483   0.984  13.500  1.00  0.00    -0.504 OA
ATOM     19  H   UNL     1       6.951   1.518  14.177  1.00  0.00     0.293 HD
ENDBRANCH  14  18
BRANCH  16  20
ATOM     20  O   UNL     1       4.863   0.840  12.483  1.00  0.00    -0.502 OA
ATOM     21  H   UNL     1       4.947   0.331  13.355  1.00  0.00     0.293 HD
ENDBRANCH  16  20
BRANCH  17  22
ATOM     22  O   UNL     1       4.440   1.058   9.709  1.00  0.00    -0.504 OA
ATOM     23  H   UNL     1       3.632   1.297  10.273  1.00  0.00     0.293 HD
ENDBRANCH  17  22
ENDBRANCH   1  12
BRANCH   2  24
ATOM     24  O   UNL     1       9.925  -0.825   9.117  1.00  0.00    -0.502 OA
ATOM     25  H   UNL     1      10.679  -1.482   9.277  1.00  0.00     0.293 HD
ENDBRANCH   2  24
BRANCH   6  26
ATOM     26  O   UNL     1      13.298   1.473   5.696  1.00  0.00    -0.507 OA
ATOM     27  H   UNL     1      12.981   0.753   5.064  1.00  0.00     0.293 HD
ENDBRANCH   6  26
BRANCH   8  28
ATOM     28  O   UNL     1      12.020   6.072   6.215  1.00  0.00    -0.508 OA
ATOM     29  H   UNL     1      11.462   6.530   5.503  1.00  0.00     0.293 HD
ENDBRANCH   8  28
TORSDOF 7
ENDMDL
MODEL 3
REMARK VINA RESULT:    31.808      1.517      7.303
REMARK INTER + INTRA:          38.965
REMARK INTER:                  39.302
REMARK INTRA:                  -0.337
REMARK UNBOUND:                -0.281
REMARK SMILES O=c1c(O)c(-c2cc(O)c(O)c(O)c2)oc2cc(O)cc(O)c12
REMARK SMILES IDX 5 1 3 2 2 3 1 4 23 5 21 6 20 7 18 8 17 9 16 10 15 11 6 12
REMARK SMILES IDX 7 13 8 14 14 15 10 16 12 17 9 18 11 20 13 22 4 24 22 26
REMARK SMILES IDX 19 28
REMARK H PARENT 9 19 11 21 13 23 4 25 22 27 19 29
REMARK Flexibility Score: inf
ROOT
ATOM      1  C   UNL     1       8.622   1.675   9.245  1.00  0.00     0.180 A 
ATOM      2  C   UNL     1       8.670   1.287  10.595  1.00  0.00     0.208 A 
ATOM      3  C   UNL     1       7.467   1.057  11.280  1.00  0.00     0.238 A 
ATOM      4  O   UNL     1       7.517   0.657  12.473  1.00  0.00    -0.285 OA
ATOM      5  C   UNL     1       6.230   1.234  10.613  1.00  0.00     0.111 A 
ATOM      6  C   UNL     1       4.950   1.069  11.221  1.00  0.00     0.134 A 
ATOM      7  C   UNL     1       3.796   1.142  10.431  1.00  0.00     0.093 A 
ATOM      8  C   UNL     1       3.873   1.439   9.068  1.00  0.00     0.123 A 
ATOM      9  C   UNL     1       5.115   1.662   8.478  1.00  0.00     0.094 A 
ATOM     10  C   UNL     1       6.286   1.560   9.233  1.00  0.00     0.146 A 
ATOM     11  O   UNL     1       7.450   1.769   8.628  1.00  0.00    -0.452 OA
ENDROOT
BRANCH   1  12
ATOM     12  C   UNL     1       9.847   1.959   8.464  1.00  0.00     0.029 A 
ATOM     13  C   UNL     1      10.551   0.899   7.872  1.00  0.00     0.062 A 
ATOM     14  C   UNL     1      11.699   1.139   7.110  1.00  0.00     0.162 A 
ATOM     15  C   UNL     1      10.291   3.275   8.252  1.00  0.00     0.062 A 
ATOM     16  C   UNL     1      12.151   2.455   6.919  1.00  0.00     0.200 A 
ATOM     17  C   UNL     1      11.440   3.526   7.489  1.00  0.00     0.162 A 
BRANCH  14  18
ATOM     18  O   UNL     1      12.378   0.056   6.552  1.00  0.00    -0.504 OA
ATOM     19  H   UNL     1      12.201  -0.261   5.607  1.00  0.00     0.293 HD
ENDBRANCH  14  18
BRANCH  16  20
ATOM     20  O   UNL     1      13.300   2.686   6.161  1.00  0.00    -0.502 OA
ATOM     21  H   UNL     1      14.061   2.019   6.118  1.00  0.00     0.293 HD
ENDBRANCH  16  20
BRANCH  17  22
ATOM     22  O   UNL     1      11.876   4.836   7.291  1.00  0.00    -0.504 OA
ATOM     23  H   UNL     1      11.527   5.603   7.855  1.00  0.00     0.293 HD
ENDBRANCH  17  22
ENDBRANCH   1  12
BRANCH   2  24
ATOM     24  O   UNL     1       9.902   1.097  11.228  1.00  0.00    -0.502 OA
ATOM     25  H   UNL     1       9.989   1.015  12.234  1.00  0.00     0.293 HD
ENDBRANCH   2  24
BRANCH   6  26
ATOM     26  O   UNL     1       4.758   0.859  12.590  1.00  0.00    -0.507 OA
ATOM     27  H   UNL     1       4.779   1.584  13.291  1.00  0.00     0.293 HD
ENDBRANCH   6  26
BRANCH   8  28
ATOM     28  O   UNL     1       2.719   1.527   8.294  1.00  0.00    -0.508 OA
ATOM     29  H   UNL     1       2.297   2.420   8.069  1.00  0.00     0.293 HD
ENDBRANCH   8  28
TORSDOF 7
ENDMDL
MODEL 4
REMARK VINA RESULT:    32.261      4.515      7.879
REMARK INTER + INTRA:          39.524
REMARK INTER:                  39.840
REMARK INTRA:                  -0.316
REMARK UNBOUND:                -0.281
REMARK SMILES O=c1c(O)c(-c2cc(O)c(O)c(O)c2)oc2cc(O)cc(O)c12
REMARK SMILES IDX 5 1 3 2 2 3 1 4 23 5 21 6 20 7 18 8 17 9 16 10 15 11 6 12
REMARK SMILES IDX 7 13 8 14 14 15 10 16 12 17 9 18 11 20 13 22 4 24 22 26
REMARK SMILES IDX 19 28
REMARK H PARENT 9 19 11 21 13 23 4 25 22 27 19 29
REMARK Flexibility Score: inf
ROOT
ATOM      1  C   UNL     1      14.651   2.988   8.906  1.00  0.00     0.180 A 
ATOM      2  C   UNL     1      14.489   1.646   8.518  1.00  0.00     0.208 A 
ATOM      3  C   UNL     1      13.414   1.306   7.682  1.00  0.00     0.238 A 
ATOM      4  O   UNL     1      13.304   0.113   7.294  1.00  0.00    -0.285 OA
ATOM      5  C   UNL     1      12.507   2.306   7.256  1.00  0.00     0.111 A 
ATOM      6  C   UNL     1      11.360   2.067   6.441  1.00  0.00     0.134 A 
ATOM      7  C   UNL     1      10.607   3.151   5.973  1.00  0.00     0.093 A 
ATOM      8  C   UNL     1      10.921   4.460   6.346  1.00  0.00     0.123 A 
ATOM      9  C   UNL     1      12.002   4.699   7.190  1.00  0.00     0.094 A 
ATOM     10  C   UNL     1      12.794   3.641   7.644  1.00  0.00     0.146 A 
ATOM     11  O   UNL     1      13.822   3.914   8.438  1.00  0.00    -0.452 OA
ENDROOT
BRANCH   1  12
ATOM     12  C   UNL     1      15.745   3.419   9.806  1.00  0.00     0.029 A 
ATOM     13  C   UNL     1      15.479   3.620  11.170  1.00  0.00     0.062 A 
ATOM     14  C   UNL     1      16.497   4.007  12.047  1.00  0.00     0.162 A 
ATOM     15  C   UNL     1      17.059   3.577   9.336  1.00  0.00     0.062 A 
ATOM     16  C   UNL     1      17.806   4.184  11.568  1.00  0.00     0.200 A 
ATOM     17  C   UNL     1      18.086   3.964  10.208  1.00  0.00     0.162 A 
BRANCH  14  18
ATOM     18  O   UNL     1      16.189   4.211  13.391  1.00  0.00    -0.504 OA
ATOM     19  H   UNL     1      15.233   4.268  13.722  1.00  0.00     0.293 HD
ENDBRANCH  14  18
BRANCH  16  20
ATOM     20  O   UNL     1      18.816   4.575  12.449  1.00  0.00    -0.502 OA
ATOM     21  H   UNL     1      19.196   5.513  12.452  1.00  0.00     0.293 HD
ENDBRANCH  16  20
BRANCH  17  22
ATOM     22  O   UNL     1      19.386   4.124   9.729  1.00  0.00    -0.504 OA
ATOM     23  H   UNL     1      20.137   3.504  10.012  1.00  0.00     0.293 HD
ENDBRANCH  17  22
ENDBRANCH   1  12
BRANCH   2  24
ATOM     24  O   UNL     1      15.408   0.679   8.932  1.00  0.00    -0.502 OA
ATOM     25  H   UNL     1      16.280   0.513   8.444  1.00  0.00     0.293 HD
ENDBRANCH   2  24
BRANCH   6  26
ATOM     26  O   UNL     1      10.907   0.792   6.087  1.00  0.00    -0.507 OA
ATOM     27  H   UNL     1      10.307   0.593   5.301  1.00  0.00     0.293 HD
ENDBRANCH   6  26
BRANCH   8  28
ATOM     28  O   UNL     1      10.156   5.531   5.889  1.00  0.00    -0.508 OA
ATOM     29  H   UNL     1      10.372   6.005   5.020  1.00  0.00     0.293 HD
ENDBRANCH   8  28
TORSDOF 7
ENDMDL
