MODEL 1
REMARK VINA RESULT:    -6.107      0.000      0.000
REMARK INTER + INTRA:          -7.281
REMARK INTER:                  -6.999
REMARK INTRA:                  -0.281
REMARK UNBOUND:                -0.281
REMARK SMILES O=C1C[C@H](c2ccc(O)cc2)Oc2cc(O)cc(O)c21
REMARK SMILES IDX 3 1 4 2 12 3 13 4 14 5 15 6 17 7 18 8 20 9 2 10 1 11 5 12
REMARK SMILES IDX 6 13 11 14 7 15 10 16 8 17 9 18 19 20 16 22
REMARK H PARENT 9 19 19 21 16 23
REMARK Flexibility Score: inf
ROOT
ATOM      1  C   UNL     1     129.906 -42.374  37.149  1.00  0.00     0.131 C 
ATOM      2  C   UNL     1     131.403 -42.559  36.856  1.00  0.00     0.211 C 
ATOM      3  O   UNL     1     131.824 -41.678  35.811  1.00  0.00    -0.484 OA
ATOM      4  C   UNL     1     131.053 -41.470  34.660  1.00  0.00     0.138 A 
ATOM      5  C   UNL     1     131.636 -40.867  33.543  1.00  0.00     0.093 A 
ATOM      6  C   UNL     1     130.888 -40.672  32.377  1.00  0.00     0.123 A 
ATOM      7  C   UNL     1     129.551 -41.079  32.332  1.00  0.00     0.093 A 
ATOM      8  C   UNL     1     128.948 -41.669  33.453  1.00  0.00     0.133 A 
ATOM      9  C   UNL     1     129.700 -41.862  34.632  1.00  0.00     0.102 A 
ATOM     10  C   UNL     1     129.119 -42.432  35.871  1.00  0.00     0.174 C 
ATOM     11  O   UNL     1     127.956 -42.918  35.883  1.00  0.00    -0.294 OA
ENDROOT
BRANCH   2  12
ATOM     12  C   UNL     1     132.225 -42.316  38.099  1.00  0.00    -0.007 A 
ATOM     13  C   UNL     1     131.855 -41.319  39.018  1.00  0.00     0.011 A 
ATOM     14  C   UNL     1     133.339 -43.125  38.379  1.00  0.00     0.011 A 
ATOM     15  C   UNL     1     132.602 -41.118  40.183  1.00  0.00     0.046 A 
ATOM     16  C   UNL     1     134.084 -42.922  39.544  1.00  0.00     0.046 A 
ATOM     17  C   UNL     1     133.718 -41.916  40.448  1.00  0.00     0.115 A 
BRANCH  17  18
ATOM     18  O   UNL     1     134.453 -41.705  41.612  1.00  0.00    -0.508 OA
ATOM     19  H   UNL     1     134.515 -42.412  42.335  1.00  0.00     0.293 HD
ENDBRANCH  17  18
ENDBRANCH   2  12
BRANCH   8  20
ATOM     20  O   UNL     1     127.607 -42.051  33.393  1.00  0.00    -0.507 OA
ATOM     21  H   UNL     1     126.968 -41.644  32.721  1.00  0.00     0.293 HD
ENDBRANCH   8  20
BRANCH   6  22
ATOM     22  O   UNL     1     131.464 -40.079  31.255  1.00  0.00    -0.508 OA
ATOM     23  H   UNL     1     132.445 -40.200  31.036  1.00  0.00     0.293 HD
ENDBRANCH   6  22
TORSDOF 4
ENDMDL
MODEL 2
REMARK VINA RESULT:    -5.767      2.381      7.506
REMARK INTER + INTRA:          -6.891
REMARK INTER:                  -6.594
REMARK INTRA:                  -0.298
REMARK UNBOUND:                -0.281
REMARK SMILES O=C1C[C@H](c2ccc(O)cc2)Oc2cc(O)cc(O)c21
REMARK SMILES IDX 3 1 4 2 12 3 13 4 14 5 15 6 17 7 18 8 20 9 2 10 1 11 5 12
REMARK SMILES IDX 6 13 11 14 7 15 10 16 8 17 9 18 19 20 16 22
REMARK H PARENT 9 19 19 21 16 23
REMARK Flexibility Score: inf
ROOT
ATOM      1  C   UNL     1     131.008 -41.710  32.388  1.00  0.00     0.131 C 
ATOM      2  C   UNL     1     129.563 -41.836  32.897  1.00  0.00     0.211 C 
ATOM      3  O   UNL     1     129.468 -41.395  34.254  1.00  0.00    -0.484 OA
ATOM      4  C   UNL     1     130.428 -41.736  35.215  1.00  0.00     0.138 A 
ATOM      5  C   UNL     1     130.137 -41.560  36.570  1.00  0.00     0.093 A 
ATOM      6  C   UNL     1     131.076 -41.917  37.545  1.00  0.00     0.123 A 
ATOM      7  C   UNL     1     132.311 -42.447  37.159  1.00  0.00     0.093 A 
ATOM      8  C   UNL     1     132.624 -42.611  35.802  1.00  0.00     0.133 A 
ATOM      9  C   UNL     1     131.679 -42.248  34.817  1.00  0.00     0.102 A 
ATOM     10  C   UNL     1     131.956 -42.346  33.364  1.00  0.00     0.174 C 
ATOM     11  O   UNL     1     133.000 -42.907  32.935  1.00  0.00    -0.294 OA
ENDROOT
BRANCH   2  12
ATOM     12  C   UNL     1     128.619 -41.042  32.028  1.00  0.00    -0.007 A 
ATOM     13  C   UNL     1     127.244 -41.000  32.318  1.00  0.00     0.011 A 
ATOM     14  C   UNL     1     129.114 -40.288  30.950  1.00  0.00     0.011 A 
ATOM     15  C   UNL     1     126.378 -40.239  31.528  1.00  0.00     0.046 A 
ATOM     16  C   UNL     1     128.245 -39.528  30.162  1.00  0.00     0.046 A 
ATOM     17  C   UNL     1     126.874 -39.503  30.448  1.00  0.00     0.115 A 
BRANCH  17  18
ATOM     18  O   UNL     1     126.000 -38.749  29.670  1.00  0.00    -0.508 OA
ATOM     19  H   UNL     1     126.276 -38.384  28.765  1.00  0.00     0.293 HD
ENDBRANCH  17  18
ENDBRANCH   2  12
BRANCH   8  20
ATOM     20  O   UNL     1     133.869 -43.125  35.439  1.00  0.00    -0.507 OA
ATOM     21  H   UNL     1     134.635 -43.179  36.099  1.00  0.00     0.293 HD
ENDBRANCH   8  20
BRANCH   6  22
ATOM     22  O   UNL     1     130.790 -41.752  38.898  1.00  0.00    -0.508 OA
ATOM     23  H   UNL     1     130.016 -41.179  39.211  1.00  0.00     0.293 HD
ENDBRANCH   6  22
TORSDOF 4
ENDMDL
MODEL 3
REMARK VINA RESULT:    -5.738      2.279      3.899
REMARK INTER + INTRA:          -6.857
REMARK INTER:                  -6.575
REMARK INTRA:                  -0.282
REMARK UNBOUND:                -0.281
REMARK SMILES O=C1C[C@H](c2ccc(O)cc2)Oc2cc(O)cc(O)c21
REMARK SMILES IDX 3 1 4 2 12 3 13 4 14 5 15 6 17 7 18 8 20 9 2 10 1 11 5 12
REMARK SMILES IDX 6 13 11 14 7 15 10 16 8 17 9 18 19 20 16 22
REMARK H PARENT 9 19 19 21 16 23
REMARK Flexibility Score: inf
ROOT
ATOM      1  C   UNL     1     128.352 -42.029  33.603  1.00  0.00     0.131 C 
ATOM      2  C   UNL     1     129.872 -42.033  33.376  1.00  0.00     0.211 C 
ATOM      3  O   UNL     1     130.281 -40.845  32.692  1.00  0.00    -0.484 OA
ATOM      4  C   UNL     1     129.558 -40.324  31.611  1.00  0.00     0.138 A 
ATOM      5  C   UNL     1     130.152 -39.368  30.784  1.00  0.00     0.093 A 
ATOM      6  C   UNL     1     129.453 -38.853  29.686  1.00  0.00     0.123 A 
ATOM      7  C   UNL     1     128.153 -39.295  29.421  1.00  0.00     0.093 A 
ATOM      8  C   UNL     1     127.538 -40.240  30.254  1.00  0.00     0.133 A 
ATOM      9  C   UNL     1     128.240 -40.758  31.364  1.00  0.00     0.102 A 
ATOM     10  C   UNL     1     127.639 -41.720  32.318  1.00  0.00     0.174 C 
ATOM     11  O   UNL     1     126.515 -42.245  32.094  1.00  0.00    -0.294 OA
ENDROOT
BRANCH   2  12
ATOM     12  C   UNL     1     130.608 -42.153  34.688  1.00  0.00    -0.007 A 
ATOM     13  C   UNL     1     131.905 -42.693  34.733  1.00  0.00     0.011 A 
ATOM     14  C   UNL     1     130.026 -41.672  35.873  1.00  0.00     0.011 A 
ATOM     15  C   UNL     1     132.596 -42.775  35.946  1.00  0.00     0.046 A 
ATOM     16  C   UNL     1     130.719 -41.755  37.084  1.00  0.00     0.046 A 
ATOM     17  C   UNL     1     132.005 -42.309  37.124  1.00  0.00     0.115 A 
BRANCH  17  18
ATOM     18  O   UNL     1     132.704 -42.396  38.325  1.00  0.00    -0.508 OA
ATOM     19  H   UNL     1     133.531 -41.837  38.499  1.00  0.00     0.293 HD
ENDBRANCH  17  18
ENDBRANCH   2  12
BRANCH   8  20
ATOM     20  O   UNL     1     126.233 -40.654  29.982  1.00  0.00    -0.507 OA
ATOM     21  H   UNL     1     125.453 -40.365  30.559  1.00  0.00     0.293 HD
ENDBRANCH   8  20
BRANCH   6  22
ATOM     22  O   UNL     1     130.041 -37.906  28.851  1.00  0.00    -0.508 OA
ATOM     23  H   UNL     1     130.473 -38.168  27.973  1.00  0.00     0.293 HD
ENDBRANCH   6  22
TORSDOF 4
ENDMDL
MODEL 4
REMARK VINA RESULT:    -5.669      2.670      4.970
REMARK INTER + INTRA:          -6.779
REMARK INTER:                  -6.468
REMARK INTRA:                  -0.311
REMARK UNBOUND:                -0.281
REMARK SMILES O=C1C[C@H](c2ccc(O)cc2)Oc2cc(O)cc(O)c21
REMARK SMILES IDX 3 1 4 2 12 3 13 4 14 5 15 6 17 7 18 8 20 9 2 10 1 11 5 12
REMARK SMILES IDX 6 13 11 14 7 15 10 16 8 17 9 18 19 20 16 22
REMARK H PARENT 9 19 19 21 16 23
REMARK Flexibility Score: inf
ROOT
ATOM      1  C   UNL     1     130.852 -42.265  31.635  1.00  0.00     0.131 C 
ATOM      2  C   UNL     1     130.762 -41.103  32.636  1.00  0.00     0.211 C 
ATOM      3  O   UNL     1     129.449 -40.536  32.634  1.00  0.00    -0.484 OA
ATOM      4  C   UNL     1     128.743 -40.303  31.446  1.00  0.00     0.138 A 
ATOM      5  C   UNL     1     127.622 -39.471  31.466  1.00  0.00     0.093 A 
ATOM      6  C   UNL     1     126.918 -39.208  30.285  1.00  0.00     0.123 A 
ATOM      7  C   UNL     1     127.337 -39.786  29.083  1.00  0.00     0.093 A 
ATOM      8  C   UNL     1     128.450 -40.640  29.053  1.00  0.00     0.133 A 
ATOM      9  C   UNL     1     129.159 -40.909  30.244  1.00  0.00     0.102 A 
ATOM     10  C   UNL     1     130.312 -41.838  30.300  1.00  0.00     0.174 C 
ATOM     11  O   UNL     1     130.816 -42.317  29.248  1.00  0.00    -0.294 OA
ENDROOT
BRANCH   2  12
ATOM     12  C   UNL     1     131.122 -41.566  34.027  1.00  0.00    -0.007 A 
ATOM     13  C   UNL     1     132.301 -42.298  34.254  1.00  0.00     0.011 A 
ATOM     14  C   UNL     1     130.310 -41.221  35.120  1.00  0.00     0.011 A 
ATOM     15  C   UNL     1     132.646 -42.699  35.549  1.00  0.00     0.046 A 
ATOM     16  C   UNL     1     130.657 -41.623  36.413  1.00  0.00     0.046 A 
ATOM     17  C   UNL     1     131.825 -42.365  36.630  1.00  0.00     0.115 A 
BRANCH  17  18
ATOM     18  O   UNL     1     132.181 -42.771  37.914  1.00  0.00    -0.508 OA
ATOM     19  H   UNL     1     131.759 -43.584  38.348  1.00  0.00     0.293 HD
ENDBRANCH  17  18
ENDBRANCH   2  12
BRANCH   8  20
ATOM     20  O   UNL     1     128.840 -41.221  27.846  1.00  0.00    -0.507 OA
ATOM     21  H   UNL     1     129.786 -41.551  27.696  1.00  0.00     0.293 HD
ENDBRANCH   8  20
BRANCH   6  22
ATOM     22  O   UNL     1     125.804 -38.372  30.294  1.00  0.00    -0.508 OA
ATOM     23  H   UNL     1     125.254 -38.212  29.459  1.00  0.00     0.293 HD
ENDBRANCH   6  22
TORSDOF 4
ENDMDL
MODEL 5
REMARK VINA RESULT:    -5.644      5.255      6.563
REMARK INTER + INTRA:          -6.750
REMARK INTER:                  -6.465
REMARK INTRA:                  -0.285
REMARK UNBOUND:                -0.281
REMARK SMILES O=C1C[C@H](c2ccc(O)cc2)Oc2cc(O)cc(O)c21
REMARK SMILES IDX 3 1 4 2 12 3 13 4 14 5 15 6 17 7 18 8 20 9 2 10 1 11 5 12
REMARK SMILES IDX 6 13 11 14 7 15 10 16 8 17 9 18 19 20 16 22
REMARK H PARENT 9 19 19 21 16 23
REMARK Flexibility Score: inf
ROOT
ATOM      1  C   UNL     1     126.724 -42.763  31.428  1.00  0.00     0.131 C 
ATOM      2  C   UNL     1     127.559 -42.371  32.657  1.00  0.00     0.211 C 
ATOM      3  O   UNL     1     128.007 -41.017  32.549  1.00  0.00    -0.484 OA
ATOM      4  C   UNL     1     128.503 -40.492  31.348  1.00  0.00     0.138 A 
ATOM      5  C   UNL     1     129.214 -39.290  31.366  1.00  0.00     0.093 A 
ATOM      6  C   UNL     1     129.736 -38.763  30.179  1.00  0.00     0.123 A 
ATOM      7  C   UNL     1     129.539 -39.440  28.972  1.00  0.00     0.093 A 
ATOM      8  C   UNL     1     128.811 -40.637  28.937  1.00  0.00     0.133 A 
ATOM      9  C   UNL     1     128.280 -41.169  30.133  1.00  0.00     0.102 A 
ATOM     10  C   UNL     1     127.457 -42.402  30.168  1.00  0.00     0.174 C 
ATOM     11  O   UNL     1     127.321 -43.125  29.145  1.00  0.00    -0.294 OA
ENDROOT
BRANCH   2  12
ATOM     12  C   UNL     1     126.762 -42.552  33.925  1.00  0.00    -0.007 A 
ATOM     13  C   UNL     1     127.387 -42.988  35.107  1.00  0.00     0.011 A 
ATOM     14  C   UNL     1     125.395 -42.230  33.954  1.00  0.00     0.011 A 
ATOM     15  C   UNL     1     126.651 -43.125  36.287  1.00  0.00     0.046 A 
ATOM     16  C   UNL     1     124.661 -42.368  35.135  1.00  0.00     0.046 A 
ATOM     17  C   UNL     1     125.287 -42.818  36.305  1.00  0.00     0.115 A 
BRANCH  17  18
ATOM     18  O   UNL     1     124.566 -42.959  37.488  1.00  0.00    -0.508 OA
ATOM     19  H   UNL     1     124.216 -42.154  37.994  1.00  0.00     0.293 HD
ENDBRANCH  17  18
ENDBRANCH   2  12
BRANCH   8  20
ATOM     20  O   UNL     1     128.610 -41.287  27.719  1.00  0.00    -0.507 OA
ATOM     21  H   UNL     1     129.386 -41.547  27.121  1.00  0.00     0.293 HD
ENDBRANCH   8  20
BRANCH   6  22
ATOM     22  O   UNL     1     130.455 -37.569  30.189  1.00  0.00    -0.508 OA
ATOM     23  H   UNL     1     131.279 -37.451  30.765  1.00  0.00     0.293 HD
ENDBRANCH   6  22
TORSDOF 4
ENDMDL
MODEL 6
REMARK VINA RESULT:    -5.484      2.443      4.076
REMARK INTER + INTRA:          -6.567
REMARK INTER:                  -6.257
REMARK INTRA:                  -0.310
REMARK UNBOUND:                -0.281
REMARK SMILES O=C1C[C@H](c2ccc(O)cc2)Oc2cc(O)cc(O)c21
REMARK SMILES IDX 3 1 4 2 12 3 13 4 14 5 15 6 17 7 18 8 20 9 2 10 1 11 5 12
REMARK SMILES IDX 6 13 11 14 7 15 10 16 8 17 9 18 19 20 16 22
REMARK H PARENT 9 19 19 21 16 23
REMARK Flexibility Score: inf
ROOT
ATOM      1  C   UNL     1     129.480 -40.499  33.622  1.00  0.00     0.131 C 
ATOM      2  C   UNL     1     130.472 -41.635  33.327  1.00  0.00     0.211 C 
ATOM      3  O   UNL     1     131.405 -41.238  32.318  1.00  0.00    -0.484 OA
ATOM      4  C   UNL     1     131.006 -40.536  31.173  1.00  0.00     0.138 A 
ATOM      5  C   UNL     1     131.874 -40.451  30.082  1.00  0.00     0.093 A 
ATOM      6  C   UNL     1     131.483 -39.773  28.922  1.00  0.00     0.123 A 
ATOM      7  C   UNL     1     130.222 -39.174  28.858  1.00  0.00     0.093 A 
ATOM      8  C   UNL     1     129.348 -39.235  29.953  1.00  0.00     0.133 A 
ATOM      9  C   UNL     1     129.742 -39.915  31.126  1.00  0.00     0.102 A 
ATOM     10  C   UNL     1     128.894 -39.979  32.341  1.00  0.00     0.174 C 
ATOM     11  O   UNL     1     127.707 -39.557  32.331  1.00  0.00    -0.294 OA
ENDROOT
BRANCH   2  12
ATOM     12  C   UNL     1     131.209 -42.040  34.580  1.00  0.00    -0.007 A 
ATOM     13  C   UNL     1     132.412 -42.764  34.501  1.00  0.00     0.011 A 
ATOM     14  C   UNL     1     130.729 -41.649  35.842  1.00  0.00     0.011 A 
ATOM     15  C   UNL     1     133.106 -43.111  35.663  1.00  0.00     0.046 A 
ATOM     16  C   UNL     1     131.425 -41.998  37.002  1.00  0.00     0.046 A 
ATOM     17  C   UNL     1     132.615 -42.732  36.916  1.00  0.00     0.115 A 
BRANCH  17  18
ATOM     18  O   UNL     1     133.318 -43.085  38.066  1.00  0.00    -0.508 OA
ATOM     19  H   UNL     1     134.292 -43.359  38.028  1.00  0.00     0.293 HD
ENDBRANCH  17  18
ENDBRANCH   2  12
BRANCH   8  20
ATOM     20  O   UNL     1     128.100 -38.615  29.876  1.00  0.00    -0.507 OA
ATOM     21  H   UNL     1     127.866 -37.986  29.117  1.00  0.00     0.293 HD
ENDBRANCH   8  20
BRANCH   6  22
ATOM     22  O   UNL     1     132.340 -39.691  27.826  1.00  0.00    -0.508 OA
ATOM     23  H   UNL     1     133.317 -39.947  27.896  1.00  0.00     0.293 HD
ENDBRANCH   6  22
TORSDOF 4
ENDMDL
MODEL 7
REMARK VINA RESULT:    -5.376      2.328      4.664
REMARK INTER + INTRA:          -6.443
REMARK INTER:                  -6.158
REMARK INTRA:                  -0.285
REMARK UNBOUND:                -0.281
REMARK SMILES O=C1C[C@H](c2ccc(O)cc2)Oc2cc(O)cc(O)c21
REMARK SMILES IDX 3 1 4 2 12 3 13 4 14 5 15 6 17 7 18 8 20 9 2 10 1 11 5 12
REMARK SMILES IDX 6 13 11 14 7 15 10 16 8 17 9 18 19 20 16 22
REMARK H PARENT 9 19 19 21 16 23
REMARK Flexibility Score: inf
ROOT
ATOM      1  C   UNL     1     130.712 -39.801  32.884  1.00  0.00     0.131 C 
ATOM      2  C   UNL     1     129.821 -40.549  33.888  1.00  0.00     0.211 C 
ATOM      3  O   UNL     1     128.984 -41.492  33.212  1.00  0.00    -0.484 OA
ATOM      4  C   UNL     1     128.332 -41.181  32.012  1.00  0.00     0.138 A 
ATOM      5  C   UNL     1     127.293 -41.999  31.563  1.00  0.00     0.093 A 
ATOM      6  C   UNL     1     126.615 -41.690  30.378  1.00  0.00     0.123 A 
ATOM      7  C   UNL     1     126.984 -40.561  29.640  1.00  0.00     0.093 A 
ATOM      8  C   UNL     1     128.038 -39.742  30.070  1.00  0.00     0.133 A 
ATOM      9  C   UNL     1     128.726 -40.054  31.263  1.00  0.00     0.102 A 
ATOM     10  C   UNL     1     129.881 -39.266  31.754  1.00  0.00     0.174 C 
ATOM     11  O   UNL     1     130.210 -38.179  31.206  1.00  0.00    -0.294 OA
ENDROOT
BRANCH   2  12
ATOM     12  C   UNL     1     130.658 -41.252  34.927  1.00  0.00    -0.007 A 
ATOM     13  C   UNL     1     131.875 -41.862  34.573  1.00  0.00     0.011 A 
ATOM     14  C   UNL     1     130.259 -41.255  36.274  1.00  0.00     0.011 A 
ATOM     15  C   UNL     1     132.662 -42.487  35.545  1.00  0.00     0.046 A 
ATOM     16  C   UNL     1     131.048 -41.880  37.244  1.00  0.00     0.046 A 
ATOM     17  C   UNL     1     132.251 -42.499  36.881  1.00  0.00     0.115 A 
BRANCH  17  18
ATOM     18  O   UNL     1     133.045 -43.125  37.839  1.00  0.00    -0.508 OA
ATOM     19  H   UNL     1     133.870 -42.675  38.218  1.00  0.00     0.293 HD
ENDBRANCH  17  18
ENDBRANCH   2  12
BRANCH   8  20
ATOM     20  O   UNL     1     128.402 -38.631  29.309  1.00  0.00    -0.507 OA
ATOM     21  H   UNL     1     127.874 -38.350  28.491  1.00  0.00     0.293 HD
ENDBRANCH   8  20
BRANCH   6  22
ATOM     22  O   UNL     1     125.571 -42.496  29.927  1.00  0.00    -0.508 OA
ATOM     23  H   UNL     1     125.433 -42.681  28.941  1.00  0.00     0.293 HD
ENDBRANCH   6  22
TORSDOF 4
ENDMDL
MODEL 8
REMARK VINA RESULT:    -5.256      6.036      8.418
REMARK INTER + INTRA:          -6.306
REMARK INTER:                  -5.992
REMARK INTRA:                  -0.314
REMARK UNBOUND:                -0.281
REMARK SMILES O=C1C[C@H](c2ccc(O)cc2)Oc2cc(O)cc(O)c21
REMARK SMILES IDX 3 1 4 2 12 3 13 4 14 5 15 6 17 7 18 8 20 9 2 10 1 11 5 12
REMARK SMILES IDX 6 13 11 14 7 15 10 16 8 17 9 18 19 20 16 22
REMARK H PARENT 9 19 19 21 16 23
REMARK Flexibility Score: inf
ROOT
ATOM      1  C   UNL     1     129.697 -39.819  28.543  1.00  0.00     0.131 C 
ATOM      2  C   UNL     1     130.691 -40.320  29.603  1.00  0.00     0.211 C 
ATOM      3  O   UNL     1     130.034 -41.174  30.544  1.00  0.00    -0.484 OA
ATOM      4  C   UNL     1     128.770 -40.872  31.065  1.00  0.00     0.138 A 
ATOM      5  C   UNL     1     128.315 -41.550  32.198  1.00  0.00     0.093 A 
ATOM      6  C   UNL     1     127.063 -41.245  32.746  1.00  0.00     0.123 A 
ATOM      7  C   UNL     1     126.265 -40.261  32.153  1.00  0.00     0.093 A 
ATOM      8  C   UNL     1     126.702 -39.587  31.004  1.00  0.00     0.133 A 
ATOM      9  C   UNL     1     127.963 -39.896  30.447  1.00  0.00     0.102 A 
ATOM     10  C   UNL     1     128.471 -39.262  29.207  1.00  0.00     0.174 C 
ATOM     11  O   UNL     1     127.863 -38.297  28.671  1.00  0.00    -0.294 OA
ENDROOT
BRANCH   2  12
ATOM     12  C   UNL     1     131.840 -41.052  28.955  1.00  0.00    -0.007 A 
ATOM     13  C   UNL     1     132.104 -42.395  29.274  1.00  0.00     0.011 A 
ATOM     14  C   UNL     1     132.626 -40.413  27.980  1.00  0.00     0.011 A 
ATOM     15  C   UNL     1     133.152 -43.078  28.648  1.00  0.00     0.046 A 
ATOM     16  C   UNL     1     133.673 -41.099  27.357  1.00  0.00     0.046 A 
ATOM     17  C   UNL     1     133.939 -42.433  27.691  1.00  0.00     0.115 A 
BRANCH  17  18
ATOM     18  O   UNL     1     134.980 -43.125  27.076  1.00  0.00    -0.508 OA
ATOM     19  H   UNL     1     135.021 -43.235  26.069  1.00  0.00     0.293 HD
ENDBRANCH  17  18
ENDBRANCH   2  12
BRANCH   8  20
ATOM     20  O   UNL     1     125.883 -38.622  30.417  1.00  0.00    -0.507 OA
ATOM     21  H   UNL     1     125.016 -38.871  29.955  1.00  0.00     0.293 HD
ENDBRANCH   8  20
BRANCH   6  22
ATOM     22  O   UNL     1     126.605 -41.909  33.882  1.00  0.00    -0.508 OA
ATOM     23  H   UNL     1     126.853 -41.600  34.814  1.00  0.00     0.293 HD
ENDBRANCH   6  22
TORSDOF 4
ENDMDL
MODEL 9
REMARK VINA RESULT:    -5.239      7.607      9.778
REMARK INTER + INTRA:          -6.286
REMARK INTER:                  -5.972
REMARK INTRA:                  -0.315
REMARK UNBOUND:                -0.281
REMARK SMILES O=C1C[C@H](c2ccc(O)cc2)Oc2cc(O)cc(O)c21
REMARK SMILES IDX 3 1 4 2 12 3 13 4 14 5 15 6 17 7 18 8 20 9 2 10 1 11 5 12
REMARK SMILES IDX 6 13 11 14 7 15 10 16 8 17 9 18 19 20 16 22
REMARK H PARENT 9 19 19 21 16 23
REMARK Flexibility Score: inf
ROOT
ATOM      1  C   UNL     1     132.646 -42.215  26.797  1.00  0.00     0.131 C 
ATOM      2  C   UNL     1     133.412 -40.891  26.943  1.00  0.00     0.211 C 
ATOM      3  O   UNL     1     133.061 -40.239  28.166  1.00  0.00    -0.484 OA
ATOM      4  C   UNL     1     131.737 -40.168  28.617  1.00  0.00     0.138 A 
ATOM      5  C   UNL     1     131.403 -39.264  29.628  1.00  0.00     0.093 A 
ATOM      6  C   UNL     1     130.080 -39.163  30.074  1.00  0.00     0.123 A 
ATOM      7  C   UNL     1     129.092 -39.975  29.508  1.00  0.00     0.093 A 
ATOM      8  C   UNL     1     129.417 -40.899  28.506  1.00  0.00     0.133 A 
ATOM      9  C   UNL     1     130.751 -41.005  28.057  1.00  0.00     0.102 A 
ATOM     10  C   UNL     1     131.180 -41.993  27.038  1.00  0.00     0.174 C 
ATOM     11  O   UNL     1     130.339 -42.686  26.406  1.00  0.00    -0.294 OA
ENDROOT
BRANCH   2  12
ATOM     12  C   UNL     1     134.902 -41.127  26.892  1.00  0.00    -0.007 A 
ATOM     13  C   UNL     1     135.456 -42.001  25.940  1.00  0.00     0.011 A 
ATOM     14  C   UNL     1     135.759 -40.428  27.760  1.00  0.00     0.011 A 
ATOM     15  C   UNL     1     136.839 -42.193  25.877  1.00  0.00     0.046 A 
ATOM     16  C   UNL     1     137.141 -40.622  27.694  1.00  0.00     0.046 A 
ATOM     17  C   UNL     1     137.685 -41.507  26.754  1.00  0.00     0.115 A 
BRANCH  17  18
ATOM     18  O   UNL     1     139.061 -41.707  26.680  1.00  0.00    -0.508 OA
ATOM     19  H   UNL     1     139.466 -42.633  26.751  1.00  0.00     0.293 HD
ENDBRANCH  17  18
ENDBRANCH   2  12
BRANCH   8  20
ATOM     20  O   UNL     1     128.419 -41.712  27.967  1.00  0.00    -0.507 OA
ATOM     21  H   UNL     1     127.611 -41.993  28.510  1.00  0.00     0.293 HD
ENDBRANCH   8  20
BRANCH   6  22
ATOM     22  O   UNL     1     129.736 -38.259  31.077  1.00  0.00    -0.508 OA
ATOM     23  H   UNL     1     128.830 -38.287  31.528  1.00  0.00     0.293 HD
ENDBRANCH   6  22
TORSDOF 4
ENDMDL
