MODEL 1
REMARK VINA RESULT:    -3.802      0.000      0.000
REMARK INTER + INTRA:          -8.662
REMARK INTER:                  -6.691
REMARK INTRA:                  -1.971
REMARK UNBOUND:                -1.971
REMARK SMILES CCCCCCCCCCCCCCC(=O)[O-]
REMARK SMILES IDX 9 1 10 2 11 3 12 4 13 5 14 6 15 7 16 8 17 9 8 10 7 11 6 12
REMARK SMILES IDX 5 13 4 14 3 15 2 16 1 17
REMARK H PARENT
REMARK Flexibility Score: inf
ROOT
ATOM      1  C   UNL     1      -2.099 -11.979   5.778  1.00  0.00     0.000 C 
ENDROOT
BRANCH   1   2
ATOM      2  C   UNL     1      -0.670 -11.998   5.207  1.00  0.00     0.000 C 
BRANCH   2   3
ATOM      3  C   UNL     1       0.331 -12.684   6.149  1.00  0.00     0.000 C 
BRANCH   3   4
ATOM      4  C   UNL     1       1.033 -13.885   5.490  1.00  0.00     0.000 C 
BRANCH   4   5
ATOM      5  C   UNL     1       2.169 -14.453   6.355  1.00  0.00     0.006 C 
BRANCH   5   6
ATOM      6  C   UNL     1       3.543 -13.891   5.966  1.00  0.00     0.053 C 
BRANCH   6   7
ATOM      7  C   UNL     1       3.931 -12.778   6.888  1.00  0.00     0.041 C 
ATOM      8  O   UNL     1       4.839 -11.971   6.558  1.00  0.00    -0.550 OA
ATOM      9  O   UNL     1       3.324 -12.661   8.131  1.00  0.00    -0.550 OA
ENDBRANCH   6   7
ENDBRANCH   5   6
ENDBRANCH   4   5
ENDBRANCH   3   4
ENDBRANCH   2   3
ENDBRANCH   1   2
BRANCH   1  10
ATOM     10  C   UNL     1      -2.133 -12.181   7.302  1.00  0.00     0.000 C 
BRANCH  10  11
ATOM     11  C   UNL     1      -2.793 -11.003   8.038  1.00  0.00    -0.000 C 
BRANCH  11  12
ATOM     12  C   UNL     1      -3.204  -9.866   7.087  1.00  0.00    -0.000 C 
BRANCH  12  13
ATOM     13  C   UNL     1      -2.461  -8.553   7.376  1.00  0.00    -0.000 C 
BRANCH  13  14
ATOM     14  C   UNL     1      -1.408  -8.271   6.293  1.00  0.00    -0.000 C 
BRANCH  14  15
ATOM     15  C   UNL     1       0.008  -8.690   6.721  1.00  0.00    -0.000 C 
BRANCH  15  16
ATOM     16  C   UNL     1       0.184  -8.710   8.246  1.00  0.00    -0.003 C 
ATOM     17  C   UNL     1       0.690 -10.069   8.722  1.00  0.00     0.004 C 
ENDBRANCH  15  16
ENDBRANCH  14  15
ENDBRANCH  13  14
ENDBRANCH  12  13
ENDBRANCH  11  12
ENDBRANCH  10  11
ENDBRANCH   1  10
TORSDOF 13
ENDMDL
MODEL 2
REMARK VINA RESULT:    -3.612     14.434     16.668
REMARK INTER + INTRA:          -8.328
REMARK INTER:                  -6.569
REMARK INTRA:                  -1.758
REMARK UNBOUND:                -1.971
REMARK SMILES CCCCCCCCCCCCCCC(=O)[O-]
REMARK SMILES IDX 9 1 10 2 11 3 12 4 13 5 14 6 15 7 16 8 17 9 8 10 7 11 6 12
REMARK SMILES IDX 5 13 4 14 3 15 2 16 1 17
REMARK H PARENT
REMARK Flexibility Score: inf
ROOT
ATOM      1  C   UNL     1      -8.431   4.828   5.627  1.00  0.00     0.000 C 
ENDROOT
BRANCH   1   2
ATOM      2  C   UNL     1      -7.434   3.999   4.797  1.00  0.00     0.000 C 
BRANCH   2   3
ATOM      3  C   UNL     1      -7.047   2.682   5.486  1.00  0.00     0.000 C 
BRANCH   3   4
ATOM      4  C   UNL     1      -6.154   2.902   6.719  1.00  0.00     0.000 C 
BRANCH   4   5
ATOM      5  C   UNL     1      -6.880   2.592   8.037  1.00  0.00     0.006 C 
BRANCH   5   6
ATOM      6  C   UNL     1      -8.171   1.791   7.824  1.00  0.00     0.053 C 
BRANCH   6   7
ATOM      7  C   UNL     1      -8.210   0.611   8.743  1.00  0.00     0.041 C 
ATOM      8  O   UNL     1      -8.075   0.770   9.985  1.00  0.00    -0.550 OA
ATOM      9  O   UNL     1      -8.346  -0.670   8.224  1.00  0.00    -0.550 OA
ENDBRANCH   6   7
ENDBRANCH   5   6
ENDBRANCH   4   5
ENDBRANCH   3   4
ENDBRANCH   2   3
ENDBRANCH   1   2
BRANCH   1  10
ATOM     10  C   UNL     1      -9.800   4.969   4.943  1.00  0.00     0.000 C 
BRANCH  10  11
ATOM     11  C   UNL     1     -10.480   3.610   4.699  1.00  0.00    -0.000 C 
BRANCH  11  12
ATOM     12  C   UNL     1     -11.179   3.064   5.955  1.00  0.00    -0.000 C 
BRANCH  12  13
ATOM     13  C   UNL     1     -11.400   1.545   5.898  1.00  0.00    -0.000 C 
BRANCH  13  14
ATOM     14  C   UNL     1     -10.263   0.855   5.129  1.00  0.00    -0.000 C 
BRANCH  14  15
ATOM     15  C   UNL     1     -10.306  -0.677   5.255  1.00  0.00    -0.000 C 
BRANCH  15  16
ATOM     16  C   UNL     1      -9.340  -1.377   4.289  1.00  0.00    -0.003 C 
ATOM     17  C   UNL     1      -8.493  -0.361   3.527  1.00  0.00     0.004 C 
ENDBRANCH  15  16
ENDBRANCH  14  15
ENDBRANCH  13  14
ENDBRANCH  12  13
ENDBRANCH  11  12
ENDBRANCH  10  11
ENDBRANCH   1  10
TORSDOF 13
ENDMDL
MODEL 3
REMARK VINA RESULT:    -3.606     14.885     17.152
REMARK INTER + INTRA:          -8.317
REMARK INTER:                  -6.373
REMARK INTRA:                  -1.944
REMARK UNBOUND:                -1.971
REMARK SMILES CCCCCCCCCCCCCCC(=O)[O-]
REMARK SMILES IDX 9 1 10 2 11 3 12 4 13 5 14 6 15 7 16 8 17 9 8 10 7 11 6 12
REMARK SMILES IDX 5 13 4 14 3 15 2 16 1 17
REMARK H PARENT
REMARK Flexibility Score: inf
ROOT
ATOM      1  C   UNL     1     -11.536   3.267   8.634  1.00  0.00     0.000 C 
ENDROOT
BRANCH   1   2
ATOM      2  C   UNL     1     -10.110   3.410   8.072  1.00  0.00     0.000 C 
BRANCH   2   3
ATOM      3  C   UNL     1      -9.132   2.396   8.684  1.00  0.00     0.000 C 
BRANCH   3   4
ATOM      4  C   UNL     1      -8.217   1.748   7.630  1.00  0.00     0.000 C 
BRANCH   4   5
ATOM      5  C   UNL     1      -7.353   2.777   6.885  1.00  0.00     0.006 C 
BRANCH   5   6
ATOM      6  C   UNL     1      -7.313   2.529   5.372  1.00  0.00     0.053 C 
BRANCH   6   7
ATOM      7  C   UNL     1      -7.630   3.788   4.628  1.00  0.00     0.041 C 
ATOM      8  O   UNL     1      -6.755   4.333   3.904  1.00  0.00    -0.550 OA
ATOM      9  O   UNL     1      -8.874   4.386   4.772  1.00  0.00    -0.550 OA
ENDBRANCH   6   7
ENDBRANCH   5   6
ENDBRANCH   4   5
ENDBRANCH   3   4
ENDBRANCH   2   3
ENDBRANCH   1   2
BRANCH   1  10
ATOM     10  C   UNL     1     -12.503   2.608   7.639  1.00  0.00     0.000 C 
BRANCH  10  11
ATOM     11  C   UNL     1     -12.594   1.083   7.826  1.00  0.00    -0.000 C 
BRANCH  11  12
ATOM     12  C   UNL     1     -12.118   0.305   6.588  1.00  0.00    -0.000 C 
BRANCH  12  13
ATOM     13  C   UNL     1     -11.783   1.224   5.403  1.00  0.00    -0.000 C 
BRANCH  13  14
ATOM     14  C   UNL     1     -10.453   0.815   4.752  1.00  0.00    -0.000 C 
BRANCH  14  15
ATOM     15  C   UNL     1      -9.933  -0.537   5.266  1.00  0.00    -0.000 C 
BRANCH  15  16
ATOM     16  C   UNL     1      -9.250  -1.364   4.167  1.00  0.00    -0.003 C 
ATOM     17  C   UNL     1      -8.273  -0.510   3.365  1.00  0.00     0.004 C 
ENDBRANCH  15  16
ENDBRANCH  14  15
ENDBRANCH  13  14
ENDBRANCH  12  13
ENDBRANCH  11  12
ENDBRANCH  10  11
ENDBRANCH   1  10
TORSDOF 13
ENDMDL
MODEL 4
REMARK VINA RESULT:    -3.579     14.157     16.165
REMARK INTER + INTRA:          -8.269
REMARK INTER:                  -6.434
REMARK INTRA:                  -1.835
REMARK UNBOUND:                -1.971
REMARK SMILES CCCCCCCCCCCCCCC(=O)[O-]
REMARK SMILES IDX 9 1 10 2 11 3 12 4 13 5 14 6 15 7 16 8 17 9 8 10 7 11 6 12
REMARK SMILES IDX 5 13 4 14 3 15 2 16 1 17
REMARK H PARENT
REMARK Flexibility Score: inf
ROOT
ATOM      1  C   UNL     1     -10.647   3.663   5.408  1.00  0.00     0.000 C 
ENDROOT
BRANCH   1   2
ATOM      2  C   UNL     1      -9.289   4.147   5.945  1.00  0.00     0.000 C 
BRANCH   2   3
ATOM      3  C   UNL     1      -8.121   3.762   5.024  1.00  0.00     0.000 C 
BRANCH   3   4
ATOM      4  C   UNL     1      -7.494   2.408   5.402  1.00  0.00     0.000 C 
BRANCH   4   5
ATOM      5  C   UNL     1      -7.022   2.362   6.864  1.00  0.00     0.006 C 
BRANCH   5   6
ATOM      6  C   UNL     1      -5.580   2.856   7.033  1.00  0.00     0.053 C 
BRANCH   6   7
ATOM      7  C   UNL     1      -4.681   1.720   7.408  1.00  0.00     0.041 C 
ATOM      8  O   UNL     1      -5.098   0.807   8.169  1.00  0.00    -0.550 OA
ATOM      9  O   UNL     1      -3.367   1.694   6.958  1.00  0.00    -0.550 OA
ENDBRANCH   6   7
ENDBRANCH   5   6
ENDBRANCH   4   5
ENDBRANCH   3   4
ENDBRANCH   2   3
ENDBRANCH   1   2
BRANCH   1  10
ATOM     10  C   UNL     1     -11.444   2.857   6.446  1.00  0.00     0.000 C 
BRANCH  10  11
ATOM     11  C   UNL     1     -10.736   2.790   7.811  1.00  0.00    -0.000 C 
BRANCH  11  12
ATOM     12  C   UNL     1     -10.203   1.384   8.132  1.00  0.00    -0.000 C 
BRANCH  12  13
ATOM     13  C   UNL     1     -10.856   0.291   7.272  1.00  0.00    -0.000 C 
BRANCH  13  14
ATOM     14  C   UNL     1      -9.825  -0.357   6.335  1.00  0.00    -0.000 C 
BRANCH  14  15
ATOM     15  C   UNL     1     -10.233  -0.271   4.855  1.00  0.00    -0.000 C 
BRANCH  15  16
ATOM     16  C   UNL     1      -9.367  -1.160   3.951  1.00  0.00    -0.003 C 
ATOM     17  C   UNL     1      -8.202  -0.373   3.360  1.00  0.00     0.004 C 
ENDBRANCH  15  16
ENDBRANCH  14  15
ENDBRANCH  13  14
ENDBRANCH  12  13
ENDBRANCH  11  12
ENDBRANCH  10  11
ENDBRANCH   1  10
TORSDOF 13
ENDMDL
MODEL 5
REMARK VINA RESULT:    -3.538     13.605     15.937
REMARK INTER + INTRA:          -8.198
REMARK INTER:                  -6.950
REMARK INTRA:                  -1.248
REMARK UNBOUND:                -1.971
REMARK SMILES CCCCCCCCCCCCCCC(=O)[O-]
REMARK SMILES IDX 9 1 10 2 11 3 12 4 13 5 14 6 15 7 16 8 17 9 8 10 7 11 6 12
REMARK SMILES IDX 5 13 4 14 3 15 2 16 1 17
REMARK H PARENT
REMARK Flexibility Score: inf
ROOT
ATOM      1  C   UNL     1      -7.084   3.480   5.331  1.00  0.00     0.000 C 
ENDROOT
BRANCH   1   2
ATOM      2  C   UNL     1      -6.883   4.406   6.543  1.00  0.00     0.000 C 
BRANCH   2   3
ATOM      3  C   UNL     1      -5.432   4.890   6.680  1.00  0.00     0.000 C 
BRANCH   3   4
ATOM      4  C   UNL     1      -4.819   4.540   8.047  1.00  0.00     0.000 C 
BRANCH   4   5
ATOM      5  C   UNL     1      -5.263   3.160   8.557  1.00  0.00     0.006 C 
BRANCH   5   6
ATOM      6  C   UNL     1      -4.078   2.229   8.845  1.00  0.00     0.053 C 
BRANCH   6   7
ATOM      7  C   UNL     1      -3.839   1.316   7.683  1.00  0.00     0.041 C 
ATOM      8  O   UNL     1      -4.577   1.380   6.665  1.00  0.00    -0.550 OA
ATOM      9  O   UNL     1      -2.831   0.362   7.745  1.00  0.00    -0.550 OA
ENDBRANCH   6   7
ENDBRANCH   5   6
ENDBRANCH   4   5
ENDBRANCH   3   4
ENDBRANCH   2   3
ENDBRANCH   1   2
BRANCH   1  10
ATOM     10  C   UNL     1      -8.291   2.541   5.493  1.00  0.00     0.000 C 
BRANCH  10  11
ATOM     11  C   UNL     1      -9.629   3.248   5.218  1.00  0.00    -0.000 C 
BRANCH  11  12
ATOM     12  C   UNL     1     -10.838   2.442   5.721  1.00  0.00    -0.000 C 
BRANCH  12  13
ATOM     13  C   UNL     1     -11.047   1.135   4.939  1.00  0.00    -0.000 C 
BRANCH  13  14
ATOM     14  C   UNL     1     -10.731  -0.085   5.819  1.00  0.00    -0.000 C 
BRANCH  14  15
ATOM     15  C   UNL     1      -9.741  -1.054   5.154  1.00  0.00    -0.000 C 
BRANCH  15  16
ATOM     16  C   UNL     1      -9.563  -0.781   3.653  1.00  0.00    -0.003 C 
ATOM     17  C   UNL     1      -8.132  -0.354   3.339  1.00  0.00     0.004 C 
ENDBRANCH  15  16
ENDBRANCH  14  15
ENDBRANCH  13  14
ENDBRANCH  12  13
ENDBRANCH  11  12
ENDBRANCH  10  11
ENDBRANCH   1  10
TORSDOF 13
ENDMDL
MODEL 6
REMARK VINA RESULT:    -3.517      1.234      2.927
REMARK INTER + INTRA:          -8.161
REMARK INTER:                  -6.202
REMARK INTRA:                  -1.958
REMARK UNBOUND:                -1.971
REMARK SMILES CCCCCCCCCCCCCCC(=O)[O-]
REMARK SMILES IDX 9 1 10 2 11 3 12 4 13 5 14 6 15 7 16 8 17 9 8 10 7 11 6 12
REMARK SMILES IDX 5 13 4 14 3 15 2 16 1 17
REMARK H PARENT
REMARK Flexibility Score: inf
ROOT
ATOM      1  C   UNL     1      -0.233 -11.479   9.226  1.00  0.00     0.000 C 
ENDROOT
BRANCH   1   2
ATOM      2  C   UNL     1       0.323 -12.664   8.417  1.00  0.00     0.000 C 
BRANCH   2   3
ATOM      3  C   UNL     1       1.186 -12.214   7.229  1.00  0.00     0.000 C 
BRANCH   3   4
ATOM      4  C   UNL     1       1.392 -13.332   6.192  1.00  0.00     0.000 C 
BRANCH   4   5
ATOM      5  C   UNL     1       2.873 -13.698   6.004  1.00  0.00     0.006 C 
BRANCH   5   6
ATOM      6  C   UNL     1       3.763 -13.143   7.123  1.00  0.00     0.053 C 
BRANCH   6   7
ATOM      7  C   UNL     1       5.001 -12.529   6.548  1.00  0.00     0.041 C 
ATOM      8  O   UNL     1       5.106 -11.277   6.462  1.00  0.00    -0.550 OA
ATOM      9  O   UNL     1       6.019 -13.339   6.063  1.00  0.00    -0.550 OA
ENDBRANCH   6   7
ENDBRANCH   5   6
ENDBRANCH   4   5
ENDBRANCH   3   4
ENDBRANCH   2   3
ENDBRANCH   1   2
BRANCH   1  10
ATOM     10  C   UNL     1       0.822 -10.392   9.489  1.00  0.00     0.000 C 
BRANCH  10  11
ATOM     11  C   UNL     1       0.350  -8.994   9.053  1.00  0.00    -0.000 C 
BRANCH  11  12
ATOM     12  C   UNL     1       0.881  -8.596   7.666  1.00  0.00    -0.000 C 
BRANCH  12  13
ATOM     13  C   UNL     1      -0.210  -8.622   6.584  1.00  0.00    -0.000 C 
BRANCH  13  14
ATOM     14  C   UNL     1      -1.602  -8.432   7.206  1.00  0.00    -0.000 C 
BRANCH  14  15
ATOM     15  C   UNL     1      -2.579  -9.556   6.824  1.00  0.00    -0.000 C 
BRANCH  15  16
ATOM     16  C   UNL     1      -1.966 -10.566   5.843  1.00  0.00    -0.003 C 
ATOM     17  C   UNL     1      -2.431 -11.985   6.154  1.00  0.00     0.004 C 
ENDBRANCH  15  16
ENDBRANCH  14  15
ENDBRANCH  13  14
ENDBRANCH  12  13
ENDBRANCH  11  12
ENDBRANCH  10  11
ENDBRANCH   1  10
TORSDOF 13
ENDMDL
MODEL 7
REMARK VINA RESULT:    -3.506      1.526      3.871
REMARK INTER + INTRA:          -8.142
REMARK INTER:                  -5.496
REMARK INTRA:                  -2.646
REMARK UNBOUND:                -1.971
REMARK SMILES CCCCCCCCCCCCCCC(=O)[O-]
REMARK SMILES IDX 9 1 10 2 11 3 12 4 13 5 14 6 15 7 16 8 17 9 8 10 7 11 6 12
REMARK SMILES IDX 5 13 4 14 3 15 2 16 1 17
REMARK H PARENT
REMARK Flexibility Score: inf
ROOT
ATOM      1  C   UNL     1      -1.681  -8.384   7.113  1.00  0.00     0.000 C 
ENDROOT
BRANCH   1   2
ATOM      2  C   UNL     1      -2.607  -9.503   6.606  1.00  0.00     0.000 C 
BRANCH   2   3
ATOM      3  C   UNL     1      -1.841 -10.615   5.874  1.00  0.00     0.000 C 
BRANCH   3   4
ATOM      4  C   UNL     1      -2.153 -12.014   6.433  1.00  0.00     0.000 C 
BRANCH   4   5
ATOM      5  C   UNL     1      -0.886 -12.782   6.843  1.00  0.00     0.006 C 
BRANCH   5   6
ATOM      6  C   UNL     1       0.383 -12.213   6.197  1.00  0.00     0.053 C 
BRANCH   6   7
ATOM      7  C   UNL     1       1.593 -12.618   6.979  1.00  0.00     0.041 C 
ATOM      8  O   UNL     1       1.707 -13.798   7.404  1.00  0.00    -0.550 OA
ATOM      9  O   UNL     1       2.571 -11.680   7.281  1.00  0.00    -0.550 OA
ENDBRANCH   6   7
ENDBRANCH   5   6
ENDBRANCH   4   5
ENDBRANCH   3   4
ENDBRANCH   2   3
ENDBRANCH   1   2
BRANCH   1  10
ATOM     10  C   UNL     1      -0.263  -8.475   6.529  1.00  0.00     0.000 C 
BRANCH  10  11
ATOM     11  C   UNL     1       0.800  -8.768   7.602  1.00  0.00    -0.000 C 
BRANCH  11  12
ATOM     12  C   UNL     1       0.209  -8.822   9.020  1.00  0.00    -0.000 C 
BRANCH  12  13
ATOM     13  C   UNL     1       0.748 -10.003   9.843  1.00  0.00    -0.000 C 
BRANCH  13  14
ATOM     14  C   UNL     1      -0.340 -11.068  10.049  1.00  0.00    -0.000 C 
BRANCH  14  15
ATOM     15  C   UNL     1      -1.755 -10.467  10.105  1.00  0.00    -0.000 C 
BRANCH  15  16
ATOM     16  C   UNL     1      -2.854 -11.535  10.022  1.00  0.00    -0.003 C 
ATOM     17  C   UNL     1      -4.195 -10.914   9.640  1.00  0.00     0.004 C 
ENDBRANCH  15  16
ENDBRANCH  14  15
ENDBRANCH  13  14
ENDBRANCH  12  13
ENDBRANCH  11  12
ENDBRANCH  10  11
ENDBRANCH   1  10
TORSDOF 13
ENDMDL
MODEL 8
REMARK VINA RESULT:    -3.475     14.514     17.124
REMARK INTER + INTRA:          -8.086
REMARK INTER:                  -6.125
REMARK INTRA:                  -1.961
REMARK UNBOUND:                -1.971
REMARK SMILES CCCCCCCCCCCCCCC(=O)[O-]
REMARK SMILES IDX 9 1 10 2 11 3 12 4 13 5 14 6 15 7 16 8 17 9 8 10 7 11 6 12
REMARK SMILES IDX 5 13 4 14 3 15 2 16 1 17
REMARK H PARENT
REMARK Flexibility Score: inf
ROOT
ATOM      1  C   UNL     1     -11.201   3.905   8.035  1.00  0.00     0.000 C 
ENDROOT
BRANCH   1   2
ATOM      2  C   UNL     1     -10.203   4.745   7.219  1.00  0.00     0.000 C 
BRANCH   2   3
ATOM      3  C   UNL     1     -10.282   4.453   5.713  1.00  0.00     0.000 C 
BRANCH   3   4
ATOM      4  C   UNL     1      -8.897   4.222   5.083  1.00  0.00     0.000 C 
BRANCH   4   5
ATOM      5  C   UNL     1      -7.808   3.949   6.133  1.00  0.00     0.006 C 
BRANCH   5   6
ATOM      6  C   UNL     1      -7.482   2.456   6.269  1.00  0.00     0.053 C 
BRANCH   6   7
ATOM      7  C   UNL     1      -7.225   2.107   7.701  1.00  0.00     0.041 C 
ATOM      8  O   UNL     1      -6.618   2.915   8.451  1.00  0.00    -0.550 OA
ATOM      9  O   UNL     1      -7.613   0.868   8.195  1.00  0.00    -0.550 OA
ENDBRANCH   6   7
ENDBRANCH   5   6
ENDBRANCH   4   5
ENDBRANCH   3   4
ENDBRANCH   2   3
ENDBRANCH   1   2
BRANCH   1  10
ATOM     10  C   UNL     1     -10.839   2.412   8.063  1.00  0.00     0.000 C 
BRANCH  10  11
ATOM     11  C   UNL     1     -12.076   1.503   7.968  1.00  0.00    -0.000 C 
BRANCH  11  12
ATOM     12  C   UNL     1     -11.995   0.515   6.792  1.00  0.00    -0.000 C 
BRANCH  12  13
ATOM     13  C   UNL     1     -11.871   1.220   5.432  1.00  0.00    -0.000 C 
BRANCH  13  14
ATOM     14  C   UNL     1     -10.546   0.855   4.746  1.00  0.00    -0.000 C 
BRANCH  14  15
ATOM     15  C   UNL     1      -9.882  -0.388   5.362  1.00  0.00    -0.000 C 
BRANCH  15  16
ATOM     16  C   UNL     1      -9.228  -1.292   4.308  1.00  0.00    -0.003 C 
ATOM     17  C   UNL     1      -8.335  -0.485   3.370  1.00  0.00     0.004 C 
ENDBRANCH  15  16
ENDBRANCH  14  15
ENDBRANCH  13  14
ENDBRANCH  12  13
ENDBRANCH  11  12
ENDBRANCH  10  11
ENDBRANCH   1  10
TORSDOF 13
ENDMDL
MODEL 9
REMARK VINA RESULT:    -3.377      2.554      4.214
REMARK INTER + INTRA:          -7.914
REMARK INTER:                  -5.491
REMARK INTRA:                  -2.423
REMARK UNBOUND:                -1.971
REMARK SMILES CCCCCCCCCCCCCCC(=O)[O-]
REMARK SMILES IDX 9 1 10 2 11 3 12 4 13 5 14 6 15 7 16 8 17 9 8 10 7 11 6 12
REMARK SMILES IDX 5 13 4 14 3 15 2 16 1 17
REMARK H PARENT
REMARK Flexibility Score: inf
ROOT
ATOM      1  C   UNL     1       0.848  -9.753   9.930  1.00  0.00     0.000 C 
ENDROOT
BRANCH   1   2
ATOM      2  C   UNL     1       0.126 -11.112   9.904  1.00  0.00     0.000 C 
BRANCH   2   3
ATOM      3  C   UNL     1       0.838 -12.140   9.012  1.00  0.00     0.000 C 
BRANCH   3   4
ATOM      4  C   UNL     1      -0.026 -12.584   7.818  1.00  0.00     0.000 C 
BRANCH   4   5
ATOM      5  C   UNL     1       0.712 -12.457   6.476  1.00  0.00     0.006 C 
BRANCH   5   6
ATOM      6  C   UNL     1      -0.237 -12.531   5.273  1.00  0.00     0.053 C 
BRANCH   6   7
ATOM      7  C   UNL     1      -1.110 -13.743   5.371  1.00  0.00     0.041 C 
ATOM      8  O   UNL     1      -2.349 -13.618   5.557  1.00  0.00    -0.550 OA
ATOM      9  O   UNL     1      -0.548 -15.011   5.306  1.00  0.00    -0.550 OA
ENDBRANCH   6   7
ENDBRANCH   5   6
ENDBRANCH   4   5
ENDBRANCH   3   4
ENDBRANCH   2   3
ENDBRANCH   1   2
BRANCH   1  10
ATOM     10  C   UNL     1       0.176  -8.705   9.029  1.00  0.00     0.000 C 
BRANCH  10  11
ATOM     11  C   UNL     1       0.730  -8.718   7.594  1.00  0.00    -0.000 C 
BRANCH  11  12
ATOM     12  C   UNL     1      -0.359  -8.986   6.542  1.00  0.00    -0.000 C 
BRANCH  12  13
ATOM     13  C   UNL     1      -1.538  -8.007   6.646  1.00  0.00    -0.000 C 
BRANCH  13  14
ATOM     14  C   UNL     1      -2.867  -8.764   6.790  1.00  0.00    -0.000 C 
BRANCH  14  15
ATOM     15  C   UNL     1      -2.680 -10.290   6.808  1.00  0.00    -0.000 C 
BRANCH  15  16
ATOM     16  C   UNL     1      -3.343 -10.954   8.023  1.00  0.00    -0.003 C 
ATOM     17  C   UNL     1      -3.302 -10.035   9.241  1.00  0.00     0.004 C 
ENDBRANCH  15  16
ENDBRANCH  14  15
ENDBRANCH  13  14
ENDBRANCH  12  13
ENDBRANCH  11  12
ENDBRANCH  10  11
ENDBRANCH   1  10
TORSDOF 13
ENDMDL
