MODEL 1
REMARK VINA RESULT:    -5.649      0.000      0.000
REMARK INTER + INTRA:          -5.979
REMARK INTER:                  -5.979
REMARK INTRA:                   0.000
REMARK UNBOUND:                 0.000
REMARK SMILES O=c1ccc2cc(O)c(O)cc2o1
REMARK SMILES IDX 4 1 3 2 2 3 1 4 13 5 12 6 11 7 9 8 7 9 6 10 5 11 8 12 10 14
REMARK H PARENT 8 13 10 15
REMARK Flexibility Score: inf
ROOT
ATOM      1  C   UNL     1       7.883 -32.627 -19.935  1.00  0.00     0.019 A 
ATOM      2  C   UNL     1       7.754 -31.317 -20.394  1.00  0.00     0.094 A 
ATOM      3  C   UNL     1       8.904 -30.533 -20.542  1.00  0.00     0.336 A 
ATOM      4  O   UNL     1       8.808 -29.348 -20.956  1.00  0.00    -0.246 OA
ATOM      5  O   UNL     1      10.102 -31.032 -20.248  1.00  0.00    -0.423 OA
ATOM      6  C   UNL     1      10.269 -32.277 -19.807  1.00  0.00     0.142 A 
ATOM      7  C   UNL     1      11.553 -32.748 -19.513  1.00  0.00     0.098 A 
ATOM      8  C   UNL     1      11.735 -34.058 -19.048  1.00  0.00     0.161 A 
ATOM      9  C   UNL     1      10.628 -34.902 -18.876  1.00  0.00     0.158 A 
ATOM     10  C   UNL     1       9.338 -34.435 -19.168  1.00  0.00     0.062 A 
ATOM     11  C   UNL     1       9.154 -33.125 -19.634  1.00  0.00     0.022 A 
ENDROOT
BRANCH   9  12
ATOM     12  O   UNL     1      10.818 -36.203 -18.412  1.00  0.00    -0.504 OA
ATOM     13  H   UNL     1      11.591 -36.773 -18.737  1.00  0.00     0.293 HD
ENDBRANCH   9  12
BRANCH   8  14
ATOM     14  O   UNL     1      13.013 -34.530 -18.755  1.00  0.00    -0.504 OA
ATOM     15  H   UNL     1      13.167 -35.240 -18.049  1.00  0.00     0.293 HD
ENDBRANCH   8  14
TORSDOF 2
ENDMDL
MODEL 2
REMARK VINA RESULT:    -5.572      1.543      5.198
REMARK INTER + INTRA:          -5.897
REMARK INTER:                  -5.897
REMARK INTRA:                   0.000
REMARK UNBOUND:                 0.000
REMARK SMILES O=c1ccc2cc(O)c(O)cc2o1
REMARK SMILES IDX 4 1 3 2 2 3 1 4 13 5 12 6 11 7 9 8 7 9 6 10 5 11 8 12 10 14
REMARK H PARENT 8 13 10 15
REMARK Flexibility Score: inf
ROOT
ATOM      1  C   UNL     1       7.779 -32.503 -19.584  1.00  0.00     0.019 A 
ATOM      2  C   UNL     1       8.844 -33.380 -19.382  1.00  0.00     0.094 A 
ATOM      3  C   UNL     1      10.139 -32.963 -19.712  1.00  0.00     0.336 A 
ATOM      4  O   UNL     1      11.113 -33.741 -19.535  1.00  0.00    -0.246 OA
ATOM      5  O   UNL     1      10.348 -31.748 -20.211  1.00  0.00    -0.423 OA
ATOM      6  C   UNL     1       9.360 -30.880 -20.420  1.00  0.00     0.142 A 
ATOM      7  C   UNL     1       9.641 -29.616 -20.948  1.00  0.00     0.098 A 
ATOM      8  C   UNL     1       8.604 -28.699 -21.170  1.00  0.00     0.161 A 
ATOM      9  C   UNL     1       7.280 -29.047 -20.862  1.00  0.00     0.158 A 
ATOM     10  C   UNL     1       6.993 -30.314 -20.333  1.00  0.00     0.062 A 
ATOM     11  C   UNL     1       8.029 -31.232 -20.110  1.00  0.00     0.022 A 
ENDROOT
BRANCH   9  12
ATOM     12  O   UNL     1       6.256 -28.128 -21.087  1.00  0.00    -0.504 OA
ATOM     13  H   UNL     1       5.290 -28.351 -20.877  1.00  0.00     0.293 HD
ENDBRANCH   9  12
BRANCH   8  14
ATOM     14  O   UNL     1       8.880 -27.438 -21.696  1.00  0.00    -0.504 OA
ATOM     15  H   UNL     1       8.329 -26.626 -21.443  1.00  0.00     0.293 HD
ENDBRANCH   8  14
TORSDOF 2
ENDMDL
MODEL 3
REMARK VINA RESULT:    -5.498      2.293      2.388
REMARK INTER + INTRA:          -5.820
REMARK INTER:                  -5.820
REMARK INTRA:                   0.000
REMARK UNBOUND:                 0.000
REMARK SMILES O=c1ccc2cc(O)c(O)cc2o1
REMARK SMILES IDX 4 1 3 2 2 3 1 4 13 5 12 6 11 7 9 8 7 9 6 10 5 11 8 12 10 14
REMARK H PARENT 8 13 10 15
REMARK Flexibility Score: inf
ROOT
ATOM      1  C   UNL     1       7.929 -32.574 -19.225  1.00  0.00     0.019 A 
ATOM      2  C   UNL     1       7.350 -31.469 -18.602  1.00  0.00     0.094 A 
ATOM      3  C   UNL     1       7.878 -31.024 -17.384  1.00  0.00     0.336 A 
ATOM      4  O   UNL     1       7.369 -30.028 -16.806  1.00  0.00    -0.246 OA
ATOM      5  O   UNL     1       8.915 -31.647 -16.831  1.00  0.00    -0.423 OA
ATOM      6  C   UNL     1       9.497 -32.705 -17.393  1.00  0.00     0.142 A 
ATOM      7  C   UNL     1      10.585 -33.319 -16.765  1.00  0.00     0.098 A 
ATOM      8  C   UNL     1      11.201 -34.434 -17.353  1.00  0.00     0.161 A 
ATOM      9  C   UNL     1      10.727 -34.936 -18.574  1.00  0.00     0.158 A 
ATOM     10  C   UNL     1       9.635 -34.324 -19.208  1.00  0.00     0.062 A 
ATOM     11  C   UNL     1       9.019 -33.209 -18.622  1.00  0.00     0.022 A 
ENDROOT
BRANCH   9  12
ATOM     12  O   UNL     1      11.345 -36.044 -19.150  1.00  0.00    -0.504 OA
ATOM     13  H   UNL     1      12.282 -36.325 -18.885  1.00  0.00     0.293 HD
ENDBRANCH   9  12
BRANCH   8  14
ATOM     14  O   UNL     1      12.286 -35.048 -16.730  1.00  0.00    -0.504 OA
ATOM     15  H   UNL     1      13.093 -34.517 -16.425  1.00  0.00     0.293 HD
ENDBRANCH   8  14
TORSDOF 2
ENDMDL
MODEL 4
REMARK VINA RESULT:    -5.427      5.418      7.240
REMARK INTER + INTRA:          -5.744
REMARK INTER:                  -5.744
REMARK INTRA:                   0.000
REMARK UNBOUND:                 0.000
REMARK SMILES O=c1ccc2cc(O)c(O)cc2o1
REMARK SMILES IDX 4 1 3 2 2 3 1 4 13 5 12 6 11 7 9 8 7 9 6 10 5 11 8 12 10 14
REMARK H PARENT 8 13 10 15
REMARK Flexibility Score: inf
ROOT
ATOM      1  C   UNL     1      15.123 -30.653 -20.475  1.00  0.00     0.019 A 
ATOM      2  C   UNL     1      13.903 -31.234 -20.133  1.00  0.00     0.094 A 
ATOM      3  C   UNL     1      13.793 -32.630 -20.133  1.00  0.00     0.336 A 
ATOM      4  O   UNL     1      12.699 -33.173 -19.826  1.00  0.00    -0.246 OA
ATOM      5  O   UNL     1      14.837 -33.388 -20.456  1.00  0.00    -0.423 OA
ATOM      6  C   UNL     1      16.019 -32.873 -20.789  1.00  0.00     0.142 A 
ATOM      7  C   UNL     1      17.081 -33.720 -21.120  1.00  0.00     0.098 A 
ATOM      8  C   UNL     1      18.328 -33.184 -21.471  1.00  0.00     0.161 A 
ATOM      9  C   UNL     1      18.514 -31.793 -21.492  1.00  0.00     0.158 A 
ATOM     10  C   UNL     1      17.451 -30.939 -21.162  1.00  0.00     0.062 A 
ATOM     11  C   UNL     1      16.204 -31.474 -20.810  1.00  0.00     0.022 A 
ENDROOT
BRANCH   9  12
ATOM     12  O   UNL     1      19.757 -31.269 -21.844  1.00  0.00    -0.504 OA
ATOM     13  H   UNL     1      20.242 -30.610 -21.246  1.00  0.00     0.293 HD
ENDBRANCH   9  12
BRANCH   8  14
ATOM     14  O   UNL     1      19.389 -34.026 -21.801  1.00  0.00    -0.504 OA
ATOM     15  H   UNL     1      20.342 -33.806 -21.535  1.00  0.00     0.293 HD
ENDBRANCH   8  14
TORSDOF 2
ENDMDL
MODEL 5
REMARK VINA RESULT:    -5.424      5.575      6.995
REMARK INTER + INTRA:          -5.741
REMARK INTER:                  -5.741
REMARK INTRA:                   0.000
REMARK UNBOUND:                 0.000
REMARK SMILES O=c1ccc2cc(O)c(O)cc2o1
REMARK SMILES IDX 4 1 3 2 2 3 1 4 13 5 12 6 11 7 9 8 7 9 6 10 5 11 8 12 10 14
REMARK H PARENT 8 13 10 15
REMARK Flexibility Score: inf
ROOT
ATOM      1  C   UNL     1      14.791 -33.312 -20.428  1.00  0.00     0.019 A 
ATOM      2  C   UNL     1      13.773 -32.400 -20.148  1.00  0.00     0.094 A 
ATOM      3  C   UNL     1      14.043 -31.031 -20.249  1.00  0.00     0.336 A 
ATOM      4  O   UNL     1      13.137 -30.193 -20.000  1.00  0.00    -0.246 OA
ATOM      5  O   UNL     1      15.251 -30.607 -20.608  1.00  0.00    -0.423 OA
ATOM      6  C   UNL     1      16.250 -31.443 -20.885  1.00  0.00     0.142 A 
ATOM      7  C   UNL     1      17.500 -30.939 -21.257  1.00  0.00     0.098 A 
ATOM      8  C   UNL     1      18.555 -31.815 -21.549  1.00  0.00     0.161 A 
ATOM      9  C   UNL     1      18.360 -33.202 -21.469  1.00  0.00     0.158 A 
ATOM     10  C   UNL     1      17.108 -33.713 -21.095  1.00  0.00     0.062 A 
ATOM     11  C   UNL     1      16.051 -32.838 -20.803  1.00  0.00     0.022 A 
ENDROOT
BRANCH   9  12
ATOM     12  O   UNL     1      19.415 -34.065 -21.760  1.00  0.00    -0.504 OA
ATOM     13  H   UNL     1      19.514 -34.957 -21.290  1.00  0.00     0.293 HD
ENDBRANCH   9  12
BRANCH   8  14
ATOM     14  O   UNL     1      19.803 -31.315 -21.920  1.00  0.00    -0.504 OA
ATOM     15  H   UNL     1      20.655 -31.632 -21.473  1.00  0.00     0.293 HD
ENDBRANCH   8  14
TORSDOF 2
ENDMDL
MODEL 6
REMARK VINA RESULT:    -5.266      7.873      9.236
REMARK INTER + INTRA:          -5.573
REMARK INTER:                  -5.573
REMARK INTRA:                   0.000
REMARK UNBOUND:                 0.000
REMARK SMILES O=c1ccc2cc(O)c(O)cc2o1
REMARK SMILES IDX 4 1 3 2 2 3 1 4 13 5 12 6 11 7 9 8 7 9 6 10 5 11 8 12 10 14
REMARK H PARENT 8 13 10 15
REMARK Flexibility Score: inf
ROOT
ATOM      1  C   UNL     1      17.323 -29.052 -21.744  1.00  0.00     0.019 A 
ATOM      2  C   UNL     1      18.123 -28.061 -22.313  1.00  0.00     0.094 A 
ATOM      3  C   UNL     1      19.364 -28.419 -22.852  1.00  0.00     0.336 A 
ATOM      4  O   UNL     1      20.100 -27.539 -23.370  1.00  0.00    -0.246 OA
ATOM      5  O   UNL     1      19.773 -29.684 -22.820  1.00  0.00    -0.423 OA
ATOM      6  C   UNL     1      19.040 -30.660 -22.287  1.00  0.00     0.142 A 
ATOM      7  C   UNL     1      19.522 -31.973 -22.283  1.00  0.00     0.098 A 
ATOM      8  C   UNL     1      18.755 -33.003 -21.722  1.00  0.00     0.161 A 
ATOM      9  C   UNL     1      17.500 -32.720 -21.163  1.00  0.00     0.158 A 
ATOM     10  C   UNL     1      17.012 -31.406 -21.164  1.00  0.00     0.062 A 
ATOM     11  C   UNL     1      17.778 -30.373 -21.725  1.00  0.00     0.022 A 
ENDROOT
BRANCH   9  12
ATOM     12  O   UNL     1      16.744 -33.752 -20.608  1.00  0.00    -0.504 OA
ATOM     13  H   UNL     1      17.183 -34.546 -20.157  1.00  0.00     0.293 HD
ENDBRANCH   9  12
BRANCH   8  14
ATOM     14  O   UNL     1      19.232 -34.313 -21.716  1.00  0.00    -0.504 OA
ATOM     15  H   UNL     1      20.074 -34.568 -21.213  1.00  0.00     0.293 HD
ENDBRANCH   8  14
TORSDOF 2
ENDMDL
MODEL 7
REMARK VINA RESULT:    -5.172      1.737      1.950
REMARK INTER + INTRA:          -5.474
REMARK INTER:                  -5.474
REMARK INTRA:                   0.000
REMARK UNBOUND:                 0.000
REMARK SMILES O=c1ccc2cc(O)c(O)cc2o1
REMARK SMILES IDX 4 1 3 2 2 3 1 4 13 5 12 6 11 7 9 8 7 9 6 10 5 11 8 12 10 14
REMARK H PARENT 8 13 10 15
REMARK Flexibility Score: inf
ROOT
ATOM      1  C   UNL     1       8.515 -31.450 -17.419  1.00  0.00     0.019 A 
ATOM      2  C   UNL     1       7.883 -30.664 -18.383  1.00  0.00     0.094 A 
ATOM      3  C   UNL     1       8.006 -31.016 -19.732  1.00  0.00     0.336 A 
ATOM      4  O   UNL     1       7.442 -30.319 -20.616  1.00  0.00    -0.246 OA
ATOM      5  O   UNL     1       8.715 -32.083 -20.088  1.00  0.00    -0.423 OA
ATOM      6  C   UNL     1       9.334 -32.860 -19.201  1.00  0.00     0.142 A 
ATOM      7  C   UNL     1      10.066 -33.970 -19.634  1.00  0.00     0.098 A 
ATOM      8  C   UNL     1      10.719 -34.791 -18.704  1.00  0.00     0.161 A 
ATOM      9  C   UNL     1      10.640 -34.501 -17.333  1.00  0.00     0.158 A 
ATOM     10  C   UNL     1       9.908 -33.388 -16.893  1.00  0.00     0.062 A 
ATOM     11  C   UNL     1       9.253 -32.567 -17.822  1.00  0.00     0.022 A 
ENDROOT
BRANCH   9  12
ATOM     12  O   UNL     1      11.293 -35.322 -16.416  1.00  0.00    -0.504 OA
ATOM     13  H   UNL     1      11.778 -34.938 -15.613  1.00  0.00     0.293 HD
ENDBRANCH   9  12
BRANCH   8  14
ATOM     14  O   UNL     1      11.450 -35.898 -19.133  1.00  0.00    -0.504 OA
ATOM     15  H   UNL     1      11.215 -36.389 -19.987  1.00  0.00     0.293 HD
ENDBRANCH   8  14
TORSDOF 2
ENDMDL
MODEL 8
REMARK VINA RESULT:    -5.162      2.334      2.560
REMARK INTER + INTRA:          -5.464
REMARK INTER:                  -5.464
REMARK INTRA:                   0.000
REMARK UNBOUND:                 0.000
REMARK SMILES O=c1ccc2cc(O)c(O)cc2o1
REMARK SMILES IDX 4 1 3 2 2 3 1 4 13 5 12 6 11 7 9 8 7 9 6 10 5 11 8 12 10 14
REMARK H PARENT 8 13 10 15
REMARK Flexibility Score: inf
ROOT
ATOM      1  C   UNL     1       8.730 -32.578 -20.469  1.00  0.00     0.019 A 
ATOM      2  C   UNL     1       8.034 -31.462 -20.932  1.00  0.00     0.094 A 
ATOM      3  C   UNL     1       7.642 -30.479 -20.015  1.00  0.00     0.336 A 
ATOM      4  O   UNL     1       7.013 -29.464 -20.414  1.00  0.00    -0.246 OA
ATOM      5  O   UNL     1       7.929 -30.610 -18.723  1.00  0.00    -0.423 OA
ATOM      6  C   UNL     1       8.592 -31.659 -18.240  1.00  0.00     0.142 A 
ATOM      7  C   UNL     1       8.866 -31.743 -16.872  1.00  0.00     0.098 A 
ATOM      8  C   UNL     1       9.563 -32.846 -16.358  1.00  0.00     0.161 A 
ATOM      9  C   UNL     1       9.989 -33.870 -17.217  1.00  0.00     0.158 A 
ATOM     10  C   UNL     1       9.716 -33.792 -18.591  1.00  0.00     0.062 A 
ATOM     11  C   UNL     1       9.019 -32.689 -19.106  1.00  0.00     0.022 A 
ENDROOT
BRANCH   9  12
ATOM     12  O   UNL     1      10.681 -34.963 -16.697  1.00  0.00    -0.504 OA
ATOM     13  H   UNL     1      10.466 -35.338 -15.781  1.00  0.00     0.293 HD
ENDBRANCH   9  12
BRANCH   8  14
ATOM     14  O   UNL     1       9.839 -32.932 -14.994  1.00  0.00    -0.504 OA
ATOM     15  H   UNL     1      10.414 -33.675 -14.616  1.00  0.00     0.293 HD
ENDBRANCH   8  14
TORSDOF 2
ENDMDL
MODEL 9
REMARK VINA RESULT:    -5.045      5.307      7.601
REMARK INTER + INTRA:          -5.340
REMARK INTER:                  -5.340
REMARK INTRA:                   0.000
REMARK UNBOUND:                 0.000
REMARK SMILES O=c1ccc2cc(O)c(O)cc2o1
REMARK SMILES IDX 4 1 3 2 2 3 1 4 13 5 12 6 11 7 9 8 7 9 6 10 5 11 8 12 10 14
REMARK H PARENT 8 13 10 15
REMARK Flexibility Score: inf
ROOT
ATOM      1  C   UNL     1      17.500 -30.406 -20.986  1.00  0.00     0.019 A 
ATOM      2  C   UNL     1      18.683 -30.970 -21.464  1.00  0.00     0.094 A 
ATOM      3  C   UNL     1      18.697 -32.328 -21.803  1.00  0.00     0.336 A 
ATOM      4  O   UNL     1      19.755 -32.856 -22.237  1.00  0.00    -0.246 OA
ATOM      5  O   UNL     1      17.599 -33.067 -21.671  1.00  0.00    -0.423 OA
ATOM      6  C   UNL     1      16.450 -32.568 -21.220  1.00  0.00     0.142 A 
ATOM      7  C   UNL     1      15.328 -33.394 -21.102  1.00  0.00     0.098 A 
ATOM      8  C   UNL     1      14.116 -32.873 -20.627  1.00  0.00     0.161 A 
ATOM      9  C   UNL     1      14.026 -31.519 -20.267  1.00  0.00     0.158 A 
ATOM     10  C   UNL     1      15.149 -30.687 -20.383  1.00  0.00     0.062 A 
ATOM     11  C   UNL     1      16.361 -31.206 -20.858  1.00  0.00     0.022 A 
ENDROOT
BRANCH   9  12
ATOM     12  O   UNL     1      12.817 -31.011 -19.795  1.00  0.00    -0.504 OA
ATOM     13  H   UNL     1      12.173 -30.523 -20.407  1.00  0.00     0.293 HD
ENDBRANCH   9  12
BRANCH   8  14
ATOM     14  O   UNL     1      12.995 -33.693 -20.508  1.00  0.00    -0.504 OA
ATOM     15  H   UNL     1      12.175 -33.556 -21.087  1.00  0.00     0.293 HD
ENDBRANCH   8  14
TORSDOF 2
ENDMDL
