MODEL 1
REMARK VINA RESULT:    -0.721      0.000      0.000
REMARK INTER + INTRA:          -1.943
REMARK INTER:                  -1.101
REMARK INTRA:                  -0.842
REMARK UNBOUND:                -0.842
REMARK SMILES CC(=O)CCC=C(C)CCC=C(C)CCC=C(C)C
REMARK SMILES IDX 10 1 11 2 12 3 13 4 14 5 15 6 16 7 18 8 17 9 19 10 9 11 7 12
REMARK SMILES IDX 6 13 8 14 5 15 4 16 2 17 3 18 1 19
REMARK H PARENT
REMARK Flexibility Score: inf
ROOT
ATOM      1  C   UNL     1     -26.109 -12.853  23.577  1.00  0.00     0.032 C 
ENDROOT
BRANCH   1   2
ATOM      2  C   UNL     1     -27.347 -12.923  22.719  1.00  0.00    -0.028 C 
ATOM      3  C   UNL     1     -27.995 -11.845  22.223  1.00  0.00    -0.077 C 
ATOM      4  C   UNL     1     -27.569 -10.434  22.552  1.00  0.00     0.039 C 
BRANCH   3   5
ATOM      5  C   UNL     1     -29.201 -12.056  21.333  1.00  0.00     0.034 C 
BRANCH   5   6
ATOM      6  C   UNL     1     -30.123 -13.133  21.917  1.00  0.00     0.032 C 
BRANCH   6   7
ATOM      7  C   UNL     1     -30.074 -14.389  21.085  1.00  0.00    -0.028 C 
ATOM      8  C   UNL     1     -29.892 -15.900  23.077  1.00  0.00     0.039 C 
ATOM      9  C   UNL     1     -29.998 -15.640  21.592  1.00  0.00    -0.080 C 
ATOM     10  C   UNL     1     -30.001 -16.803  20.634  1.00  0.00     0.039 C 
ENDBRANCH   6   7
ENDBRANCH   5   6
ENDBRANCH   3   5
ENDBRANCH   1   2
BRANCH   1  11
ATOM     11  C   UNL     1     -26.413 -13.318  25.005  1.00  0.00     0.034 C 
BRANCH  11  12
ATOM     12  C   UNL     1     -27.827 -12.961  25.403  1.00  0.00    -0.077 C 
ATOM     13  C   UNL     1     -28.104 -11.691  25.779  1.00  0.00    -0.028 C 
ATOM     14  C   UNL     1     -28.891 -14.035  25.374  1.00  0.00     0.039 C 
BRANCH  13  15
ATOM     15  C   UNL     1     -29.482 -11.180  26.124  1.00  0.00     0.035 C 
BRANCH  15  16
ATOM     16  C   UNL     1     -29.973 -10.148  25.101  1.00  0.00     0.079 C 
BRANCH  16  17
ATOM     17  C   UNL     1     -29.391  -8.783  25.363  1.00  0.00     0.130 C 
ATOM     18  O   UNL     1     -30.117  -7.802  25.351  1.00  0.00    -0.300 OA
ATOM     19  C   UNL     1     -27.922  -8.621  25.611  1.00  0.00     0.087 C 
ENDBRANCH  16  17
ENDBRANCH  15  16
ENDBRANCH  13  15
ENDBRANCH  11  12
ENDBRANCH   1  11
TORSDOF 9
ENDMDL
MODEL 2
REMARK VINA RESULT:    -0.377      1.440      2.441
REMARK INTER + INTRA:          -1.418
REMARK INTER:                  -2.290
REMARK INTRA:                   0.872
REMARK UNBOUND:                -0.842
REMARK SMILES CC(=O)CCC=C(C)CCC=C(C)CCC=C(C)C
REMARK SMILES IDX 10 1 11 2 12 3 13 4 14 5 15 6 16 7 18 8 17 9 19 10 9 11 7 12
REMARK SMILES IDX 6 13 8 14 5 15 4 16 2 17 3 18 1 19
REMARK H PARENT
REMARK Flexibility Score: inf
ROOT
ATOM      1  C   UNL     1     -26.101 -13.619  24.805  1.00  0.00     0.032 C 
ENDROOT
BRANCH   1   2
ATOM      2  C   UNL     1     -27.167 -14.378  24.056  1.00  0.00    -0.028 C 
ATOM      3  C   UNL     1     -27.545 -14.112  22.785  1.00  0.00    -0.077 C 
ATOM      4  C   UNL     1     -26.971 -12.952  22.006  1.00  0.00     0.039 C 
BRANCH   3   5
ATOM      5  C   UNL     1     -28.595 -14.984  22.132  1.00  0.00     0.034 C 
BRANCH   5   6
ATOM      6  C   UNL     1     -29.954 -14.275  22.116  1.00  0.00     0.032 C 
BRANCH   6   7
ATOM      7  C   UNL     1     -30.116 -13.455  20.861  1.00  0.00    -0.028 C 
ATOM      8  C   UNL     1     -29.402 -11.321  21.965  1.00  0.00     0.039 C 
ATOM      9  C   UNL     1     -29.845 -12.134  20.771  1.00  0.00    -0.080 C 
ATOM     10  C   UNL     1     -30.016 -11.458  19.435  1.00  0.00     0.039 C 
ENDBRANCH   6   7
ENDBRANCH   5   6
ENDBRANCH   3   5
ENDBRANCH   1   2
BRANCH   1  11
ATOM     11  C   UNL     1     -26.654 -13.069  26.125  1.00  0.00     0.034 C 
BRANCH  11  12
ATOM     12  C   UNL     1     -28.064 -12.551  25.948  1.00  0.00    -0.077 C 
ATOM     13  C   UNL     1     -28.295 -11.223  26.064  1.00  0.00    -0.028 C 
ATOM     14  C   UNL     1     -29.175 -13.532  25.653  1.00  0.00     0.039 C 
BRANCH  13  15
ATOM     15  C   UNL     1     -29.635 -10.563  25.836  1.00  0.00     0.035 C 
BRANCH  15  16
ATOM     16  C   UNL     1     -29.485  -9.230  25.091  1.00  0.00     0.079 C 
BRANCH  16  17
ATOM     17  C   UNL     1     -28.039  -8.850  24.914  1.00  0.00     0.130 C 
ATOM     18  O   UNL     1     -27.536  -8.880  23.801  1.00  0.00    -0.300 OA
ATOM     19  C   UNL     1     -27.206  -8.461  26.098  1.00  0.00     0.087 C 
ENDBRANCH  16  17
ENDBRANCH  15  16
ENDBRANCH  13  15
ENDBRANCH  11  12
ENDBRANCH   1  11
TORSDOF 9
ENDMDL
MODEL 3
REMARK VINA RESULT:     0.519      2.472      5.946
REMARK INTER + INTRA:          -0.050
REMARK INTER:                   0.260
REMARK INTRA:                  -0.310
REMARK UNBOUND:                -0.842
REMARK SMILES CC(=O)CCC=C(C)CCC=C(C)CCC=C(C)C
REMARK SMILES IDX 10 1 11 2 12 3 13 4 14 5 15 6 16 7 18 8 17 9 19 10 9 11 7 12
REMARK SMILES IDX 6 13 8 14 5 15 4 16 2 17 3 18 1 19
REMARK H PARENT
REMARK Flexibility Score: inf
ROOT
ATOM      1  C   UNL     1     -26.401 -12.809  22.775  1.00  0.00     0.032 C 
ENDROOT
BRANCH   1   2
ATOM      2  C   UNL     1     -27.440 -12.935  23.860  1.00  0.00    -0.028 C 
ATOM      3  C   UNL     1     -27.186 -13.368  25.116  1.00  0.00    -0.077 C 
ATOM      4  C   UNL     1     -25.816 -13.847  25.535  1.00  0.00     0.039 C 
BRANCH   3   5
ATOM      5  C   UNL     1     -28.314 -13.401  26.125  1.00  0.00     0.034 C 
BRANCH   5   6
ATOM      6  C   UNL     1     -29.293 -12.248  25.881  1.00  0.00     0.032 C 
BRANCH   6   7
ATOM      7  C   UNL     1     -28.604 -10.916  26.040  1.00  0.00    -0.028 C 
ATOM      8  C   UNL     1     -30.060  -9.774  24.349  1.00  0.00     0.039 C 
ATOM      9  C   UNL     1     -28.955  -9.790  25.381  1.00  0.00    -0.080 C 
ATOM     10  C   UNL     1     -28.198  -8.521  25.677  1.00  0.00     0.039 C 
ENDBRANCH   6   7
ENDBRANCH   5   6
ENDBRANCH   3   5
ENDBRANCH   1   2
BRANCH   1  11
ATOM     11  C   UNL     1     -27.053 -12.429  21.441  1.00  0.00     0.034 C 
BRANCH  11  12
ATOM     12  C   UNL     1     -28.482 -12.919  21.377  1.00  0.00    -0.077 C 
ATOM     13  C   UNL     1     -28.725 -14.248  21.441  1.00  0.00    -0.028 C 
ATOM     14  C   UNL     1     -29.598 -11.908  21.238  1.00  0.00     0.039 C 
BRANCH  13  15
ATOM     15  C   UNL     1     -30.103 -14.867  21.467  1.00  0.00     0.035 C 
BRANCH  15  16
ATOM     16  C   UNL     1     -30.060 -16.313  21.977  1.00  0.00     0.079 C 
BRANCH  16  17
ATOM     17  C   UNL     1     -30.089 -16.374  23.482  1.00  0.00     0.130 C 
ATOM     18  O   UNL     1     -30.105 -17.458  24.044  1.00  0.00    -0.300 OA
ATOM     19  C   UNL     1     -30.125 -15.114  24.291  1.00  0.00     0.087 C 
ENDBRANCH  16  17
ENDBRANCH  15  16
ENDBRANCH  13  15
ENDBRANCH  11  12
ENDBRANCH   1  11
TORSDOF 9
ENDMDL
