MODEL 1
REMARK VINA RESULT:    -5.323      0.000      0.000
REMARK INTER + INTRA:          -5.909
REMARK INTER:                  -5.635
REMARK INTRA:                  -0.275
REMARK UNBOUND:                -0.275
REMARK SMILES CC1=C[C@H]2C(=C(C)CC[C@H]2C(C)C)CC1
REMARK SMILES IDX 1 1 2 2 3 3 4 4 10 5 9 6 8 7 6 8 5 9 14 10 15 11 7 12 11 13
REMARK SMILES IDX 12 14 13 15
REMARK H PARENT
REMARK Flexibility Score: inf
ROOT
ATOM      1  C   UNL     1      31.089   6.751  27.856  1.00  0.00     0.039 C 
ATOM      2  C   UNL     1      30.871   7.847  28.863  1.00  0.00    -0.076 C 
ATOM      3  C   UNL     1      30.890   9.136  28.444  1.00  0.00    -0.020 C 
ATOM      4  C   UNL     1      30.606  10.302  29.381  1.00  0.00     0.041 C 
ATOM      5  C   UNL     1      31.226  11.662  28.936  1.00  0.00     0.003 C 
ATOM      6  C   UNL     1      32.733  11.638  29.251  1.00  0.00     0.009 C 
ATOM      7  C   UNL     1      32.946  11.503  30.760  1.00  0.00     0.031 C 
ATOM      8  C   UNL     1      32.158  10.363  31.372  1.00  0.00    -0.073 C 
ATOM      9  C   UNL     1      31.025   9.889  30.780  1.00  0.00    -0.064 C 
ATOM     10  C   UNL     1      30.329   8.631  31.242  1.00  0.00     0.036 C 
ATOM     11  C   UNL     1      30.770   7.471  30.337  1.00  0.00     0.035 C 
ATOM     12  C   UNL     1      32.631   9.834  32.704  1.00  0.00     0.039 C 
ENDROOT
BRANCH   5  13
ATOM     13  C   UNL     1      30.926  12.072  27.453  1.00  0.00    -0.013 C 
ATOM     14  C   UNL     1      30.102  13.372  27.372  1.00  0.00     0.007 C 
ATOM     15  C   UNL     1      32.222  12.268  26.642  1.00  0.00     0.007 C 
ENDBRANCH   5  13
TORSDOF 1
ENDMDL
MODEL 2
REMARK VINA RESULT:    -5.287      1.270      4.649
REMARK INTER + INTRA:          -5.871
REMARK INTER:                  -5.638
REMARK INTRA:                  -0.233
REMARK UNBOUND:                -0.275
REMARK SMILES CC1=C[C@H]2C(=C(C)CC[C@H]2C(C)C)CC1
REMARK SMILES IDX 1 1 2 2 3 3 4 4 10 5 9 6 8 7 6 8 5 9 14 10 15 11 7 12 11 13
REMARK SMILES IDX 12 14 13 15
REMARK H PARENT
REMARK Flexibility Score: inf
ROOT
ATOM      1  C   UNL     1      33.031  10.070  32.671  1.00  0.00     0.039 C 
ATOM      2  C   UNL     1      32.256  10.451  31.439  1.00  0.00    -0.076 C 
ATOM      3  C   UNL     1      31.432   9.535  30.874  1.00  0.00    -0.020 C 
ATOM      4  C   UNL     1      30.555   9.860  29.670  1.00  0.00     0.041 C 
ATOM      5  C   UNL     1      30.152   8.625  28.807  1.00  0.00     0.003 C 
ATOM      6  C   UNL     1      31.361   8.213  27.948  1.00  0.00     0.009 C 
ATOM      7  C   UNL     1      31.731   9.348  26.991  1.00  0.00     0.031 C 
ATOM      8  C   UNL     1      31.880  10.686  27.685  1.00  0.00    -0.073 C 
ATOM      9  C   UNL     1      31.250  10.944  28.867  1.00  0.00    -0.064 C 
ATOM     10  C   UNL     1      31.533  12.178  29.689  1.00  0.00     0.036 C 
ATOM     11  C   UNL     1      32.529  11.807  30.797  1.00  0.00     0.035 C 
ATOM     12  C   UNL     1      32.683  11.747  26.973  1.00  0.00     0.039 C 
ENDROOT
BRANCH   5  13
ATOM     13  C   UNL     1      29.545   7.425  29.612  1.00  0.00    -0.013 C 
ATOM     14  C   UNL     1      28.256   6.889  28.959  1.00  0.00     0.007 C 
ATOM     15  C   UNL     1      30.546   6.259  29.738  1.00  0.00     0.007 C 
ENDBRANCH   5  13
TORSDOF 1
ENDMDL
MODEL 3
REMARK VINA RESULT:    -5.259      3.520      6.107
REMARK INTER + INTRA:          -5.841
REMARK INTER:                  -5.578
REMARK INTRA:                  -0.263
REMARK UNBOUND:                -0.275
REMARK SMILES CC1=C[C@H]2C(=C(C)CC[C@H]2C(C)C)CC1
REMARK SMILES IDX 1 1 2 2 3 3 4 4 10 5 9 6 8 7 6 8 5 9 14 10 15 11 7 12 11 13
REMARK SMILES IDX 12 14 13 15
REMARK H PARENT
REMARK Flexibility Score: inf
ROOT
ATOM      1  C   UNL     1      28.345  11.900  35.903  1.00  0.00     0.039 C 
ATOM      2  C   UNL     1      29.566  11.021  35.883  1.00  0.00    -0.076 C 
ATOM      3  C   UNL     1      30.260  10.889  34.726  1.00  0.00    -0.020 C 
ATOM      4  C   UNL     1      31.547  10.079  34.635  1.00  0.00     0.041 C 
ATOM      5  C   UNL     1      31.880   9.543  33.209  1.00  0.00     0.003 C 
ATOM      6  C   UNL     1      30.973   8.333  32.917  1.00  0.00     0.009 C 
ATOM      7  C   UNL     1      31.266   7.211  33.915  1.00  0.00     0.031 C 
ATOM      8  C   UNL     1      31.249   7.678  35.356  1.00  0.00    -0.073 C 
ATOM      9  C   UNL     1      31.482   8.981  35.680  1.00  0.00    -0.064 C 
ATOM     10  C   UNL     1      31.272   9.525  37.074  1.00  0.00     0.036 C 
ATOM     11  C   UNL     1      29.897  10.206  37.128  1.00  0.00     0.035 C 
ATOM     12  C   UNL     1      31.048   6.625  36.420  1.00  0.00     0.039 C 
ENDROOT
BRANCH   5  13
ATOM     13  C   UNL     1      31.835  10.619  32.070  1.00  0.00    -0.013 C 
ATOM     14  C   UNL     1      33.125  11.461  32.024  1.00  0.00     0.007 C 
ATOM     15  C   UNL     1      31.626   9.976  30.685  1.00  0.00     0.007 C 
ENDBRANCH   5  13
TORSDOF 1
ENDMDL
MODEL 4
REMARK VINA RESULT:    -5.095      1.586      4.171
REMARK INTER + INTRA:          -5.668
REMARK INTER:                  -5.393
REMARK INTRA:                  -0.275
REMARK UNBOUND:                -0.275
REMARK SMILES CC1=C[C@H]2C(=C(C)CC[C@H]2C(C)C)CC1
REMARK SMILES IDX 1 1 2 2 3 3 4 4 10 5 9 6 8 7 6 8 5 9 14 10 15 11 7 12 11 13
REMARK SMILES IDX 12 14 13 15
REMARK H PARENT
REMARK Flexibility Score: inf
ROOT
ATOM      1  C   UNL     1      27.871   8.352  27.447  1.00  0.00     0.039 C 
ATOM      2  C   UNL     1      29.320   8.745  27.533  1.00  0.00    -0.076 C 
ATOM      3  C   UNL     1      29.871   8.957  28.754  1.00  0.00    -0.020 C 
ATOM      4  C   UNL     1      31.347   9.285  28.937  1.00  0.00     0.041 C 
ATOM      5  C   UNL     1      31.685  10.057  30.249  1.00  0.00     0.003 C 
ATOM      6  C   UNL     1      31.271  11.529  30.070  1.00  0.00     0.009 C 
ATOM      7  C   UNL     1      32.081  12.163  28.936  1.00  0.00     0.031 C 
ATOM      8  C   UNL     1      32.061  11.344  27.662  1.00  0.00    -0.073 C 
ATOM      9  C   UNL     1      31.824  10.002  27.687  1.00  0.00    -0.064 C 
ATOM     10  C   UNL     1      31.592   9.192  26.434  1.00  0.00     0.036 C 
ATOM     11  C   UNL     1      30.078   9.019  26.239  1.00  0.00     0.035 C 
ATOM     12  C   UNL     1      32.397  12.061  26.377  1.00  0.00     0.039 C 
ENDROOT
BRANCH   5  13
ATOM     13  C   UNL     1      31.104   9.422  31.559  1.00  0.00    -0.013 C 
ATOM     14  C   UNL     1      32.212   9.089  32.576  1.00  0.00     0.007 C 
ATOM     15  C   UNL     1      30.083  10.354  32.241  1.00  0.00     0.007 C 
ENDBRANCH   5  13
TORSDOF 1
ENDMDL
MODEL 5
REMARK VINA RESULT:    -5.078      2.544      5.693
REMARK INTER + INTRA:          -5.650
REMARK INTER:                  -5.383
REMARK INTRA:                  -0.267
REMARK UNBOUND:                -0.275
REMARK SMILES CC1=C[C@H]2C(=C(C)CC[C@H]2C(C)C)CC1
REMARK SMILES IDX 1 1 2 2 3 3 4 4 10 5 9 6 8 7 6 8 5 9 14 10 15 11 7 12 11 13
REMARK SMILES IDX 12 14 13 15
REMARK H PARENT
REMARK Flexibility Score: inf
ROOT
ATOM      1  C   UNL     1      27.271  11.682  32.513  1.00  0.00     0.039 C 
ATOM      2  C   UNL     1      28.519  10.923  32.152  1.00  0.00    -0.076 C 
ATOM      3  C   UNL     1      29.297  10.431  33.147  1.00  0.00    -0.020 C 
ATOM      4  C   UNL     1      30.537   9.589  32.871  1.00  0.00     0.041 C 
ATOM      5  C   UNL     1      31.604   9.610  34.009  1.00  0.00     0.003 C 
ATOM      6  C   UNL     1      32.366  10.946  33.940  1.00  0.00     0.009 C 
ATOM      7  C   UNL     1      33.107  11.054  32.606  1.00  0.00     0.031 C 
ATOM      8  C   UNL     1      32.222  10.773  31.410  1.00  0.00    -0.073 C 
ATOM      9  C   UNL     1      31.097  10.011  31.525  1.00  0.00    -0.064 C 
ATOM     10  C   UNL     1      30.084   9.879  30.413  1.00  0.00     0.036 C 
ATOM     11  C   UNL     1      28.931  10.855  30.686  1.00  0.00     0.035 C 
ATOM     12  C   UNL     1      32.682  11.299  30.072  1.00  0.00     0.039 C 
ENDROOT
BRANCH   5  13
ATOM     13  C   UNL     1      31.049   9.304  35.442  1.00  0.00    -0.013 C 
ATOM     14  C   UNL     1      31.263   7.831  35.839  1.00  0.00     0.007 C 
ATOM     15  C   UNL     1      31.710  10.196  36.512  1.00  0.00     0.007 C 
ENDBRANCH   5  13
TORSDOF 1
ENDMDL
MODEL 6
REMARK VINA RESULT:    -5.039      1.117      4.333
REMARK INTER + INTRA:          -5.609
REMARK INTER:                  -5.346
REMARK INTRA:                  -0.263
REMARK UNBOUND:                -0.275
REMARK SMILES CC1=C[C@H]2C(=C(C)CC[C@H]2C(C)C)CC1
REMARK SMILES IDX 1 1 2 2 3 3 4 4 10 5 9 6 8 7 6 8 5 9 14 10 15 11 7 12 11 13
REMARK SMILES IDX 12 14 13 15
REMARK H PARENT
REMARK Flexibility Score: inf
ROOT
ATOM      1  C   UNL     1      28.215  12.196  27.169  1.00  0.00     0.039 C 
ATOM      2  C   UNL     1      29.607  11.802  27.582  1.00  0.00    -0.076 C 
ATOM      3  C   UNL     1      29.840  10.523  27.966  1.00  0.00    -0.020 C 
ATOM      4  C   UNL     1      31.232  10.020  28.328  1.00  0.00     0.041 C 
ATOM      5  C   UNL     1      31.251   8.783  29.277  1.00  0.00     0.003 C 
ATOM      6  C   UNL     1      30.935   9.260  30.707  1.00  0.00     0.009 C 
ATOM      7  C   UNL     1      32.020  10.228  31.184  1.00  0.00     0.031 C 
ATOM      8  C   UNL     1      32.298  11.343  30.196  1.00  0.00    -0.073 C 
ATOM      9  C   UNL     1      32.025  11.195  28.869  1.00  0.00    -0.064 C 
ATOM     10  C   UNL     1      32.093  12.344  27.890  1.00  0.00     0.036 C 
ATOM     11  C   UNL     1      30.672  12.888  27.680  1.00  0.00     0.035 C 
ATOM     12  C   UNL     1      32.965  12.587  30.731  1.00  0.00     0.039 C 
ENDROOT
BRANCH   5  13
ATOM     13  C   UNL     1      30.344   7.588  28.825  1.00  0.00    -0.013 C 
ATOM     14  C   UNL     1      30.879   6.911  27.549  1.00  0.00     0.007 C 
ATOM     15  C   UNL     1      30.221   6.517  29.927  1.00  0.00     0.007 C 
ENDBRANCH   5  13
TORSDOF 1
ENDMDL
MODEL 7
REMARK VINA RESULT:    -5.026      1.980      4.364
REMARK INTER + INTRA:          -5.595
REMARK INTER:                  -5.330
REMARK INTRA:                  -0.265
REMARK UNBOUND:                -0.275
REMARK SMILES CC1=C[C@H]2C(=C(C)CC[C@H]2C(C)C)CC1
REMARK SMILES IDX 1 1 2 2 3 3 4 4 10 5 9 6 8 7 6 8 5 9 14 10 15 11 7 12 11 13
REMARK SMILES IDX 12 14 13 15
REMARK H PARENT
REMARK Flexibility Score: inf
ROOT
ATOM      1  C   UNL     1      28.212  12.290  30.370  1.00  0.00     0.039 C 
ATOM      2  C   UNL     1      29.611  11.746  30.463  1.00  0.00    -0.076 C 
ATOM      3  C   UNL     1      29.838  10.457  30.111  1.00  0.00    -0.020 C 
ATOM      4  C   UNL     1      31.234   9.847  30.105  1.00  0.00     0.041 C 
ATOM      5  C   UNL     1      31.268   8.296  30.265  1.00  0.00     0.003 C 
ATOM      6  C   UNL     1      31.008   7.950  31.742  1.00  0.00     0.009 C 
ATOM      7  C   UNL     1      32.123   8.531  32.616  1.00  0.00     0.031 C 
ATOM      8  C   UNL     1      32.382  10.000  32.349  1.00  0.00    -0.073 C 
ATOM      9  C   UNL     1      32.063  10.568  31.152  1.00  0.00    -0.064 C 
ATOM     10  C   UNL     1      32.113  12.060  30.919  1.00  0.00     0.036 C 
ATOM     11  C   UNL     1      30.695  12.626  31.077  1.00  0.00     0.035 C 
ATOM     12  C   UNL     1      33.085  10.783  33.432  1.00  0.00     0.039 C 
ENDROOT
BRANCH   5  13
ATOM     13  C   UNL     1      30.329   7.510  29.287  1.00  0.00    -0.013 C 
ATOM     14  C   UNL     1      31.067   7.075  28.006  1.00  0.00     0.007 C 
ATOM     15  C   UNL     1      29.734   6.253  29.954  1.00  0.00     0.007 C 
ENDBRANCH   5  13
TORSDOF 1
ENDMDL
MODEL 8
REMARK VINA RESULT:    -5.017      2.668      5.240
REMARK INTER + INTRA:          -5.585
REMARK INTER:                  -5.373
REMARK INTRA:                  -0.212
REMARK UNBOUND:                -0.275
REMARK SMILES CC1=C[C@H]2C(=C(C)CC[C@H]2C(C)C)CC1
REMARK SMILES IDX 1 1 2 2 3 3 4 4 10 5 9 6 8 7 6 8 5 9 14 10 15 11 7 12 11 13
REMARK SMILES IDX 12 14 13 15
REMARK H PARENT
REMARK Flexibility Score: inf
ROOT
ATOM      1  C   UNL     1      31.019  10.678  36.822  1.00  0.00     0.039 C 
ATOM      2  C   UNL     1      31.302   9.725  35.693  1.00  0.00    -0.076 C 
ATOM      3  C   UNL     1      31.631  10.228  34.477  1.00  0.00    -0.020 C 
ATOM      4  C   UNL     1      32.004   9.336  33.300  1.00  0.00     0.041 C 
ATOM      5  C   UNL     1      31.774   9.979  31.898  1.00  0.00     0.003 C 
ATOM      6  C   UNL     1      30.267   9.941  31.584  1.00  0.00     0.009 C 
ATOM      7  C   UNL     1      29.786   8.490  31.515  1.00  0.00     0.031 C 
ATOM      8  C   UNL     1      30.198   7.669  32.719  1.00  0.00    -0.073 C 
ATOM      9  C   UNL     1      31.283   8.012  33.471  1.00  0.00    -0.064 C 
ATOM     10  C   UNL     1      31.605   7.347  34.788  1.00  0.00     0.036 C 
ATOM     11  C   UNL     1      31.077   8.235  35.924  1.00  0.00     0.035 C 
ATOM     12  C   UNL     1      29.411   6.412  33.000  1.00  0.00     0.039 C 
ENDROOT
BRANCH   5  13
ATOM     13  C   UNL     1      32.393  11.406  31.714  1.00  0.00    -0.013 C 
ATOM     14  C   UNL     1      33.124  11.546  30.365  1.00  0.00     0.007 C 
ATOM     15  C   UNL     1      31.320  12.510  31.801  1.00  0.00     0.007 C 
ENDBRANCH   5  13
TORSDOF 1
ENDMDL
MODEL 9
REMARK VINA RESULT:    -5.017      1.717      4.975
REMARK INTER + INTRA:          -5.585
REMARK INTER:                  -5.330
REMARK INTRA:                  -0.255
REMARK UNBOUND:                -0.275
REMARK SMILES CC1=C[C@H]2C(=C(C)CC[C@H]2C(C)C)CC1
REMARK SMILES IDX 1 1 2 2 3 3 4 4 10 5 9 6 8 7 6 8 5 9 14 10 15 11 7 12 11 13
REMARK SMILES IDX 12 14 13 15
REMARK H PARENT
REMARK Flexibility Score: inf
ROOT
ATOM      1  C   UNL     1      32.410  11.101  27.469  1.00  0.00     0.039 C 
ATOM      2  C   UNL     1      31.216  10.559  28.206  1.00  0.00    -0.076 C 
ATOM      3  C   UNL     1      31.399   9.985  29.420  1.00  0.00    -0.020 C 
ATOM      4  C   UNL     1      30.238   9.477  30.265  1.00  0.00     0.041 C 
ATOM      5  C   UNL     1      30.616   8.362  31.288  1.00  0.00     0.003 C 
ATOM      6  C   UNL     1      30.780   7.034  30.526  1.00  0.00     0.009 C 
ATOM      7  C   UNL     1      29.451   6.639  29.878  1.00  0.00     0.031 C 
ATOM      8  C   UNL     1      28.829   7.757  29.067  1.00  0.00    -0.073 C 
ATOM      9  C   UNL     1      29.122   9.064  29.324  1.00  0.00    -0.064 C 
ATOM     10  C   UNL     1      28.688  10.190  28.415  1.00  0.00     0.036 C 
ATOM     11  C   UNL     1      29.865  10.556  27.499  1.00  0.00     0.035 C 
ATOM     12  C   UNL     1      27.811   7.368  28.023  1.00  0.00     0.039 C 
ENDROOT
BRANCH   5  13
ATOM     13  C   UNL     1      31.848   8.690  32.200  1.00  0.00    -0.013 C 
ATOM     14  C   UNL     1      31.571   9.886  33.131  1.00  0.00     0.007 C 
ATOM     15  C   UNL     1      32.253   7.482  33.069  1.00  0.00     0.007 C 
ENDBRANCH   5  13
TORSDOF 1
ENDMDL
