MODEL 1
REMARK VINA RESULT:    -4.856      0.000      0.000
REMARK INTER + INTRA:          -9.622
REMARK INTER:                  -8.262
REMARK INTRA:                  -1.360
REMARK UNBOUND:                -1.360
REMARK SMILES CCCCCCCCCCCCCC(=O)[O-]
REMARK SMILES IDX 8 1 9 2 10 3 11 4 12 5 13 6 14 7 15 8 16 9 7 10 6 11 5 12
REMARK SMILES IDX 4 13 3 14 2 15 1 16
REMARK H PARENT
REMARK Flexibility Score: inf
ROOT
ATOM      1  C   UNL     1     255.511 260.882 248.098  1.00  0.00     0.000 C 
ENDROOT
BRANCH   1   2
ATOM      2  C   UNL     1     256.247 260.614 249.426  1.00  0.00     0.000 C 
BRANCH   2   3
ATOM      3  C   UNL     1     255.356 260.624 250.685  1.00  0.00     0.000 C 
BRANCH   3   4
ATOM      4  C   UNL     1     255.711 261.705 251.722  1.00  0.00     0.000 C 
BRANCH   4   5
ATOM      5  C   UNL     1     254.487 262.200 252.508  1.00  0.00     0.006 C 
BRANCH   5   6
ATOM      6  C   UNL     1     254.700 262.031 254.015  1.00  0.00     0.053 C 
BRANCH   6   7
ATOM      7  C   UNL     1     254.079 260.756 254.492  1.00  0.00     0.041 C 
ATOM      8  O   UNL     1     253.051 260.300 253.923  1.00  0.00    -0.550 OA
ATOM      9  O   UNL     1     254.663 260.044 255.532  1.00  0.00    -0.550 OA
ENDBRANCH   6   7
ENDBRANCH   5   6
ENDBRANCH   4   5
ENDBRANCH   3   4
ENDBRANCH   2   3
ENDBRANCH   1   2
BRANCH   1  10
ATOM     10  C   UNL     1     253.977 260.970 248.208  1.00  0.00     0.000 C 
BRANCH  10  11
ATOM     11  C   UNL     1     253.270 260.721 246.865  1.00  0.00    -0.000 C 
BRANCH  11  12
ATOM     12  C   UNL     1     252.701 259.297 246.753  1.00  0.00    -0.000 C 
BRANCH  12  13
ATOM     13  C   UNL     1     253.760 258.274 246.302  1.00  0.00    -0.000 C 
BRANCH  13  14
ATOM     14  C   UNL     1     253.858 257.070 247.253  1.00  0.00    -0.000 C 
BRANCH  14  15
ATOM     15  C   UNL     1     255.014 257.198 248.256  1.00  0.00    -0.003 C 
ATOM     16  C   UNL     1     254.496 257.206 249.692  1.00  0.00     0.004 C 
ENDBRANCH  14  15
ENDBRANCH  13  14
ENDBRANCH  12  13
ENDBRANCH  11  12
ENDBRANCH  10  11
ENDBRANCH   1  10
TORSDOF 12
ENDMDL
MODEL 2
REMARK VINA RESULT:    -4.656      4.967      6.634
REMARK INTER + INTRA:          -9.282
REMARK INTER:                  -7.720
REMARK INTRA:                  -1.562
REMARK UNBOUND:                -1.360
REMARK SMILES CCCCCCCCCCCCCC(=O)[O-]
REMARK SMILES IDX 8 1 9 2 10 3 11 4 12 5 13 6 14 7 15 8 16 9 7 10 6 11 5 12
REMARK SMILES IDX 4 13 3 14 2 15 1 16
REMARK H PARENT
REMARK Flexibility Score: inf
ROOT
ATOM      1  C   UNL     1     255.004 260.872 248.585  1.00  0.00     0.000 C 
ENDROOT
BRANCH   1   2
ATOM      2  C   UNL     1     255.995 260.566 249.727  1.00  0.00     0.000 C 
BRANCH   2   3
ATOM      3  C   UNL     1     257.107 261.613 249.930  1.00  0.00     0.000 C 
BRANCH   3   4
ATOM      4  C   UNL     1     257.985 261.876 248.692  1.00  0.00     0.000 C 
BRANCH   4   5
ATOM      5  C   UNL     1     259.317 261.111 248.734  1.00  0.00     0.006 C 
BRANCH   5   6
ATOM      6  C   UNL     1     259.336 259.989 247.692  1.00  0.00     0.053 C 
BRANCH   6   7
ATOM      7  C   UNL     1     260.400 260.239 246.671  1.00  0.00     0.041 C 
ATOM      8  O   UNL     1     260.850 261.403 246.498  1.00  0.00    -0.550 OA
ATOM      9  O   UNL     1     260.931 259.181 245.945  1.00  0.00    -0.550 OA
ENDBRANCH   6   7
ENDBRANCH   5   6
ENDBRANCH   4   5
ENDBRANCH   3   4
ENDBRANCH   2   3
ENDBRANCH   1   2
BRANCH   1  10
ATOM     10  C   UNL     1     254.717 259.694 247.636  1.00  0.00     0.000 C 
BRANCH  10  11
ATOM     11  C   UNL     1     254.809 260.089 246.152  1.00  0.00    -0.000 C 
BRANCH  11  12
ATOM     12  C   UNL     1     255.875 261.166 245.895  1.00  0.00    -0.000 C 
BRANCH  12  13
ATOM     13  C   UNL     1     256.774 260.828 244.691  1.00  0.00    -0.000 C 
BRANCH  13  14
ATOM     14  C   UNL     1     257.939 261.819 244.530  1.00  0.00    -0.000 C 
BRANCH  14  15
ATOM     15  C   UNL     1     257.665 263.172 245.201  1.00  0.00    -0.003 C 
ATOM     16  C   UNL     1     258.433 264.294 244.508  1.00  0.00     0.004 C 
ENDBRANCH  14  15
ENDBRANCH  13  14
ENDBRANCH  12  13
ENDBRANCH  11  12
ENDBRANCH  10  11
ENDBRANCH   1  10
TORSDOF 12
ENDMDL
MODEL 3
REMARK VINA RESULT:    -4.629      4.414      6.504
REMARK INTER + INTRA:          -9.237
REMARK INTER:                  -7.925
REMARK INTRA:                  -1.312
REMARK UNBOUND:                -1.360
REMARK SMILES CCCCCCCCCCCCCC(=O)[O-]
REMARK SMILES IDX 8 1 9 2 10 3 11 4 12 5 13 6 14 7 15 8 16 9 7 10 6 11 5 12
REMARK SMILES IDX 4 13 3 14 2 15 1 16
REMARK H PARENT
REMARK Flexibility Score: inf
ROOT
ATOM      1  C   UNL     1     256.854 261.890 245.688  1.00  0.00     0.000 C 
ENDROOT
BRANCH   1   2
ATOM      2  C   UNL     1     255.648 261.012 246.078  1.00  0.00     0.000 C 
BRANCH   2   3
ATOM      3  C   UNL     1     255.519 260.705 247.583  1.00  0.00     0.000 C 
BRANCH   3   4
ATOM      4  C   UNL     1     254.093 260.828 248.150  1.00  0.00     0.000 C 
BRANCH   4   5
ATOM      5  C   UNL     1     253.014 260.832 247.055  1.00  0.00     0.006 C 
BRANCH   5   6
ATOM      6  C   UNL     1     252.363 259.452 246.924  1.00  0.00     0.053 C 
BRANCH   6   7
ATOM      7  C   UNL     1     250.880 259.555 247.094  1.00  0.00     0.041 C 
ATOM      8  O   UNL     1     250.306 260.672 246.993  1.00  0.00    -0.550 OA
ATOM      9  O   UNL     1     250.124 258.411 247.314  1.00  0.00    -0.550 OA
ENDBRANCH   6   7
ENDBRANCH   5   6
ENDBRANCH   4   5
ENDBRANCH   3   4
ENDBRANCH   2   3
ENDBRANCH   1   2
BRANCH   1  10
ATOM     10  C   UNL     1     257.904 261.199 244.798  1.00  0.00     0.000 C 
BRANCH  10  11
ATOM     11  C   UNL     1     259.341 261.392 245.314  1.00  0.00    -0.000 C 
BRANCH  11  12
ATOM     12  C   UNL     1     259.649 260.517 246.540  1.00  0.00    -0.000 C 
BRANCH  12  13
ATOM     13  C   UNL     1     259.978 261.352 247.791  1.00  0.00    -0.000 C 
BRANCH  13  14
ATOM     14  C   UNL     1     258.822 261.373 248.806  1.00  0.00    -0.000 C 
BRANCH  14  15
ATOM     15  C   UNL     1     258.534 262.781 249.347  1.00  0.00    -0.003 C 
ATOM     16  C   UNL     1     258.783 263.842 248.278  1.00  0.00     0.004 C 
ENDBRANCH  14  15
ENDBRANCH  13  14
ENDBRANCH  12  13
ENDBRANCH  11  12
ENDBRANCH  10  11
ENDBRANCH   1  10
TORSDOF 12
ENDMDL
MODEL 4
REMARK VINA RESULT:    -4.617      2.699      3.857
REMARK INTER + INTRA:          -9.216
REMARK INTER:                  -8.195
REMARK INTRA:                  -1.021
REMARK UNBOUND:                -1.360
REMARK SMILES CCCCCCCCCCCCCC(=O)[O-]
REMARK SMILES IDX 8 1 9 2 10 3 11 4 12 5 13 6 14 7 15 8 16 9 7 10 6 11 5 12
REMARK SMILES IDX 4 13 3 14 2 15 1 16
REMARK H PARENT
REMARK Flexibility Score: inf
ROOT
ATOM      1  C   UNL     1     254.343 260.523 247.283  1.00  0.00     0.000 C 
ENDROOT
BRANCH   1   2
ATOM      2  C   UNL     1     255.431 260.135 248.304  1.00  0.00     0.000 C 
BRANCH   2   3
ATOM      3  C   UNL     1     255.360 260.877 249.653  1.00  0.00     0.000 C 
BRANCH   3   4
ATOM      4  C   UNL     1     256.701 261.447 250.151  1.00  0.00     0.000 C 
BRANCH   4   5
ATOM      5  C   UNL     1     256.558 262.260 251.447  1.00  0.00     0.006 C 
BRANCH   5   6
ATOM      6  C   UNL     1     255.130 262.173 251.993  1.00  0.00     0.053 C 
BRANCH   6   7
ATOM      7  C   UNL     1     255.124 261.537 253.347  1.00  0.00     0.041 C 
ATOM      8  O   UNL     1     254.847 262.221 254.368  1.00  0.00    -0.550 OA
ATOM      9  O   UNL     1     255.376 260.177 253.478  1.00  0.00    -0.550 OA
ENDBRANCH   6   7
ENDBRANCH   5   6
ENDBRANCH   4   5
ENDBRANCH   3   4
ENDBRANCH   2   3
ENDBRANCH   1   2
BRANCH   1  10
ATOM     10  C   UNL     1     254.866 260.926 245.892  1.00  0.00     0.000 C 
BRANCH  10  11
ATOM     11  C   UNL     1     256.359 261.300 245.903  1.00  0.00    -0.000 C 
BRANCH  11  12
ATOM     12  C   UNL     1     257.058 260.974 244.573  1.00  0.00    -0.000 C 
BRANCH  12  13
ATOM     13  C   UNL     1     258.546 261.367 244.578  1.00  0.00    -0.000 C 
BRANCH  13  14
ATOM     14  C   UNL     1     259.085 261.613 245.998  1.00  0.00    -0.000 C 
BRANCH  14  15
ATOM     15  C   UNL     1     259.878 260.418 246.547  1.00  0.00    -0.003 C 
ATOM     16  C   UNL     1     259.683 260.277 248.054  1.00  0.00     0.004 C 
ENDBRANCH  14  15
ENDBRANCH  13  14
ENDBRANCH  12  13
ENDBRANCH  11  12
ENDBRANCH  10  11
ENDBRANCH   1  10
TORSDOF 12
ENDMDL
MODEL 5
REMARK VINA RESULT:    -4.589      3.394      5.266
REMARK INTER + INTRA:          -9.169
REMARK INTER:                  -7.848
REMARK INTRA:                  -1.321
REMARK UNBOUND:                -1.360
REMARK SMILES CCCCCCCCCCCCCC(=O)[O-]
REMARK SMILES IDX 8 1 9 2 10 3 11 4 12 5 13 6 14 7 15 8 16 9 7 10 6 11 5 12
REMARK SMILES IDX 4 13 3 14 2 15 1 16
REMARK H PARENT
REMARK Flexibility Score: inf
ROOT
ATOM      1  C   UNL     1     255.363 260.708 245.175  1.00  0.00     0.000 C 
ENDROOT
BRANCH   1   2
ATOM      2  C   UNL     1     254.552 260.005 246.282  1.00  0.00     0.000 C 
BRANCH   2   3
ATOM      3  C   UNL     1     253.751 260.944 247.206  1.00  0.00     0.000 C 
BRANCH   3   4
ATOM      4  C   UNL     1     254.255 261.011 248.659  1.00  0.00     0.000 C 
BRANCH   4   5
ATOM      5  C   UNL     1     255.518 260.167 248.890  1.00  0.00     0.006 C 
BRANCH   5   6
ATOM      6  C   UNL     1     256.627 261.005 249.533  1.00  0.00     0.053 C 
BRANCH   6   7
ATOM      7  C   UNL     1     256.306 261.286 250.967  1.00  0.00     0.041 C 
ATOM      8  O   UNL     1     256.563 262.415 251.465  1.00  0.00    -0.550 OA
ATOM      9  O   UNL     1     255.678 260.320 251.742  1.00  0.00    -0.550 OA
ENDBRANCH   6   7
ENDBRANCH   5   6
ENDBRANCH   4   5
ENDBRANCH   3   4
ENDBRANCH   2   3
ENDBRANCH   1   2
BRANCH   1  10
ATOM     10  C   UNL     1     256.708 261.305 245.630  1.00  0.00     0.000 C 
BRANCH  10  11
ATOM     11  C   UNL     1     257.763 261.316 244.511  1.00  0.00    -0.000 C 
BRANCH  11  12
ATOM     12  C   UNL     1     258.589 262.613 244.492  1.00  0.00    -0.000 C 
BRANCH  12  13
ATOM     13  C   UNL     1     259.030 263.050 245.901  1.00  0.00    -0.000 C 
BRANCH  13  14
ATOM     14  C   UNL     1     260.251 262.265 246.407  1.00  0.00    -0.000 C 
BRANCH  14  15
ATOM     15  C   UNL     1     259.935 261.406 247.640  1.00  0.00    -0.003 C 
ATOM     16  C   UNL     1     259.995 259.919 247.303  1.00  0.00     0.004 C 
ENDBRANCH  14  15
ENDBRANCH  13  14
ENDBRANCH  12  13
ENDBRANCH  11  12
ENDBRANCH  10  11
ENDBRANCH   1  10
TORSDOF 12
ENDMDL
MODEL 6
REMARK VINA RESULT:    -4.566      1.298      2.763
REMARK INTER + INTRA:          -9.129
REMARK INTER:                  -7.456
REMARK INTRA:                  -1.673
REMARK UNBOUND:                -1.360
REMARK SMILES CCCCCCCCCCCCCC(=O)[O-]
REMARK SMILES IDX 8 1 9 2 10 3 11 4 12 5 13 6 14 7 15 8 16 9 7 10 6 11 5 12
REMARK SMILES IDX 4 13 3 14 2 15 1 16
REMARK H PARENT
REMARK Flexibility Score: inf
ROOT
ATOM      1  C   UNL     1     254.918 258.462 249.823  1.00  0.00     0.000 C 
ENDROOT
BRANCH   1   2
ATOM      2  C   UNL     1     255.971 259.301 249.071  1.00  0.00     0.000 C 
BRANCH   2   3
ATOM      3  C   UNL     1     256.135 260.750 249.570  1.00  0.00     0.000 C 
BRANCH   3   4
ATOM      4  C   UNL     1     255.023 261.240 250.515  1.00  0.00     0.000 C 
BRANCH   4   5
ATOM      5  C   UNL     1     255.528 261.506 251.942  1.00  0.00     0.006 C 
BRANCH   5   6
ATOM      6  C   UNL     1     254.949 260.486 252.926  1.00  0.00     0.053 C 
BRANCH   6   7
ATOM      7  C   UNL     1     254.657 261.135 254.242  1.00  0.00     0.041 C 
ATOM      8  O   UNL     1     254.731 262.387 254.362  1.00  0.00    -0.550 OA
ATOM      9  O   UNL     1     254.255 260.363 255.324  1.00  0.00    -0.550 OA
ENDBRANCH   6   7
ENDBRANCH   5   6
ENDBRANCH   4   5
ENDBRANCH   3   4
ENDBRANCH   2   3
ENDBRANCH   1   2
BRANCH   1  10
ATOM     10  C   UNL     1     253.791 257.888 248.944  1.00  0.00     0.000 C 
BRANCH  10  11
ATOM     11  C   UNL     1     254.228 257.666 247.485  1.00  0.00    -0.000 C 
BRANCH  11  12
ATOM     12  C   UNL     1     253.340 258.420 246.483  1.00  0.00    -0.000 C 
BRANCH  12  13
ATOM     13  C   UNL     1     252.772 259.727 247.066  1.00  0.00    -0.000 C 
BRANCH  13  14
ATOM     14  C   UNL     1     253.658 260.945 246.753  1.00  0.00    -0.000 C 
BRANCH  14  15
ATOM     15  C   UNL     1     254.581 260.713 245.548  1.00  0.00    -0.003 C 
ATOM     16  C   UNL     1     256.011 261.146 245.861  1.00  0.00     0.004 C 
ENDBRANCH  14  15
ENDBRANCH  13  14
ENDBRANCH  12  13
ENDBRANCH  11  12
ENDBRANCH  10  11
ENDBRANCH   1  10
TORSDOF 12
ENDMDL
MODEL 7
REMARK VINA RESULT:    -4.538      4.138      6.119
REMARK INTER + INTRA:          -9.082
REMARK INTER:                  -7.559
REMARK INTRA:                  -1.523
REMARK UNBOUND:                -1.360
REMARK SMILES CCCCCCCCCCCCCC(=O)[O-]
REMARK SMILES IDX 8 1 9 2 10 3 11 4 12 5 13 6 14 7 15 8 16 9 7 10 6 11 5 12
REMARK SMILES IDX 4 13 3 14 2 15 1 16
REMARK H PARENT
REMARK Flexibility Score: inf
ROOT
ATOM      1  C   UNL     1     253.692 260.910 246.630  1.00  0.00     0.000 C 
ENDROOT
BRANCH   1   2
ATOM      2  C   UNL     1     254.798 260.431 245.669  1.00  0.00     0.000 C 
BRANCH   2   3
ATOM      3  C   UNL     1     256.119 261.224 245.740  1.00  0.00     0.000 C 
BRANCH   3   4
ATOM      4  C   UNL     1     257.083 260.985 244.564  1.00  0.00     0.000 C 
BRANCH   4   5
ATOM      5  C   UNL     1     258.523 261.421 244.876  1.00  0.00     0.006 C 
BRANCH   5   6
ATOM      6  C   UNL     1     258.580 262.231 246.174  1.00  0.00     0.053 C 
BRANCH   6   7
ATOM      7  C   UNL     1     259.620 261.674 247.094  1.00  0.00     0.041 C 
ATOM      8  O   UNL     1     259.722 260.428 247.255  1.00  0.00    -0.550 OA
ATOM      9  O   UNL     1     260.510 262.526 247.735  1.00  0.00    -0.550 OA
ENDBRANCH   6   7
ENDBRANCH   5   6
ENDBRANCH   4   5
ENDBRANCH   3   4
ENDBRANCH   2   3
ENDBRANCH   1   2
BRANCH   1  10
ATOM     10  C   UNL     1     252.680 259.829 247.052  1.00  0.00     0.000 C 
BRANCH  10  11
ATOM     11  C   UNL     1     253.272 258.409 247.006  1.00  0.00    -0.000 C 
BRANCH  11  12
ATOM     12  C   UNL     1     253.666 257.891 248.399  1.00  0.00    -0.000 C 
BRANCH  12  13
ATOM     13  C   UNL     1     255.099 258.292 248.793  1.00  0.00    -0.000 C 
BRANCH  13  14
ATOM     14  C   UNL     1     255.150 259.072 250.117  1.00  0.00    -0.000 C 
BRANCH  14  15
ATOM     15  C   UNL     1     255.245 260.590 249.909  1.00  0.00    -0.003 C 
ATOM     16  C   UNL     1     256.588 260.977 249.294  1.00  0.00     0.004 C 
ENDBRANCH  14  15
ENDBRANCH  13  14
ENDBRANCH  12  13
ENDBRANCH  11  12
ENDBRANCH  10  11
ENDBRANCH   1  10
TORSDOF 12
ENDMDL
MODEL 8
REMARK VINA RESULT:    -4.512      3.797      5.141
REMARK INTER + INTRA:          -9.038
REMARK INTER:                  -7.488
REMARK INTRA:                  -1.549
REMARK UNBOUND:                -1.360
REMARK SMILES CCCCCCCCCCCCCC(=O)[O-]
REMARK SMILES IDX 8 1 9 2 10 3 11 4 12 5 13 6 14 7 15 8 16 9 7 10 6 11 5 12
REMARK SMILES IDX 4 13 3 14 2 15 1 16
REMARK H PARENT
REMARK Flexibility Score: inf
ROOT
ATOM      1  C   UNL     1     257.101 260.931 244.654  1.00  0.00     0.000 C 
ENDROOT
BRANCH   1   2
ATOM      2  C   UNL     1     258.451 261.670 244.556  1.00  0.00     0.000 C 
BRANCH   2   3
ATOM      3  C   UNL     1     259.114 262.008 245.906  1.00  0.00     0.000 C 
BRANCH   3   4
ATOM      4  C   UNL     1     259.753 260.810 246.632  1.00  0.00     0.000 C 
BRANCH   4   5
ATOM      5  C   UNL     1     259.025 260.446 247.935  1.00  0.00     0.006 C 
BRANCH   5   6
ATOM      6  C   UNL     1     258.433 261.694 248.598  1.00  0.00     0.053 C 
BRANCH   6   7
ATOM      7  C   UNL     1     259.173 262.020 249.856  1.00  0.00     0.041 C 
ATOM      8  O   UNL     1     258.622 262.711 250.754  1.00  0.00    -0.550 OA
ATOM      9  O   UNL     1     260.452 261.520 250.060  1.00  0.00    -0.550 OA
ENDBRANCH   6   7
ENDBRANCH   5   6
ENDBRANCH   4   5
ENDBRANCH   3   4
ENDBRANCH   2   3
ENDBRANCH   1   2
BRANCH   1  10
ATOM     10  C   UNL     1     256.131 261.480 245.717  1.00  0.00     0.000 C 
BRANCH  10  11
ATOM     11  C   UNL     1     255.160 260.410 246.246  1.00  0.00    -0.000 C 
BRANCH  11  12
ATOM     12  C   UNL     1     254.321 260.911 247.433  1.00  0.00    -0.000 C 
BRANCH  12  13
ATOM     13  C   UNL     1     254.880 260.441 248.788  1.00  0.00    -0.000 C 
BRANCH  13  14
ATOM     14  C   UNL     1     255.658 259.119 248.678  1.00  0.00    -0.000 C 
BRANCH  14  15
ATOM     15  C   UNL     1     254.801 257.895 249.033  1.00  0.00    -0.003 C 
ATOM     16  C   UNL     1     254.418 257.110 247.781  1.00  0.00     0.004 C 
ENDBRANCH  14  15
ENDBRANCH  13  14
ENDBRANCH  12  13
ENDBRANCH  11  12
ENDBRANCH  10  11
ENDBRANCH   1  10
TORSDOF 12
ENDMDL
MODEL 9
REMARK VINA RESULT:    -4.499      4.658      7.592
REMARK INTER + INTRA:          -9.016
REMARK INTER:                  -7.427
REMARK INTRA:                  -1.589
REMARK UNBOUND:                -1.360
REMARK SMILES CCCCCCCCCCCCCC(=O)[O-]
REMARK SMILES IDX 8 1 9 2 10 3 11 4 12 5 13 6 14 7 15 8 16 9 7 10 6 11 5 12
REMARK SMILES IDX 4 13 3 14 2 15 1 16
REMARK H PARENT
REMARK Flexibility Score: inf
ROOT
ATOM      1  C   UNL     1     251.029 258.177 247.108  1.00  0.00     0.000 C 
ENDROOT
BRANCH   1   2
ATOM      2  C   UNL     1     249.533 257.819 247.221  1.00  0.00     0.000 C 
BRANCH   2   3
ATOM      3  C   UNL     1     249.150 256.423 246.691  1.00  0.00     0.000 C 
BRANCH   3   4
ATOM      4  C   UNL     1     249.629 256.119 245.259  1.00  0.00     0.000 C 
BRANCH   4   5
ATOM      5  C   UNL     1     250.679 254.999 245.207  1.00  0.00     0.006 C 
BRANCH   5   6
ATOM      6  C   UNL     1     250.662 254.173 246.497  1.00  0.00     0.053 C 
BRANCH   6   7
ATOM      7  C   UNL     1     252.057 253.859 246.936  1.00  0.00     0.041 C 
ATOM      8  O   UNL     1     252.255 253.113 247.932  1.00  0.00    -0.550 OA
ATOM      9  O   UNL     1     253.140 254.348 246.217  1.00  0.00    -0.550 OA
ENDBRANCH   6   7
ENDBRANCH   5   6
ENDBRANCH   4   5
ENDBRANCH   3   4
ENDBRANCH   2   3
ENDBRANCH   1   2
BRANCH   1  10
ATOM     10  C   UNL     1     251.964 257.371 248.027  1.00  0.00     0.000 C 
BRANCH  10  11
ATOM     11  C   UNL     1     253.435 257.431 247.580  1.00  0.00    -0.000 C 
BRANCH  11  12
ATOM     12  C   UNL     1     253.588 257.888 246.120  1.00  0.00    -0.000 C 
BRANCH  12  13
ATOM     13  C   UNL     1     254.092 259.339 246.008  1.00  0.00    -0.000 C 
BRANCH  13  14
ATOM     14  C   UNL     1     254.855 259.796 247.263  1.00  0.00    -0.000 C 
BRANCH  14  15
ATOM     15  C   UNL     1     254.119 260.902 248.033  1.00  0.00    -0.003 C 
ATOM     16  C   UNL     1     252.840 261.317 247.311  1.00  0.00     0.004 C 
ENDBRANCH  14  15
ENDBRANCH  13  14
ENDBRANCH  12  13
ENDBRANCH  11  12
ENDBRANCH  10  11
ENDBRANCH   1  10
TORSDOF 12
ENDMDL
