MODEL 1
REMARK VINA RESULT:    -4.337      0.000      0.000
REMARK INTER + INTRA:          -5.972
REMARK INTER:                  -5.859
REMARK INTRA:                  -0.114
REMARK UNBOUND:                -0.114
REMARK SMILES [NH3+]CCCC[C@@H]([NH3+])C(=O)[O-]
REMARK SMILES IDX 4 1 3 2 2 3 1 4 5 8 6 9 7 10 8 14 9 15 10 16
REMARK H PARENT 1 5 1 6 1 7 7 11 7 12 7 13
REMARK Flexibility Score: inf
ROOT
ATOM      1  C   UNL     1      52.201  38.027  -4.490  1.00  0.00     0.012 C 
ENDROOT
BRANCH   1   2
ATOM      2  C   UNL     1      53.336  38.578  -3.614  1.00  0.00     0.061 C 
BRANCH   2   3
ATOM      3  C   UNL     1      54.700  38.542  -4.323  1.00  0.00     0.258 C 
BRANCH   3   4
ATOM      4  N   UNL     1      55.125  39.870  -4.772  1.00  0.00    -0.358 N 
ATOM      5  H   UNL     1      55.717  40.330  -4.042  1.00  0.00     0.344 HD
ATOM      6  H   UNL     1      55.689  39.768  -5.646  1.00  0.00     0.344 HD
ATOM      7  H   UNL     1      54.293  40.465  -4.985  1.00  0.00     0.344 HD
ENDBRANCH   3   4
ENDBRANCH   2   3
ENDBRANCH   1   2
BRANCH   1   8
ATOM      8  C   UNL     1      52.506  36.591  -4.944  1.00  0.00     0.072 C 
BRANCH   8   9
ATOM      9  C   UNL     1      51.797  36.221  -6.266  1.00  0.00     0.227 C 
BRANCH   9  10
ATOM     10  N   UNL     1      52.396  36.908  -7.418  1.00  0.00    -0.350 N 
ATOM     11  H   UNL     1      52.869  36.218  -8.044  1.00  0.00     0.345 HD
ATOM     12  H   UNL     1      53.123  37.585  -7.091  1.00  0.00     0.345 HD
ATOM     13  H   UNL     1      51.667  37.427  -7.962  1.00  0.00     0.345 HD
ENDBRANCH   9  10
BRANCH   9  14
ATOM     14  C   UNL     1      51.849  34.729  -6.467  1.00  0.00     0.099 C 
ATOM     15  O   UNL     1      51.701  33.948  -5.491  1.00  0.00    -0.544 OA
ATOM     16  O   UNL     1      52.041  34.208  -7.740  1.00  0.00    -0.544 OA
ENDBRANCH   9  14
ENDBRANCH   8   9
ENDBRANCH   1   8
TORSDOF 7
ENDMDL
MODEL 2
REMARK VINA RESULT:    -4.222      2.789      4.617
REMARK INTER + INTRA:          -5.817
REMARK INTER:                  -5.418
REMARK INTRA:                  -0.399
REMARK UNBOUND:                -0.114
REMARK SMILES [NH3+]CCCC[C@@H]([NH3+])C(=O)[O-]
REMARK SMILES IDX 4 1 3 2 2 3 1 4 5 8 6 9 7 10 8 14 9 15 10 16
REMARK H PARENT 1 5 1 6 1 7 7 11 7 12 7 13
REMARK Flexibility Score: inf
ROOT
ATOM      1  C   UNL     1      54.624  36.926  -6.871  1.00  0.00     0.012 C 
ENDROOT
BRANCH   1   2
ATOM      2  C   UNL     1      53.363  36.212  -7.380  1.00  0.00     0.061 C 
BRANCH   2   3
ATOM      3  C   UNL     1      53.024  34.956  -6.560  1.00  0.00     0.258 C 
BRANCH   3   4
ATOM      4  N   UNL     1      52.933  35.240  -5.126  1.00  0.00    -0.358 N 
ATOM      5  H   UNL     1      53.262  34.418  -4.570  1.00  0.00     0.344 HD
ATOM      6  H   UNL     1      53.541  36.061  -4.904  1.00  0.00     0.344 HD
ATOM      7  H   UNL     1      51.950  35.480  -4.864  1.00  0.00     0.344 HD
ENDBRANCH   3   4
ENDBRANCH   2   3
ENDBRANCH   1   2
BRANCH   1   8
ATOM      8  C   UNL     1      54.311  38.376  -6.472  1.00  0.00     0.072 C 
BRANCH   8   9
ATOM      9  C   UNL     1      54.559  38.649  -4.972  1.00  0.00     0.227 C 
BRANCH   9  10
ATOM     10  N   UNL     1      55.125  39.987  -4.747  1.00  0.00    -0.350 N 
ATOM     11  H   UNL     1      54.358  40.691  -4.656  1.00  0.00     0.345 HD
ATOM     12  H   UNL     1      55.714  40.266  -5.565  1.00  0.00     0.345 HD
ATOM     13  H   UNL     1      55.713  40.001  -3.882  1.00  0.00     0.345 HD
ENDBRANCH   9  10
BRANCH   9  14
ATOM     14  C   UNL     1      53.269  38.496  -4.209  1.00  0.00     0.099 C 
ATOM     15  O   UNL     1      52.182  38.329  -4.821  1.00  0.00    -0.544 OA
ATOM     16  O   UNL     1      53.278  38.520  -2.820  1.00  0.00    -0.544 OA
ENDBRANCH   9  14
ENDBRANCH   8   9
ENDBRANCH   1   8
TORSDOF 7
ENDMDL
MODEL 3
REMARK VINA RESULT:    -4.198      1.391      1.655
REMARK INTER + INTRA:          -5.785
REMARK INTER:                  -5.661
REMARK INTRA:                  -0.123
REMARK UNBOUND:                -0.114
REMARK SMILES [NH3+]CCCC[C@@H]([NH3+])C(=O)[O-]
REMARK SMILES IDX 4 1 3 2 2 3 1 4 5 8 6 9 7 10 8 14 9 15 10 16
REMARK H PARENT 1 5 1 6 1 7 7 11 7 12 7 13
REMARK Flexibility Score: inf
ROOT
ATOM      1  C   UNL     1      52.233  37.992  -4.912  1.00  0.00     0.012 C 
ENDROOT
BRANCH   1   2
ATOM      2  C   UNL     1      53.381  38.408  -3.980  1.00  0.00     0.061 C 
BRANCH   2   3
ATOM      3  C   UNL     1      54.711  38.598  -4.728  1.00  0.00     0.258 C 
BRANCH   3   4
ATOM      4  N   UNL     1      55.125  40.002  -4.771  1.00  0.00    -0.358 N 
ATOM      5  H   UNL     1      55.490  40.245  -5.720  1.00  0.00     0.344 HD
ATOM      6  H   UNL     1      54.297  40.606  -4.565  1.00  0.00     0.344 HD
ATOM      7  H   UNL     1      55.855  40.188  -4.048  1.00  0.00     0.344 HD
ENDBRANCH   3   4
ENDBRANCH   2   3
ENDBRANCH   1   2
BRANCH   1   8
ATOM      8  C   UNL     1      52.670  38.061  -6.384  1.00  0.00     0.072 C 
BRANCH   8   9
ATOM      9  C   UNL     1      52.652  36.680  -7.076  1.00  0.00     0.227 C 
BRANCH   9  10
ATOM     10  N   UNL     1      53.783  35.843  -6.652  1.00  0.00    -0.350 N 
ATOM     11  H   UNL     1      53.968  35.978  -5.632  1.00  0.00     0.345 HD
ATOM     12  H   UNL     1      54.648  36.123  -7.168  1.00  0.00     0.345 HD
ATOM     13  H   UNL     1      53.587  34.832  -6.837  1.00  0.00     0.345 HD
ENDBRANCH   9  10
BRANCH   9  14
ATOM     14  C   UNL     1      51.350  35.983  -6.781  1.00  0.00     0.099 C 
ATOM     15  O   UNL     1      50.278  36.384  -7.305  1.00  0.00    -0.544 OA
ATOM     16  O   UNL     1      51.331  34.876  -5.942  1.00  0.00    -0.544 OA
ENDBRANCH   9  14
ENDBRANCH   8   9
ENDBRANCH   1   8
TORSDOF 7
ENDMDL
MODEL 4
REMARK VINA RESULT:    -4.025      3.038      4.821
REMARK INTER + INTRA:          -5.551
REMARK INTER:                  -5.437
REMARK INTRA:                  -0.114
REMARK UNBOUND:                -0.114
REMARK SMILES [NH3+]CCCC[C@@H]([NH3+])C(=O)[O-]
REMARK SMILES IDX 4 1 3 2 2 3 1 4 5 8 6 9 7 10 8 14 9 15 10 16
REMARK H PARENT 1 5 1 6 1 7 7 11 7 12 7 13
REMARK Flexibility Score: inf
ROOT
ATOM      1  C   UNL     1      52.492  35.610  -5.285  1.00  0.00     0.012 C 
ENDROOT
BRANCH   1   2
ATOM      2  C   UNL     1      51.775  34.339  -5.762  1.00  0.00     0.061 C 
BRANCH   2   3
ATOM      3  C   UNL     1      52.751  33.265  -6.271  1.00  0.00     0.258 C 
BRANCH   3   4
ATOM      4  N   UNL     1      52.108  32.324  -7.190  1.00  0.00    -0.358 N 
ATOM      5  H   UNL     1      51.136  32.106  -6.869  1.00  0.00     0.344 HD
ATOM      6  H   UNL     1      52.057  32.758  -8.140  1.00  0.00     0.344 HD
ATOM      7  H   UNL     1      52.666  31.444  -7.261  1.00  0.00     0.344 HD
ENDBRANCH   3   4
ENDBRANCH   2   3
ENDBRANCH   1   2
BRANCH   1   8
ATOM      8  C   UNL     1      52.003  36.841  -6.064  1.00  0.00     0.072 C 
BRANCH   8   9
ATOM      9  C   UNL     1      53.040  37.986  -6.082  1.00  0.00     0.227 C 
BRANCH   9  10
ATOM     10  N   UNL     1      52.560  39.145  -6.848  1.00  0.00    -0.350 N 
ATOM     11  H   UNL     1      53.038  39.187  -7.776  1.00  0.00     0.345 HD
ATOM     12  H   UNL     1      52.788  40.029  -6.337  1.00  0.00     0.345 HD
ATOM     13  H   UNL     1      51.525  39.092  -6.992  1.00  0.00     0.345 HD
ENDBRANCH   9  10
BRANCH   9  14
ATOM     14  C   UNL     1      53.367  38.396  -4.671  1.00  0.00     0.099 C 
ATOM     15  O   UNL     1      52.457  38.779  -3.891  1.00  0.00    -0.544 OA
ATOM     16  O   UNL     1      54.678  38.332  -4.216  1.00  0.00    -0.544 OA
ENDBRANCH   9  14
ENDBRANCH   8   9
ENDBRANCH   1   8
TORSDOF 7
ENDMDL
MODEL 5
REMARK VINA RESULT:    -3.960      1.177      1.457
REMARK INTER + INTRA:          -5.463
REMARK INTER:                  -5.292
REMARK INTRA:                  -0.170
REMARK UNBOUND:                -0.114
REMARK SMILES [NH3+]CCCC[C@@H]([NH3+])C(=O)[O-]
REMARK SMILES IDX 4 1 3 2 2 3 1 4 5 8 6 9 7 10 8 14 9 15 10 16
REMARK H PARENT 1 5 1 6 1 7 7 11 7 12 7 13
REMARK Flexibility Score: inf
ROOT
ATOM      1  C   UNL     1      52.310  37.607  -5.776  1.00  0.00     0.012 C 
ENDROOT
BRANCH   1   2
ATOM      2  C   UNL     1      52.694  37.253  -4.331  1.00  0.00     0.061 C 
BRANCH   2   3
ATOM      3  C   UNL     1      53.233  38.464  -3.550  1.00  0.00     0.258 C 
BRANCH   3   4
ATOM      4  N   UNL     1      54.695  38.539  -3.589  1.00  0.00    -0.358 N 
ATOM      5  H   UNL     1      55.058  39.024  -2.736  1.00  0.00     0.344 HD
ATOM      6  H   UNL     1      55.085  37.569  -3.614  1.00  0.00     0.344 HD
ATOM      7  H   UNL     1      55.011  39.042  -4.448  1.00  0.00     0.344 HD
ENDBRANCH   3   4
ENDBRANCH   2   3
ENDBRANCH   1   2
BRANCH   1   8
ATOM      8  C   UNL     1      51.387  36.535  -6.376  1.00  0.00     0.072 C 
BRANCH   8   9
ATOM      9  C   UNL     1      52.154  35.490  -7.216  1.00  0.00     0.227 C 
BRANCH   9  10
ATOM     10  N   UNL     1      53.467  35.993  -7.645  1.00  0.00    -0.350 N 
ATOM     11  H   UNL     1      53.348  36.738  -8.369  1.00  0.00     0.345 HD
ATOM     12  H   UNL     1      54.020  35.219  -8.079  1.00  0.00     0.345 HD
ATOM     13  H   UNL     1      54.001  36.381  -6.834  1.00  0.00     0.345 HD
ENDBRANCH   9  10
BRANCH   9  14
ATOM     14  C   UNL     1      52.320  34.223  -6.419  1.00  0.00     0.099 C 
ATOM     15  O   UNL     1      51.611  34.013  -5.400  1.00  0.00    -0.544 OA
ATOM     16  O   UNL     1      53.246  33.268  -6.819  1.00  0.00    -0.544 OA
ENDBRANCH   9  14
ENDBRANCH   8   9
ENDBRANCH   1   8
TORSDOF 7
ENDMDL
MODEL 6
REMARK VINA RESULT:    -3.912      3.082      4.964
REMARK INTER + INTRA:          -5.398
REMARK INTER:                  -5.211
REMARK INTRA:                  -0.188
REMARK UNBOUND:                -0.114
REMARK SMILES [NH3+]CCCC[C@@H]([NH3+])C(=O)[O-]
REMARK SMILES IDX 4 1 3 2 2 3 1 4 5 8 6 9 7 10 8 14 9 15 10 16
REMARK H PARENT 1 5 1 6 1 7 7 11 7 12 7 13
REMARK Flexibility Score: inf
ROOT
ATOM      1  C   UNL     1      51.696  35.423  -6.324  1.00  0.00     0.012 C 
ENDROOT
BRANCH   1   2
ATOM      2  C   UNL     1      52.124  34.660  -7.586  1.00  0.00     0.061 C 
BRANCH   2   3
ATOM      3  C   UNL     1      52.982  33.423  -7.266  1.00  0.00     0.258 C 
BRANCH   3   4
ATOM      4  N   UNL     1      52.178  32.203  -7.170  1.00  0.00    -0.358 N 
ATOM      5  H   UNL     1      51.319  32.285  -7.762  1.00  0.00     0.344 HD
ATOM      6  H   UNL     1      52.746  31.395  -7.514  1.00  0.00     0.344 HD
ATOM      7  H   UNL     1      51.912  32.020  -6.177  1.00  0.00     0.344 HD
ENDBRANCH   3   4
ENDBRANCH   2   3
ENDBRANCH   1   2
BRANCH   1   8
ATOM      8  C   UNL     1      52.886  35.623  -5.373  1.00  0.00     0.072 C 
BRANCH   8   9
ATOM      9  C   UNL     1      53.107  37.105  -4.997  1.00  0.00     0.227 C 
BRANCH   9  10
ATOM     10  N   UNL     1      53.249  37.285  -3.546  1.00  0.00    -0.350 N 
ATOM     11  H   UNL     1      53.293  36.355  -3.070  1.00  0.00     0.345 HD
ATOM     12  H   UNL     1      52.417  37.792  -3.166  1.00  0.00     0.345 HD
ATOM     13  H   UNL     1      54.113  37.830  -3.321  1.00  0.00     0.345 HD
ENDBRANCH   9  10
BRANCH   9  14
ATOM     14  C   UNL     1      54.327  37.631  -5.707  1.00  0.00     0.099 C 
ATOM     15  O   UNL     1      54.819  37.003  -6.681  1.00  0.00    -0.544 OA
ATOM     16  O   UNL     1      54.904  38.828  -5.300  1.00  0.00    -0.544 OA
ENDBRANCH   9  14
ENDBRANCH   8   9
ENDBRANCH   1   8
TORSDOF 7
ENDMDL
MODEL 7
REMARK VINA RESULT:    -3.880      3.042      4.971
REMARK INTER + INTRA:          -5.355
REMARK INTER:                  -5.222
REMARK INTRA:                  -0.132
REMARK UNBOUND:                -0.114
REMARK SMILES [NH3+]CCCC[C@@H]([NH3+])C(=O)[O-]
REMARK SMILES IDX 4 1 3 2 2 3 1 4 5 8 6 9 7 10 8 14 9 15 10 16
REMARK H PARENT 1 5 1 6 1 7 7 11 7 12 7 13
REMARK Flexibility Score: inf
ROOT
ATOM      1  C   UNL     1      52.928  33.776  -5.961  1.00  0.00     0.012 C 
ENDROOT
BRANCH   1   2
ATOM      2  C   UNL     1      52.429  33.223  -7.304  1.00  0.00     0.061 C 
BRANCH   2   3
ATOM      3  C   UNL     1      53.251  32.018  -7.790  1.00  0.00     0.258 C 
BRANCH   3   4
ATOM      4  N   UNL     1      54.689  32.294  -7.789  1.00  0.00    -0.358 N 
ATOM      5  H   UNL     1      54.980  32.720  -8.700  1.00  0.00     0.344 HD
ATOM      6  H   UNL     1      54.905  32.969  -7.020  1.00  0.00     0.344 HD
ATOM      7  H   UNL     1      55.229  31.416  -7.617  1.00  0.00     0.344 HD
ENDBRANCH   3   4
ENDBRANCH   2   3
ENDBRANCH   1   2
BRANCH   1   8
ATOM      8  C   UNL     1      53.327  35.254  -6.090  1.00  0.00     0.072 C 
BRANCH   8   9
ATOM      9  C   UNL     1      52.517  36.175  -5.151  1.00  0.00     0.227 C 
BRANCH   9  10
ATOM     10  N   UNL     1      53.346  36.704  -4.058  1.00  0.00    -0.350 N 
ATOM     11  H   UNL     1      52.753  37.238  -3.383  1.00  0.00     0.345 HD
ATOM     12  H   UNL     1      54.060  37.365  -4.441  1.00  0.00     0.345 HD
ATOM     13  H   UNL     1      53.834  35.929  -3.552  1.00  0.00     0.345 HD
ENDBRANCH   9  10
BRANCH   9  14
ATOM     14  C   UNL     1      51.919  37.307  -5.944  1.00  0.00     0.099 C 
ATOM     15  O   UNL     1      50.958  37.098  -6.729  1.00  0.00    -0.544 OA
ATOM     16  O   UNL     1      52.416  38.596  -5.795  1.00  0.00    -0.544 OA
ENDBRANCH   9  14
ENDBRANCH   8   9
ENDBRANCH   1   8
TORSDOF 7
ENDMDL
MODEL 8
REMARK VINA RESULT:    -3.863      2.612      4.230
REMARK INTER + INTRA:          -5.331
REMARK INTER:                  -4.874
REMARK INTRA:                  -0.458
REMARK UNBOUND:                -0.114
REMARK SMILES [NH3+]CCCC[C@@H]([NH3+])C(=O)[O-]
REMARK SMILES IDX 4 1 3 2 2 3 1 4 5 8 6 9 7 10 8 14 9 15 10 16
REMARK H PARENT 1 5 1 6 1 7 7 11 7 12 7 13
REMARK Flexibility Score: inf
ROOT
ATOM      1  C   UNL     1      50.969  36.037  -7.480  1.00  0.00     0.012 C 
ENDROOT
BRANCH   1   2
ATOM      2  C   UNL     1      52.088  35.048  -7.123  1.00  0.00     0.061 C 
BRANCH   2   3
ATOM      3  C   UNL     1      51.840  34.332  -5.785  1.00  0.00     0.258 C 
BRANCH   3   4
ATOM      4  N   UNL     1      53.084  34.074  -5.057  1.00  0.00    -0.358 N 
ATOM      5  H   UNL     1      52.879  33.812  -4.065  1.00  0.00     0.344 HD
ATOM      6  H   UNL     1      53.587  33.281  -5.515  1.00  0.00     0.344 HD
ATOM      7  H   UNL     1      53.702  34.916  -5.084  1.00  0.00     0.344 HD
ENDBRANCH   3   4
ENDBRANCH   2   3
ENDBRANCH   1   2
BRANCH   1   8
ATOM      8  C   UNL     1      51.042  37.291  -6.595  1.00  0.00     0.072 C 
BRANCH   8   9
ATOM      9  C   UNL     1      52.470  37.874  -6.505  1.00  0.00     0.227 C 
BRANCH   9  10
ATOM     10  N   UNL     1      52.541  39.232  -7.063  1.00  0.00    -0.350 N 
ATOM     11  H   UNL     1      52.128  39.919  -6.393  1.00  0.00     0.345 HD
ATOM     12  H   UNL     1      51.986  39.283  -7.948  1.00  0.00     0.345 HD
ATOM     13  H   UNL     1      53.532  39.499  -7.267  1.00  0.00     0.345 HD
ENDBRANCH   9  10
BRANCH   9  14
ATOM     14  C   UNL     1      52.925  37.879  -5.069  1.00  0.00     0.099 C 
ATOM     15  O   UNL     1      52.396  38.660  -4.235  1.00  0.00    -0.544 OA
ATOM     16  O   UNL     1      53.919  37.003  -4.654  1.00  0.00    -0.544 OA
ENDBRANCH   9  14
ENDBRANCH   8   9
ENDBRANCH   1   8
TORSDOF 7
ENDMDL
