MODEL 1
REMARK VINA RESULT:    -5.280      0.000      0.000
REMARK INTER + INTRA:         -10.778
REMARK INTER:                  -9.911
REMARK INTRA:                  -0.867
REMARK UNBOUND:                -0.867
REMARK SMILES O=C([O-])CCCCCCCCCCCCCCC(=O)[O-]
REMARK SMILES IDX 10 1 9 2 8 3 7 4 6 5 5 6 4 7 2 8 1 9 3 10 11 11 12 12 13 13
REMARK SMILES IDX 14 14 15 15 16 16 17 17 18 18 19 19 20 20
REMARK H PARENT
REMARK Flexibility Score: inf
ROOT
ATOM      1  C   UNL     1      -0.959  25.971  55.022  1.00  0.00     0.000 C 
ENDROOT
BRANCH   1   2
ATOM      2  C   UNL     1       0.531  25.669  54.789  1.00  0.00     0.000 C 
BRANCH   2   3
ATOM      3  C   UNL     1       0.755  24.671  53.639  1.00  0.00     0.000 C 
BRANCH   3   4
ATOM      4  C   UNL     1       1.799  23.591  53.976  1.00  0.00     0.000 C 
BRANCH   4   5
ATOM      5  C   UNL     1       2.864  23.350  52.891  1.00  0.00     0.000 C 
BRANCH   5   6
ATOM      6  C   UNL     1       3.139  24.593  52.033  1.00  0.00     0.006 C 
BRANCH   6   7
ATOM      7  C   UNL     1       4.107  25.545  52.742  1.00  0.00     0.053 C 
BRANCH   7   8
ATOM      8  C   UNL     1       5.059  26.153  51.759  1.00  0.00     0.041 C 
ATOM      9  O   UNL     1       5.992  25.464  51.271  1.00  0.00    -0.550 OA
ATOM     10  O   UNL     1       4.881  27.465  51.341  1.00  0.00    -0.550 OA
ENDBRANCH   7   8
ENDBRANCH   6   7
ENDBRANCH   5   6
ENDBRANCH   4   5
ENDBRANCH   3   4
ENDBRANCH   2   3
ENDBRANCH   1   2
BRANCH   1  11
ATOM     11  C   UNL     1      -1.709  26.270  53.712  1.00  0.00     0.000 C 
BRANCH  11  12
ATOM     12  C   UNL     1      -3.216  26.482  53.929  1.00  0.00     0.000 C 
BRANCH  12  13
ATOM     13  C   UNL     1      -3.567  26.801  55.390  1.00  0.00     0.000 C 
BRANCH  13  14
ATOM     14  C   UNL     1      -4.833  27.663  55.474  1.00  0.00     0.000 C 
BRANCH  14  15
ATOM     15  C   UNL     1      -4.740  28.665  56.631  1.00  0.00     0.000 C 
BRANCH  15  16
ATOM     16  C   UNL     1      -3.484  29.537  56.506  1.00  0.00     0.006 C 
BRANCH  16  17
ATOM     17  C   UNL     1      -3.014  30.023  57.880  1.00  0.00     0.053 C 
BRANCH  17  18
ATOM     18  C   UNL     1      -4.029  30.939  58.488  1.00  0.00     0.041 C 
ATOM     19  O   UNL     1      -4.183  32.104  58.035  1.00  0.00    -0.550 OA
ATOM     20  O   UNL     1      -4.774  30.522  59.583  1.00  0.00    -0.550 OA
ENDBRANCH  17  18
ENDBRANCH  16  17
ENDBRANCH  15  16
ENDBRANCH  14  15
ENDBRANCH  13  14
ENDBRANCH  12  13
ENDBRANCH  11  12
ENDBRANCH   1  11
TORSDOF 15
ENDMDL
MODEL 2
REMARK VINA RESULT:    -5.247      2.233      8.629
REMARK INTER + INTRA:         -10.714
REMARK INTER:                  -9.300
REMARK INTRA:                  -1.414
REMARK UNBOUND:                -0.867
REMARK SMILES O=C([O-])CCCCCCCCCCCCCCC(=O)[O-]
REMARK SMILES IDX 10 1 9 2 8 3 7 4 6 5 5 6 4 7 2 8 1 9 3 10 11 11 12 12 13 13
REMARK SMILES IDX 14 14 15 15 16 16 17 17 18 18 19 19 20 20
REMARK H PARENT
REMARK Flexibility Score: inf
ROOT
ATOM      1  C   UNL     1      -1.521  26.023  54.411  1.00  0.00     0.000 C 
ENDROOT
BRANCH   1   2
ATOM      2  C   UNL     1      -2.918  26.050  55.055  1.00  0.00     0.000 C 
BRANCH   2   3
ATOM      3  C   UNL     1      -3.737  27.282  54.628  1.00  0.00     0.000 C 
BRANCH   3   4
ATOM      4  C   UNL     1      -4.956  27.534  55.534  1.00  0.00     0.000 C 
BRANCH   4   5
ATOM      5  C   UNL     1      -4.800  28.699  56.530  1.00  0.00     0.000 C 
BRANCH   5   6
ATOM      6  C   UNL     1      -3.454  29.427  56.396  1.00  0.00     0.006 C 
BRANCH   6   7
ATOM      7  C   UNL     1      -2.950  29.902  57.762  1.00  0.00     0.053 C 
BRANCH   7   8
ATOM      8  C   UNL     1      -3.966  30.785  58.417  1.00  0.00     0.041 C 
ATOM      9  O   UNL     1      -4.148  31.959  58.002  1.00  0.00    -0.550 OA
ATOM     10  O   UNL     1      -4.749  30.291  59.453  1.00  0.00    -0.550 OA
ENDBRANCH   7   8
ENDBRANCH   6   7
ENDBRANCH   5   6
ENDBRANCH   4   5
ENDBRANCH   3   4
ENDBRANCH   2   3
ENDBRANCH   1   2
BRANCH   1  11
ATOM     11  C   UNL     1      -0.393  26.075  55.455  1.00  0.00     0.000 C 
BRANCH  11  12
ATOM     12  C   UNL     1      -0.757  26.934  56.677  1.00  0.00     0.000 C 
BRANCH  12  13
ATOM     13  C   UNL     1       0.374  27.886  57.093  1.00  0.00     0.000 C 
BRANCH  13  14
ATOM     14  C   UNL     1       1.525  27.118  57.753  1.00  0.00     0.000 C 
BRANCH  14  15
ATOM     15  C   UNL     1       2.845  27.887  57.625  1.00  0.00     0.000 C 
BRANCH  15  16
ATOM     16  C   UNL     1       3.499  27.639  56.260  1.00  0.00     0.006 C 
BRANCH  16  17
ATOM     17  C   UNL     1       3.570  26.140  55.951  1.00  0.00     0.053 C 
BRANCH  17  18
ATOM     18  C   UNL     1       3.614  25.912  54.473  1.00  0.00     0.041 C 
ATOM     19  O   UNL     1       4.633  26.242  53.810  1.00  0.00    -0.550 OA
ATOM     20  O   UNL     1       2.513  25.372  53.820  1.00  0.00    -0.550 OA
ENDBRANCH  17  18
ENDBRANCH  16  17
ENDBRANCH  15  16
ENDBRANCH  14  15
ENDBRANCH  13  14
ENDBRANCH  12  13
ENDBRANCH  11  12
ENDBRANCH   1  11
TORSDOF 15
ENDMDL
MODEL 3
REMARK VINA RESULT:    -5.107      3.149      7.940
REMARK INTER + INTRA:         -10.452
REMARK INTER:                  -9.384
REMARK INTRA:                  -1.068
REMARK UNBOUND:                -0.867
REMARK SMILES O=C([O-])CCCCCCCCCCCCCCC(=O)[O-]
REMARK SMILES IDX 10 1 9 2 8 3 7 4 6 5 5 6 4 7 2 8 1 9 3 10 11 11 12 12 13 13
REMARK SMILES IDX 14 14 15 15 16 16 17 17 18 18 19 19 20 20
REMARK H PARENT
REMARK Flexibility Score: inf
ROOT
ATOM      1  C   UNL     1      -1.271  26.009  54.266  1.00  0.00     0.000 C 
ENDROOT
BRANCH   1   2
ATOM      2  C   UNL     1      -2.661  26.002  54.925  1.00  0.00     0.000 C 
BRANCH   2   3
ATOM      3  C   UNL     1      -3.452  27.291  54.643  1.00  0.00     0.000 C 
BRANCH   3   4
ATOM      4  C   UNL     1      -4.699  27.437  55.535  1.00  0.00     0.000 C 
BRANCH   4   5
ATOM      5  C   UNL     1      -4.695  28.663  56.467  1.00  0.00     0.000 C 
BRANCH   5   6
ATOM      6  C   UNL     1      -3.370  29.437  56.436  1.00  0.00     0.006 C 
BRANCH   6   7
ATOM      7  C   UNL     1      -2.994  29.938  57.834  1.00  0.00     0.053 C 
BRANCH   7   8
ATOM      8  C   UNL     1      -4.070  30.826  58.378  1.00  0.00     0.041 C 
ATOM      9  O   UNL     1      -4.182  32.011  57.969  1.00  0.00    -0.550 OA
ATOM     10  O   UNL     1      -4.982  30.326  59.299  1.00  0.00    -0.550 OA
ENDBRANCH   7   8
ENDBRANCH   6   7
ENDBRANCH   5   6
ENDBRANCH   4   5
ENDBRANCH   3   4
ENDBRANCH   2   3
ENDBRANCH   1   2
BRANCH   1  11
ATOM     11  C   UNL     1      -0.140  26.225  55.286  1.00  0.00     0.000 C 
BRANCH  11  12
ATOM     12  C   UNL     1       1.214  25.695  54.788  1.00  0.00     0.000 C 
BRANCH  12  13
ATOM     13  C   UNL     1       2.374  26.045  55.732  1.00  0.00     0.000 C 
BRANCH  13  14
ATOM     14  C   UNL     1       3.471  26.818  54.991  1.00  0.00     0.000 C 
BRANCH  14  15
ATOM     15  C   UNL     1       3.714  28.186  55.640  1.00  0.00     0.000 C 
BRANCH  15  16
ATOM     16  C   UNL     1       3.078  28.256  57.034  1.00  0.00     0.006 C 
BRANCH  16  17
ATOM     17  C   UNL     1       2.721  29.699  57.403  1.00  0.00     0.053 C 
BRANCH  17  18
ATOM     18  C   UNL     1       1.325  29.775  57.934  1.00  0.00     0.041 C 
ATOM     19  O   UNL     1       1.054  30.540  58.897  1.00  0.00    -0.550 OA
ATOM     20  O   UNL     1       0.331  28.970  57.393  1.00  0.00    -0.550 OA
ENDBRANCH  17  18
ENDBRANCH  16  17
ENDBRANCH  15  16
ENDBRANCH  14  15
ENDBRANCH  13  14
ENDBRANCH  12  13
ENDBRANCH  11  12
ENDBRANCH   1  11
TORSDOF 15
ENDMDL
MODEL 4
REMARK VINA RESULT:    -5.007      4.412      9.739
REMARK INTER + INTRA:         -10.265
REMARK INTER:                  -9.428
REMARK INTRA:                  -0.837
REMARK UNBOUND:                -0.867
REMARK SMILES O=C([O-])CCCCCCCCCCCCCCC(=O)[O-]
REMARK SMILES IDX 10 1 9 2 8 3 7 4 6 5 5 6 4 7 2 8 1 9 3 10 11 11 12 12 13 13
REMARK SMILES IDX 14 14 15 15 16 16 17 17 18 18 19 19 20 20
REMARK H PARENT
REMARK Flexibility Score: inf
ROOT
ATOM      1  C   UNL     1      -4.334  31.261  60.067  1.00  0.00     0.000 C 
ENDROOT
BRANCH   1   2
ATOM      2  C   UNL     1      -3.086  32.096  60.403  1.00  0.00     0.000 C 
BRANCH   2   3
ATOM      3  C   UNL     1      -3.271  32.943  61.674  1.00  0.00     0.000 C 
BRANCH   3   4
ATOM      4  C   UNL     1      -1.987  33.682  62.094  1.00  0.00     0.000 C 
BRANCH   4   5
ATOM      5  C   UNL     1      -1.685  33.661  63.604  1.00  0.00     0.000 C 
BRANCH   5   6
ATOM      6  C   UNL     1      -0.399  32.895  63.948  1.00  0.00     0.006 C 
BRANCH   6   7
ATOM      7  C   UNL     1      -0.472  31.450  63.447  1.00  0.00     0.053 C 
BRANCH   7   8
ATOM      8  C   UNL     1       0.720  31.129  62.601  1.00  0.00     0.041 C 
ATOM      9  O   UNL     1       0.588  30.943  61.363  1.00  0.00    -0.550 OA
ATOM     10  O   UNL     1       1.986  31.087  63.172  1.00  0.00    -0.550 OA
ENDBRANCH   7   8
ENDBRANCH   6   7
ENDBRANCH   5   6
ENDBRANCH   4   5
ENDBRANCH   3   4
ENDBRANCH   2   3
ENDBRANCH   1   2
BRANCH   1  11
ATOM     11  C   UNL     1      -4.416  30.905  58.572  1.00  0.00     0.000 C 
BRANCH  11  12
ATOM     12  C   UNL     1      -3.116  30.283  58.040  1.00  0.00     0.000 C 
BRANCH  12  13
ATOM     13  C   UNL     1      -3.318  29.520  56.721  1.00  0.00     0.000 C 
BRANCH  13  14
ATOM     14  C   UNL     1      -4.689  28.836  56.687  1.00  0.00     0.000 C 
BRANCH  14  15
ATOM     15  C   UNL     1      -4.728  27.734  55.622  1.00  0.00     0.000 C 
BRANCH  15  16
ATOM     16  C   UNL     1      -3.533  26.783  55.769  1.00  0.00     0.006 C 
BRANCH  16  17
ATOM     17  C   UNL     1      -3.026  26.322  54.400  1.00  0.00     0.053 C 
BRANCH  17  18
ATOM     18  C   UNL     1      -1.532  26.250  54.391  1.00  0.00     0.041 C 
ATOM     19  O   UNL     1      -0.917  25.965  53.328  1.00  0.00    -0.550 OA
ATOM     20  O   UNL     1      -0.819  26.455  55.565  1.00  0.00    -0.550 OA
ENDBRANCH  17  18
ENDBRANCH  16  17
ENDBRANCH  15  16
ENDBRANCH  14  15
ENDBRANCH  13  14
ENDBRANCH  12  13
ENDBRANCH  11  12
ENDBRANCH   1  11
TORSDOF 15
ENDMDL
MODEL 5
REMARK VINA RESULT:    -4.959      3.545      4.427
REMARK INTER + INTRA:         -10.174
REMARK INTER:                  -9.362
REMARK INTRA:                  -0.813
REMARK UNBOUND:                -0.867
REMARK SMILES O=C([O-])CCCCCCCCCCCCCCC(=O)[O-]
REMARK SMILES IDX 10 1 9 2 8 3 7 4 6 5 5 6 4 7 2 8 1 9 3 10 11 11 12 12 13 13
REMARK SMILES IDX 14 14 15 15 16 16 17 17 18 18 19 19 20 20
REMARK H PARENT
REMARK Flexibility Score: inf
ROOT
ATOM      1  C   UNL     1      -2.875  25.847  55.029  1.00  0.00     0.000 C 
ENDROOT
BRANCH   1   2
ATOM      2  C   UNL     1      -1.576  26.164  54.269  1.00  0.00     0.000 C 
BRANCH   2   3
ATOM      3  C   UNL     1      -0.372  26.344  55.212  1.00  0.00     0.000 C 
BRANCH   3   4
ATOM      4  C   UNL     1       0.883  25.594  54.732  1.00  0.00     0.000 C 
BRANCH   4   5
ATOM      5  C   UNL     1       2.201  26.028  55.401  1.00  0.00     0.000 C 
BRANCH   5   6
ATOM      6  C   UNL     1       1.982  26.846  56.682  1.00  0.00     0.006 C 
BRANCH   6   7
ATOM      7  C   UNL     1       3.137  26.641  57.667  1.00  0.00     0.053 C 
BRANCH   7   8
ATOM      8  C   UNL     1       2.670  26.855  59.073  1.00  0.00     0.041 C 
ATOM      9  O   UNL     1       2.629  25.891  59.881  1.00  0.00    -0.550 OA
ATOM     10  O   UNL     1       2.331  28.130  59.505  1.00  0.00    -0.550 OA
ENDBRANCH   7   8
ENDBRANCH   6   7
ENDBRANCH   5   6
ENDBRANCH   4   5
ENDBRANCH   3   4
ENDBRANCH   2   3
ENDBRANCH   1   2
BRANCH   1  11
ATOM     11  C   UNL     1      -3.979  26.885  54.762  1.00  0.00     0.000 C 
BRANCH  11  12
ATOM     12  C   UNL     1      -4.184  27.846  55.944  1.00  0.00     0.000 C 
BRANCH  12  13
ATOM     13  C   UNL     1      -3.071  28.899  56.055  1.00  0.00     0.000 C 
BRANCH  13  14
ATOM     14  C   UNL     1      -3.047  29.528  57.453  1.00  0.00     0.000 C 
BRANCH  14  15
ATOM     15  C   UNL     1      -4.429  30.071  57.835  1.00  0.00     0.000 C 
BRANCH  15  16
ATOM     16  C   UNL     1      -4.399  30.730  59.220  1.00  0.00     0.006 C 
BRANCH  16  17
ATOM     17  C   UNL     1      -3.554  32.007  59.202  1.00  0.00     0.053 C 
BRANCH  17  18
ATOM     18  C   UNL     1      -3.214  32.431  60.596  1.00  0.00     0.041 C 
ATOM     19  O   UNL     1      -3.947  32.084  61.561  1.00  0.00    -0.550 OA
ATOM     20  O   UNL     1      -2.112  33.244  60.826  1.00  0.00    -0.550 OA
ENDBRANCH  17  18
ENDBRANCH  16  17
ENDBRANCH  15  16
ENDBRANCH  14  15
ENDBRANCH  13  14
ENDBRANCH  12  13
ENDBRANCH  11  12
ENDBRANCH   1  11
TORSDOF 15
ENDMDL
MODEL 6
REMARK VINA RESULT:    -4.932      4.555     11.664
REMARK INTER + INTRA:         -10.124
REMARK INTER:                 -10.043
REMARK INTRA:                  -0.081
REMARK UNBOUND:                -0.867
REMARK SMILES O=C([O-])CCCCCCCCCCCCCCC(=O)[O-]
REMARK SMILES IDX 10 1 9 2 8 3 7 4 6 5 5 6 4 7 2 8 1 9 3 10 11 11 12 12 13 13
REMARK SMILES IDX 14 14 15 15 16 16 17 17 18 18 19 19 20 20
REMARK H PARENT
REMARK Flexibility Score: inf
ROOT
ATOM      1  C   UNL     1      -4.628  30.567  59.321  1.00  0.00     0.000 C 
ENDROOT
BRANCH   1   2
ATOM      2  C   UNL     1      -3.634  31.670  59.720  1.00  0.00     0.000 C 
BRANCH   2   3
ATOM      3  C   UNL     1      -3.725  32.030  61.214  1.00  0.00     0.000 C 
BRANCH   3   4
ATOM      4  C   UNL     1      -2.997  33.342  61.560  1.00  0.00     0.000 C 
BRANCH   4   5
ATOM      5  C   UNL     1      -3.042  33.742  63.046  1.00  0.00     0.000 C 
BRANCH   5   6
ATOM      6  C   UNL     1      -2.991  35.262  63.260  1.00  0.00     0.006 C 
BRANCH   6   7
ATOM      7  C   UNL     1      -3.726  35.660  64.543  1.00  0.00     0.053 C 
BRANCH   7   8
ATOM      8  C   UNL     1      -5.095  36.175  64.225  1.00  0.00     0.041 C 
ATOM      9  O   UNL     1      -5.726  36.863  65.069  1.00  0.00    -0.550 OA
ATOM     10  O   UNL     1      -5.652  35.938  62.975  1.00  0.00    -0.550 OA
ENDBRANCH   7   8
ENDBRANCH   6   7
ENDBRANCH   5   6
ENDBRANCH   4   5
ENDBRANCH   3   4
ENDBRANCH   2   3
ENDBRANCH   1   2
BRANCH   1  11
ATOM     11  C   UNL     1      -4.497  30.167  57.841  1.00  0.00     0.000 C 
BRANCH  11  12
ATOM     12  C   UNL     1      -3.072  29.727  57.472  1.00  0.00     0.000 C 
BRANCH  12  13
ATOM     13  C   UNL     1      -3.013  28.952  56.146  1.00  0.00     0.000 C 
BRANCH  13  14
ATOM     14  C   UNL     1      -4.217  28.013  56.005  1.00  0.00     0.000 C 
BRANCH  14  15
ATOM     15  C   UNL     1      -4.030  27.053  54.824  1.00  0.00     0.000 C 
BRANCH  15  16
ATOM     16  C   UNL     1      -3.032  25.941  55.168  1.00  0.00     0.006 C 
BRANCH  16  17
ATOM     17  C   UNL     1      -1.597  26.475  55.176  1.00  0.00     0.053 C 
BRANCH  17  18
ATOM     18  C   UNL     1      -0.848  25.985  53.977  1.00  0.00     0.041 C 
ATOM     19  O   UNL     1      -1.349  26.099  52.827  1.00  0.00    -0.550 OA
ATOM     20  O   UNL     1       0.385  25.365  54.134  1.00  0.00    -0.550 OA
ENDBRANCH  17  18
ENDBRANCH  16  17
ENDBRANCH  15  16
ENDBRANCH  14  15
ENDBRANCH  13  14
ENDBRANCH  12  13
ENDBRANCH  11  12
ENDBRANCH   1  11
TORSDOF 15
ENDMDL
MODEL 7
REMARK VINA RESULT:    -4.820      5.173      8.375
REMARK INTER + INTRA:          -9.913
REMARK INTER:                  -9.090
REMARK INTRA:                  -0.824
REMARK UNBOUND:                -0.867
REMARK SMILES O=C([O-])CCCCCCCCCCCCCCC(=O)[O-]
REMARK SMILES IDX 10 1 9 2 8 3 7 4 6 5 5 6 4 7 2 8 1 9 3 10 11 11 12 12 13 13
REMARK SMILES IDX 14 14 15 15 16 16 17 17 18 18 19 19 20 20
REMARK H PARENT
REMARK Flexibility Score: inf
ROOT
ATOM      1  C   UNL     1      -4.382  30.883  59.832  1.00  0.00     0.000 C 
ENDROOT
BRANCH   1   2
ATOM      2  C   UNL     1      -4.741  30.012  58.615  1.00  0.00     0.000 C 
BRANCH   2   3
ATOM      3  C   UNL     1      -3.857  30.318  57.393  1.00  0.00     0.000 C 
BRANCH   3   4
ATOM      4  C   UNL     1      -3.380  29.048  56.665  1.00  0.00     0.000 C 
BRANCH   4   5
ATOM      5  C   UNL     1      -4.495  28.213  56.008  1.00  0.00     0.000 C 
BRANCH   5   6
ATOM      6  C   UNL     1      -3.979  26.908  55.385  1.00  0.00     0.006 C 
BRANCH   6   7
ATOM      7  C   UNL     1      -2.460  26.791  55.537  1.00  0.00     0.053 C 
BRANCH   7   8
ATOM      8  C   UNL     1      -1.853  26.210  54.298  1.00  0.00     0.041 C 
ATOM      9  O   UNL     1      -2.407  26.379  53.181  1.00  0.00    -0.550 OA
ATOM     10  O   UNL     1      -0.646  25.526  54.371  1.00  0.00    -0.550 OA
ENDBRANCH   7   8
ENDBRANCH   6   7
ENDBRANCH   5   6
ENDBRANCH   4   5
ENDBRANCH   3   4
ENDBRANCH   2   3
ENDBRANCH   1   2
BRANCH   1  11
ATOM     11  C   UNL     1      -3.379  31.995  59.482  1.00  0.00     0.000 C 
BRANCH  11  12
ATOM     12  C   UNL     1      -2.723  32.612  60.728  1.00  0.00     0.000 C 
BRANCH  12  13
ATOM     13  C   UNL     1      -3.561  32.416  62.000  1.00  0.00     0.000 C 
BRANCH  13  14
ATOM     14  C   UNL     1      -2.689  32.534  63.256  1.00  0.00     0.000 C 
BRANCH  14  15
ATOM     15  C   UNL     1      -1.205  32.648  62.886  1.00  0.00     0.000 C 
BRANCH  15  16
ATOM     16  C   UNL     1      -0.349  31.710  63.746  1.00  0.00     0.006 C 
BRANCH  16  17
ATOM     17  C   UNL     1       0.581  32.505  64.667  1.00  0.00     0.053 C 
BRANCH  17  18
ATOM     18  C   UNL     1       0.377  32.103  66.093  1.00  0.00     0.041 C 
ATOM     19  O   UNL     1      -0.391  32.770  66.837  1.00  0.00    -0.550 OA
ATOM     20  O   UNL     1       1.067  31.016  66.614  1.00  0.00    -0.550 OA
ENDBRANCH  17  18
ENDBRANCH  16  17
ENDBRANCH  15  16
ENDBRANCH  14  15
ENDBRANCH  13  14
ENDBRANCH  12  13
ENDBRANCH  11  12
ENDBRANCH   1  11
TORSDOF 15
ENDMDL
MODEL 8
REMARK VINA RESULT:    -4.654      3.388      9.424
REMARK INTER + INTRA:          -9.602
REMARK INTER:                  -8.818
REMARK INTRA:                  -0.784
REMARK UNBOUND:                -0.867
REMARK SMILES O=C([O-])CCCCCCCCCCCCCCC(=O)[O-]
REMARK SMILES IDX 10 1 9 2 8 3 7 4 6 5 5 6 4 7 2 8 1 9 3 10 11 11 12 12 13 13
REMARK SMILES IDX 14 14 15 15 16 16 17 17 18 18 19 19 20 20
REMARK H PARENT
REMARK Flexibility Score: inf
ROOT
ATOM      1  C   UNL     1      -5.000  29.756  58.171  1.00  0.00     0.000 C 
ENDROOT
BRANCH   1   2
ATOM      2  C   UNL     1      -4.050  30.899  58.567  1.00  0.00     0.000 C 
BRANCH   2   3
ATOM      3  C   UNL     1      -4.228  31.329  60.034  1.00  0.00     0.000 C 
BRANCH   3   4
ATOM      4  C   UNL     1      -3.169  32.348  60.493  1.00  0.00     0.000 C 
BRANCH   4   5
ATOM      5  C   UNL     1      -3.151  32.636  62.005  1.00  0.00     0.000 C 
BRANCH   5   6
ATOM      6  C   UNL     1      -1.737  32.605  62.605  1.00  0.00     0.006 C 
BRANCH   6   7
ATOM      7  C   UNL     1      -0.683  32.913  61.537  1.00  0.00     0.053 C 
BRANCH   7   8
ATOM      8  C   UNL     1       0.315  31.800  61.450  1.00  0.00     0.041 C 
ATOM      9  O   UNL     1       0.437  31.141  60.385  1.00  0.00    -0.550 OA
ATOM     10  O   UNL     1       1.146  31.527  62.528  1.00  0.00    -0.550 OA
ENDBRANCH   7   8
ENDBRANCH   6   7
ENDBRANCH   5   6
ENDBRANCH   4   5
ENDBRANCH   3   4
ENDBRANCH   2   3
ENDBRANCH   1   2
BRANCH   1  11
ATOM     11  C   UNL     1      -4.540  29.025  56.898  1.00  0.00     0.000 C 
BRANCH  11  12
ATOM     12  C   UNL     1      -3.069  29.304  56.555  1.00  0.00     0.000 C 
BRANCH  12  13
ATOM     13  C   UNL     1      -2.258  28.020  56.322  1.00  0.00     0.000 C 
BRANCH  13  14
ATOM     14  C   UNL     1      -3.129  26.928  55.691  1.00  0.00     0.000 C 
BRANCH  14  15
ATOM     15  C   UNL     1      -2.310  26.056  54.731  1.00  0.00     0.000 C 
BRANCH  15  16
ATOM     16  C   UNL     1      -0.818  26.099  55.086  1.00  0.00     0.006 C 
BRANCH  16  17
ATOM     17  C   UNL     1       0.003  25.252  54.108  1.00  0.00     0.053 C 
BRANCH  17  18
ATOM     18  C   UNL     1       1.466  25.418  54.372  1.00  0.00     0.041 C 
ATOM     19  O   UNL     1       1.860  26.121  55.340  1.00  0.00    -0.550 OA
ATOM     20  O   UNL     1       2.396  24.830  53.524  1.00  0.00    -0.550 OA
ENDBRANCH  17  18
ENDBRANCH  16  17
ENDBRANCH  15  16
ENDBRANCH  14  15
ENDBRANCH  13  14
ENDBRANCH  12  13
ENDBRANCH  11  12
ENDBRANCH   1  11
TORSDOF 15
ENDMDL
MODEL 9
REMARK VINA RESULT:    -4.643     12.289     13.748
REMARK INTER + INTRA:          -9.581
REMARK INTER:                  -8.027
REMARK INTRA:                  -1.554
REMARK UNBOUND:                -0.867
REMARK SMILES O=C([O-])CCCCCCCCCCCCCCC(=O)[O-]
REMARK SMILES IDX 10 1 9 2 8 3 7 4 6 5 5 6 4 7 2 8 1 9 3 10 11 11 12 12 13 13
REMARK SMILES IDX 14 14 15 15 16 16 17 17 18 18 19 19 20 20
REMARK H PARENT
REMARK Flexibility Score: inf
ROOT
ATOM      1  C   UNL     1      -4.041  41.204  52.056  1.00  0.00     0.000 C 
ENDROOT
BRANCH   1   2
ATOM      2  C   UNL     1      -5.436  40.557  52.075  1.00  0.00     0.000 C 
BRANCH   2   3
ATOM      3  C   UNL     1      -5.477  39.224  51.307  1.00  0.00     0.000 C 
BRANCH   3   4
ATOM      4  C   UNL     1      -4.320  39.075  50.303  1.00  0.00     0.000 C 
BRANCH   4   5
ATOM      5  C   UNL     1      -3.730  37.657  50.190  1.00  0.00     0.000 C 
BRANCH   5   6
ATOM      6  C   UNL     1      -2.207  37.623  50.390  1.00  0.00     0.006 C 
BRANCH   6   7
ATOM      7  C   UNL     1      -1.829  38.083  51.801  1.00  0.00     0.053 C 
BRANCH   7   8
ATOM      8  C   UNL     1      -0.811  39.179  51.739  1.00  0.00     0.041 C 
ATOM      9  O   UNL     1      -0.895  40.074  50.858  1.00  0.00    -0.550 OA
ATOM     10  O   UNL     1       0.201  39.240  52.688  1.00  0.00    -0.550 OA
ENDBRANCH   7   8
ENDBRANCH   6   7
ENDBRANCH   5   6
ENDBRANCH   4   5
ENDBRANCH   3   4
ENDBRANCH   2   3
ENDBRANCH   1   2
BRANCH   1  11
ATOM     11  C   UNL     1      -3.533  41.545  53.467  1.00  0.00     0.000 C 
BRANCH  11  12
ATOM     12  C   UNL     1      -3.329  40.297  54.341  1.00  0.00     0.000 C 
BRANCH  12  13
ATOM     13  C   UNL     1      -2.043  40.361  55.179  1.00  0.00     0.000 C 
BRANCH  13  14
ATOM     14  C   UNL     1      -2.362  40.305  56.678  1.00  0.00     0.000 C 
BRANCH  14  15
ATOM     15  C   UNL     1      -2.370  41.711  57.291  1.00  0.00     0.000 C 
BRANCH  15  16
ATOM     16  C   UNL     1      -2.627  41.652  58.802  1.00  0.00     0.006 C 
BRANCH  16  17
ATOM     17  C   UNL     1      -2.073  40.357  59.403  1.00  0.00     0.053 C 
BRANCH  17  18
ATOM     18  C   UNL     1      -3.118  39.672  60.226  1.00  0.00     0.041 C 
ATOM     19  O   UNL     1      -4.338  39.924  60.039  1.00  0.00    -0.550 OA
ATOM     20  O   UNL     1      -2.743  38.787  61.229  1.00  0.00    -0.550 OA
ENDBRANCH  17  18
ENDBRANCH  16  17
ENDBRANCH  15  16
ENDBRANCH  14  15
ENDBRANCH  13  14
ENDBRANCH  12  13
ENDBRANCH  11  12
ENDBRANCH   1  11
TORSDOF 15
ENDMDL
