MODEL 1
REMARK VINA RESULT:    -0.006      0.000      0.000
REMARK INTER + INTRA:          -0.006
REMARK INTER:                  -0.006
REMARK INTRA:                   0.000
REMARK UNBOUND:                 0.000
REMARK SMILES O=c1ccc2ccc3occc3c2o1
REMARK SMILES IDX 6 1 7 2 8 3 12 4 11 5 10 6 9 7 13 8 5 9 4 10 3 11 2 12 1 13
REMARK SMILES IDX 14 14
REMARK H PARENT
REMARK Flexibility Score: inf
ROOT
ATOM      1  C   UNL     1      18.477  12.475  58.344  1.00  0.00     0.016 A 
ATOM      2  C   UNL     1      18.820  12.307  56.990  1.00  0.00     0.048 A 
ATOM      3  C   UNL     1      20.028  11.679  56.691  1.00  0.00     0.137 A 
ATOM      4  C   UNL     1      20.871  11.230  57.672  1.00  0.00     0.064 A 
ATOM      5  C   UNL     1      21.958  10.669  57.040  1.00  0.00     0.054 A 
ATOM      6  C   UNL     1      21.689  10.820  55.684  1.00  0.00     0.196 A 
ATOM      7  O   UNL     1      20.529  11.428  55.507  1.00  0.00    -0.464 OA
ATOM      8  C   UNL     1      20.568  11.377  59.024  1.00  0.00     0.149 A 
ATOM      9  C   UNL     1      19.346  12.013  59.363  1.00  0.00     0.018 A 
ATOM     10  C   UNL     1      19.037  12.163  60.718  1.00  0.00     0.019 A 
ATOM     11  C   UNL     1      19.929  11.689  61.681  1.00  0.00     0.094 A 
ATOM     12  C   UNL     1      21.117  11.073  61.267  1.00  0.00     0.336 A 
ATOM     13  O   UNL     1      21.931  10.641  62.124  1.00  0.00    -0.246 OA
ATOM     14  O   UNL     1      21.392  10.940  59.972  1.00  0.00    -0.422 OA
ENDROOT
TORSDOF 0
ENDMDL
MODEL 2
REMARK VINA RESULT:     0.000     14.581     15.421
REMARK INTER + INTRA:           0.000
REMARK INTER:                   0.000
REMARK INTRA:                   0.000
REMARK UNBOUND:                 0.000
REMARK SMILES O=c1ccc2ccc3occc3c2o1
REMARK SMILES IDX 6 1 7 2 8 3 12 4 11 5 10 6 9 7 13 8 5 9 4 10 3 11 2 12 1 13
REMARK SMILES IDX 14 14
REMARK H PARENT
REMARK Flexibility Score: inf
ROOT
ATOM      1  C   UNL     1      17.920  10.381  44.427  1.00  0.00     0.016 A 
ATOM      2  C   UNL     1      16.543  10.209  44.191  1.00  0.00     0.048 A 
ATOM      3  C   UNL     1      15.780  11.340  43.905  1.00  0.00     0.137 A 
ATOM      4  C   UNL     1      16.335  12.591  43.849  1.00  0.00     0.064 A 
ATOM      5  C   UNL     1      15.316  13.467  43.548  1.00  0.00     0.054 A 
ATOM      6  C   UNL     1      14.186  12.663  43.439  1.00  0.00     0.196 A 
ATOM      7  O   UNL     1      14.495  11.397  43.657  1.00  0.00    -0.464 OA
ATOM      8  C   UNL     1      17.693  12.802  44.077  1.00  0.00     0.149 A 
ATOM      9  C   UNL     1      18.499  11.672  44.371  1.00  0.00     0.018 A 
ATOM     10  C   UNL     1      19.862  11.878  44.599  1.00  0.00     0.019 A 
ATOM     11  C   UNL     1      20.380  13.172  44.532  1.00  0.00     0.094 A 
ATOM     12  C   UNL     1      19.520  14.238  44.236  1.00  0.00     0.336 A 
ATOM     13  O   UNL     1      19.973  15.410  44.172  1.00  0.00    -0.246 OA
ATOM     14  O   UNL     1      18.225  14.019  44.022  1.00  0.00    -0.422 OA
ENDROOT
TORSDOF 0
ENDMDL
MODEL 3
REMARK VINA RESULT:     0.000     13.231     14.360
REMARK INTER + INTRA:           0.000
REMARK INTER:                   0.000
REMARK INTRA:                   0.000
REMARK UNBOUND:                 0.000
REMARK SMILES O=c1ccc2ccc3occc3c2o1
REMARK SMILES IDX 6 1 7 2 8 3 12 4 11 5 10 6 9 7 13 8 5 9 4 10 3 11 2 12 1 13
REMARK SMILES IDX 14 14
REMARK H PARENT
REMARK Flexibility Score: inf
ROOT
ATOM      1  C   UNL     1      16.802   9.089  45.165  1.00  0.00     0.016 A 
ATOM      2  C   UNL     1      15.531   9.594  44.832  1.00  0.00     0.048 A 
ATOM      3  C   UNL     1      15.395  10.971  44.664  1.00  0.00     0.137 A 
ATOM      4  C   UNL     1      16.455  11.826  44.814  1.00  0.00     0.064 A 
ATOM      5  C   UNL     1      15.980  13.097  44.582  1.00  0.00     0.054 A 
ATOM      6  C   UNL     1      14.630  12.918  44.300  1.00  0.00     0.196 A 
ATOM      7  O   UNL     1      14.310  11.638  44.357  1.00  0.00    -0.464 OA
ATOM      8  C   UNL     1      17.728  11.365  45.143  1.00  0.00     0.149 A 
ATOM      9  C   UNL     1      17.901   9.969  45.322  1.00  0.00     0.018 A 
ATOM     10  C   UNL     1      19.176   9.501  45.651  1.00  0.00     0.019 A 
ATOM     11  C   UNL     1      20.224  10.411  45.793  1.00  0.00     0.094 A 
ATOM     12  C   UNL     1      19.974  11.776  45.601  1.00  0.00     0.336 A 
ATOM     13  O   UNL     1      20.910  12.609  45.726  1.00  0.00    -0.246 OA
ATOM     14  O   UNL     1      18.752  12.200  45.288  1.00  0.00    -0.422 OA
ENDROOT
TORSDOF 0
ENDMDL
MODEL 4
REMARK VINA RESULT:     0.000     16.098     16.653
REMARK INTER + INTRA:           0.000
REMARK INTER:                   0.000
REMARK INTRA:                   0.000
REMARK UNBOUND:                 0.000
REMARK SMILES O=c1ccc2ccc3occc3c2o1
REMARK SMILES IDX 6 1 7 2 8 3 12 4 11 5 10 6 9 7 13 8 5 9 4 10 3 11 2 12 1 13
REMARK SMILES IDX 14 14
REMARK H PARENT
REMARK Flexibility Score: inf
ROOT
ATOM      1  C   UNL     1       7.247  18.722  52.893  1.00  0.00     0.016 A 
ATOM      2  C   UNL     1       6.962  18.161  51.634  1.00  0.00     0.048 A 
ATOM      3  C   UNL     1       7.461  18.802  50.501  1.00  0.00     0.137 A 
ATOM      4  C   UNL     1       8.210  19.945  50.588  1.00  0.00     0.064 A 
ATOM      5  C   UNL     1       8.536  20.309  49.301  1.00  0.00     0.054 A 
ATOM      6  C   UNL     1       7.947  19.334  48.503  1.00  0.00     0.196 A 
ATOM      7  O   UNL     1       7.311  18.447  49.249  1.00  0.00    -0.464 OA
ATOM      8  C   UNL     1       8.514  20.532  51.815  1.00  0.00     0.149 A 
ATOM      9  C   UNL     1       8.021  19.905  52.989  1.00  0.00     0.018 A 
ATOM     10  C   UNL     1       8.323  20.488  54.222  1.00  0.00     0.019 A 
ATOM     11  C   UNL     1       9.089  21.654  54.259  1.00  0.00     0.094 A 
ATOM     12  C   UNL     1       9.539  22.214  53.057  1.00  0.00     0.336 A 
ATOM     13  O   UNL     1      10.231  23.266  53.075  1.00  0.00    -0.246 OA
ATOM     14  O   UNL     1       9.240  21.642  51.893  1.00  0.00    -0.422 OA
ENDROOT
TORSDOF 0
ENDMDL
MODEL 5
REMARK VINA RESULT:     0.000     13.995     14.746
REMARK INTER + INTRA:           0.000
REMARK INTER:                   0.000
REMARK INTRA:                   0.000
REMARK UNBOUND:                 0.000
REMARK SMILES O=c1ccc2ccc3occc3c2o1
REMARK SMILES IDX 6 1 7 2 8 3 12 4 11 5 10 6 9 7 13 8 5 9 4 10 3 11 2 12 1 13
REMARK SMILES IDX 14 14
REMARK H PARENT
REMARK Flexibility Score: inf
ROOT
ATOM      1  C   UNL     1       8.640  17.684  52.637  1.00  0.00     0.016 A 
ATOM      2  C   UNL     1       8.092  16.822  51.669  1.00  0.00     0.048 A 
ATOM      3  C   UNL     1       8.691  16.781  50.411  1.00  0.00     0.137 A 
ATOM      4  C   UNL     1       9.783  17.549  50.105  1.00  0.00     0.064 A 
ATOM      5  C   UNL     1      10.116  17.269  48.799  1.00  0.00     0.054 A 
ATOM      6  C   UNL     1       9.177  16.326  48.394  1.00  0.00     0.196 A 
ATOM      7  O   UNL     1       8.339  16.055  49.379  1.00  0.00    -0.464 OA
ATOM      8  C   UNL     1      10.355  18.414  51.036  1.00  0.00     0.149 A 
ATOM      9  C   UNL     1       9.769  18.480  52.326  1.00  0.00     0.018 A 
ATOM     10  C   UNL     1      10.339  19.345  53.264  1.00  0.00     0.019 A 
ATOM     11  C   UNL     1      11.452  20.108  52.905  1.00  0.00     0.094 A 
ATOM     12  C   UNL     1      11.973  19.988  51.610  1.00  0.00     0.336 A 
ATOM     13  O   UNL     1      12.976  20.669  51.272  1.00  0.00    -0.246 OA
ATOM     14  O   UNL     1      11.415  19.157  50.733  1.00  0.00    -0.422 OA
ENDROOT
TORSDOF 0
ENDMDL
MODEL 6
REMARK VINA RESULT:     0.000     11.402     12.521
REMARK INTER + INTRA:           0.000
REMARK INTER:                   0.000
REMARK INTRA:                   0.000
REMARK UNBOUND:                 0.000
REMARK SMILES O=c1ccc2ccc3occc3c2o1
REMARK SMILES IDX 6 1 7 2 8 3 12 4 11 5 10 6 9 7 13 8 5 9 4 10 3 11 2 12 1 13
REMARK SMILES IDX 14 14
REMARK H PARENT
REMARK Flexibility Score: inf
ROOT
ATOM      1  C   UNL     1      18.595  12.455  48.080  1.00  0.00     0.016 A 
ATOM      2  C   UNL     1      19.939  12.253  47.714  1.00  0.00     0.048 A 
ATOM      3  C   UNL     1      20.602  13.285  47.052  1.00  0.00     0.137 A 
ATOM      4  C   UNL     1      19.982  14.470  46.757  1.00  0.00     0.064 A 
ATOM      5  C   UNL     1      20.909  15.256  46.111  1.00  0.00     0.054 A 
ATOM      6  C   UNL     1      22.056  14.471  46.059  1.00  0.00     0.196 A 
ATOM      7  O   UNL     1      21.842  13.299  46.629  1.00  0.00    -0.464 OA
ATOM      8  C   UNL     1      18.654  14.709  47.102  1.00  0.00     0.149 A 
ATOM      9  C   UNL     1      17.949  13.679  47.777  1.00  0.00     0.018 A 
ATOM     10  C   UNL     1      16.616  13.913  48.126  1.00  0.00     0.019 A 
ATOM     11  C   UNL     1      16.029  15.138  47.804  1.00  0.00     0.094 A 
ATOM     12  C   UNL     1      16.790  16.106  47.136  1.00  0.00     0.336 A 
ATOM     13  O   UNL     1      16.273  17.214  46.839  1.00  0.00    -0.246 OA
ATOM     14  O   UNL     1      18.058  15.862  46.813  1.00  0.00    -0.422 OA
ENDROOT
TORSDOF 0
ENDMDL
MODEL 7
REMARK VINA RESULT:     0.000     12.437     13.561
REMARK INTER + INTRA:           0.000
REMARK INTER:                   0.000
REMARK INTRA:                   0.000
REMARK UNBOUND:                 0.000
REMARK SMILES O=c1ccc2ccc3occc3c2o1
REMARK SMILES IDX 6 1 7 2 8 3 12 4 11 5 10 6 9 7 13 8 5 9 4 10 3 11 2 12 1 13
REMARK SMILES IDX 14 14
REMARK H PARENT
REMARK Flexibility Score: inf
ROOT
ATOM      1  C   UNL     1      16.747  12.217  47.269  1.00  0.00     0.016 A 
ATOM      2  C   UNL     1      18.091  12.014  46.903  1.00  0.00     0.048 A 
ATOM      3  C   UNL     1      18.754  13.046  46.241  1.00  0.00     0.137 A 
ATOM      4  C   UNL     1      18.134  14.231  45.947  1.00  0.00     0.064 A 
ATOM      5  C   UNL     1      19.062  15.018  45.300  1.00  0.00     0.054 A 
ATOM      6  C   UNL     1      20.208  14.233  45.248  1.00  0.00     0.196 A 
ATOM      7  O   UNL     1      19.994  13.060  45.818  1.00  0.00    -0.464 OA
ATOM      8  C   UNL     1      16.806  14.471  46.292  1.00  0.00     0.149 A 
ATOM      9  C   UNL     1      16.101  13.440  46.966  1.00  0.00     0.018 A 
ATOM     10  C   UNL     1      14.769  13.675  47.315  1.00  0.00     0.019 A 
ATOM     11  C   UNL     1      14.181  14.899  46.993  1.00  0.00     0.094 A 
ATOM     12  C   UNL     1      14.942  15.867  46.325  1.00  0.00     0.336 A 
ATOM     13  O   UNL     1      14.426  16.976  46.028  1.00  0.00    -0.246 OA
ATOM     14  O   UNL     1      16.210  15.623  46.002  1.00  0.00    -0.422 OA
ENDROOT
TORSDOF 0
ENDMDL
MODEL 8
REMARK VINA RESULT:     0.000     11.908     13.183
REMARK INTER + INTRA:           0.000
REMARK INTER:                   0.000
REMARK INTRA:                   0.000
REMARK UNBOUND:                 0.000
REMARK SMILES O=c1ccc2ccc3occc3c2o1
REMARK SMILES IDX 6 1 7 2 8 3 12 4 11 5 10 6 9 7 13 8 5 9 4 10 3 11 2 12 1 13
REMARK SMILES IDX 14 14
REMARK H PARENT
REMARK Flexibility Score: inf
ROOT
ATOM      1  C   UNL     1      16.894  11.117  47.552  1.00  0.00     0.016 A 
ATOM      2  C   UNL     1      18.172  11.695  47.432  1.00  0.00     0.048 A 
ATOM      3  C   UNL     1      18.254  13.029  47.036  1.00  0.00     0.137 A 
ATOM      4  C   UNL     1      17.137  13.774  46.768  1.00  0.00     0.064 A 
ATOM      5  C   UNL     1      17.570  15.031  46.410  1.00  0.00     0.054 A 
ATOM      6  C   UNL     1      18.957  14.957  46.489  1.00  0.00     0.196 A 
ATOM      7  O   UNL     1      19.336  13.749  46.865  1.00  0.00    -0.464 OA
ATOM      8  C   UNL     1      15.855  13.238  46.875  1.00  0.00     0.149 A 
ATOM      9  C   UNL     1      15.735  11.883  47.275  1.00  0.00     0.018 A 
ATOM     10  C   UNL     1      14.452  11.340  47.385  1.00  0.00     0.019 A 
ATOM     11  C   UNL     1      13.344  12.140  47.101  1.00  0.00     0.094 A 
ATOM     12  C   UNL     1      13.543  13.470  46.710  1.00  0.00     0.336 A 
ATOM     13  O   UNL     1      12.553  14.203  46.451  1.00  0.00    -0.246 OA
ATOM     14  O   UNL     1      14.774  13.967  46.612  1.00  0.00    -0.422 OA
ENDROOT
TORSDOF 0
ENDMDL
MODEL 9
REMARK VINA RESULT:     0.000     15.462     17.097
REMARK INTER + INTRA:           0.000
REMARK INTER:                   0.000
REMARK INTRA:                   0.000
REMARK UNBOUND:                 0.000
REMARK SMILES O=c1ccc2ccc3occc3c2o1
REMARK SMILES IDX 6 1 7 2 8 3 12 4 11 5 10 6 9 7 13 8 5 9 4 10 3 11 2 12 1 13
REMARK SMILES IDX 14 14
REMARK H PARENT
REMARK Flexibility Score: inf
ROOT
ATOM      1  C   UNL     1      16.250  27.501  49.092  1.00  0.00     0.016 A 
ATOM      2  C   UNL     1      16.043  26.857  47.857  1.00  0.00     0.048 A 
ATOM      3  C   UNL     1      15.983  25.464  47.846  1.00  0.00     0.137 A 
ATOM      4  C   UNL     1      16.119  24.725  48.991  1.00  0.00     0.064 A 
ATOM      5  C   UNL     1      16.012  23.401  48.627  1.00  0.00     0.054 A 
ATOM      6  C   UNL     1      15.812  23.432  47.251  1.00  0.00     0.196 A 
ATOM      7  O   UNL     1      15.800  24.679  46.813  1.00  0.00    -0.464 OA
ATOM      8  C   UNL     1      16.326  25.325  50.231  1.00  0.00     0.149 A 
ATOM      9  C   UNL     1      16.392  26.741  50.279  1.00  0.00     0.018 A 
ATOM     10  C   UNL     1      16.597  27.349  51.520  1.00  0.00     0.019 A 
ATOM     11  C   UNL     1      16.730  26.553  52.659  1.00  0.00     0.094 A 
ATOM     12  C   UNL     1      16.654  25.160  52.531  1.00  0.00     0.336 A 
ATOM     13  O   UNL     1      16.773  24.429  53.549  1.00  0.00    -0.246 OA
ATOM     14  O   UNL     1      16.458  24.602  51.339  1.00  0.00    -0.422 OA
ENDROOT
TORSDOF 0
ENDMDL
