MODEL 1
REMARK VINA RESULT:    -4.956      0.000      0.000
REMARK INTER + INTRA:          -9.006
REMARK INTER:                  -7.564
REMARK INTRA:                  -1.441
REMARK UNBOUND:                -1.441
REMARK SMILES CCCCCCCCCCC(=O)[O-]
REMARK SMILES IDX 7 1 8 2 9 3 10 4 11 5 12 6 13 7 6 8 5 9 4 10 3 11 2 12 1 13
REMARK H PARENT
REMARK Flexibility Score: inf
ROOT
ATOM      1  C   UNL     1       5.864  20.481  42.216  1.00  0.00     0.000 C 
ENDROOT
BRANCH   1   2
ATOM      2  C   UNL     1       5.811  20.346  43.744  1.00  0.00     0.000 C 
BRANCH   2   3
ATOM      3  C   UNL     1       4.501  20.925  44.301  1.00  0.00     0.006 C 
BRANCH   3   4
ATOM      4  C   UNL     1       4.745  22.100  45.257  1.00  0.00     0.053 C 
BRANCH   4   5
ATOM      5  C   UNL     1       4.089  23.357  44.773  1.00  0.00     0.041 C 
ATOM      6  O   UNL     1       3.141  23.299  43.947  1.00  0.00    -0.550 OA
ATOM      7  O   UNL     1       4.502  24.590  45.261  1.00  0.00    -0.550 OA
ENDBRANCH   4   5
ENDBRANCH   3   4
ENDBRANCH   2   3
ENDBRANCH   1   2
BRANCH   1   8
ATOM      8  C   UNL     1       6.013  21.940  41.749  1.00  0.00     0.000 C 
BRANCH   8   9
ATOM      9  C   UNL     1       7.355  22.608  42.110  1.00  0.00    -0.000 C 
BRANCH   9  10
ATOM     10  C   UNL     1       7.234  23.961  42.835  1.00  0.00    -0.000 C 
BRANCH  10  11
ATOM     11  C   UNL     1       7.944  23.969  44.200  1.00  0.00    -0.000 C 
BRANCH  11  12
ATOM     12  C   UNL     1       8.684  22.654  44.486  1.00  0.00    -0.003 C 
ATOM     13  C   UNL     1       8.387  22.101  45.880  1.00  0.00     0.004 C 
ENDBRANCH  11  12
ENDBRANCH  10  11
ENDBRANCH   9  10
ENDBRANCH   8   9
ENDBRANCH   1   8
TORSDOF 9
ENDMDL
MODEL 2
REMARK VINA RESULT:    -4.946      7.975     10.174
REMARK INTER + INTRA:          -8.990
REMARK INTER:                  -7.747
REMARK INTRA:                  -1.243
REMARK UNBOUND:                -1.441
REMARK SMILES CCCCCCCCCCC(=O)[O-]
REMARK SMILES IDX 7 1 8 2 9 3 10 4 11 5 12 6 13 7 6 8 5 9 4 10 3 11 2 12 1 13
REMARK H PARENT
REMARK Flexibility Score: inf
ROOT
ATOM      1  C   UNL     1       0.161  30.632  41.528  1.00  0.00     0.000 C 
ENDROOT
BRANCH   1   2
ATOM      2  C   UNL     1       0.473  29.602  40.433  1.00  0.00     0.000 C 
BRANCH   2   3
ATOM      3  C   UNL     1       0.824  28.238  41.048  1.00  0.00     0.006 C 
BRANCH   3   4
ATOM      4  C   UNL     1       1.248  28.355  42.517  1.00  0.00     0.053 C 
BRANCH   4   5
ATOM      5  C   UNL     1       0.910  27.119  43.295  1.00  0.00     0.041 C 
ATOM      6  O   UNL     1      -0.293  26.819  43.514  1.00  0.00    -0.550 OA
ATOM      7  O   UNL     1       1.922  26.282  43.746  1.00  0.00    -0.550 OA
ENDBRANCH   4   5
ENDBRANCH   3   4
ENDBRANCH   2   3
ENDBRANCH   1   2
BRANCH   1   8
ATOM      8  C   UNL     1      -1.236  31.261  41.376  1.00  0.00     0.000 C 
BRANCH   8   9
ATOM      9  C   UNL     1      -2.395  30.254  41.229  1.00  0.00    -0.000 C 
BRANCH   9  10
ATOM     10  C   UNL     1      -2.537  29.251  42.389  1.00  0.00    -0.000 C 
BRANCH  10  11
ATOM     11  C   UNL     1      -2.936  29.926  43.713  1.00  0.00    -0.000 C 
BRANCH  11  12
ATOM     12  C   UNL     1      -2.090  29.441  44.899  1.00  0.00    -0.003 C 
ATOM     13  C   UNL     1      -0.807  30.251  45.080  1.00  0.00     0.004 C 
ENDBRANCH  11  12
ENDBRANCH  10  11
ENDBRANCH   9  10
ENDBRANCH   8   9
ENDBRANCH   1   8
TORSDOF 9
ENDMDL
MODEL 3
REMARK VINA RESULT:    -4.944      2.633      4.001
REMARK INTER + INTRA:          -8.986
REMARK INTER:                  -7.625
REMARK INTRA:                  -1.361
REMARK UNBOUND:                -1.441
REMARK SMILES CCCCCCCCCCC(=O)[O-]
REMARK SMILES IDX 7 1 8 2 9 3 10 4 11 5 12 6 13 7 6 8 5 9 4 10 3 11 2 12 1 13
REMARK H PARENT
REMARK Flexibility Score: inf
ROOT
ATOM      1  C   UNL     1       4.682  21.246  45.855  1.00  0.00     0.000 C 
ENDROOT
BRANCH   1   2
ATOM      2  C   UNL     1       4.790  21.538  44.352  1.00  0.00     0.000 C 
BRANCH   2   3
ATOM      3  C   UNL     1       5.112  20.257  43.566  1.00  0.00     0.006 C 
BRANCH   3   4
ATOM      4  C   UNL     1       6.365  20.410  42.694  1.00  0.00     0.053 C 
BRANCH   4   5
ATOM      5  C   UNL     1       7.617  20.103  43.459  1.00  0.00     0.041 C 
ATOM      6  O   UNL     1       7.630  19.170  44.303  1.00  0.00    -0.550 OA
ATOM      7  O   UNL     1       8.777  20.827  43.214  1.00  0.00    -0.550 OA
ENDBRANCH   4   5
ENDBRANCH   3   4
ENDBRANCH   2   3
ENDBRANCH   1   2
BRANCH   1   8
ATOM      8  C   UNL     1       6.025  21.399  46.592  1.00  0.00     0.000 C 
BRANCH   8   9
ATOM      9  C   UNL     1       6.651  22.807  46.525  1.00  0.00    -0.000 C 
BRANCH   9  10
ATOM     10  C   UNL     1       8.138  22.840  46.129  1.00  0.00    -0.000 C 
BRANCH  10  11
ATOM     11  C   UNL     1       8.423  23.812  44.971  1.00  0.00    -0.000 C 
BRANCH  11  12
ATOM     12  C   UNL     1       7.138  24.324  44.303  1.00  0.00    -0.003 C 
ATOM     13  C   UNL     1       7.129  24.101  42.791  1.00  0.00     0.004 C 
ENDBRANCH  11  12
ENDBRANCH  10  11
ENDBRANCH   9  10
ENDBRANCH   8   9
ENDBRANCH   1   8
TORSDOF 9
ENDMDL
MODEL 4
REMARK VINA RESULT:    -4.907      7.827     10.091
REMARK INTER + INTRA:          -8.930
REMARK INTER:                  -7.744
REMARK INTRA:                  -1.186
REMARK UNBOUND:                -1.441
REMARK SMILES CCCCCCCCCCC(=O)[O-]
REMARK SMILES IDX 7 1 8 2 9 3 10 4 11 5 12 6 13 7 6 8 5 9 4 10 3 11 2 12 1 13
REMARK H PARENT
REMARK Flexibility Score: inf
ROOT
ATOM      1  C   UNL     1      -2.023  28.434  43.912  1.00  0.00     0.000 C 
ENDROOT
BRANCH   1   2
ATOM      2  C   UNL     1      -1.210  28.461  45.213  1.00  0.00     0.000 C 
BRANCH   2   3
ATOM      3  C   UNL     1       0.242  28.025  44.962  1.00  0.00     0.006 C 
BRANCH   3   4
ATOM      4  C   UNL     1       0.410  27.318  43.610  1.00  0.00     0.053 C 
BRANCH   4   5
ATOM      5  C   UNL     1       1.725  27.647  42.970  1.00  0.00     0.041 C 
ATOM      6  O   UNL     1       1.952  28.812  42.551  1.00  0.00    -0.550 OA
ATOM      7  O   UNL     1       2.712  26.674  42.869  1.00  0.00    -0.550 OA
ENDBRANCH   4   5
ENDBRANCH   3   4
ENDBRANCH   2   3
ENDBRANCH   1   2
BRANCH   1   8
ATOM      8  C   UNL     1      -2.826  29.726  43.682  1.00  0.00     0.000 C 
BRANCH   8   9
ATOM      9  C   UNL     1      -2.009  31.030  43.777  1.00  0.00    -0.000 C 
BRANCH   9  10
ATOM     10  C   UNL     1      -0.787  31.102  42.843  1.00  0.00    -0.000 C 
BRANCH  10  11
ATOM     11  C   UNL     1      -1.179  31.246  41.362  1.00  0.00    -0.000 C 
BRANCH  11  12
ATOM     12  C   UNL     1      -0.389  30.294  40.450  1.00  0.00    -0.003 C 
ATOM     13  C   UNL     1      -1.033  28.912  40.341  1.00  0.00     0.004 C 
ENDBRANCH  11  12
ENDBRANCH  10  11
ENDBRANCH   9  10
ENDBRANCH   8   9
ENDBRANCH   1   8
TORSDOF 9
ENDMDL
MODEL 5
REMARK VINA RESULT:    -4.853      1.718      3.405
REMARK INTER + INTRA:          -8.848
REMARK INTER:                  -7.419
REMARK INTRA:                  -1.429
REMARK UNBOUND:                -1.441
REMARK SMILES CCCCCCCCCCC(=O)[O-]
REMARK SMILES IDX 7 1 8 2 9 3 10 4 11 5 12 6 13 7 6 8 5 9 4 10 3 11 2 12 1 13
REMARK H PARENT
REMARK Flexibility Score: inf
ROOT
ATOM      1  C   UNL     1       5.433  20.242  43.524  1.00  0.00     0.000 C 
ENDROOT
BRANCH   1   2
ATOM      2  C   UNL     1       6.608  20.539  42.582  1.00  0.00     0.000 C 
BRANCH   2   3
ATOM      3  C   UNL     1       6.498  21.957  41.999  1.00  0.00     0.006 C 
BRANCH   3   4
ATOM      4  C   UNL     1       7.770  22.781  42.236  1.00  0.00     0.053 C 
BRANCH   4   5
ATOM      5  C   UNL     1       7.478  24.062  42.957  1.00  0.00     0.041 C 
ATOM      6  O   UNL     1       8.377  24.629  43.631  1.00  0.00    -0.550 OA
ATOM      7  O   UNL     1       6.221  24.646  42.856  1.00  0.00    -0.550 OA
ENDBRANCH   4   5
ENDBRANCH   3   4
ENDBRANCH   2   3
ENDBRANCH   1   2
BRANCH   1   8
ATOM      8  C   UNL     1       4.806  21.516  44.118  1.00  0.00     0.000 C 
BRANCH   8   9
ATOM      9  C   UNL     1       4.651  21.515  45.652  1.00  0.00    -0.000 C 
BRANCH   9  10
ATOM     10  C   UNL     1       5.943  21.222  46.437  1.00  0.00    -0.000 C 
BRANCH  10  11
ATOM     11  C   UNL     1       7.026  22.293  46.221  1.00  0.00    -0.000 C 
BRANCH  11  12
ATOM     12  C   UNL     1       8.344  21.700  45.701  1.00  0.00    -0.003 C 
ATOM     13  C   UNL     1       8.421  20.184  45.884  1.00  0.00     0.004 C 
ENDBRANCH  11  12
ENDBRANCH  10  11
ENDBRANCH   9  10
ENDBRANCH   8   9
ENDBRANCH   1   8
TORSDOF 9
ENDMDL
MODEL 6
REMARK VINA RESULT:    -4.800      2.067      4.165
REMARK INTER + INTRA:          -8.766
REMARK INTER:                  -7.341
REMARK INTRA:                  -1.425
REMARK UNBOUND:                -1.441
REMARK SMILES CCCCCCCCCCC(=O)[O-]
REMARK SMILES IDX 7 1 8 2 9 3 10 4 11 5 12 6 13 7 6 8 5 9 4 10 3 11 2 12 1 13
REMARK H PARENT
REMARK Flexibility Score: inf
ROOT
ATOM      1  C   UNL     1       6.038  20.809  42.145  1.00  0.00     0.000 C 
ENDROOT
BRANCH   1   2
ATOM      2  C   UNL     1       6.992  22.008  42.047  1.00  0.00     0.000 C 
BRANCH   2   3
ATOM      3  C   UNL     1       8.146  21.874  43.054  1.00  0.00     0.006 C 
BRANCH   3   4
ATOM      4  C   UNL     1       8.189  23.043  44.046  1.00  0.00     0.053 C 
BRANCH   4   5
ATOM      5  C   UNL     1       8.430  22.574  45.449  1.00  0.00     0.041 C 
ATOM      6  O   UNL     1       9.014  21.479  45.659  1.00  0.00    -0.550 OA
ATOM      7  O   UNL     1       8.041  23.365  46.523  1.00  0.00    -0.550 OA
ENDBRANCH   4   5
ENDBRANCH   3   4
ENDBRANCH   2   3
ENDBRANCH   1   2
BRANCH   1   8
ATOM      8  C   UNL     1       5.959  20.222  43.566  1.00  0.00     0.000 C 
BRANCH   8   9
ATOM      9  C   UNL     1       4.653  20.528  44.328  1.00  0.00    -0.000 C 
BRANCH   9  10
ATOM     10  C   UNL     1       4.811  21.470  45.536  1.00  0.00    -0.000 C 
BRANCH  10  11
ATOM     11  C   UNL     1       4.637  22.952  45.161  1.00  0.00    -0.000 C 
BRANCH  11  12
ATOM     12  C   UNL     1       3.616  23.157  44.032  1.00  0.00    -0.003 C 
ATOM     13  C   UNL     1       4.110  24.125  42.958  1.00  0.00     0.004 C 
ENDBRANCH  11  12
ENDBRANCH  10  11
ENDBRANCH   9  10
ENDBRANCH   8   9
ENDBRANCH   1   8
TORSDOF 9
ENDMDL
MODEL 7
REMARK VINA RESULT:    -4.786      2.186      4.581
REMARK INTER + INTRA:          -8.745
REMARK INTER:                  -7.367
REMARK INTRA:                  -1.378
REMARK UNBOUND:                -1.441
REMARK SMILES CCCCCCCCCCC(=O)[O-]
REMARK SMILES IDX 7 1 8 2 9 3 10 4 11 5 12 6 13 7 6 8 5 9 4 10 3 11 2 12 1 13
REMARK H PARENT
REMARK Flexibility Score: inf
ROOT
ATOM      1  C   UNL     1       8.337  24.065  44.903  1.00  0.00     0.000 C 
ENDROOT
BRANCH   1   2
ATOM      2  C   UNL     1       7.814  24.004  43.461  1.00  0.00     0.000 C 
BRANCH   2   3
ATOM      3  C   UNL     1       8.088  22.627  42.835  1.00  0.00     0.006 C 
BRANCH   3   4
ATOM      4  C   UNL     1       6.875  22.086  42.068  1.00  0.00     0.053 C 
BRANCH   4   5
ATOM      5  C   UNL     1       6.574  20.665  42.434  1.00  0.00     0.041 C 
ATOM      6  O   UNL     1       5.533  20.106  41.999  1.00  0.00    -0.550 OA
ATOM      7  O   UNL     1       7.460  19.948  43.227  1.00  0.00    -0.550 OA
ENDBRANCH   4   5
ENDBRANCH   3   4
ENDBRANCH   2   3
ENDBRANCH   1   2
BRANCH   1   8
ATOM      8  C   UNL     1       8.088  22.763  45.684  1.00  0.00     0.000 C 
BRANCH   8   9
ATOM      9  C   UNL     1       6.787  22.735  46.512  1.00  0.00    -0.000 C 
BRANCH   9  10
ATOM     10  C   UNL     1       5.938  21.461  46.346  1.00  0.00    -0.000 C 
BRANCH  10  11
ATOM     11  C   UNL     1       4.731  21.668  45.414  1.00  0.00    -0.000 C 
BRANCH  11  12
ATOM     12  C   UNL     1       4.507  23.147  45.062  1.00  0.00    -0.003 C 
ATOM     13  C   UNL     1       3.697  23.332  43.779  1.00  0.00     0.004 C 
ENDBRANCH  11  12
ENDBRANCH  10  11
ENDBRANCH   9  10
ENDBRANCH   8   9
ENDBRANCH   1   8
TORSDOF 9
ENDMDL
MODEL 8
REMARK VINA RESULT:    -4.773      1.556      3.980
REMARK INTER + INTRA:          -8.726
REMARK INTER:                  -7.419
REMARK INTRA:                  -1.306
REMARK UNBOUND:                -1.441
REMARK SMILES CCCCCCCCCCC(=O)[O-]
REMARK SMILES IDX 7 1 8 2 9 3 10 4 11 5 12 6 13 7 6 8 5 9 4 10 3 11 2 12 1 13
REMARK H PARENT
REMARK Flexibility Score: inf
ROOT
ATOM      1  C   UNL     1       8.051  23.853  45.203  1.00  0.00     0.000 C 
ENDROOT
BRANCH   1   2
ATOM      2  C   UNL     1       8.145  23.333  43.762  1.00  0.00     0.000 C 
BRANCH   2   3
ATOM      3  C   UNL     1       7.201  24.115  42.835  1.00  0.00     0.006 C 
BRANCH   3   4
ATOM      4  C   UNL     1       6.141  24.903  43.616  1.00  0.00     0.053 C 
BRANCH   4   5
ATOM      5  C   UNL     1       4.814  24.892  42.920  1.00  0.00     0.041 C 
ATOM      6  O   UNL     1       4.395  23.840  42.371  1.00  0.00    -0.550 OA
ATOM      7  O   UNL     1       4.026  26.036  42.907  1.00  0.00    -0.550 OA
ENDBRANCH   4   5
ENDBRANCH   3   4
ENDBRANCH   2   3
ENDBRANCH   1   2
BRANCH   1   8
ATOM      8  C   UNL     1       7.762  22.737  46.223  1.00  0.00     0.000 C 
BRANCH   8   9
ATOM      9  C   UNL     1       6.277  22.565  46.602  1.00  0.00    -0.000 C 
BRANCH   9  10
ATOM     10  C   UNL     1       5.650  21.221  46.188  1.00  0.00    -0.000 C 
BRANCH  10  11
ATOM     11  C   UNL     1       5.186  21.208  44.722  1.00  0.00    -0.000 C 
BRANCH  11  12
ATOM     12  C   UNL     1       6.036  20.276  43.845  1.00  0.00    -0.003 C 
ATOM     13  C   UNL     1       5.899  20.582  42.353  1.00  0.00     0.004 C 
ENDBRANCH  11  12
ENDBRANCH  10  11
ENDBRANCH   9  10
ENDBRANCH   8   9
ENDBRANCH   1   8
TORSDOF 9
ENDMDL
MODEL 9
REMARK VINA RESULT:    -4.733      2.525      4.498
REMARK INTER + INTRA:          -8.664
REMARK INTER:                  -7.382
REMARK INTRA:                  -1.282
REMARK UNBOUND:                -1.441
REMARK SMILES CCCCCCCCCCC(=O)[O-]
REMARK SMILES IDX 7 1 8 2 9 3 10 4 11 5 12 6 13 7 6 8 5 9 4 10 3 11 2 12 1 13
REMARK H PARENT
REMARK Flexibility Score: inf
ROOT
ATOM      1  C   UNL     1       7.765  23.872  42.518  1.00  0.00     0.000 C 
ENDROOT
BRANCH   1   2
ATOM      2  C   UNL     1       7.529  24.128  44.013  1.00  0.00     0.000 C 
BRANCH   2   3
ATOM      3  C   UNL     1       8.686  23.568  44.854  1.00  0.00     0.006 C 
BRANCH   3   4
ATOM      4  C   UNL     1       8.207  22.543  45.891  1.00  0.00     0.053 C 
BRANCH   4   5
ATOM      5  C   UNL     1       8.899  21.224  45.730  1.00  0.00     0.041 C 
ATOM      6  O   UNL     1      10.027  21.164  45.174  1.00  0.00    -0.550 OA
ATOM      7  O   UNL     1       8.315  20.066  46.227  1.00  0.00    -0.550 OA
ENDBRANCH   4   5
ENDBRANCH   3   4
ENDBRANCH   2   3
ENDBRANCH   1   2
BRANCH   1   8
ATOM      8  C   UNL     1       7.747  22.376  42.158  1.00  0.00     0.000 C 
BRANCH   8   9
ATOM      9  C   UNL     1       6.358  21.707  42.207  1.00  0.00    -0.000 C 
BRANCH   9  10
ATOM     10  C   UNL     1       6.171  20.677  43.336  1.00  0.00    -0.000 C 
BRANCH  10  11
ATOM     11  C   UNL     1       4.797  20.787  44.019  1.00  0.00    -0.000 C 
BRANCH  11  12
ATOM     12  C   UNL     1       4.780  21.836  45.141  1.00  0.00    -0.003 C 
ATOM     13  C   UNL     1       4.030  23.108  44.748  1.00  0.00     0.004 C 
ENDBRANCH  11  12
ENDBRANCH  10  11
ENDBRANCH   9  10
ENDBRANCH   8   9
ENDBRANCH   1   8
TORSDOF 9
ENDMDL
