MODEL 1
REMARK VINA RESULT:    -2.544      0.000      0.000
REMARK INTER + INTRA:          -3.177
REMARK INTER:                  -2.990
REMARK INTRA:                  -0.187
REMARK UNBOUND:                -0.187
REMARK SMILES O=C([O-])CCC(=O)[O-]
REMARK SMILES IDX 4 1 2 2 1 3 3 4 5 5 6 6 7 7 8 8
REMARK H PARENT
REMARK Flexibility Score: inf
ROOT
ATOM      1  C   UNL     1      22.689  22.788  19.273  1.00  0.00     0.059 C 
ENDROOT
BRANCH   1   2
ATOM      2  C   UNL     1      21.293  23.296  19.090  1.00  0.00     0.042 C 
ATOM      3  O   UNL     1      20.876  23.610  17.944  1.00  0.00    -0.550 OA
ATOM      4  O   UNL     1      20.463  23.463  20.193  1.00  0.00    -0.550 OA
ENDBRANCH   1   2
BRANCH   1   5
ATOM      5  C   UNL     1      22.707  21.431  19.986  1.00  0.00     0.059 C 
BRANCH   5   6
ATOM      6  C   UNL     1      22.018  20.375  19.177  1.00  0.00     0.042 C 
ATOM      7  O   UNL     1      22.486  20.027  18.061  1.00  0.00    -0.550 OA
ATOM      8  O   UNL     1      20.838  19.804  19.637  1.00  0.00    -0.550 OA
ENDBRANCH   5   6
ENDBRANCH   1   5
TORSDOF 3
ENDMDL
MODEL 2
REMARK VINA RESULT:    -2.517      0.990      3.369
REMARK INTER + INTRA:          -3.146
REMARK INTER:                  -3.008
REMARK INTRA:                  -0.138
REMARK UNBOUND:                -0.187
REMARK SMILES O=C([O-])CCC(=O)[O-]
REMARK SMILES IDX 4 1 2 2 1 3 3 4 5 5 6 6 7 7 8 8
REMARK H PARENT
REMARK Flexibility Score: inf
ROOT
ATOM      1  C   UNL     1      22.753  21.913  19.443  1.00  0.00     0.059 C 
ENDROOT
BRANCH   1   2
ATOM      2  C   UNL     1      22.052  20.685  18.949  1.00  0.00     0.042 C 
ATOM      3  O   UNL     1      22.595  19.950  18.082  1.00  0.00    -0.550 OA
ATOM      4  O   UNL     1      20.781  20.374  19.417  1.00  0.00    -0.550 OA
ENDBRANCH   1   2
BRANCH   1   5
ATOM      5  C   UNL     1      21.759  23.020  19.810  1.00  0.00     0.059 C 
BRANCH   5   6
ATOM      6  C   UNL     1      21.367  23.828  18.611  1.00  0.00     0.042 C 
ATOM      7  O   UNL     1      22.146  24.709  18.159  1.00  0.00    -0.550 OA
ATOM      8  O   UNL     1      20.126  23.637  18.018  1.00  0.00    -0.550 OA
ENDBRANCH   5   6
ENDBRANCH   1   5
TORSDOF 3
ENDMDL
MODEL 3
REMARK VINA RESULT:    -2.508      0.323      1.641
REMARK INTER + INTRA:          -3.136
REMARK INTER:                  -2.980
REMARK INTRA:                  -0.156
REMARK UNBOUND:                -0.187
REMARK SMILES O=C([O-])CCC(=O)[O-]
REMARK SMILES IDX 4 1 2 2 1 3 3 4 5 5 6 6 7 7 8 8
REMARK H PARENT
REMARK Flexibility Score: inf
ROOT
ATOM      1  C   UNL     1      22.818  22.878  19.322  1.00  0.00     0.059 C 
ENDROOT
BRANCH   1   2
ATOM      2  C   UNL     1      21.514  23.597  19.161  1.00  0.00     0.042 C 
ATOM      3  O   UNL     1      20.749  23.753  20.148  1.00  0.00    -0.550 OA
ATOM      4  O   UNL     1      21.126  24.059  17.909  1.00  0.00    -0.550 OA
ENDBRANCH   1   2
BRANCH   1   5
ATOM      5  C   UNL     1      22.640  21.547  20.061  1.00  0.00     0.059 C 
BRANCH   5   6
ATOM      6  C   UNL     1      21.961  20.526  19.200  1.00  0.00     0.042 C 
ATOM      7  O   UNL     1      20.791  20.147  19.471  1.00  0.00    -0.550 OA
ATOM      8  O   UNL     1      22.635  19.963  18.124  1.00  0.00    -0.550 OA
ENDBRANCH   5   6
ENDBRANCH   1   5
TORSDOF 3
ENDMDL
MODEL 4
REMARK VINA RESULT:    -2.422      1.014      3.685
REMARK INTER + INTRA:          -3.034
REMARK INTER:                  -2.910
REMARK INTRA:                  -0.124
REMARK UNBOUND:                -0.187
REMARK SMILES O=C([O-])CCC(=O)[O-]
REMARK SMILES IDX 4 1 2 2 1 3 3 4 5 5 6 6 7 7 8 8
REMARK H PARENT
REMARK Flexibility Score: inf
ROOT
ATOM      1  C   UNL     1      22.687  22.086  19.309  1.00  0.00     0.059 C 
ENDROOT
BRANCH   1   2
ATOM      2  C   UNL     1      22.067  20.765  18.970  1.00  0.00     0.042 C 
ATOM      3  O   UNL     1      20.958  20.438  19.468  1.00  0.00    -0.550 OA
ATOM      4  O   UNL     1      22.735  19.879  18.134  1.00  0.00    -0.550 OA
ENDBRANCH   1   2
BRANCH   1   5
ATOM      5  C   UNL     1      21.633  23.106  19.752  1.00  0.00     0.059 C 
BRANCH   5   6
ATOM      6  C   UNL     1      21.113  23.901  18.593  1.00  0.00     0.042 C 
ATOM      7  O   UNL     1      20.012  23.600  18.061  1.00  0.00    -0.550 OA
ATOM      8  O   UNL     1      21.865  24.948  18.074  1.00  0.00    -0.550 OA
ENDBRANCH   5   6
ENDBRANCH   1   5
TORSDOF 3
ENDMDL
MODEL 5
REMARK VINA RESULT:    -2.270     14.313     15.873
REMARK INTER + INTRA:          -2.855
REMARK INTER:                  -2.735
REMARK INTRA:                  -0.120
REMARK UNBOUND:                -0.187
REMARK SMILES O=C([O-])CCC(=O)[O-]
REMARK SMILES IDX 4 1 2 2 1 3 3 4 5 5 6 6 7 7 8 8
REMARK H PARENT
REMARK Flexibility Score: inf
ROOT
ATOM      1  C   UNL     1      25.064   6.381  16.492  1.00  0.00     0.059 C 
ENDROOT
BRANCH   1   2
ATOM      2  C   UNL     1      25.041   7.801  16.968  1.00  0.00     0.042 C 
ATOM      3  O   UNL     1      23.952   8.429  17.039  1.00  0.00    -0.550 OA
ATOM      4  O   UNL     1      26.229   8.444  17.295  1.00  0.00    -0.550 OA
ENDBRANCH   1   2
BRANCH   1   5
ATOM      5  C   UNL     1      25.031   6.298  14.962  1.00  0.00     0.059 C 
BRANCH   5   6
ATOM      6  C   UNL     1      23.757   5.681  14.471  1.00  0.00     0.042 C 
ATOM      7  O   UNL     1      23.775   4.878  13.501  1.00  0.00    -0.550 OA
ATOM      8  O   UNL     1      22.546   6.026  15.057  1.00  0.00    -0.550 OA
ENDBRANCH   5   6
ENDBRANCH   1   5
TORSDOF 3
ENDMDL
MODEL 6
REMARK VINA RESULT:    -2.264     14.298     16.027
REMARK INTER + INTRA:          -2.848
REMARK INTER:                  -2.734
REMARK INTRA:                  -0.115
REMARK UNBOUND:                -0.187
REMARK SMILES O=C([O-])CCC(=O)[O-]
REMARK SMILES IDX 4 1 2 2 1 3 3 4 5 5 6 6 7 7 8 8
REMARK H PARENT
REMARK Flexibility Score: inf
ROOT
ATOM      1  C   UNL     1      25.003   6.339  14.964  1.00  0.00     0.059 C 
ENDROOT
BRANCH   1   2
ATOM      2  C   UNL     1      23.724   5.671  14.563  1.00  0.00     0.042 C 
ATOM      3  O   UNL     1      23.703   4.875  13.588  1.00  0.00    -0.550 OA
ATOM      4  O   UNL     1      22.547   5.960  15.242  1.00  0.00    -0.550 OA
ENDBRANCH   1   2
BRANCH   1   5
ATOM      5  C   UNL     1      25.158   6.393  16.488  1.00  0.00     0.059 C 
BRANCH   5   6
ATOM      6  C   UNL     1      25.058   7.796  17.003  1.00  0.00     0.042 C 
ATOM      7  O   UNL     1      26.082   8.384  17.442  1.00  0.00    -0.550 OA
ATOM      8  O   UNL     1      23.828   8.440  17.036  1.00  0.00    -0.550 OA
ENDBRANCH   5   6
ENDBRANCH   1   5
TORSDOF 3
ENDMDL
MODEL 7
REMARK VINA RESULT:    -2.249     14.426     15.742
REMARK INTER + INTRA:          -2.831
REMARK INTER:                  -2.710
REMARK INTRA:                  -0.121
REMARK UNBOUND:                -0.187
REMARK SMILES O=C([O-])CCC(=O)[O-]
REMARK SMILES IDX 4 1 2 2 1 3 3 4 5 5 6 6 7 7 8 8
REMARK H PARENT
REMARK Flexibility Score: inf
ROOT
ATOM      1  C   UNL     1      24.914   7.919  16.750  1.00  0.00     0.059 C 
ENDROOT
BRANCH   1   2
ATOM      2  C   UNL     1      25.991   7.664  17.761  1.00  0.00     0.042 C 
ATOM      3  O   UNL     1      26.480   6.511  17.889  1.00  0.00    -0.550 OA
ATOM      4  O   UNL     1      26.424   8.692  18.589  1.00  0.00    -0.550 OA
ENDBRANCH   1   2
BRANCH   1   5
ATOM      5  C   UNL     1      24.047   6.676  16.524  1.00  0.00     0.059 C 
BRANCH   5   6
ATOM      6  C   UNL     1      24.223   6.125  15.142  1.00  0.00     0.042 C 
ATOM      7  O   UNL     1      25.350   6.168  14.582  1.00  0.00    -0.550 OA
ATOM      8  O   UNL     1      23.134   5.601  14.458  1.00  0.00    -0.550 OA
ENDBRANCH   5   6
ENDBRANCH   1   5
TORSDOF 3
ENDMDL
MODEL 8
REMARK VINA RESULT:    -2.179     15.070     16.463
REMARK INTER + INTRA:          -2.749
REMARK INTER:                  -2.717
REMARK INTRA:                  -0.031
REMARK UNBOUND:                -0.187
REMARK SMILES O=C([O-])CCC(=O)[O-]
REMARK SMILES IDX 4 1 2 2 1 3 3 4 5 5 6 6 7 7 8 8
REMARK H PARENT
REMARK Flexibility Score: inf
ROOT
ATOM      1  C   UNL     1      24.940   6.366  15.425  1.00  0.00     0.059 C 
ENDROOT
BRANCH   1   2
ATOM      2  C   UNL     1      23.841   5.613  14.740  1.00  0.00     0.042 C 
ATOM      3  O   UNL     1      22.676   5.615  15.218  1.00  0.00    -0.550 OA
ATOM      4  O   UNL     1      24.114   4.875  13.595  1.00  0.00    -0.550 OA
ENDBRANCH   1   2
BRANCH   1   5
ATOM      5  C   UNL     1      24.748   6.385  16.946  1.00  0.00     0.059 C 
BRANCH   5   6
ATOM      6  C   UNL     1      25.894   7.058  17.638  1.00  0.00     0.042 C 
ATOM      7  O   UNL     1      26.148   8.270  17.409  1.00  0.00    -0.550 OA
ATOM      8  O   UNL     1      26.705   6.336  18.504  1.00  0.00    -0.550 OA
ENDBRANCH   5   6
ENDBRANCH   1   5
TORSDOF 3
ENDMDL
MODEL 9
REMARK VINA RESULT:    -2.175     14.094     15.097
REMARK INTER + INTRA:          -2.743
REMARK INTER:                  -2.671
REMARK INTRA:                  -0.072
REMARK UNBOUND:                -0.187
REMARK SMILES O=C([O-])CCC(=O)[O-]
REMARK SMILES IDX 4 1 2 2 1 3 3 4 5 5 6 6 7 7 8 8
REMARK H PARENT
REMARK Flexibility Score: inf
ROOT
ATOM      1  C   UNL     1      26.099   8.285  17.516  1.00  0.00     0.059 C 
ENDROOT
BRANCH   1   2
ATOM      2  C   UNL     1      26.091   8.348  19.012  1.00  0.00     0.042 C 
ATOM      3  O   UNL     1      25.011   8.523  19.635  1.00  0.00    -0.550 OA
ATOM      4  O   UNL     1      27.285   8.256  19.718  1.00  0.00    -0.550 OA
ENDBRANCH   1   2
BRANCH   1   5
ATOM      5  C   UNL     1      25.994   6.841  17.012  1.00  0.00     0.059 C 
BRANCH   5   6
ATOM      6  C   UNL     1      24.893   6.687  16.007  1.00  0.00     0.042 C 
ATOM      7  O   UNL     1      25.159   6.339  14.826  1.00  0.00    -0.550 OA
ATOM      8  O   UNL     1      23.580   6.967  16.363  1.00  0.00    -0.550 OA
ENDBRANCH   5   6
ENDBRANCH   1   5
TORSDOF 3
ENDMDL
