MODEL 1
REMARK VINA RESULT:    -3.887      0.000      0.000
REMARK INTER + INTRA:          -3.887
REMARK INTER:                  -3.887
REMARK INTRA:                   0.000
REMARK UNBOUND:                 0.000
REMARK SMILES C=C1CCC[C@]2(C)CC(=O)C(=C(C)C)C[C@H]12
REMARK SMILES IDX 13 1 12 2 11 3 15 4 16 5 2 6 1 7 3 8 4 9 5 10 6 11 8 12 9 13
REMARK SMILES IDX 10 14 7 15 14 16
REMARK H PARENT
REMARK Flexibility Score: inf
ROOT
ATOM      1  C   UNL     1       1.777  16.965  -5.763  1.00  0.00     0.039 C 
ATOM      2  C   UNL     1       3.263  16.732  -5.624  1.00  0.00    -0.070 C 
ATOM      3  C   UNL     1       3.828  15.542  -5.980  1.00  0.00    -0.006 C 
ATOM      4  C   UNL     1       3.035  14.395  -6.574  1.00  0.00     0.047 C 
ATOM      5  C   UNL     1       3.601  13.939  -7.949  1.00  0.00     0.025 C 
ATOM      6  C   UNL     1       3.152  12.510  -8.207  1.00  0.00    -0.073 C 
ATOM      7  C   UNL     1       1.918  12.257  -8.672  1.00  0.00     0.008 C 
ATOM      8  C   UNL     1       4.067  11.375  -7.816  1.00  0.00     0.031 C 
ATOM      9  C   UNL     1       5.492  11.552  -8.374  1.00  0.00     0.005 C 
ATOM     10  C   UNL     1       5.774  12.952  -8.946  1.00  0.00     0.008 C 
ATOM     11  C   UNL     1       5.170  14.111  -8.101  1.00  0.00    -0.018 C 
ATOM     12  C   UNL     1       5.872  14.172  -6.712  1.00  0.00     0.088 C 
ATOM     13  C   UNL     1       5.279  15.253  -5.854  1.00  0.00     0.159 C 
ATOM     14  O   UNL     1       6.004  15.826  -4.997  1.00  0.00    -0.295 OA
ATOM     15  C   UNL     1       5.472  15.427  -8.865  1.00  0.00     0.012 C 
ATOM     16  C   UNL     1       4.100  17.883  -5.118  1.00  0.00     0.039 C 
ENDROOT
TORSDOF 0
ENDMDL
MODEL 2
REMARK VINA RESULT:    -3.572      1.693      2.774
REMARK INTER + INTRA:          -3.572
REMARK INTER:                  -3.572
REMARK INTRA:                   0.000
REMARK UNBOUND:                 0.000
REMARK SMILES C=C1CCC[C@]2(C)CC(=O)C(=C(C)C)C[C@H]12
REMARK SMILES IDX 13 1 12 2 11 3 15 4 16 5 2 6 1 7 3 8 4 9 5 10 6 11 8 12 9 13
REMARK SMILES IDX 10 14 7 15 14 16
REMARK H PARENT
REMARK Flexibility Score: inf
ROOT
ATOM      1  C   UNL     1       4.848  16.622  -4.078  1.00  0.00     0.039 C 
ATOM      2  C   UNL     1       4.276  16.746  -5.471  1.00  0.00    -0.070 C 
ATOM      3  C   UNL     1       4.525  15.802  -6.423  1.00  0.00    -0.006 C 
ATOM      4  C   UNL     1       5.342  14.553  -6.157  1.00  0.00     0.047 C 
ATOM      5  C   UNL     1       4.556  13.254  -6.493  1.00  0.00     0.025 C 
ATOM      6  C   UNL     1       5.555  12.134  -6.737  1.00  0.00    -0.073 C 
ATOM      7  C   UNL     1       6.116  11.485  -5.704  1.00  0.00     0.008 C 
ATOM      8  C   UNL     1       6.000  11.848  -8.151  1.00  0.00     0.031 C 
ATOM      9  C   UNL     1       4.812  11.667  -9.114  1.00  0.00     0.005 C 
ATOM     10  C   UNL     1       3.455  12.099  -8.529  1.00  0.00     0.008 C 
ATOM     11  C   UNL     1       3.522  13.404  -7.685  1.00  0.00    -0.018 C 
ATOM     12  C   UNL     1       3.884  14.608  -8.605  1.00  0.00     0.088 C 
ATOM     13  C   UNL     1       4.001  15.878  -7.811  1.00  0.00     0.159 C 
ATOM     14  O   UNL     1       3.730  16.978  -8.365  1.00  0.00    -0.295 OA
ATOM     15  C   UNL     1       2.100  13.636  -7.107  1.00  0.00     0.012 C 
ATOM     16  C   UNL     1       3.384  17.933  -5.749  1.00  0.00     0.039 C 
ENDROOT
TORSDOF 0
ENDMDL
MODEL 3
REMARK VINA RESULT:    -2.975      2.143      5.204
REMARK INTER + INTRA:          -2.975
REMARK INTER:                  -2.975
REMARK INTRA:                   0.000
REMARK UNBOUND:                 0.000
REMARK SMILES C=C1CCC[C@]2(C)CC(=O)C(=C(C)C)C[C@H]12
REMARK SMILES IDX 13 1 12 2 11 3 15 4 16 5 2 6 1 7 3 8 4 9 5 10 6 11 8 12 9 13
REMARK SMILES IDX 10 14 7 15 14 16
REMARK H PARENT
REMARK Flexibility Score: inf
ROOT
ATOM      1  C   UNL     1       6.748  12.503  -8.377  1.00  0.00     0.039 C 
ATOM      2  C   UNL     1       5.319  12.050  -8.188  1.00  0.00    -0.070 C 
ATOM      3  C   UNL     1       4.521  12.611  -7.233  1.00  0.00    -0.006 C 
ATOM      4  C   UNL     1       4.977  13.742  -6.333  1.00  0.00     0.047 C 
ATOM      5  C   UNL     1       4.043  14.981  -6.427  1.00  0.00     0.025 C 
ATOM      6  C   UNL     1       4.208  15.808  -5.161  1.00  0.00    -0.073 C 
ATOM      7  C   UNL     1       5.248  16.647  -5.027  1.00  0.00     0.008 C 
ATOM      8  C   UNL     1       3.258  15.580  -4.011  1.00  0.00     0.031 C 
ATOM      9  C   UNL     1       1.782  15.639  -4.449  1.00  0.00     0.005 C 
ATOM     10  C   UNL     1       1.577  15.617  -5.974  1.00  0.00     0.008 C 
ATOM     11  C   UNL     1       2.524  14.636  -6.723  1.00  0.00    -0.018 C 
ATOM     12  C   UNL     1       2.186  13.169  -6.322  1.00  0.00     0.088 C 
ATOM     13  C   UNL     1       3.114  12.198  -6.994  1.00  0.00     0.159 C 
ATOM     14  O   UNL     1       2.703  11.037  -7.262  1.00  0.00    -0.295 OA
ATOM     15  C   UNL     1       2.242  14.811  -8.239  1.00  0.00     0.012 C 
ATOM     16  C   UNL     1       4.800  10.986  -9.125  1.00  0.00     0.039 C 
ENDROOT
TORSDOF 0
ENDMDL
MODEL 4
REMARK VINA RESULT:    -2.248      1.548      4.718
REMARK INTER + INTRA:          -2.248
REMARK INTER:                  -2.248
REMARK INTRA:                   0.000
REMARK UNBOUND:                 0.000
REMARK SMILES C=C1CCC[C@]2(C)CC(=O)C(=C(C)C)C[C@H]12
REMARK SMILES IDX 13 1 12 2 11 3 15 4 16 5 2 6 1 7 3 8 4 9 5 10 6 11 8 12 9 13
REMARK SMILES IDX 10 14 7 15 14 16
REMARK H PARENT
REMARK Flexibility Score: inf
ROOT
ATOM      1  C   UNL     1       2.593  11.165  -7.710  1.00  0.00     0.039 C 
ATOM      2  C   UNL     1       3.770  12.034  -8.087  1.00  0.00    -0.070 C 
ATOM      3  C   UNL     1       3.803  13.358  -7.760  1.00  0.00    -0.006 C 
ATOM      4  C   UNL     1       2.708  14.043  -6.968  1.00  0.00     0.047 C 
ATOM      5  C   UNL     1       3.253  14.732  -5.685  1.00  0.00     0.025 C 
ATOM      6  C   UNL     1       2.272  15.816  -5.264  1.00  0.00    -0.073 C 
ATOM      7  C   UNL     1       1.162  15.501  -4.579  1.00  0.00     0.008 C 
ATOM      8  C   UNL     1       2.503  17.232  -5.735  1.00  0.00     0.031 C 
ATOM      9  C   UNL     1       3.934  17.721  -5.443  1.00  0.00     0.005 C 
ATOM     10  C   UNL     1       4.906  16.607  -5.017  1.00  0.00     0.008 C 
ATOM     11  C   UNL     1       4.734  15.283  -5.816  1.00  0.00    -0.018 C 
ATOM     12  C   UNL     1       5.125  15.512  -7.307  1.00  0.00     0.088 C 
ATOM     13  C   UNL     1       4.927  14.263  -8.116  1.00  0.00     0.159 C 
ATOM     14  O   UNL     1       5.661  14.055  -9.119  1.00  0.00    -0.295 OA
ATOM     15  C   UNL     1       5.721  14.256  -5.200  1.00  0.00     0.012 C 
ATOM     16  C   UNL     1       4.921  11.367  -8.801  1.00  0.00     0.039 C 
ENDROOT
TORSDOF 0
ENDMDL
MODEL 5
REMARK VINA RESULT:    -1.623      2.097      5.095
REMARK INTER + INTRA:          -1.623
REMARK INTER:                  -1.623
REMARK INTRA:                   0.000
REMARK UNBOUND:                 0.000
REMARK SMILES C=C1CCC[C@]2(C)CC(=O)C(=C(C)C)C[C@H]12
REMARK SMILES IDX 13 1 12 2 11 3 15 4 16 5 2 6 1 7 3 8 4 9 5 10 6 11 8 12 9 13
REMARK SMILES IDX 10 14 7 15 14 16
REMARK H PARENT
REMARK Flexibility Score: inf
ROOT
ATOM      1  C   UNL     1       5.910  11.372  -6.740  1.00  0.00     0.039 C 
ATOM      2  C   UNL     1       4.876  11.971  -7.665  1.00  0.00    -0.070 C 
ATOM      3  C   UNL     1       3.937  12.846  -7.202  1.00  0.00    -0.006 C 
ATOM      4  C   UNL     1       3.883  13.318  -5.763  1.00  0.00     0.047 C 
ATOM      5  C   UNL     1       3.945  14.866  -5.648  1.00  0.00     0.025 C 
ATOM      6  C   UNL     1       3.346  15.277  -4.312  1.00  0.00    -0.073 C 
ATOM      7  C   UNL     1       4.075  15.201  -3.187  1.00  0.00     0.008 C 
ATOM      8  C   UNL     1       1.886  15.653  -4.251  1.00  0.00     0.031 C 
ATOM      9  C   UNL     1       1.507  16.709  -5.306  1.00  0.00     0.005 C 
ATOM     10  C   UNL     1       2.587  16.944  -6.377  1.00  0.00     0.008 C 
ATOM     11  C   UNL     1       3.285  15.641  -6.863  1.00  0.00    -0.018 C 
ATOM     12  C   UNL     1       2.258  14.744  -7.618  1.00  0.00     0.088 C 
ATOM     13  C   UNL     1       2.890  13.456  -8.062  1.00  0.00     0.159 C 
ATOM     14  O   UNL     1       2.462  12.886  -9.101  1.00  0.00    -0.295 OA
ATOM     15  C   UNL     1       4.392  16.071  -7.862  1.00  0.00     0.012 C 
ATOM     16  C   UNL     1       4.953  11.594  -9.125  1.00  0.00     0.039 C 
ENDROOT
TORSDOF 0
ENDMDL
MODEL 6
REMARK VINA RESULT:    -1.329      1.766      2.922
REMARK INTER + INTRA:          -1.329
REMARK INTER:                  -1.329
REMARK INTRA:                   0.000
REMARK UNBOUND:                 0.000
REMARK SMILES C=C1CCC[C@]2(C)CC(=O)C(=C(C)C)C[C@H]12
REMARK SMILES IDX 13 1 12 2 11 3 15 4 16 5 2 6 1 7 3 8 4 9 5 10 6 11 8 12 9 13
REMARK SMILES IDX 10 14 7 15 14 16
REMARK H PARENT
REMARK Flexibility Score: inf
ROOT
ATOM      1  C   UNL     1       4.486  18.491  -6.552  1.00  0.00     0.039 C 
ATOM      2  C   UNL     1       3.461  17.473  -6.108  1.00  0.00    -0.070 C 
ATOM      3  C   UNL     1       3.425  16.223  -6.652  1.00  0.00    -0.006 C 
ATOM      4  C   UNL     1       4.418  15.744  -7.693  1.00  0.00     0.047 C 
ATOM      5  C   UNL     1       5.156  14.450  -7.250  1.00  0.00     0.025 C 
ATOM      6  C   UNL     1       5.681  13.744  -8.490  1.00  0.00    -0.073 C 
ATOM      7  C   UNL     1       6.819  14.150  -9.075  1.00  0.00     0.008 C 
ATOM      8  C   UNL     1       4.840  12.662  -9.125  1.00  0.00     0.031 C 
ATOM      9  C   UNL     1       4.386  11.599  -8.107  1.00  0.00     0.005 C 
ATOM     10  C   UNL     1       4.616  11.995  -6.638  1.00  0.00     0.008 C 
ATOM     11  C   UNL     1       4.295  13.487  -6.331  1.00  0.00    -0.018 C 
ATOM     12  C   UNL     1       2.770  13.744  -6.509  1.00  0.00     0.088 C 
ATOM     13  C   UNL     1       2.433  15.187  -6.264  1.00  0.00     0.159 C 
ATOM     14  O   UNL     1       1.295  15.487  -5.813  1.00  0.00    -0.295 OA
ATOM     15  C   UNL     1       4.666  13.727  -4.843  1.00  0.00     0.012 C 
ATOM     16  C   UNL     1       2.510  17.884  -5.009  1.00  0.00     0.039 C 
ENDROOT
TORSDOF 0
ENDMDL
