MODEL 1
REMARK VINA RESULT:    -5.953      0.000      0.000
REMARK INTER + INTRA:         -10.046
REMARK INTER:                  -9.085
REMARK INTRA:                  -0.961
REMARK UNBOUND:                -0.961
REMARK SMILES CCCCCCCCCC=CC(=O)[O-]
REMARK SMILES IDX 7 1 8 2 9 3 10 4 11 5 12 6 13 7 14 8 6 9 5 10 4 11 3 12 2 13
REMARK SMILES IDX 1 14
REMARK H PARENT
REMARK Flexibility Score: inf
ROOT
ATOM      1  C   UNL     1     130.138 127.452 125.338  1.00  0.00     0.000 C 
ENDROOT
BRANCH   1   2
ATOM      2  C   UNL     1     131.384 126.553 125.321  1.00  0.00     0.004 C 
BRANCH   2   3
ATOM      3  C   UNL     1     131.389 125.551 126.487  1.00  0.00     0.027 C 
BRANCH   3   4
ATOM      4  C   UNL     1     130.413 124.423 126.277  1.00  0.00    -0.025 C 
ATOM      5  C   UNL     1     129.281 124.218 126.971  1.00  0.00     0.020 C 
BRANCH   5   6
ATOM      6  C   UNL     1     128.736 125.076 128.042  1.00  0.00     0.064 C 
ATOM      7  O   UNL     1     127.855 125.947 127.819  1.00  0.00    -0.545 OA
ATOM      8  O   UNL     1     129.192 124.898 129.342  1.00  0.00    -0.545 OA
ENDBRANCH   5   6
ENDBRANCH   3   4
ENDBRANCH   2   3
ENDBRANCH   1   2
BRANCH   1   9
ATOM      9  C   UNL     1     129.393 127.382 123.997  1.00  0.00     0.000 C 
BRANCH   9  10
ATOM     10  C   UNL     1     128.023 126.695 124.113  1.00  0.00     0.000 C 
BRANCH  10  11
ATOM     11  C   UNL     1     127.080 127.055 122.953  1.00  0.00    -0.000 C 
BRANCH  11  12
ATOM     12  C   UNL     1     127.660 128.145 122.038  1.00  0.00    -0.000 C 
BRANCH  12  13
ATOM     13  C   UNL     1     126.748 129.376 121.929  1.00  0.00    -0.003 C 
ATOM     14  C   UNL     1     125.392 129.115 122.577  1.00  0.00     0.004 C 
ENDBRANCH  12  13
ENDBRANCH  11  12
ENDBRANCH  10  11
ENDBRANCH   9  10
ENDBRANCH   1   9
TORSDOF 9
ENDMDL
MODEL 2
REMARK VINA RESULT:    -5.864      3.257      6.228
REMARK INTER + INTRA:          -9.911
REMARK INTER:                  -8.846
REMARK INTRA:                  -1.065
REMARK UNBOUND:                -0.961
REMARK SMILES CCCCCCCCCC=CC(=O)[O-]
REMARK SMILES IDX 7 1 8 2 9 3 10 4 11 5 12 6 13 7 14 8 6 9 5 10 4 11 3 12 2 13
REMARK SMILES IDX 1 14
REMARK H PARENT
REMARK Flexibility Score: inf
ROOT
ATOM      1  C   UNL     1     128.708 126.186 127.434  1.00  0.00     0.000 C 
ENDROOT
BRANCH   1   2
ATOM      2  C   UNL     1     130.111 126.067 128.049  1.00  0.00     0.004 C 
BRANCH   2   3
ATOM      3  C   UNL     1     131.160 126.861 127.253  1.00  0.00     0.027 C 
BRANCH   3   4
ATOM      4  C   UNL     1     131.707 126.079 126.088  1.00  0.00    -0.025 C 
ATOM      5  C   UNL     1     131.362 126.234 124.799  1.00  0.00     0.020 C 
BRANCH   5   6
ATOM      6  C   UNL     1     130.416 127.230 124.254  1.00  0.00     0.064 C 
ATOM      7  O   UNL     1     130.739 128.433 124.076  1.00  0.00    -0.545 OA
ATOM      8  O   UNL     1     129.137 126.818 123.903  1.00  0.00    -0.545 OA
ENDBRANCH   5   6
ENDBRANCH   3   4
ENDBRANCH   2   3
ENDBRANCH   1   2
BRANCH   1   9
ATOM      9  C   UNL     1     128.316 124.890 126.708  1.00  0.00     0.000 C 
BRANCH   9  10
ATOM     10  C   UNL     1     128.773 123.628 127.456  1.00  0.00     0.000 C 
BRANCH  10  11
ATOM     11  C   UNL     1     127.718 123.116 128.451  1.00  0.00    -0.000 C 
BRANCH  11  12
ATOM     12  C   UNL     1     128.337 122.636 129.773  1.00  0.00    -0.000 C 
BRANCH  12  13
ATOM     13  C   UNL     1     128.576 123.783 130.767  1.00  0.00    -0.003 C 
ATOM     14  C   UNL     1     128.548 123.278 132.206  1.00  0.00     0.004 C 
ENDBRANCH  12  13
ENDBRANCH  11  12
ENDBRANCH  10  11
ENDBRANCH   9  10
ENDBRANCH   1   9
TORSDOF 9
ENDMDL
MODEL 3
REMARK VINA RESULT:    -5.795      1.317      1.918
REMARK INTER + INTRA:          -9.806
REMARK INTER:                  -9.182
REMARK INTRA:                  -0.624
REMARK UNBOUND:                -0.961
REMARK SMILES CCCCCCCCCC=CC(=O)[O-]
REMARK SMILES IDX 7 1 8 2 9 3 10 4 11 5 12 6 13 7 14 8 6 9 5 10 4 11 3 12 2 13
REMARK SMILES IDX 1 14
REMARK H PARENT
REMARK Flexibility Score: inf
ROOT
ATOM      1  C   UNL     1     131.306 126.255 125.536  1.00  0.00     0.000 C 
ENDROOT
BRANCH   1   2
ATOM      2  C   UNL     1     130.674 125.266 126.527  1.00  0.00     0.004 C 
BRANCH   2   3
ATOM      3  C   UNL     1     130.013 125.982 127.716  1.00  0.00     0.027 C 
BRANCH   3   4
ATOM      4  C   UNL     1     128.531 125.726 127.787  1.00  0.00    -0.025 C 
ATOM      5  C   UNL     1     127.918 124.853 128.604  1.00  0.00     0.020 C 
BRANCH   5   6
ATOM      6  C   UNL     1     128.560 124.005 129.629  1.00  0.00     0.064 C 
ATOM      7  O   UNL     1     128.664 122.758 129.496  1.00  0.00    -0.545 OA
ATOM      8  O   UNL     1     129.087 124.607 130.764  1.00  0.00    -0.545 OA
ENDBRANCH   5   6
ENDBRANCH   3   4
ENDBRANCH   2   3
ENDBRANCH   1   2
BRANCH   1   9
ATOM      9  C   UNL     1     130.480 126.339 124.243  1.00  0.00     0.000 C 
BRANCH   9  10
ATOM     10  C   UNL     1     129.378 127.408 124.309  1.00  0.00     0.000 C 
BRANCH  10  11
ATOM     11  C   UNL     1     128.050 126.927 123.702  1.00  0.00    -0.000 C 
BRANCH  11  12
ATOM     12  C   UNL     1     127.623 127.758 122.482  1.00  0.00    -0.000 C 
BRANCH  12  13
ATOM     13  C   UNL     1     126.140 128.158 122.526  1.00  0.00    -0.003 C 
ATOM     14  C   UNL     1     125.949 129.608 122.096  1.00  0.00     0.004 C 
ENDBRANCH  12  13
ENDBRANCH  11  12
ENDBRANCH  10  11
ENDBRANCH   9  10
ENDBRANCH   1   9
TORSDOF 9
ENDMDL
MODEL 4
REMARK VINA RESULT:    -5.728      2.842      6.160
REMARK INTER + INTRA:          -9.703
REMARK INTER:                  -9.026
REMARK INTRA:                  -0.677
REMARK UNBOUND:                -0.961
REMARK SMILES CCCCCCCCCC=CC(=O)[O-]
REMARK SMILES IDX 7 1 8 2 9 3 10 4 11 5 12 6 13 7 14 8 6 9 5 10 4 11 3 12 2 13
REMARK SMILES IDX 1 14
REMARK H PARENT
REMARK Flexibility Score: inf
ROOT
ATOM      1  C   UNL     1     131.149 126.057 124.906  1.00  0.00     0.000 C 
ENDROOT
BRANCH   1   2
ATOM      2  C   UNL     1     130.842 127.562 124.951  1.00  0.00     0.004 C 
BRANCH   2   3
ATOM      3  C   UNL     1     129.645 127.934 124.061  1.00  0.00     0.027 C 
BRANCH   3   4
ATOM      4  C   UNL     1     128.618 126.834 123.991  1.00  0.00    -0.025 C 
ATOM      5  C   UNL     1     127.439 126.893 123.352  1.00  0.00     0.020 C 
BRANCH   5   6
ATOM      6  C   UNL     1     126.926 128.023 122.549  1.00  0.00     0.064 C 
ATOM      7  O   UNL     1     127.494 128.405 121.493  1.00  0.00    -0.545 OA
ATOM      8  O   UNL     1     125.767 128.666 122.960  1.00  0.00    -0.545 OA
ENDBRANCH   5   6
ENDBRANCH   3   4
ENDBRANCH   2   3
ENDBRANCH   1   2
BRANCH   1   9
ATOM      9  C   UNL     1     131.236 125.472 126.324  1.00  0.00     0.000 C 
BRANCH   9  10
ATOM     10  C   UNL     1     129.908 124.859 126.796  1.00  0.00     0.000 C 
BRANCH  10  11
ATOM     11  C   UNL     1     129.323 125.586 128.019  1.00  0.00    -0.000 C 
BRANCH  11  12
ATOM     12  C   UNL     1     129.038 124.633 129.191  1.00  0.00    -0.000 C 
BRANCH  12  13
ATOM     13  C   UNL     1     128.405 123.309 128.739  1.00  0.00    -0.003 C 
ATOM     14  C   UNL     1     128.313 122.320 129.897  1.00  0.00     0.004 C 
ENDBRANCH  12  13
ENDBRANCH  11  12
ENDBRANCH  10  11
ENDBRANCH   9  10
ENDBRANCH   1   9
TORSDOF 9
ENDMDL
MODEL 5
REMARK VINA RESULT:    -5.713      2.129      4.225
REMARK INTER + INTRA:          -9.680
REMARK INTER:                  -8.681
REMARK INTRA:                  -0.999
REMARK UNBOUND:                -0.961
REMARK SMILES CCCCCCCCCC=CC(=O)[O-]
REMARK SMILES IDX 7 1 8 2 9 3 10 4 11 5 12 6 13 7 14 8 6 9 5 10 4 11 3 12 2 13
REMARK SMILES IDX 1 14
REMARK H PARENT
REMARK Flexibility Score: inf
ROOT
ATOM      1  C   UNL     1     128.637 124.117 126.488  1.00  0.00     0.000 C 
ENDROOT
BRANCH   1   2
ATOM      2  C   UNL     1     128.071 125.232 127.380  1.00  0.00     0.004 C 
BRANCH   2   3
ATOM      3  C   UNL     1     127.236 124.672 128.544  1.00  0.00     0.027 C 
BRANCH   3   4
ATOM      4  C   UNL     1     127.638 123.268 128.914  1.00  0.00    -0.025 C 
ATOM      5  C   UNL     1     128.272 122.899 130.039  1.00  0.00     0.020 C 
BRANCH   5   6
ATOM      6  C   UNL     1     128.660 123.777 131.162  1.00  0.00     0.064 C 
ATOM      7  O   UNL     1     128.355 123.514 132.354  1.00  0.00    -0.545 OA
ATOM      8  O   UNL     1     129.406 124.918 130.895  1.00  0.00    -0.545 OA
ENDBRANCH   5   6
ENDBRANCH   3   4
ENDBRANCH   2   3
ENDBRANCH   1   2
BRANCH   1   9
ATOM      9  C   UNL     1     130.147 124.303 126.269  1.00  0.00     0.000 C 
BRANCH   9  10
ATOM     10  C   UNL     1     130.681 125.606 126.885  1.00  0.00     0.000 C 
BRANCH  10  11
ATOM     11  C   UNL     1     131.813 126.233 126.054  1.00  0.00    -0.000 C 
BRANCH  11  12
ATOM     12  C   UNL     1     131.331 126.731 124.682  1.00  0.00    -0.000 C 
BRANCH  12  13
ATOM     13  C   UNL     1     130.088 127.628 124.779  1.00  0.00    -0.003 C 
ATOM     14  C   UNL     1     128.942 127.072 123.941  1.00  0.00     0.004 C 
ENDBRANCH  12  13
ENDBRANCH  11  12
ENDBRANCH  10  11
ENDBRANCH   9  10
ENDBRANCH   1   9
TORSDOF 9
ENDMDL
MODEL 6
REMARK VINA RESULT:    -5.351      1.513      1.935
REMARK INTER + INTRA:          -9.128
REMARK INTER:                  -8.656
REMARK INTRA:                  -0.472
REMARK UNBOUND:                -0.961
REMARK SMILES CCCCCCCCCC=CC(=O)[O-]
REMARK SMILES IDX 7 1 8 2 9 3 10 4 11 5 12 6 13 7 14 8 6 9 5 10 4 11 3 12 2 13
REMARK SMILES IDX 1 14
REMARK H PARENT
REMARK Flexibility Score: inf
ROOT
ATOM      1  C   UNL     1     130.542 125.872 125.396  1.00  0.00     0.000 C 
ENDROOT
BRANCH   1   2
ATOM      2  C   UNL     1     130.780 125.746 126.909  1.00  0.00     0.004 C 
BRANCH   2   3
ATOM      3  C   UNL     1     129.526 126.103 127.722  1.00  0.00     0.027 C 
BRANCH   3   4
ATOM      4  C   UNL     1     129.386 125.258 128.961  1.00  0.00    -0.025 C 
ATOM      5  C   UNL     1     128.487 124.279 129.154  1.00  0.00     0.020 C 
BRANCH   5   6
ATOM      6  C   UNL     1     127.486 123.797 128.180  1.00  0.00     0.064 C 
ATOM      7  O   UNL     1     126.256 123.771 128.441  1.00  0.00    -0.545 OA
ATOM      8  O   UNL     1     127.916 123.383 126.926  1.00  0.00    -0.545 OA
ENDBRANCH   5   6
ENDBRANCH   3   4
ENDBRANCH   2   3
ENDBRANCH   1   2
BRANCH   1   9
ATOM      9  C   UNL     1     129.117 126.366 125.105  1.00  0.00     0.000 C 
BRANCH   9  10
ATOM     10  C   UNL     1     129.015 127.137 123.779  1.00  0.00     0.000 C 
BRANCH  10  11
ATOM     11  C   UNL     1     127.589 127.130 123.200  1.00  0.00    -0.000 C 
BRANCH  11  12
ATOM     12  C   UNL     1     127.398 128.177 122.091  1.00  0.00    -0.000 C 
BRANCH  12  13
ATOM     13  C   UNL     1     126.151 129.047 122.304  1.00  0.00    -0.003 C 
ATOM     14  C   UNL     1     124.875 128.228 122.144  1.00  0.00     0.004 C 
ENDBRANCH  12  13
ENDBRANCH  11  12
ENDBRANCH  10  11
ENDBRANCH   9  10
ENDBRANCH   1   9
TORSDOF 9
ENDMDL
MODEL 7
REMARK VINA RESULT:    -5.164      1.321      2.016
REMARK INTER + INTRA:          -8.842
REMARK INTER:                  -8.343
REMARK INTRA:                  -0.499
REMARK UNBOUND:                -0.961
REMARK SMILES CCCCCCCCCC=CC(=O)[O-]
REMARK SMILES IDX 7 1 8 2 9 3 10 4 11 5 12 6 13 7 14 8 6 9 5 10 4 11 3 12 2 13
REMARK SMILES IDX 1 14
REMARK H PARENT
REMARK Flexibility Score: inf
ROOT
ATOM      1  C   UNL     1     129.057 127.605 123.718  1.00  0.00     0.000 C 
ENDROOT
BRANCH   1   2
ATOM      2  C   UNL     1     130.265 126.705 124.015  1.00  0.00     0.004 C 
BRANCH   2   3
ATOM      3  C   UNL     1     130.984 127.112 125.312  1.00  0.00     0.027 C 
BRANCH   3   4
ATOM      4  C   UNL     1     131.579 125.931 126.033  1.00  0.00    -0.025 C 
ATOM      5  C   UNL     1     130.914 125.066 126.815  1.00  0.00     0.020 C 
BRANCH   5   6
ATOM      6  C   UNL     1     129.462 125.063 127.092  1.00  0.00     0.064 C 
ATOM      7  O   UNL     1     128.634 124.523 126.313  1.00  0.00    -0.545 OA
ATOM      8  O   UNL     1     129.001 125.653 128.261  1.00  0.00    -0.545 OA
ENDBRANCH   5   6
ENDBRANCH   3   4
ENDBRANCH   2   3
ENDBRANCH   1   2
BRANCH   1   9
ATOM      9  C   UNL     1     127.800 126.764 123.447  1.00  0.00     0.000 C 
BRANCH   9  10
ATOM     10  C   UNL     1     127.001 127.263 122.232  1.00  0.00     0.000 C 
BRANCH  10  11
ATOM     11  C   UNL     1     126.225 128.558 122.526  1.00  0.00    -0.000 C 
BRANCH  11  12
ATOM     12  C   UNL     1     126.797 129.772 121.776  1.00  0.00    -0.000 C 
BRANCH  12  13
ATOM     13  C   UNL     1     125.892 131.010 121.874  1.00  0.00    -0.003 C 
ATOM     14  C   UNL     1     126.649 132.276 121.486  1.00  0.00     0.004 C 
ENDBRANCH  12  13
ENDBRANCH  11  12
ENDBRANCH  10  11
ENDBRANCH   9  10
ENDBRANCH   1   9
TORSDOF 9
ENDMDL
MODEL 8
REMARK VINA RESULT:    -4.944      1.793      2.643
REMARK INTER + INTRA:          -8.506
REMARK INTER:                  -7.633
REMARK INTRA:                  -0.873
REMARK UNBOUND:                -0.961
REMARK SMILES CCCCCCCCCC=CC(=O)[O-]
REMARK SMILES IDX 7 1 8 2 9 3 10 4 11 5 12 6 13 7 14 8 6 9 5 10 4 11 3 12 2 13
REMARK SMILES IDX 1 14
REMARK H PARENT
REMARK Flexibility Score: inf
ROOT
ATOM      1  C   UNL     1     129.114 124.986 126.804  1.00  0.00     0.000 C 
ENDROOT
BRANCH   1   2
ATOM      2  C   UNL     1     130.353 124.555 126.003  1.00  0.00     0.004 C 
BRANCH   2   3
ATOM      3  C   UNL     1     131.646 125.167 126.567  1.00  0.00     0.027 C 
BRANCH   3   4
ATOM      4  C   UNL     1     132.079 126.393 125.806  1.00  0.00    -0.025 C 
ATOM      5  C   UNL     1     131.801 127.665 126.133  1.00  0.00     0.020 C 
BRANCH   5   6
ATOM      6  C   UNL     1     131.060 128.128 127.325  1.00  0.00     0.064 C 
ATOM      7  O   UNL     1     129.839 128.429 127.278  1.00  0.00    -0.545 OA
ATOM      8  O   UNL     1     131.727 128.210 128.540  1.00  0.00    -0.545 OA
ENDBRANCH   5   6
ENDBRANCH   3   4
ENDBRANCH   2   3
ENDBRANCH   1   2
BRANCH   1   9
ATOM      9  C   UNL     1     128.020 125.528 125.871  1.00  0.00     0.000 C 
BRANCH   9  10
ATOM     10  C   UNL     1     128.577 126.451 124.775  1.00  0.00     0.000 C 
BRANCH  10  11
ATOM     11  C   UNL     1     127.540 126.766 123.684  1.00  0.00    -0.000 C 
BRANCH  11  12
ATOM     12  C   UNL     1     127.960 127.946 122.793  1.00  0.00    -0.000 C 
BRANCH  12  13
ATOM     13  C   UNL     1     126.920 128.272 121.711  1.00  0.00    -0.003 C 
ATOM     14  C   UNL     1     126.079 129.483 122.103  1.00  0.00     0.004 C 
ENDBRANCH  12  13
ENDBRANCH  11  12
ENDBRANCH  10  11
ENDBRANCH   9  10
ENDBRANCH   1   9
TORSDOF 9
ENDMDL
MODEL 9
REMARK VINA RESULT:    -4.878      3.275      4.781
REMARK INTER + INTRA:          -8.406
REMARK INTER:                  -7.412
REMARK INTRA:                  -0.994
REMARK UNBOUND:                -0.961
REMARK SMILES CCCCCCCCCC=CC(=O)[O-]
REMARK SMILES IDX 7 1 8 2 9 3 10 4 11 5 12 6 13 7 14 8 6 9 5 10 4 11 3 12 2 13
REMARK SMILES IDX 1 14
REMARK H PARENT
REMARK Flexibility Score: inf
ROOT
ATOM      1  C   UNL     1     130.350 125.332 124.745  1.00  0.00     0.000 C 
ENDROOT
BRANCH   1   2
ATOM      2  C   UNL     1     130.391 124.455 126.005  1.00  0.00     0.004 C 
BRANCH   2   3
ATOM      3  C   UNL     1     128.982 124.086 126.498  1.00  0.00     0.027 C 
BRANCH   3   4
ATOM      4  C   UNL     1     128.193 125.292 126.935  1.00  0.00    -0.025 C 
ATOM      5  C   UNL     1     127.448 125.388 128.048  1.00  0.00     0.020 C 
BRANCH   5   6
ATOM      6  C   UNL     1     127.288 124.357 129.094  1.00  0.00     0.064 C 
ATOM      7  O   UNL     1     128.128 124.205 130.018  1.00  0.00    -0.545 OA
ATOM      8  O   UNL     1     126.161 123.545 129.069  1.00  0.00    -0.545 OA
ENDBRANCH   5   6
ENDBRANCH   3   4
ENDBRANCH   2   3
ENDBRANCH   1   2
BRANCH   1   9
ATOM      9  C   UNL     1     131.655 126.128 124.587  1.00  0.00     0.000 C 
BRANCH   9  10
ATOM     10  C   UNL     1     132.252 126.564 125.935  1.00  0.00     0.000 C 
BRANCH  10  11
ATOM     11  C   UNL     1     131.732 127.936 126.395  1.00  0.00    -0.000 C 
BRANCH  11  12
ATOM     12  C   UNL     1     130.787 127.835 127.603  1.00  0.00    -0.000 C 
BRANCH  12  13
ATOM     13  C   UNL     1     131.506 128.060 128.941  1.00  0.00    -0.003 C 
ATOM     14  C   UNL     1     132.478 129.232 128.852  1.00  0.00     0.004 C 
ENDBRANCH  12  13
ENDBRANCH  11  12
ENDBRANCH  10  11
ENDBRANCH   9  10
ENDBRANCH   1   9
TORSDOF 9
ENDMDL
