MODEL 1
REMARK VINA RESULT:    -4.245      0.000      0.000
REMARK INTER + INTRA:          -9.746
REMARK INTER:                  -7.967
REMARK INTRA:                  -1.778
REMARK UNBOUND:                -1.778
REMARK SMILES O=C([O-])CCCCCCCCCCCCCCC(=O)[O-]
REMARK SMILES IDX 10 1 9 2 8 3 7 4 6 5 5 6 4 7 2 8 1 9 3 10 11 11 12 12 13 13
REMARK SMILES IDX 14 14 15 15 16 16 17 17 18 18 19 19 20 20
REMARK H PARENT
REMARK Flexibility Score: inf
ROOT
ATOM      1  C   UNL     1      -2.800   6.119 -37.251  1.00  0.00     0.000 C 
ENDROOT
BRANCH   1   2
ATOM      2  C   UNL     1      -1.950   7.394 -37.101  1.00  0.00     0.000 C 
BRANCH   2   3
ATOM      3  C   UNL     1      -1.260   7.558 -35.733  1.00  0.00     0.000 C 
BRANCH   3   4
ATOM      4  C   UNL     1      -2.002   8.515 -34.774  1.00  0.00     0.000 C 
BRANCH   4   5
ATOM      5  C   UNL     1      -3.121   9.301 -35.479  1.00  0.00     0.000 C 
BRANCH   5   6
ATOM      6  C   UNL     1      -4.502   9.072 -34.837  1.00  0.00     0.006 C 
BRANCH   6   7
ATOM      7  C   UNL     1      -4.706   7.654 -34.280  1.00  0.00     0.053 C 
BRANCH   7   8
ATOM      8  C   UNL     1      -6.005   7.056 -34.727  1.00  0.00     0.041 C 
ATOM      9  O   UNL     1      -6.389   7.192 -35.917  1.00  0.00    -0.550 OA
ATOM     10  O   UNL     1      -6.802   6.367 -33.820  1.00  0.00    -0.550 OA
ENDBRANCH   7   8
ENDBRANCH   6   7
ENDBRANCH   5   6
ENDBRANCH   4   5
ENDBRANCH   3   4
ENDBRANCH   2   3
ENDBRANCH   1   2
BRANCH   1  11
ATOM     11  C   UNL     1      -3.959   6.225 -38.260  1.00  0.00     0.000 C 
BRANCH  11  12
ATOM     12  C   UNL     1      -4.279   4.890 -38.946  1.00  0.00     0.000 C 
BRANCH  12  13
ATOM     13  C   UNL     1      -3.512   3.735 -38.285  1.00  0.00     0.000 C 
BRANCH  13  14
ATOM     14  C   UNL     1      -4.442   2.744 -37.568  1.00  0.00     0.000 C 
BRANCH  14  15
ATOM     15  C   UNL     1      -5.912   3.201 -37.579  1.00  0.00     0.000 C 
BRANCH  15  16
ATOM     16  C   UNL     1      -6.419   3.593 -36.182  1.00  0.00     0.006 C 
BRANCH  16  17
ATOM     17  C   UNL     1      -7.902   3.989 -36.184  1.00  0.00     0.053 C 
BRANCH  17  18
ATOM     18  C   UNL     1      -8.627   3.298 -35.071  1.00  0.00     0.041 C 
ATOM     19  O   UNL     1      -8.211   3.396 -33.887  1.00  0.00    -0.550 OA
ATOM     20  O   UNL     1      -9.732   2.505 -35.350  1.00  0.00    -0.550 OA
ENDBRANCH  17  18
ENDBRANCH  16  17
ENDBRANCH  15  16
ENDBRANCH  14  15
ENDBRANCH  13  14
ENDBRANCH  12  13
ENDBRANCH  11  12
ENDBRANCH   1  11
TORSDOF 15
ENDMDL
MODEL 2
REMARK VINA RESULT:    -4.233      1.223      2.120
REMARK INTER + INTRA:          -9.723
REMARK INTER:                  -8.189
REMARK INTRA:                  -1.533
REMARK UNBOUND:                -1.778
REMARK SMILES O=C([O-])CCCCCCCCCCCCCCC(=O)[O-]
REMARK SMILES IDX 10 1 9 2 8 3 7 4 6 5 5 6 4 7 2 8 1 9 3 10 11 11 12 12 13 13
REMARK SMILES IDX 14 14 15 15 16 16 17 17 18 18 19 19 20 20
REMARK H PARENT
REMARK Flexibility Score: inf
ROOT
ATOM      1  C   UNL     1      -1.838   7.568 -36.669  1.00  0.00     0.000 C 
ENDROOT
BRANCH   1   2
ATOM      2  C   UNL     1      -1.920   7.665 -35.134  1.00  0.00     0.000 C 
BRANCH   2   3
ATOM      3  C   UNL     1      -2.910   8.717 -34.600  1.00  0.00     0.000 C 
BRANCH   3   4
ATOM      4  C   UNL     1      -4.030   9.081 -35.599  1.00  0.00     0.000 C 
BRANCH   4   5
ATOM      5  C   UNL     1      -5.207   8.091 -35.547  1.00  0.00     0.000 C 
BRANCH   5   6
ATOM      6  C   UNL     1      -5.523   7.620 -34.115  1.00  0.00     0.006 C 
BRANCH   6   7
ATOM      7  C   UNL     1      -6.429   6.379 -34.050  1.00  0.00     0.053 C 
BRANCH   7   8
ATOM      8  C   UNL     1      -7.281   6.370 -32.818  1.00  0.00     0.041 C 
ATOM      9  O   UNL     1      -8.476   5.982 -32.878  1.00  0.00    -0.550 OA
ATOM     10  O   UNL     1      -6.759   6.811 -31.608  1.00  0.00    -0.550 OA
ENDBRANCH   7   8
ENDBRANCH   6   7
ENDBRANCH   5   6
ENDBRANCH   4   5
ENDBRANCH   3   4
ENDBRANCH   2   3
ENDBRANCH   1   2
BRANCH   1  11
ATOM     11  C   UNL     1      -2.382   6.259 -37.268  1.00  0.00     0.000 C 
BRANCH  11  12
ATOM     12  C   UNL     1      -3.551   6.485 -38.238  1.00  0.00     0.000 C 
BRANCH  12  13
ATOM     13  C   UNL     1      -4.277   5.165 -38.539  1.00  0.00     0.000 C 
BRANCH  13  14
ATOM     14  C   UNL     1      -3.491   3.936 -38.056  1.00  0.00     0.000 C 
BRANCH  14  15
ATOM     15  C   UNL     1      -4.389   2.899 -37.357  1.00  0.00     0.000 C 
BRANCH  15  16
ATOM     16  C   UNL     1      -5.869   3.313 -37.343  1.00  0.00     0.006 C 
BRANCH  16  17
ATOM     17  C   UNL     1      -6.415   3.494 -35.920  1.00  0.00     0.053 C 
BRANCH  17  18
ATOM     18  C   UNL     1      -7.899   3.295 -35.902  1.00  0.00     0.041 C 
ATOM     19  O   UNL     1      -8.553   3.311 -36.978  1.00  0.00    -0.550 OA
ATOM     20  O   UNL     1      -8.565   3.143 -34.693  1.00  0.00    -0.550 OA
ENDBRANCH  17  18
ENDBRANCH  16  17
ENDBRANCH  15  16
ENDBRANCH  14  15
ENDBRANCH  13  14
ENDBRANCH  12  13
ENDBRANCH  11  12
ENDBRANCH   1  11
TORSDOF 15
ENDMDL
MODEL 3
REMARK VINA RESULT:    -4.200     15.697     16.808
REMARK INTER + INTRA:          -9.662
REMARK INTER:                  -8.399
REMARK INTRA:                  -1.263
REMARK UNBOUND:                -1.778
REMARK SMILES O=C([O-])CCCCCCCCCCCCCCC(=O)[O-]
REMARK SMILES IDX 10 1 9 2 8 3 7 4 6 5 5 6 4 7 2 8 1 9 3 10 11 11 12 12 13 13
REMARK SMILES IDX 14 14 15 15 16 16 17 17 18 18 19 19 20 20
REMARK H PARENT
REMARK Flexibility Score: inf
ROOT
ATOM      1  C   UNL     1     -11.441   1.179 -21.999  1.00  0.00     0.000 C 
ENDROOT
BRANCH   1   2
ATOM      2  C   UNL     1     -12.579   1.973 -21.333  1.00  0.00     0.000 C 
BRANCH   2   3
ATOM      3  C   UNL     1     -13.331   2.941 -22.266  1.00  0.00     0.000 C 
BRANCH   3   4
ATOM      4  C   UNL     1     -14.764   2.482 -22.615  1.00  0.00     0.000 C 
BRANCH   4   5
ATOM      5  C   UNL     1     -15.838   3.301 -21.878  1.00  0.00     0.000 C 
BRANCH   5   6
ATOM      6  C   UNL     1     -15.478   4.794 -21.773  1.00  0.00     0.006 C 
BRANCH   6   7
ATOM      7  C   UNL     1     -16.115   5.670 -22.865  1.00  0.00     0.053 C 
BRANCH   7   8
ATOM      8  C   UNL     1     -15.215   5.832 -24.052  1.00  0.00     0.041 C 
ATOM      9  O   UNL     1     -15.699   5.892 -25.211  1.00  0.00    -0.550 OA
ATOM     10  O   UNL     1     -13.837   5.893 -23.877  1.00  0.00    -0.550 OA
ENDBRANCH   7   8
ENDBRANCH   6   7
ENDBRANCH   5   6
ENDBRANCH   4   5
ENDBRANCH   3   4
ENDBRANCH   2   3
ENDBRANCH   1   2
BRANCH   1  11
ATOM     11  C   UNL     1     -10.037   1.789 -21.831  1.00  0.00     0.000 C 
BRANCH  11  12
ATOM     12  C   UNL     1      -9.503   1.673 -20.396  1.00  0.00     0.000 C 
BRANCH  12  13
ATOM     13  C   UNL     1      -8.516   0.502 -20.271  1.00  0.00     0.000 C 
BRANCH  13  14
ATOM     14  C   UNL     1      -9.212  -0.820 -19.913  1.00  0.00     0.000 C 
BRANCH  14  15
ATOM     15  C   UNL     1      -9.179  -1.836 -21.069  1.00  0.00     0.000 C 
BRANCH  15  16
ATOM     16  C   UNL     1     -10.584  -2.296 -21.490  1.00  0.00     0.006 C 
BRANCH  16  17
ATOM     17  C   UNL     1     -10.713  -2.475 -23.009  1.00  0.00     0.053 C 
BRANCH  17  18
ATOM     18  C   UNL     1     -12.147  -2.374 -23.426  1.00  0.00     0.041 C 
ATOM     19  O   UNL     1     -13.021  -1.993 -22.603  1.00  0.00    -0.550 OA
ATOM     20  O   UNL     1     -12.526  -2.748 -24.708  1.00  0.00    -0.550 OA
ENDBRANCH  17  18
ENDBRANCH  16  17
ENDBRANCH  15  16
ENDBRANCH  14  15
ENDBRANCH  13  14
ENDBRANCH  12  13
ENDBRANCH  11  12
ENDBRANCH   1  11
TORSDOF 15
ENDMDL
MODEL 4
REMARK VINA RESULT:    -4.199      1.845      3.124
REMARK INTER + INTRA:          -9.660
REMARK INTER:                  -7.954
REMARK INTRA:                  -1.706
REMARK UNBOUND:                -1.778
REMARK SMILES O=C([O-])CCCCCCCCCCCCCCC(=O)[O-]
REMARK SMILES IDX 10 1 9 2 8 3 7 4 6 5 5 6 4 7 2 8 1 9 3 10 11 11 12 12 13 13
REMARK SMILES IDX 14 14 15 15 16 16 17 17 18 18 19 19 20 20
REMARK H PARENT
REMARK Flexibility Score: inf
ROOT
ATOM      1  C   UNL     1      -4.653   6.481 -37.812  1.00  0.00     0.000 C 
ENDROOT
BRANCH   1   2
ATOM      2  C   UNL     1      -3.117   6.591 -37.808  1.00  0.00     0.000 C 
BRANCH   2   3
ATOM      3  C   UNL     1      -2.567   8.019 -37.990  1.00  0.00     0.000 C 
BRANCH   3   4
ATOM      4  C   UNL     1      -1.360   8.340 -37.081  1.00  0.00     0.000 C 
BRANCH   4   5
ATOM      5  C   UNL     1      -1.272   7.399 -35.868  1.00  0.00     0.000 C 
BRANCH   5   6
ATOM      6  C   UNL     1      -1.745   8.068 -34.563  1.00  0.00     0.006 C 
BRANCH   6   7
ATOM      7  C   UNL     1      -3.273   8.127 -34.408  1.00  0.00     0.053 C 
BRANCH   7   8
ATOM      8  C   UNL     1      -3.770   9.533 -34.271  1.00  0.00     0.041 C 
ATOM      9  O   UNL     1      -4.988   9.795 -34.447  1.00  0.00    -0.550 OA
ATOM     10  O   UNL     1      -2.881  10.559 -33.971  1.00  0.00    -0.550 OA
ENDBRANCH   7   8
ENDBRANCH   6   7
ENDBRANCH   5   6
ENDBRANCH   4   5
ENDBRANCH   3   4
ENDBRANCH   2   3
ENDBRANCH   1   2
BRANCH   1  11
ATOM     11  C   UNL     1      -5.209   5.166 -38.390  1.00  0.00     0.000 C 
BRANCH  11  12
ATOM     12  C   UNL     1      -4.457   3.926 -37.885  1.00  0.00     0.000 C 
BRANCH  12  13
ATOM     13  C   UNL     1      -5.401   2.985 -37.120  1.00  0.00     0.000 C 
BRANCH  13  14
ATOM     14  C   UNL     1      -6.745   3.648 -36.780  1.00  0.00     0.000 C 
BRANCH  14  15
ATOM     15  C   UNL     1      -6.855   4.031 -35.293  1.00  0.00     0.000 C 
BRANCH  15  16
ATOM     16  C   UNL     1      -7.368   5.465 -35.090  1.00  0.00     0.006 C 
BRANCH  16  17
ATOM     17  C   UNL     1      -6.437   6.302 -34.201  1.00  0.00     0.053 C 
BRANCH  17  18
ATOM     18  C   UNL     1      -7.063   6.530 -32.860  1.00  0.00     0.041 C 
ATOM     19  O   UNL     1      -6.757   7.546 -32.183  1.00  0.00    -0.550 OA
ATOM     20  O   UNL     1      -7.944   5.594 -32.337  1.00  0.00    -0.550 OA
ENDBRANCH  17  18
ENDBRANCH  16  17
ENDBRANCH  15  16
ENDBRANCH  14  15
ENDBRANCH  13  14
ENDBRANCH  12  13
ENDBRANCH  11  12
ENDBRANCH   1  11
TORSDOF 15
ENDMDL
MODEL 5
REMARK VINA RESULT:    -4.141     15.487     17.451
REMARK INTER + INTRA:          -9.551
REMARK INTER:                  -8.220
REMARK INTRA:                  -1.331
REMARK UNBOUND:                -1.778
REMARK SMILES O=C([O-])CCCCCCCCCCCCCCC(=O)[O-]
REMARK SMILES IDX 10 1 9 2 8 3 7 4 6 5 5 6 4 7 2 8 1 9 3 10 11 11 12 12 13 13
REMARK SMILES IDX 14 14 15 15 16 16 17 17 18 18 19 19 20 20
REMARK H PARENT
REMARK Flexibility Score: inf
ROOT
ATOM      1  C   UNL     1     -13.237   2.289 -20.558  1.00  0.00     0.000 C 
ENDROOT
BRANCH   1   2
ATOM      2  C   UNL     1     -12.717   2.144 -19.116  1.00  0.00     0.000 C 
BRANCH   2   3
ATOM      3  C   UNL     1     -11.492   1.224 -18.955  1.00  0.00     0.000 C 
BRANCH   3   4
ATOM      4  C   UNL     1     -10.152   1.903 -19.316  1.00  0.00     0.000 C 
BRANCH   4   5
ATOM      5  C   UNL     1      -9.200   0.960 -20.071  1.00  0.00     0.000 C 
BRANCH   5   6
ATOM      6  C   UNL     1      -8.997   1.373 -21.541  1.00  0.00     0.006 C 
BRANCH   6   7
ATOM      7  C   UNL     1     -10.221   1.122 -22.436  1.00  0.00     0.053 C 
BRANCH   7   8
ATOM      8  C   UNL     1     -10.666  -0.308 -22.392  1.00  0.00     0.041 C 
ATOM      9  O   UNL     1      -9.921  -1.218 -22.840  1.00  0.00    -0.550 OA
ATOM     10  O   UNL     1     -11.915  -0.633 -21.875  1.00  0.00    -0.550 OA
ENDBRANCH   7   8
ENDBRANCH   6   7
ENDBRANCH   5   6
ENDBRANCH   4   5
ENDBRANCH   3   4
ENDBRANCH   2   3
ENDBRANCH   1   2
BRANCH   1  11
ATOM     11  C   UNL     1     -14.429   3.248 -20.726  1.00  0.00     0.000 C 
BRANCH  11  12
ATOM     12  C   UNL     1     -15.286   2.928 -21.959  1.00  0.00     0.000 C 
BRANCH  12  13
ATOM     13  C   UNL     1     -14.587   3.386 -23.248  1.00  0.00     0.000 C 
BRANCH  13  14
ATOM     14  C   UNL     1     -13.905   4.754 -23.094  1.00  0.00     0.000 C 
BRANCH  14  15
ATOM     15  C   UNL     1     -14.270   5.727 -24.230  1.00  0.00     0.000 C 
BRANCH  15  16
ATOM     16  C   UNL     1     -15.781   5.772 -24.505  1.00  0.00     0.006 C 
BRANCH  16  17
ATOM     17  C   UNL     1     -16.421   7.095 -24.062  1.00  0.00     0.053 C 
BRANCH  17  18
ATOM     18  C   UNL     1     -17.247   6.888 -22.830  1.00  0.00     0.041 C 
ATOM     19  O   UNL     1     -18.415   7.352 -22.765  1.00  0.00    -0.550 OA
ATOM     20  O   UNL     1     -16.706   6.226 -21.736  1.00  0.00    -0.550 OA
ENDBRANCH  17  18
ENDBRANCH  16  17
ENDBRANCH  15  16
ENDBRANCH  14  15
ENDBRANCH  13  14
ENDBRANCH  12  13
ENDBRANCH  11  12
ENDBRANCH   1  11
TORSDOF 15
ENDMDL
MODEL 6
REMARK VINA RESULT:    -4.119     15.659     17.629
REMARK INTER + INTRA:          -9.510
REMARK INTER:                  -8.223
REMARK INTRA:                  -1.287
REMARK UNBOUND:                -1.778
REMARK SMILES O=C([O-])CCCCCCCCCCCCCCC(=O)[O-]
REMARK SMILES IDX 10 1 9 2 8 3 7 4 6 5 5 6 4 7 2 8 1 9 3 10 11 11 12 12 13 13
REMARK SMILES IDX 14 14 15 15 16 16 17 17 18 18 19 19 20 20
REMARK H PARENT
REMARK Flexibility Score: inf
ROOT
ATOM      1  C   UNL     1     -14.597   4.004 -20.006  1.00  0.00     0.000 C 
ENDROOT
BRANCH   1   2
ATOM      2  C   UNL     1     -14.319   2.629 -19.370  1.00  0.00     0.000 C 
BRANCH   2   3
ATOM      3  C   UNL     1     -12.863   2.140 -19.486  1.00  0.00     0.000 C 
BRANCH   3   4
ATOM      4  C   UNL     1     -12.334   2.100 -20.937  1.00  0.00     0.000 C 
BRANCH   4   5
ATOM      5  C   UNL     1     -11.962   0.677 -21.386  1.00  0.00     0.000 C 
BRANCH   5   6
ATOM      6  C   UNL     1     -10.529   0.283 -20.984  1.00  0.00     0.006 C 
BRANCH   6   7
ATOM      7  C   UNL     1      -9.451   1.267 -21.466  1.00  0.00     0.053 C 
BRANCH   7   8
ATOM      8  C   UNL     1      -8.620   1.789 -20.334  1.00  0.00     0.041 C 
ATOM      9  O   UNL     1      -7.371   1.638 -20.342  1.00  0.00    -0.550 OA
ATOM     10  O   UNL     1      -9.230   2.423 -19.258  1.00  0.00    -0.550 OA
ENDBRANCH   7   8
ENDBRANCH   6   7
ENDBRANCH   5   6
ENDBRANCH   4   5
ENDBRANCH   3   4
ENDBRANCH   2   3
ENDBRANCH   1   2
BRANCH   1  11
ATOM     11  C   UNL     1     -15.682   4.008 -21.098  1.00  0.00     0.000 C 
BRANCH  11  12
ATOM     12  C   UNL     1     -15.488   2.895 -22.138  1.00  0.00     0.000 C 
BRANCH  12  13
ATOM     13  C   UNL     1     -14.758   3.427 -23.381  1.00  0.00     0.000 C 
BRANCH  13  14
ATOM     14  C   UNL     1     -14.022   4.748 -23.111  1.00  0.00     0.000 C 
BRANCH  14  15
ATOM     15  C   UNL     1     -14.362   5.836 -24.147  1.00  0.00     0.000 C 
BRANCH  15  16
ATOM     16  C   UNL     1     -15.851   5.844 -24.527  1.00  0.00     0.006 C 
BRANCH  16  17
ATOM     17  C   UNL     1     -16.722   6.547 -23.476  1.00  0.00     0.053 C 
BRANCH  17  18
ATOM     18  C   UNL     1     -16.797   8.015 -23.759  1.00  0.00     0.041 C 
ATOM     19  O   UNL     1     -16.341   8.477 -24.838  1.00  0.00    -0.550 OA
ATOM     20  O   UNL     1     -17.323   8.879 -22.808  1.00  0.00    -0.550 OA
ENDBRANCH  17  18
ENDBRANCH  16  17
ENDBRANCH  15  16
ENDBRANCH  14  15
ENDBRANCH  13  14
ENDBRANCH  12  13
ENDBRANCH  11  12
ENDBRANCH   1  11
TORSDOF 15
ENDMDL
MODEL 7
REMARK VINA RESULT:    -4.109     13.224     15.833
REMARK INTER + INTRA:          -9.490
REMARK INTER:                  -7.959
REMARK INTRA:                  -1.532
REMARK UNBOUND:                -1.778
REMARK SMILES O=C([O-])CCCCCCCCCCCCCCC(=O)[O-]
REMARK SMILES IDX 10 1 9 2 8 3 7 4 6 5 5 6 4 7 2 8 1 9 3 10 11 11 12 12 13 13
REMARK SMILES IDX 14 14 15 15 16 16 17 17 18 18 19 19 20 20
REMARK H PARENT
REMARK Flexibility Score: inf
ROOT
ATOM      1  C   UNL     1     -10.122  -1.344 -22.377  1.00  0.00     0.000 C 
ENDROOT
BRANCH   1   2
ATOM      2  C   UNL     1     -10.343   0.055 -22.982  1.00  0.00     0.000 C 
BRANCH   2   3
ATOM      3  C   UNL     1      -9.849   1.226 -22.111  1.00  0.00     0.000 C 
BRANCH   3   4
ATOM      4  C   UNL     1     -10.987   2.018 -21.430  1.00  0.00     0.000 C 
BRANCH   4   5
ATOM      5  C   UNL     1     -12.376   1.624 -21.962  1.00  0.00     0.000 C 
BRANCH   5   6
ATOM      6  C   UNL     1     -13.446   2.695 -21.680  1.00  0.00     0.006 C 
BRANCH   6   7
ATOM      7  C   UNL     1     -14.387   2.966 -22.864  1.00  0.00     0.053 C 
BRANCH   7   8
ATOM      8  C   UNL     1     -14.285   4.378 -23.353  1.00  0.00     0.041 C 
ATOM      9  O   UNL     1     -13.604   5.222 -22.714  1.00  0.00    -0.550 OA
ATOM     10  O   UNL     1     -14.962   4.768 -24.502  1.00  0.00    -0.550 OA
ENDBRANCH   7   8
ENDBRANCH   6   7
ENDBRANCH   5   6
ENDBRANCH   4   5
ENDBRANCH   3   4
ENDBRANCH   2   3
ENDBRANCH   1   2
BRANCH   1  11
ATOM     11  C   UNL     1     -11.376  -1.993 -21.763  1.00  0.00     0.000 C 
BRANCH  11  12
ATOM     12  C   UNL     1     -12.633  -1.797 -22.624  1.00  0.00     0.000 C 
BRANCH  12  13
ATOM     13  C   UNL     1     -13.326  -3.141 -22.897  1.00  0.00     0.000 C 
BRANCH  13  14
ATOM     14  C   UNL     1     -12.418  -4.132 -23.639  1.00  0.00     0.000 C 
BRANCH  14  15
ATOM     15  C   UNL     1     -12.003  -3.624 -25.033  1.00  0.00     0.000 C 
BRANCH  15  16
ATOM     16  C   UNL     1     -10.492  -3.744 -25.279  1.00  0.00     0.006 C 
BRANCH  16  17
ATOM     17  C   UNL     1      -9.908  -2.504 -25.972  1.00  0.00     0.053 C 
BRANCH  17  18
ATOM     18  C   UNL     1      -9.726  -2.763 -27.435  1.00  0.00     0.041 C 
ATOM     19  O   UNL     1     -10.413  -3.645 -28.014  1.00  0.00    -0.550 OA
ATOM     20  O   UNL     1      -8.760  -2.066 -28.149  1.00  0.00    -0.550 OA
ENDBRANCH  17  18
ENDBRANCH  16  17
ENDBRANCH  15  16
ENDBRANCH  14  15
ENDBRANCH  13  14
ENDBRANCH  12  13
ENDBRANCH  11  12
ENDBRANCH   1  11
TORSDOF 15
ENDMDL
MODEL 8
REMARK VINA RESULT:    -4.109     12.440     15.324
REMARK INTER + INTRA:          -9.490
REMARK INTER:                  -7.772
REMARK INTRA:                  -1.718
REMARK UNBOUND:                -1.778
REMARK SMILES O=C([O-])CCCCCCCCCCCCCCC(=O)[O-]
REMARK SMILES IDX 10 1 9 2 8 3 7 4 6 5 5 6 4 7 2 8 1 9 3 10 11 11 12 12 13 13
REMARK SMILES IDX 14 14 15 15 16 16 17 17 18 18 19 19 20 20
REMARK H PARENT
REMARK Flexibility Score: inf
ROOT
ATOM      1  C   UNL     1      -9.645  -2.458 -25.677  1.00  0.00     0.000 C 
ENDROOT
BRANCH   1   2
ATOM      2  C   UNL     1      -8.613  -3.138 -26.594  1.00  0.00     0.000 C 
BRANCH   2   3
ATOM      3  C   UNL     1      -8.733  -2.780 -28.088  1.00  0.00     0.000 C 
BRANCH   3   4
ATOM      4  C   UNL     1     -10.190  -2.610 -28.570  1.00  0.00     0.000 C 
BRANCH   4   5
ATOM      5  C   UNL     1     -10.848  -3.951 -28.935  1.00  0.00     0.000 C 
BRANCH   5   6
ATOM      6  C   UNL     1     -12.375  -3.939 -28.732  1.00  0.00     0.006 C 
BRANCH   6   7
ATOM      7  C   UNL     1     -13.074  -2.699 -29.313  1.00  0.00     0.053 C 
BRANCH   7   8
ATOM      8  C   UNL     1     -13.233  -2.789 -30.800  1.00  0.00     0.041 C 
ATOM      9  O   UNL     1     -14.016  -3.635 -31.303  1.00  0.00    -0.550 OA
ATOM     10  O   UNL     1     -12.497  -1.952 -31.630  1.00  0.00    -0.550 OA
ENDBRANCH   7   8
ENDBRANCH   6   7
ENDBRANCH   5   6
ENDBRANCH   4   5
ENDBRANCH   3   4
ENDBRANCH   2   3
ENDBRANCH   1   2
BRANCH   1  11
ATOM     11  C   UNL     1     -10.442  -3.416 -24.772  1.00  0.00     0.000 C 
BRANCH  11  12
ATOM     12  C   UNL     1     -11.919  -3.529 -25.175  1.00  0.00     0.000 C 
BRANCH  12  13
ATOM     13  C   UNL     1     -12.805  -2.671 -24.259  1.00  0.00     0.000 C 
BRANCH  13  14
ATOM     14  C   UNL     1     -12.379  -2.750 -22.785  1.00  0.00     0.000 C 
BRANCH  14  15
ATOM     15  C   UNL     1     -12.127  -1.362 -22.167  1.00  0.00     0.000 C 
BRANCH  15  16
ATOM     16  C   UNL     1     -10.632  -1.027 -22.060  1.00  0.00     0.006 C 
BRANCH  16  17
ATOM     17  C   UNL     1     -10.220   0.130 -22.982  1.00  0.00     0.053 C 
BRANCH  17  18
ATOM     18  C   UNL     1      -9.830   1.327 -22.173  1.00  0.00     0.041 C 
ATOM     19  O   UNL     1      -8.617   1.642 -22.051  1.00  0.00    -0.550 OA
ATOM     20  O   UNL     1     -10.802   2.066 -21.512  1.00  0.00    -0.550 OA
ENDBRANCH  17  18
ENDBRANCH  16  17
ENDBRANCH  15  16
ENDBRANCH  14  15
ENDBRANCH  13  14
ENDBRANCH  12  13
ENDBRANCH  11  12
ENDBRANCH   1  11
TORSDOF 15
ENDMDL
MODEL 9
REMARK VINA RESULT:    -4.084      9.917     13.460
REMARK INTER + INTRA:          -9.443
REMARK INTER:                  -7.301
REMARK INTRA:                  -2.142
REMARK UNBOUND:                -1.778
REMARK SMILES O=C([O-])CCCCCCCCCCCCCCC(=O)[O-]
REMARK SMILES IDX 10 1 9 2 8 3 7 4 6 5 5 6 4 7 2 8 1 9 3 10 11 11 12 12 13 13
REMARK SMILES IDX 14 14 15 15 16 16 17 17 18 18 19 19 20 20
REMARK H PARENT
REMARK Flexibility Score: inf
ROOT
ATOM      1  C   UNL     1     -13.471  -2.737 -29.023  1.00  0.00     0.000 C 
ENDROOT
BRANCH   1   2
ATOM      2  C   UNL     1     -12.228  -2.532 -29.908  1.00  0.00     0.000 C 
BRANCH   2   3
ATOM      3  C   UNL     1     -12.065  -3.555 -31.048  1.00  0.00     0.000 C 
BRANCH   3   4
ATOM      4  C   UNL     1     -10.854  -4.497 -30.871  1.00  0.00     0.000 C 
BRANCH   4   5
ATOM      5  C   UNL     1      -9.816  -4.335 -31.995  1.00  0.00     0.000 C 
BRANCH   5   6
ATOM      6  C   UNL     1      -9.538  -2.860 -32.339  1.00  0.00     0.006 C 
BRANCH   6   7
ATOM      7  C   UNL     1      -9.339  -2.594 -33.840  1.00  0.00     0.053 C 
BRANCH   7   8
ATOM      8  C   UNL     1     -10.442  -1.758 -34.414  1.00  0.00     0.041 C 
ATOM      9  O   UNL     1     -10.497  -1.545 -35.652  1.00  0.00    -0.550 OA
ATOM     10  O   UNL     1     -11.397  -1.195 -33.575  1.00  0.00    -0.550 OA
ENDBRANCH   7   8
ENDBRANCH   6   7
ENDBRANCH   5   6
ENDBRANCH   4   5
ENDBRANCH   3   4
ENDBRANCH   2   3
ENDBRANCH   1   2
BRANCH   1  11
ATOM     11  C   UNL     1     -13.732  -4.194 -28.596  1.00  0.00     0.000 C 
BRANCH  11  12
ATOM     12  C   UNL     1     -12.871  -4.631 -27.402  1.00  0.00     0.000 C 
BRANCH  12  13
ATOM     13  C   UNL     1     -12.758  -3.503 -26.365  1.00  0.00     0.000 C 
BRANCH  13  14
ATOM     14  C   UNL     1     -11.309  -3.254 -25.921  1.00  0.00     0.000 C 
BRANCH  14  15
ATOM     15  C   UNL     1     -10.289  -3.568 -27.031  1.00  0.00     0.000 C 
BRANCH  15  16
ATOM     16  C   UNL     1      -9.364  -2.380 -27.336  1.00  0.00     0.006 C 
BRANCH  16  17
ATOM     17  C   UNL     1      -8.657  -2.517 -28.692  1.00  0.00     0.053 C 
BRANCH  17  18
ATOM     18  C   UNL     1      -7.571  -3.544 -28.611  1.00  0.00     0.041 C 
ATOM     19  O   UNL     1      -7.435  -4.396 -29.528  1.00  0.00    -0.550 OA
ATOM     20  O   UNL     1      -6.741  -3.590 -27.499  1.00  0.00    -0.550 OA
ENDBRANCH  17  18
ENDBRANCH  16  17
ENDBRANCH  15  16
ENDBRANCH  14  15
ENDBRANCH  13  14
ENDBRANCH  12  13
ENDBRANCH  11  12
ENDBRANCH   1  11
TORSDOF 15
ENDMDL
