MODEL 1
REMARK VINA RESULT:    -3.362      0.000      0.000
REMARK INTER + INTRA:          -3.922
REMARK INTER:                  -3.853
REMARK INTRA:                  -0.069
REMARK UNBOUND:                -0.069
REMARK SMILES COc1cc(C=O)ccc1O
REMARK SMILES IDX 3 1 10 2 9 3 8 4 5 5 4 6 2 7 1 8 11 9 6 11 7 12
REMARK H PARENT 11 10
REMARK Flexibility Score: inf
ROOT
ATOM      1  C   UNL     1      37.612  32.195  34.007  1.00  0.00     0.161 A 
ATOM      2  C   UNL     1      36.549  32.901  34.601  1.00  0.00     0.157 A 
ATOM      3  C   UNL     1      35.823  32.323  35.647  1.00  0.00     0.051 A 
ATOM      4  C   UNL     1      36.144  31.046  36.110  1.00  0.00     0.015 A 
ATOM      5  C   UNL     1      37.200  30.328  35.530  1.00  0.00     0.018 A 
ATOM      6  C   UNL     1      37.930  30.905  34.479  1.00  0.00     0.062 A 
ENDROOT
BRANCH   1   7
ATOM      7  O   UNL     1      38.323  32.799  32.958  1.00  0.00    -0.493 OA
ATOM      8  C   UNL     1      38.354  32.316  31.619  1.00  0.00     0.278 C 
ENDBRANCH   1   7
BRANCH   2   9
ATOM      9  O   UNL     1      36.200  34.179  34.165  1.00  0.00    -0.504 OA
ATOM     10  H   UNL     1      36.845  34.770  33.656  1.00  0.00     0.293 HD
ENDBRANCH   2   9
BRANCH   5  11
ATOM     11  C   UNL     1      37.552  28.977  36.006  1.00  0.00     0.260 C 
ATOM     12  O   UNL     1      36.756  28.010  35.871  1.00  0.00    -0.298 OA
ENDBRANCH   5  11
TORSDOF 3
ENDMDL
MODEL 2
REMARK VINA RESULT:    -2.940      2.128      4.206
REMARK INTER + INTRA:          -3.439
REMARK INTER:                  -3.387
REMARK INTRA:                  -0.052
REMARK UNBOUND:                -0.069
REMARK SMILES COc1cc(C=O)ccc1O
REMARK SMILES IDX 3 1 10 2 9 3 8 4 5 5 4 6 2 7 1 8 11 9 6 11 7 12
REMARK H PARENT 11 10
REMARK Flexibility Score: inf
ROOT
ATOM      1  C   UNL     1      38.336  32.171  33.881  1.00  0.00     0.161 A 
ATOM      2  C   UNL     1      38.700  33.510  33.649  1.00  0.00     0.157 A 
ATOM      3  C   UNL     1      39.092  33.917  32.369  1.00  0.00     0.051 A 
ATOM      4  C   UNL     1      39.125  33.003  31.316  1.00  0.00     0.015 A 
ATOM      5  C   UNL     1      38.764  31.664  31.529  1.00  0.00     0.018 A 
ATOM      6  C   UNL     1      38.371  31.253  32.812  1.00  0.00     0.062 A 
ENDROOT
BRANCH   1   7
ATOM      7  O   UNL     1      37.947  31.790  35.176  1.00  0.00    -0.493 OA
ATOM      8  C   UNL     1      37.895  30.446  35.641  1.00  0.00     0.278 C 
ENDBRANCH   1   7
BRANCH   2   9
ATOM      9  O   UNL     1      38.680  34.451  34.677  1.00  0.00    -0.504 OA
ATOM     10  H   UNL     1      39.529  34.824  35.086  1.00  0.00     0.293 HD
ENDBRANCH   2   9
BRANCH   5  11
ATOM     11  C   UNL     1      38.793  30.684  30.427  1.00  0.00     0.260 C 
ATOM     12  O   UNL     1      37.804  29.941  30.189  1.00  0.00    -0.298 OA
ENDBRANCH   5  11
TORSDOF 3
ENDMDL
MODEL 3
REMARK VINA RESULT:    -2.870      1.839      3.077
REMARK INTER + INTRA:          -3.359
REMARK INTER:                  -3.288
REMARK INTRA:                  -0.071
REMARK UNBOUND:                -0.069
REMARK SMILES COc1cc(C=O)ccc1O
REMARK SMILES IDX 3 1 10 2 9 3 8 4 5 5 4 6 2 7 1 8 11 9 6 11 7 12
REMARK H PARENT 11 10
REMARK Flexibility Score: inf
ROOT
ATOM      1  C   UNL     1      38.668  33.798  33.700  1.00  0.00     0.161 A 
ATOM      2  C   UNL     1      38.750  33.262  32.402  1.00  0.00     0.157 A 
ATOM      3  C   UNL     1      38.455  31.913  32.181  1.00  0.00     0.051 A 
ATOM      4  C   UNL     1      38.077  31.089  33.242  1.00  0.00     0.015 A 
ATOM      5  C   UNL     1      37.989  31.606  34.543  1.00  0.00     0.018 A 
ATOM      6  C   UNL     1      38.286  32.959  34.768  1.00  0.00     0.062 A 
ENDROOT
BRANCH   1   7
ATOM      7  O   UNL     1      38.971  35.155  33.893  1.00  0.00    -0.493 OA
ATOM      8  C   UNL     1      38.057  36.123  34.399  1.00  0.00     0.278 C 
ENDBRANCH   1   7
BRANCH   2   9
ATOM      9  O   UNL     1      39.124  34.056  31.318  1.00  0.00    -0.504 OA
ATOM     10  H   UNL     1      38.449  34.580  30.775  1.00  0.00     0.293 HD
ENDBRANCH   2   9
BRANCH   5  11
ATOM     11  C   UNL     1      37.593  30.749  35.676  1.00  0.00     0.260 C 
ATOM     12  O   UNL     1      37.335  29.527  35.510  1.00  0.00    -0.298 OA
ENDBRANCH   5  11
TORSDOF 3
ENDMDL
MODEL 4
REMARK VINA RESULT:    -2.665      2.643      3.733
REMARK INTER + INTRA:          -3.123
REMARK INTER:                  -3.107
REMARK INTRA:                  -0.016
REMARK UNBOUND:                -0.069
REMARK SMILES COc1cc(C=O)ccc1O
REMARK SMILES IDX 3 1 10 2 9 3 8 4 5 5 4 6 2 7 1 8 11 9 6 11 7 12
REMARK H PARENT 11 10
REMARK Flexibility Score: inf
ROOT
ATOM      1  C   UNL     1      38.802  33.715  33.665  1.00  0.00     0.161 A 
ATOM      2  C   UNL     1      38.329  32.944  34.742  1.00  0.00     0.157 A 
ATOM      3  C   UNL     1      37.999  31.599  34.548  1.00  0.00     0.051 A 
ATOM      4  C   UNL     1      38.135  31.011  33.289  1.00  0.00     0.015 A 
ATOM      5  C   UNL     1      38.605  31.765  32.204  1.00  0.00     0.018 A 
ATOM      6  C   UNL     1      38.937  33.116  32.396  1.00  0.00     0.062 A 
ENDROOT
BRANCH   1   7
ATOM      7  O   UNL     1      39.125  35.063  33.888  1.00  0.00    -0.493 OA
ATOM      8  C   UNL     1      38.177  36.125  33.937  1.00  0.00     0.278 C 
ENDBRANCH   1   7
BRANCH   2   9
ATOM      9  O   UNL     1      38.180  33.497  36.013  1.00  0.00    -0.504 OA
ATOM     10  H   UNL     1      38.859  34.136  36.407  1.00  0.00     0.293 HD
ENDBRANCH   2   9
BRANCH   5  11
ATOM     11  C   UNL     1      38.755  31.161  30.866  1.00  0.00     0.260 C 
ATOM     12  O   UNL     1      37.995  30.233  30.482  1.00  0.00    -0.298 OA
ENDBRANCH   5  11
TORSDOF 3
ENDMDL
MODEL 5
REMARK VINA RESULT:    -2.542      1.566      3.852
REMARK INTER + INTRA:          -2.982
REMARK INTER:                  -2.920
REMARK INTRA:                  -0.063
REMARK UNBOUND:                -0.069
REMARK SMILES COc1cc(C=O)ccc1O
REMARK SMILES IDX 3 1 10 2 9 3 8 4 5 5 4 6 2 7 1 8 11 9 6 11 7 12
REMARK H PARENT 11 10
REMARK Flexibility Score: inf
ROOT
ATOM      1  C   UNL     1      37.926  31.926  33.970  1.00  0.00     0.161 A 
ATOM      2  C   UNL     1      37.430  31.165  35.044  1.00  0.00     0.157 A 
ATOM      3  C   UNL     1      36.717  31.788  36.073  1.00  0.00     0.051 A 
ATOM      4  C   UNL     1      36.491  33.165  36.045  1.00  0.00     0.015 A 
ATOM      5  C   UNL     1      36.978  33.940  34.981  1.00  0.00     0.018 A 
ATOM      6  C   UNL     1      37.695  33.317  33.947  1.00  0.00     0.062 A 
ENDROOT
BRANCH   1   7
ATOM      7  O   UNL     1      38.639  31.275  32.951  1.00  0.00    -0.493 OA
ATOM      8  C   UNL     1      38.408  31.458  31.558  1.00  0.00     0.278 C 
ENDBRANCH   1   7
BRANCH   2   9
ATOM      9  O   UNL     1      37.635  29.787  35.107  1.00  0.00    -0.504 OA
ATOM     10  H   UNL     1      37.826  29.309  35.979  1.00  0.00     0.293 HD
ENDBRANCH   2   9
BRANCH   5  11
ATOM     11  C   UNL     1      36.750  35.396  34.935  1.00  0.00     0.260 C 
ATOM     12  O   UNL     1      36.726  36.086  35.989  1.00  0.00    -0.298 OA
ENDBRANCH   5  11
TORSDOF 3
ENDMDL
MODEL 6
REMARK VINA RESULT:    -2.466     22.538     23.230
REMARK INTER + INTRA:          -2.895
REMARK INTER:                  -2.866
REMARK INTRA:                  -0.029
REMARK UNBOUND:                -0.069
REMARK SMILES COc1cc(C=O)ccc1O
REMARK SMILES IDX 3 1 10 2 9 3 8 4 5 5 4 6 2 7 1 8 11 9 6 11 7 12
REMARK H PARENT 11 10
REMARK Flexibility Score: inf
ROOT
ATOM      1  C   UNL     1      20.012  20.001  25.487  1.00  0.00     0.161 A 
ATOM      2  C   UNL     1      21.116  19.650  26.286  1.00  0.00     0.157 A 
ATOM      3  C   UNL     1      21.480  18.307  26.426  1.00  0.00     0.051 A 
ATOM      4  C   UNL     1      20.756  17.306  25.778  1.00  0.00     0.015 A 
ATOM      5  C   UNL     1      19.653  17.637  24.977  1.00  0.00     0.018 A 
ATOM      6  C   UNL     1      19.284  18.984  24.835  1.00  0.00     0.062 A 
ENDROOT
BRANCH   1   7
ATOM      7  O   UNL     1      19.668  21.356  25.365  1.00  0.00    -0.493 OA
ATOM      8  C   UNL     1      18.875  22.077  26.304  1.00  0.00     0.278 C 
ENDBRANCH   1   7
BRANCH   2   9
ATOM      9  O   UNL     1      21.863  20.623  26.949  1.00  0.00    -0.504 OA
ATOM     10  H   UNL     1      21.530  21.080  27.789  1.00  0.00     0.293 HD
ENDBRANCH   2   9
BRANCH   5  11
ATOM     11  C   UNL     1      18.875  16.592  24.285  1.00  0.00     0.260 C 
ATOM     12  O   UNL     1      19.222  16.165  23.151  1.00  0.00    -0.298 OA
ENDBRANCH   5  11
TORSDOF 3
ENDMDL
MODEL 7
REMARK VINA RESULT:    -2.244     22.656     23.272
REMARK INTER + INTRA:          -2.640
REMARK INTER:                  -2.720
REMARK INTRA:                   0.079
REMARK UNBOUND:                -0.069
REMARK SMILES COc1cc(C=O)ccc1O
REMARK SMILES IDX 3 1 10 2 9 3 8 4 5 5 4 6 2 7 1 8 11 9 6 11 7 12
REMARK H PARENT 11 10
REMARK Flexibility Score: inf
ROOT
ATOM      1  C   UNL     1      20.874  19.534  25.624  1.00  0.00     0.161 A 
ATOM      2  C   UNL     1      20.356  20.538  24.785  1.00  0.00     0.157 A 
ATOM      3  C   UNL     1      19.361  20.226  23.853  1.00  0.00     0.051 A 
ATOM      4  C   UNL     1      18.875  18.922  23.746  1.00  0.00     0.015 A 
ATOM      5  C   UNL     1      19.379  17.909  24.575  1.00  0.00     0.018 A 
ATOM      6  C   UNL     1      20.378  18.219  25.511  1.00  0.00     0.062 A 
ENDROOT
BRANCH   1   7
ATOM      7  O   UNL     1      21.873  19.875  26.551  1.00  0.00    -0.493 OA
ATOM      8  C   UNL     1      21.661  20.673  27.711  1.00  0.00     0.278 C 
ENDBRANCH   1   7
BRANCH   2   9
ATOM      9  O   UNL     1      20.817  21.851  24.863  1.00  0.00    -0.504 OA
ATOM     10  H   UNL     1      20.707  22.509  24.101  1.00  0.00     0.293 HD
ENDBRANCH   2   9
BRANCH   5  11
ATOM     11  C   UNL     1      18.878  16.526  24.476  1.00  0.00     0.260 C 
ATOM     12  O   UNL     1      18.958  15.879  23.398  1.00  0.00    -0.298 OA
ENDBRANCH   5  11
TORSDOF 3
ENDMDL
MODEL 8
REMARK VINA RESULT:    -2.132     26.830     27.552
REMARK INTER + INTRA:          -2.513
REMARK INTER:                  -2.449
REMARK INTRA:                  -0.064
REMARK UNBOUND:                -0.069
REMARK SMILES COc1cc(C=O)ccc1O
REMARK SMILES IDX 3 1 10 2 9 3 8 4 5 5 4 6 2 7 1 8 11 9 6 11 7 12
REMARK H PARENT 11 10
REMARK Flexibility Score: inf
ROOT
ATOM      1  C   UNL     1      22.452  17.696  16.642  1.00  0.00     0.161 A 
ATOM      2  C   UNL     1      22.295  19.043  16.268  1.00  0.00     0.157 A 
ATOM      3  C   UNL     1      21.026  19.631  16.284  1.00  0.00     0.051 A 
ATOM      4  C   UNL     1      19.908  18.891  16.671  1.00  0.00     0.015 A 
ATOM      5  C   UNL     1      20.046  17.546  17.048  1.00  0.00     0.018 A 
ATOM      6  C   UNL     1      21.318  16.953  17.031  1.00  0.00     0.062 A 
ENDROOT
BRANCH   1   7
ATOM      7  O   UNL     1      23.737  17.131  16.615  1.00  0.00    -0.493 OA
ATOM      8  C   UNL     1      24.087  15.953  15.896  1.00  0.00     0.278 C 
ENDBRANCH   1   7
BRANCH   2   9
ATOM      9  O   UNL     1      23.389  19.814  15.875  1.00  0.00    -0.504 OA
ATOM     10  H   UNL     1      24.249  19.399  15.540  1.00  0.00     0.293 HD
ENDBRANCH   2   9
BRANCH   5  11
ATOM     11  C   UNL     1      18.875  16.749  17.459  1.00  0.00     0.260 C 
ATOM     12  O   UNL     1      18.946  15.932  18.416  1.00  0.00    -0.298 OA
ENDBRANCH   5  11
TORSDOF 3
ENDMDL
MODEL 9
REMARK VINA RESULT:    -2.061     18.341     18.764
REMARK INTER + INTRA:          -2.431
REMARK INTER:                  -2.370
REMARK INTRA:                  -0.061
REMARK UNBOUND:                -0.069
REMARK SMILES COc1cc(C=O)ccc1O
REMARK SMILES IDX 3 1 10 2 9 3 8 4 5 5 4 6 2 7 1 8 11 9 6 11 7 12
REMARK H PARENT 11 10
REMARK Flexibility Score: inf
ROOT
ATOM      1  C   UNL     1      36.809  33.929  15.883  1.00  0.00     0.161 A 
ATOM      2  C   UNL     1      35.554  34.564  15.879  1.00  0.00     0.157 A 
ATOM      3  C   UNL     1      34.383  33.800  15.876  1.00  0.00     0.051 A 
ATOM      4  C   UNL     1      34.448  32.406  15.878  1.00  0.00     0.015 A 
ATOM      5  C   UNL     1      35.691  31.755  15.882  1.00  0.00     0.018 A 
ATOM      6  C   UNL     1      36.868  32.520  15.884  1.00  0.00     0.062 A 
ENDROOT
BRANCH   1   7
ATOM      7  O   UNL     1      37.969  34.721  15.884  1.00  0.00    -0.493 OA
ATOM      8  C   UNL     1      39.068  34.543  16.772  1.00  0.00     0.278 C 
ENDBRANCH   1   7
BRANCH   2   9
ATOM      9  O   UNL     1      35.450  35.955  15.877  1.00  0.00    -0.504 OA
ATOM     10  H   UNL     1      34.848  36.451  15.231  1.00  0.00     0.293 HD
ENDBRANCH   2   9
BRANCH   5  11
ATOM     11  C   UNL     1      35.778  30.283  15.883  1.00  0.00     0.260 C 
ATOM     12  O   UNL     1      35.260  29.600  16.806  1.00  0.00    -0.298 OA
ENDBRANCH   5  11
TORSDOF 3
ENDMDL
