MODEL 1
REMARK VINA RESULT:    -3.308      0.000      0.000
REMARK INTER + INTRA:          -5.347
REMARK INTER:                  -4.468
REMARK INTRA:                  -0.880
REMARK UNBOUND:                -0.880
REMARK SMILES O=C[C@H](O)[C@@H](O)[C@@H](O)CO
REMARK SMILES IDX 7 1 9 2 10 3 5 5 3 6 2 7 1 8 4 9 6 11 8 13
REMARK H PARENT 10 4 4 10 6 12 8 14
REMARK Flexibility Score: inf
ROOT
ATOM      1  C   UNL     1      10.623  16.777  37.251  1.00  0.00     0.171 C 
ENDROOT
BRANCH   1   2
ATOM      2  C   UNL     1       9.262  16.920  37.960  1.00  0.00     0.190 C 
BRANCH   2   3
ATOM      3  O   UNL     1       9.052  18.237  38.391  1.00  0.00    -0.394 OA
ATOM      4  H   UNL     1       8.075  18.396  38.323  1.00  0.00     0.210 HD
ENDBRANCH   2   3
ENDBRANCH   1   2
BRANCH   1   5
ATOM      5  C   UNL     1      11.877  16.996  38.150  1.00  0.00     0.181 C 
BRANCH   5   6
ATOM      6  C   UNL     1      12.719  18.254  37.805  1.00  0.00     0.209 C 
BRANCH   6   7
ATOM      7  C   UNL     1      12.477  19.410  38.737  1.00  0.00     0.258 C 
ATOM      8  O   UNL     1      11.340  19.766  39.005  1.00  0.00    -0.300 OA
ENDBRANCH   6   7
BRANCH   6   9
ATOM      9  O   UNL     1      12.475  18.669  36.485  1.00  0.00    -0.383 OA
ATOM     10  H   UNL     1      11.660  19.234  36.507  1.00  0.00     0.211 HD
ENDBRANCH   6   9
ENDBRANCH   5   6
BRANCH   5  11
ATOM     11  O   UNL     1      11.528  17.012  39.514  1.00  0.00    -0.387 OA
ATOM     12  H   UNL     1      12.366  17.122  40.034  1.00  0.00     0.211 HD
ENDBRANCH   5  11
ENDBRANCH   1   5
BRANCH   1  13
ATOM     13  O   UNL     1      10.705  15.534  36.597  1.00  0.00    -0.388 OA
ATOM     14  H   UNL     1       9.787  15.167  36.523  1.00  0.00     0.211 HD
ENDBRANCH   1  13
TORSDOF 8
ENDMDL
MODEL 2
REMARK VINA RESULT:    -3.290      1.063      3.670
REMARK INTER + INTRA:          -5.324
REMARK INTER:                  -4.384
REMARK INTRA:                  -0.940
REMARK UNBOUND:                -0.880
REMARK SMILES O=C[C@H](O)[C@@H](O)[C@@H](O)CO
REMARK SMILES IDX 7 1 9 2 10 3 5 5 3 6 2 7 1 8 4 9 6 11 8 13
REMARK H PARENT 10 4 4 10 6 12 8 14
REMARK Flexibility Score: inf
ROOT
ATOM      1  C   UNL     1      11.845  18.583  39.139  1.00  0.00     0.171 C 
ENDROOT
BRANCH   1   2
ATOM      2  C   UNL     1      13.026  18.624  38.149  1.00  0.00     0.190 C 
BRANCH   2   3
ATOM      3  O   UNL     1      12.623  18.237  36.863  1.00  0.00    -0.394 OA
ATOM      4  H   UNL     1      13.387  17.739  36.474  1.00  0.00     0.210 HD
ENDBRANCH   2   3
ENDBRANCH   1   2
BRANCH   1   5
ATOM      5  C   UNL     1      11.103  17.215  39.245  1.00  0.00     0.181 C 
BRANCH   5   6
ATOM      6  C   UNL     1       9.837  17.087  38.357  1.00  0.00     0.209 C 
BRANCH   6   7
ATOM      7  C   UNL     1       9.882  15.911  37.418  1.00  0.00     0.258 C 
ATOM      8  O   UNL     1      10.751  15.829  36.565  1.00  0.00    -0.300 OA
ENDBRANCH   6   7
BRANCH   6   9
ATOM      9  O   UNL     1       9.629  18.260  37.613  1.00  0.00    -0.383 OA
ATOM     10  H   UNL     1      10.455  18.804  37.698  1.00  0.00     0.211 HD
ENDBRANCH   6   9
ENDBRANCH   5   6
BRANCH   5  11
ATOM     11  O   UNL     1      11.978  16.141  38.994  1.00  0.00    -0.387 OA
ATOM     12  H   UNL     1      12.476  15.960  39.833  1.00  0.00     0.211 HD
ENDBRANCH   5  11
ENDBRANCH   1   5
BRANCH   1  13
ATOM     13  O   UNL     1      12.261  19.011  40.413  1.00  0.00    -0.388 OA
ATOM     14  H   UNL     1      11.894  18.377  41.082  1.00  0.00     0.211 HD
ENDBRANCH   1  13
TORSDOF 8
ENDMDL
MODEL 3
REMARK VINA RESULT:    -3.269      1.432      3.824
REMARK INTER + INTRA:          -5.295
REMARK INTER:                  -4.821
REMARK INTRA:                  -0.474
REMARK UNBOUND:                -0.880
REMARK SMILES O=C[C@H](O)[C@@H](O)[C@@H](O)CO
REMARK SMILES IDX 7 1 9 2 10 3 5 5 3 6 2 7 1 8 4 9 6 11 8 13
REMARK H PARENT 10 4 4 10 6 12 8 14
REMARK Flexibility Score: inf
ROOT
ATOM      1  C   UNL     1      12.412  18.650  39.265  1.00  0.00     0.171 C 
ENDROOT
BRANCH   1   2
ATOM      2  C   UNL     1      12.320  18.039  40.677  1.00  0.00     0.190 C 
BRANCH   2   3
ATOM      3  O   UNL     1      12.710  18.963  41.656  1.00  0.00    -0.394 OA
ATOM      4  H   UNL     1      13.380  19.554  41.225  1.00  0.00     0.210 HD
ENDBRANCH   2   3
ENDBRANCH   1   2
BRANCH   1   5
ATOM      5  C   UNL     1      12.160  17.661  38.086  1.00  0.00     0.181 C 
BRANCH   5   6
ATOM      6  C   UNL     1      10.710  17.116  37.988  1.00  0.00     0.209 C 
BRANCH   6   7
ATOM      7  C   UNL     1      10.576  15.938  37.062  1.00  0.00     0.258 C 
ATOM      8  O   UNL     1      11.552  15.267  36.762  1.00  0.00    -0.300 OA
ENDBRANCH   6   7
BRANCH   6   9
ATOM      9  O   UNL     1       9.825  18.126  37.579  1.00  0.00    -0.383 OA
ATOM     10  H   UNL     1      10.304  18.989  37.686  1.00  0.00     0.211 HD
ENDBRANCH   6   9
ENDBRANCH   5   6
BRANCH   5  11
ATOM     11  O   UNL     1      12.545  18.228  36.857  1.00  0.00    -0.387 OA
ATOM     12  H   UNL     1      13.249  17.646  36.468  1.00  0.00     0.211 HD
ENDBRANCH   5  11
ENDBRANCH   1   5
BRANCH   1  13
ATOM     13  O   UNL     1      11.557  19.763  39.158  1.00  0.00    -0.388 OA
ATOM     14  H   UNL     1      11.959  20.507  39.675  1.00  0.00     0.211 HD
ENDBRANCH   1  13
TORSDOF 8
ENDMDL
MODEL 4
REMARK VINA RESULT:    -3.220      1.332      2.648
REMARK INTER + INTRA:          -5.229
REMARK INTER:                  -4.400
REMARK INTRA:                  -0.829
REMARK UNBOUND:                -0.880
REMARK SMILES O=C[C@H](O)[C@@H](O)[C@@H](O)CO
REMARK SMILES IDX 7 1 9 2 10 3 5 5 3 6 2 7 1 8 4 9 6 11 8 13
REMARK H PARENT 10 4 4 10 6 12 8 14
REMARK Flexibility Score: inf
ROOT
ATOM      1  C   UNL     1      10.858  16.431  38.804  1.00  0.00     0.171 C 
ENDROOT
BRANCH   1   2
ATOM      2  C   UNL     1      10.612  15.664  37.490  1.00  0.00     0.190 C 
BRANCH   2   3
ATOM      3  O   UNL     1      11.596  15.961  36.538  1.00  0.00    -0.394 OA
ATOM      4  H   UNL     1      12.345  16.379  37.037  1.00  0.00     0.210 HD
ENDBRANCH   2   3
ENDBRANCH   1   2
BRANCH   1   5
ATOM      5  C   UNL     1      10.512  17.951  38.770  1.00  0.00     0.181 C 
BRANCH   5   6
ATOM      6  C   UNL     1      11.692  18.899  39.114  1.00  0.00     0.209 C 
BRANCH   6   7
ATOM      7  C   UNL     1      12.841  18.800  38.147  1.00  0.00     0.258 C 
ATOM      8  O   UNL     1      12.641  18.787  36.943  1.00  0.00    -0.300 OA
ENDBRANCH   6   7
BRANCH   6   9
ATOM      9  O   UNL     1      12.163  18.655  40.415  1.00  0.00    -0.383 OA
ATOM     10  H   UNL     1      12.465  19.527  40.780  1.00  0.00     0.211 HD
ENDBRANCH   6   9
ENDBRANCH   5   6
BRANCH   5  11
ATOM     11  O   UNL     1       9.948  18.317  37.533  1.00  0.00    -0.387 OA
ATOM     12  H   UNL     1      10.614  18.106  36.828  1.00  0.00     0.211 HD
ENDBRANCH   5  11
ENDBRANCH   1   5
BRANCH   1  13
ATOM     13  O   UNL     1      10.187  15.804  39.870  1.00  0.00    -0.388 OA
ATOM     14  H   UNL     1      10.521  14.873  39.934  1.00  0.00     0.211 HD
ENDBRANCH   1  13
TORSDOF 8
ENDMDL
MODEL 5
REMARK VINA RESULT:    -3.170      1.549      2.594
REMARK INTER + INTRA:          -5.161
REMARK INTER:                  -4.231
REMARK INTRA:                  -0.930
REMARK UNBOUND:                -0.880
REMARK SMILES O=C[C@H](O)[C@@H](O)[C@@H](O)CO
REMARK SMILES IDX 7 1 9 2 10 3 5 5 3 6 2 7 1 8 4 9 6 11 8 13
REMARK H PARENT 10 4 4 10 6 12 8 14
REMARK Flexibility Score: inf
ROOT
ATOM      1  C   UNL     1      10.437  16.587  39.031  1.00  0.00     0.171 C 
ENDROOT
BRANCH   1   2
ATOM      2  C   UNL     1      11.557  15.846  39.788  1.00  0.00     0.190 C 
BRANCH   2   3
ATOM      3  O   UNL     1      12.669  16.676  39.987  1.00  0.00    -0.394 OA
ATOM      4  H   UNL     1      12.682  16.891  40.955  1.00  0.00     0.210 HD
ENDBRANCH   2   3
ENDBRANCH   1   2
BRANCH   1   5
ATOM      5  C   UNL     1      10.825  17.133  37.623  1.00  0.00     0.181 C 
BRANCH   5   6
ATOM      6  C   UNL     1      11.278  18.618  37.599  1.00  0.00     0.209 C 
BRANCH   6   7
ATOM      7  C   UNL     1      12.715  18.798  37.189  1.00  0.00     0.258 C 
ATOM      8  O   UNL     1      13.618  18.624  37.994  1.00  0.00    -0.300 OA
ENDBRANCH   6   7
BRANCH   6   9
ATOM      9  O   UNL     1      11.078  19.220  38.852  1.00  0.00    -0.383 OA
ATOM     10  H   UNL     1      10.170  18.958  39.155  1.00  0.00     0.211 HD
ENDBRANCH   6   9
ENDBRANCH   5   6
BRANCH   5  11
ATOM     11  O   UNL     1      11.801  16.323  37.014  1.00  0.00    -0.387 OA
ATOM     12  H   UNL     1      11.856  15.480  37.536  1.00  0.00     0.211 HD
ENDBRANCH   5  11
ENDBRANCH   1   5
BRANCH   1  13
ATOM     13  O   UNL     1       9.291  15.777  38.939  1.00  0.00    -0.388 OA
ATOM     14  H   UNL     1       9.489  15.038  38.309  1.00  0.00     0.211 HD
ENDBRANCH   1  13
TORSDOF 8
ENDMDL
MODEL 6
REMARK VINA RESULT:    -3.142      1.503      2.604
REMARK INTER + INTRA:          -5.124
REMARK INTER:                  -4.631
REMARK INTRA:                  -0.493
REMARK UNBOUND:                -0.880
REMARK SMILES O=C[C@H](O)[C@@H](O)[C@@H](O)CO
REMARK SMILES IDX 7 1 9 2 10 3 5 5 3 6 2 7 1 8 4 9 6 11 8 13
REMARK H PARENT 10 4 4 10 6 12 8 14
REMARK Flexibility Score: inf
ROOT
ATOM      1  C   UNL     1      11.472  16.879  37.653  1.00  0.00     0.171 C 
ENDROOT
BRANCH   1   2
ATOM      2  C   UNL     1      11.480  15.475  37.018  1.00  0.00     0.190 C 
BRANCH   2   3
ATOM      3  O   UNL     1      10.372  15.291  36.180  1.00  0.00    -0.394 OA
ATOM      4  H   UNL     1      10.178  14.318  36.192  1.00  0.00     0.210 HD
ENDBRANCH   2   3
ENDBRANCH   1   2
BRANCH   1   5
ATOM      5  C   UNL     1      11.907  16.944  39.149  1.00  0.00     0.181 C 
BRANCH   5   6
ATOM      6  C   UNL     1      12.421  18.330  39.621  1.00  0.00     0.209 C 
BRANCH   6   7
ATOM      7  C   UNL     1      12.599  18.425  41.113  1.00  0.00     0.258 C 
ATOM      8  O   UNL     1      13.062  17.489  41.745  1.00  0.00    -0.300 OA
ENDBRANCH   6   7
BRANCH   6   9
ATOM      9  O   UNL     1      11.557  19.353  39.195  1.00  0.00    -0.383 OA
ATOM     10  H   UNL     1      12.122  20.149  39.014  1.00  0.00     0.211 HD
ENDBRANCH   6   9
ENDBRANCH   5   6
BRANCH   5  11
ATOM     11  O   UNL     1      10.876  16.499  39.998  1.00  0.00    -0.387 OA
ATOM     12  H   UNL     1      10.474  17.300  40.424  1.00  0.00     0.211 HD
ENDBRANCH   5  11
ENDBRANCH   1   5
BRANCH   1  13
ATOM     13  O   UNL     1      12.244  17.768  36.883  1.00  0.00    -0.388 OA
ATOM     14  H   UNL     1      13.016  17.264  36.518  1.00  0.00     0.211 HD
ENDBRANCH   1  13
TORSDOF 8
ENDMDL
MODEL 7
REMARK VINA RESULT:    -3.141      1.106      3.273
REMARK INTER + INTRA:          -5.123
REMARK INTER:                  -4.284
REMARK INTRA:                  -0.839
REMARK UNBOUND:                -0.880
REMARK SMILES O=C[C@H](O)[C@@H](O)[C@@H](O)CO
REMARK SMILES IDX 7 1 9 2 10 3 5 5 3 6 2 7 1 8 4 9 6 11 8 13
REMARK H PARENT 10 4 4 10 6 12 8 14
REMARK Flexibility Score: inf
ROOT
ATOM      1  C   UNL     1      12.123  18.133  37.690  1.00  0.00     0.171 C 
ENDROOT
BRANCH   1   2
ATOM      2  C   UNL     1      12.176  19.180  38.820  1.00  0.00     0.190 C 
BRANCH   2   3
ATOM      3  O   UNL     1      12.000  18.581  40.075  1.00  0.00    -0.394 OA
ATOM      4  H   UNL     1      11.703  17.652  39.896  1.00  0.00     0.210 HD
ENDBRANCH   2   3
ENDBRANCH   1   2
BRANCH   1   5
ATOM      5  C   UNL     1      10.739  17.450  37.470  1.00  0.00     0.181 C 
BRANCH   5   6
ATOM      6  C   UNL     1      10.757  15.900  37.528  1.00  0.00     0.209 C 
BRANCH   6   7
ATOM      7  C   UNL     1      11.190  15.356  38.863  1.00  0.00     0.258 C 
ATOM      8  O   UNL     1      10.726  15.807  39.899  1.00  0.00    -0.300 OA
ENDBRANCH   6   7
BRANCH   6   9
ATOM      9  O   UNL     1      11.589  15.374  36.526  1.00  0.00    -0.383 OA
ATOM     10  H   UNL     1      12.215  16.097  36.263  1.00  0.00     0.211 HD
ENDBRANCH   6   9
ENDBRANCH   5   6
BRANCH   5  11
ATOM     11  O   UNL     1       9.776  17.953  38.365  1.00  0.00    -0.387 OA
ATOM     12  H   UNL     1      10.262  18.364  39.126  1.00  0.00     0.211 HD
ENDBRANCH   5  11
ENDBRANCH   1   5
BRANCH   1  13
ATOM     13  O   UNL     1      12.587  18.691  36.485  1.00  0.00    -0.388 OA
ATOM     14  H   UNL     1      12.462  19.673  36.535  1.00  0.00     0.211 HD
ENDBRANCH   1  13
TORSDOF 8
ENDMDL
MODEL 8
REMARK VINA RESULT:    -3.102      2.032      2.657
REMARK INTER + INTRA:          -5.069
REMARK INTER:                  -4.440
REMARK INTRA:                  -0.629
REMARK UNBOUND:                -0.880
REMARK SMILES O=C[C@H](O)[C@@H](O)[C@@H](O)CO
REMARK SMILES IDX 7 1 9 2 10 3 5 5 3 6 2 7 1 8 4 9 6 11 8 13
REMARK H PARENT 10 4 4 10 6 12 8 14
REMARK Flexibility Score: inf
ROOT
ATOM      1  C   UNL     1      11.399  18.574  37.780  1.00  0.00     0.171 C 
ENDROOT
BRANCH   1   2
ATOM      2  C   UNL     1       9.889  18.308  37.931  1.00  0.00     0.190 C 
BRANCH   2   3
ATOM      3  O   UNL     1       9.585  16.961  37.690  1.00  0.00    -0.394 OA
ATOM      4  H   UNL     1      10.192  16.434  38.272  1.00  0.00     0.210 HD
ENDBRANCH   2   3
ENDBRANCH   1   2
BRANCH   1   5
ATOM      5  C   UNL     1      12.205  18.648  39.113  1.00  0.00     0.181 C 
BRANCH   5   6
ATOM      6  C   UNL     1      11.862  17.543  40.148  1.00  0.00     0.209 C 
BRANCH   6   7
ATOM      7  C   UNL     1      12.631  17.668  41.435  1.00  0.00     0.258 C 
ATOM      8  O   UNL     1      13.045  18.755  41.809  1.00  0.00    -0.300 OA
ENDBRANCH   6   7
BRANCH   6   9
ATOM      9  O   UNL     1      12.081  16.266  39.604  1.00  0.00    -0.383 OA
ATOM     10  H   UNL     1      12.443  16.401  38.690  1.00  0.00     0.211 HD
ENDBRANCH   6   9
ENDBRANCH   5   6
BRANCH   5  11
ATOM     11  O   UNL     1      13.591  18.663  38.869  1.00  0.00    -0.387 OA
ATOM     12  H   UNL     1      13.747  18.195  38.008  1.00  0.00     0.211 HD
ENDBRANCH   5  11
ENDBRANCH   1   5
BRANCH   1  13
ATOM     13  O   UNL     1      11.978  17.629  36.914  1.00  0.00    -0.388 OA
ATOM     14  H   UNL     1      12.946  17.578  37.121  1.00  0.00     0.211 HD
ENDBRANCH   1  13
TORSDOF 8
ENDMDL
MODEL 9
REMARK VINA RESULT:    -3.059      1.168      2.539
REMARK INTER + INTRA:          -5.011
REMARK INTER:                  -4.293
REMARK INTRA:                  -0.718
REMARK UNBOUND:                -0.880
REMARK SMILES O=C[C@H](O)[C@@H](O)[C@@H](O)CO
REMARK SMILES IDX 7 1 9 2 10 3 5 5 3 6 2 7 1 8 4 9 6 11 8 13
REMARK H PARENT 10 4 4 10 6 12 8 14
REMARK Flexibility Score: inf
ROOT
ATOM      1  C   UNL     1       9.798  17.588  38.137  1.00  0.00     0.171 C 
ENDROOT
BRANCH   1   2
ATOM      2  C   UNL     1       9.163  16.492  37.259  1.00  0.00     0.190 C 
BRANCH   2   3
ATOM      3  O   UNL     1       9.811  15.262  37.436  1.00  0.00    -0.394 OA
ATOM      4  H   UNL     1       9.106  14.615  37.700  1.00  0.00     0.210 HD
ENDBRANCH   2   3
ENDBRANCH   1   2
BRANCH   1   5
ATOM      5  C   UNL     1      11.144  18.175  37.612  1.00  0.00     0.181 C 
BRANCH   5   6
ATOM      6  C   UNL     1      12.041  18.828  38.697  1.00  0.00     0.209 C 
BRANCH   6   7
ATOM      7  C   UNL     1      12.269  17.947  39.895  1.00  0.00     0.258 C 
ATOM      8  O   UNL     1      12.660  16.798  39.757  1.00  0.00    -0.300 OA
ENDBRANCH   6   7
BRANCH   6   9
ATOM      9  O   UNL     1      11.496  20.051  39.123  1.00  0.00    -0.383 OA
ATOM     10  H   UNL     1      11.644  20.105  40.103  1.00  0.00     0.211 HD
ENDBRANCH   6   9
ENDBRANCH   5   6
BRANCH   5  11
ATOM     11  O   UNL     1      11.878  17.207  36.901  1.00  0.00    -0.387 OA
ATOM     12  H   UNL     1      11.236  16.702  36.337  1.00  0.00     0.211 HD
ENDBRANCH   5  11
ENDBRANCH   1   5
BRANCH   1  13
ATOM     13  O   UNL     1       8.875  18.623  38.371  1.00  0.00    -0.388 OA
ATOM     14  H   UNL     1       9.186  19.137  39.160  1.00  0.00     0.211 HD
ENDBRANCH   1  13
TORSDOF 8
ENDMDL
