MODEL 1
REMARK VINA RESULT:    -5.217      0.000      0.000
REMARK INTER + INTRA:          -6.267
REMARK INTER:                  -5.980
REMARK INTRA:                  -0.287
REMARK UNBOUND:                -0.287
REMARK SMILES O=C1C[C@H](c2ccc(O)cc2)Oc2cc(O)cc(O)c21
REMARK SMILES IDX 3 1 4 2 12 3 13 4 14 5 15 6 17 7 18 8 20 9 2 10 1 11 5 12
REMARK SMILES IDX 6 13 11 14 7 15 10 16 8 17 9 18 19 20 16 22
REMARK H PARENT 9 19 19 21 16 23
REMARK Flexibility Score: inf
ROOT
ATOM      1  C   UNL     1       4.866   7.094   0.698  1.00  0.00     0.131 C 
ATOM      2  C   UNL     1       3.955   6.263   1.625  1.00  0.00     0.211 C 
ATOM      3  O   UNL     1       4.674   5.823   2.779  1.00  0.00    -0.484 OA
ATOM      4  C   UNL     1       5.988   5.347   2.704  1.00  0.00     0.138 A 
ATOM      5  C   UNL     1       6.530   4.661   3.792  1.00  0.00     0.093 A 
ATOM      6  C   UNL     1       7.844   4.185   3.744  1.00  0.00     0.123 A 
ATOM      7  C   UNL     1       8.619   4.397   2.601  1.00  0.00     0.093 A 
ATOM      8  C   UNL     1       8.094   5.096   1.504  1.00  0.00     0.133 A 
ATOM      9  C   UNL     1       6.765   5.574   1.551  1.00  0.00     0.102 A 
ATOM     10  C   UNL     1       6.155   6.358   0.450  1.00  0.00     0.174 C 
ATOM     11  O   UNL     1       6.725   6.468  -0.671  1.00  0.00    -0.294 OA
ENDROOT
BRANCH   2  12
ATOM     12  C   UNL     1       2.732   7.025   2.083  1.00  0.00    -0.007 A 
ATOM     13  C   UNL     1       1.599   6.326   2.538  1.00  0.00     0.011 A 
ATOM     14  C   UNL     1       2.762   8.430   2.197  1.00  0.00     0.011 A 
ATOM     15  C   UNL     1       0.519   7.015   3.093  1.00  0.00     0.046 A 
ATOM     16  C   UNL     1       1.676   9.116   2.740  1.00  0.00     0.046 A 
ATOM     17  C   UNL     1       0.556   8.411   3.202  1.00  0.00     0.115 A 
BRANCH  17  18
ATOM     18  O   UNL     1      -0.513   9.086   3.786  1.00  0.00    -0.508 OA
ATOM     19  H   UNL     1      -1.217   9.538   3.226  1.00  0.00     0.293 HD
ENDBRANCH  17  18
ENDBRANCH   2  12
BRANCH   8  20
ATOM     20  O   UNL     1       8.900   5.330   0.394  1.00  0.00    -0.507 OA
ATOM     21  H   UNL     1       8.515   5.658  -0.486  1.00  0.00     0.293 HD
ENDBRANCH   8  20
BRANCH   6  22
ATOM     22  O   UNL     1       8.395   3.511   4.830  1.00  0.00    -0.508 OA
ATOM     23  H   UNL     1       8.399   2.501   4.880  1.00  0.00     0.293 HD
ENDBRANCH   6  22
TORSDOF 4
ENDMDL
MODEL 2
REMARK VINA RESULT:    -5.212      1.773      6.653
REMARK INTER + INTRA:          -6.261
REMARK INTER:                  -5.935
REMARK INTRA:                  -0.326
REMARK UNBOUND:                -0.287
REMARK SMILES O=C1C[C@H](c2ccc(O)cc2)Oc2cc(O)cc(O)c21
REMARK SMILES IDX 3 1 4 2 12 3 13 4 14 5 15 6 17 7 18 8 20 9 2 10 1 11 5 12
REMARK SMILES IDX 6 13 11 14 7 15 10 16 8 17 9 18 19 20 16 22
REMARK H PARENT 9 19 19 21 16 23
REMARK Flexibility Score: inf
ROOT
ATOM      1  C   UNL     1       4.332   5.954   1.352  1.00  0.00     0.131 C 
ATOM      2  C   UNL     1       5.057   6.697   2.493  1.00  0.00     0.211 C 
ATOM      3  O   UNL     1       4.161   6.956   3.576  1.00  0.00    -0.484 OA
ATOM      4  C   UNL     1       2.844   7.383   3.370  1.00  0.00     0.138 A 
ATOM      5  C   UNL     1       2.117   7.902   4.444  1.00  0.00     0.093 A 
ATOM      6  C   UNL     1       0.797   8.325   4.264  1.00  0.00     0.123 A 
ATOM      7  C   UNL     1       0.200   8.229   3.005  1.00  0.00     0.093 A 
ATOM      8  C   UNL     1       0.912   7.697   1.919  1.00  0.00     0.133 A 
ATOM      9  C   UNL     1       2.247   7.273   2.098  1.00  0.00     0.102 A 
ATOM     10  C   UNL     1       3.049   6.661   1.011  1.00  0.00     0.174 C 
ATOM     11  O   UNL     1       2.645   6.671  -0.186  1.00  0.00    -0.294 OA
ENDROOT
BRANCH   2  12
ATOM     12  C   UNL     1       6.247   5.934   3.027  1.00  0.00    -0.007 A 
ATOM     13  C   UNL     1       6.376   5.714   4.411  1.00  0.00     0.011 A 
ATOM     14  C   UNL     1       7.159   5.315   2.147  1.00  0.00     0.011 A 
ATOM     15  C   UNL     1       7.393   4.895   4.905  1.00  0.00     0.046 A 
ATOM     16  C   UNL     1       8.181   4.508   2.645  1.00  0.00     0.046 A 
ATOM     17  C   UNL     1       8.294   4.284   4.024  1.00  0.00     0.115 A 
BRANCH  17  18
ATOM     18  O   UNL     1       9.286   3.444   4.525  1.00  0.00    -0.508 OA
ATOM     19  H   UNL     1      10.251   3.731   4.556  1.00  0.00     0.293 HD
ENDBRANCH  17  18
ENDBRANCH   2  12
BRANCH   8  20
ATOM     20  O   UNL     1       0.281   7.573   0.684  1.00  0.00    -0.507 OA
ATOM     21  H   UNL     1       0.809   7.472  -0.177  1.00  0.00     0.293 HD
ENDBRANCH   8  20
BRANCH   6  22
ATOM     22  O   UNL     1       0.062   8.832   5.333  1.00  0.00    -0.508 OA
ATOM     23  H   UNL     1      -0.873   9.195   5.208  1.00  0.00     0.293 HD
ENDBRANCH   6  22
TORSDOF 4
ENDMDL
MODEL 3
REMARK VINA RESULT:    -4.970      4.508      7.214
REMARK INTER + INTRA:          -5.984
REMARK INTER:                  -5.696
REMARK INTRA:                  -0.288
REMARK UNBOUND:                -0.287
REMARK SMILES O=C1C[C@H](c2ccc(O)cc2)Oc2cc(O)cc(O)c21
REMARK SMILES IDX 3 1 4 2 12 3 13 4 14 5 15 6 17 7 18 8 20 9 2 10 1 11 5 12
REMARK SMILES IDX 6 13 11 14 7 15 10 16 8 17 9 18 19 20 16 22
REMARK H PARENT 9 19 19 21 16 23
REMARK Flexibility Score: inf
ROOT
ATOM      1  C   UNL     1       0.081   8.658   4.776  1.00  0.00     0.131 C 
ATOM      2  C   UNL     1       1.513   8.175   4.464  1.00  0.00     0.211 C 
ATOM      3  O   UNL     1       1.981   7.290   5.484  1.00  0.00    -0.484 OA
ATOM      4  C   UNL     1       1.749   7.528   6.843  1.00  0.00     0.138 A 
ATOM      5  C   UNL     1       2.472   6.808   7.797  1.00  0.00     0.093 A 
ATOM      6  C   UNL     1       2.248   7.022   9.161  1.00  0.00     0.123 A 
ATOM      7  C   UNL     1       1.299   7.959   9.573  1.00  0.00     0.093 A 
ATOM      8  C   UNL     1       0.555   8.681   8.627  1.00  0.00     0.133 A 
ATOM      9  C   UNL     1       0.782   8.469   7.249  1.00  0.00     0.102 A 
ATOM     10  C   UNL     1       0.006   9.161   6.192  1.00  0.00     0.174 C 
ATOM     11  O   UNL     1      -0.762  10.125   6.467  1.00  0.00    -0.294 OA
ENDROOT
BRANCH   2  12
ATOM     12  C   UNL     1       1.617   7.469   3.132  1.00  0.00    -0.007 A 
ATOM     13  C   UNL     1       0.806   6.351   2.864  1.00  0.00     0.011 A 
ATOM     14  C   UNL     1       2.414   8.000   2.096  1.00  0.00     0.011 A 
ATOM     15  C   UNL     1       0.791   5.775   1.592  1.00  0.00     0.046 A 
ATOM     16  C   UNL     1       2.406   7.415   0.831  1.00  0.00     0.046 A 
ATOM     17  C   UNL     1       1.585   6.309   0.570  1.00  0.00     0.115 A 
BRANCH  17  18
ATOM     18  O   UNL     1       1.539   5.747  -0.704  1.00  0.00    -0.508 OA
ATOM     19  H   UNL     1       1.164   6.255  -1.488  1.00  0.00     0.293 HD
ENDBRANCH  17  18
ENDBRANCH   2  12
BRANCH   8  20
ATOM     20  O   UNL     1      -0.416   9.579   9.063  1.00  0.00    -0.507 OA
ATOM     21  H   UNL     1      -1.103   9.323   9.765  1.00  0.00     0.293 HD
ENDBRANCH   8  20
BRANCH   6  22
ATOM     22  O   UNL     1       2.957   6.299  10.117  1.00  0.00    -0.508 OA
ATOM     23  H   UNL     1       2.485   5.787  10.852  1.00  0.00     0.293 HD
ENDBRANCH   6  22
TORSDOF 4
ENDMDL
MODEL 4
REMARK VINA RESULT:    -4.762     10.059     12.603
REMARK INTER + INTRA:          -5.745
REMARK INTER:                  -5.464
REMARK INTRA:                  -0.281
REMARK UNBOUND:                -0.287
REMARK SMILES O=C1C[C@H](c2ccc(O)cc2)Oc2cc(O)cc(O)c21
REMARK SMILES IDX 3 1 4 2 12 3 13 4 14 5 15 6 17 7 18 8 20 9 2 10 1 11 5 12
REMARK SMILES IDX 6 13 11 14 7 15 10 16 8 17 9 18 19 20 16 22
REMARK H PARENT 9 19 19 21 16 23
REMARK Flexibility Score: inf
ROOT
ATOM      1  C   UNL     1       9.923  -1.078  -6.628  1.00  0.00     0.131 C 
ATOM      2  C   UNL     1       9.074   0.201  -6.476  1.00  0.00     0.211 C 
ATOM      3  O   UNL     1       7.687  -0.125  -6.366  1.00  0.00    -0.484 OA
ATOM      4  C   UNL     1       7.086  -1.111  -7.156  1.00  0.00     0.138 A 
ATOM      5  C   UNL     1       5.693  -1.180  -7.223  1.00  0.00     0.093 A 
ATOM      6  C   UNL     1       5.071  -2.165  -7.997  1.00  0.00     0.123 A 
ATOM      7  C   UNL     1       5.845  -3.083  -8.710  1.00  0.00     0.093 A 
ATOM      8  C   UNL     1       7.246  -3.035  -8.644  1.00  0.00     0.133 A 
ATOM      9  C   UNL     1       7.875  -2.039  -7.864  1.00  0.00     0.102 A 
ATOM     10  C   UNL     1       9.348  -1.952  -7.710  1.00  0.00     0.174 C 
ATOM     11  O   UNL     1      10.124  -2.641  -8.429  1.00  0.00    -0.294 OA
ENDROOT
BRANCH   2  12
ATOM     12  C   UNL     1       9.469   1.028  -5.274  1.00  0.00    -0.007 A 
ATOM     13  C   UNL     1       9.289   2.424  -5.293  1.00  0.00     0.011 A 
ATOM     14  C   UNL     1       9.882   0.406  -4.078  1.00  0.00     0.011 A 
ATOM     15  C   UNL     1       9.519   3.182  -4.143  1.00  0.00     0.046 A 
ATOM     16  C   UNL     1      10.123   1.169  -2.935  1.00  0.00     0.046 A 
ATOM     17  C   UNL     1       9.930   2.557  -2.959  1.00  0.00     0.115 A 
BRANCH  17  18
ATOM     18  O   UNL     1      10.125   3.318  -1.809  1.00  0.00    -0.508 OA
ATOM     19  H   UNL     1      10.127   4.325  -1.841  1.00  0.00     0.293 HD
ENDBRANCH  17  18
ENDBRANCH   2  12
BRANCH   8  20
ATOM     20  O   UNL     1       7.995  -3.988  -9.329  1.00  0.00    -0.507 OA
ATOM     21  H   UNL     1       7.606  -4.890  -9.584  1.00  0.00     0.293 HD
ENDBRANCH   8  20
BRANCH   6  22
ATOM     22  O   UNL     1       3.682  -2.247  -8.058  1.00  0.00    -0.508 OA
ATOM     23  H   UNL     1       3.186  -3.074  -7.752  1.00  0.00     0.293 HD
ENDBRANCH   6  22
TORSDOF 4
ENDMDL
MODEL 5
REMARK VINA RESULT:    -4.677      2.296      6.366
REMARK INTER + INTRA:          -5.647
REMARK INTER:                  -5.324
REMARK INTRA:                  -0.323
REMARK UNBOUND:                -0.287
REMARK SMILES O=C1C[C@H](c2ccc(O)cc2)Oc2cc(O)cc(O)c21
REMARK SMILES IDX 3 1 4 2 12 3 13 4 14 5 15 6 17 7 18 8 20 9 2 10 1 11 5 12
REMARK SMILES IDX 6 13 11 14 7 15 10 16 8 17 9 18 19 20 16 22
REMARK H PARENT 9 19 19 21 16 23
REMARK Flexibility Score: inf
ROOT
ATOM      1  C   UNL     1       5.421   5.881   2.617  1.00  0.00     0.131 C 
ATOM      2  C   UNL     1       5.383   6.867   3.803  1.00  0.00     0.211 C 
ATOM      3  O   UNL     1       4.035   7.131   4.197  1.00  0.00    -0.484 OA
ATOM      4  C   UNL     1       3.009   7.328   3.266  1.00  0.00     0.138 A 
ATOM      5  C   UNL     1       1.795   7.871   3.691  1.00  0.00     0.093 A 
ATOM      6  C   UNL     1       0.752   8.066   2.780  1.00  0.00     0.123 A 
ATOM      7  C   UNL     1       0.924   7.718   1.438  1.00  0.00     0.093 A 
ATOM      8  C   UNL     1       2.134   7.160   0.998  1.00  0.00     0.133 A 
ATOM      9  C   UNL     1       3.189   6.965   1.917  1.00  0.00     0.102 A 
ATOM     10  C   UNL     1       4.480   6.340   1.537  1.00  0.00     0.174 C 
ATOM     11  O   UNL     1       4.776   6.133   0.327  1.00  0.00    -0.294 OA
ENDROOT
BRANCH   2  12
ATOM     12  C   UNL     1       6.146   6.365   5.007  1.00  0.00    -0.007 A 
ATOM     13  C   UNL     1       5.666   6.631   6.303  1.00  0.00     0.011 A 
ATOM     14  C   UNL     1       7.256   5.510   4.850  1.00  0.00     0.011 A 
ATOM     15  C   UNL     1       6.282   6.058   7.417  1.00  0.00     0.046 A 
ATOM     16  C   UNL     1       7.877   4.950   5.967  1.00  0.00     0.046 A 
ATOM     17  C   UNL     1       7.384   5.210   7.253  1.00  0.00     0.115 A 
BRANCH  17  18
ATOM     18  O   UNL     1       7.972   4.618   8.369  1.00  0.00    -0.508 OA
ATOM     19  H   UNL     1       8.820   4.983   8.770  1.00  0.00     0.293 HD
ENDBRANCH  17  18
ENDBRANCH   2  12
BRANCH   8  20
ATOM     20  O   UNL     1       2.267   6.782  -0.335  1.00  0.00    -0.507 OA
ATOM     21  H   UNL     1       1.937   5.883  -0.671  1.00  0.00     0.293 HD
ENDBRANCH   8  20
BRANCH   6  22
ATOM     22  O   UNL     1      -0.466   8.596   3.199  1.00  0.00    -0.508 OA
ATOM     23  H   UNL     1      -0.571   9.578   3.414  1.00  0.00     0.293 HD
ENDBRANCH   6  22
TORSDOF 4
ENDMDL
MODEL 6
REMARK VINA RESULT:    -4.650      1.793      3.338
REMARK INTER + INTRA:          -5.617
REMARK INTER:                  -5.329
REMARK INTRA:                  -0.288
REMARK UNBOUND:                -0.287
REMARK SMILES O=C1C[C@H](c2ccc(O)cc2)Oc2cc(O)cc(O)c21
REMARK SMILES IDX 3 1 4 2 12 3 13 4 14 5 15 6 17 7 18 8 20 9 2 10 1 11 5 12
REMARK SMILES IDX 6 13 11 14 7 15 10 16 8 17 9 18 19 20 16 22
REMARK H PARENT 9 19 19 21 16 23
REMARK Flexibility Score: inf
ROOT
ATOM      1  C   UNL     1       5.497   5.394   2.635  1.00  0.00     0.131 C 
ATOM      2  C   UNL     1       5.080   6.879   2.637  1.00  0.00     0.211 C 
ATOM      3  O   UNL     1       5.381   7.489   1.380  1.00  0.00    -0.484 OA
ATOM      4  C   UNL     1       6.575   7.238   0.694  1.00  0.00     0.138 A 
ATOM      5  C   UNL     1       6.947   8.074  -0.361  1.00  0.00     0.093 A 
ATOM      6  C   UNL     1       8.130   7.836  -1.066  1.00  0.00     0.123 A 
ATOM      7  C   UNL     1       8.946   6.758  -0.715  1.00  0.00     0.093 A 
ATOM      8  C   UNL     1       8.580   5.902   0.334  1.00  0.00     0.133 A 
ATOM      9  C   UNL     1       7.387   6.143   1.050  1.00  0.00     0.102 A 
ATOM     10  C   UNL     1       6.912   5.258   2.141  1.00  0.00     0.174 C 
ATOM     11  O   UNL     1       7.652   4.354   2.621  1.00  0.00    -0.294 OA
ENDROOT
BRANCH   2  12
ATOM     12  C   UNL     1       3.609   7.075   2.925  1.00  0.00    -0.007 A 
ATOM     13  C   UNL     1       2.645   6.462   2.104  1.00  0.00     0.011 A 
ATOM     14  C   UNL     1       3.189   7.747   4.092  1.00  0.00     0.011 A 
ATOM     15  C   UNL     1       1.291   6.520   2.440  1.00  0.00     0.046 A 
ATOM     16  C   UNL     1       1.834   7.814   4.416  1.00  0.00     0.046 A 
ATOM     17  C   UNL     1       0.882   7.190   3.599  1.00  0.00     0.115 A 
BRANCH  17  18
ATOM     18  O   UNL     1      -0.469   7.215   3.941  1.00  0.00    -0.508 OA
ATOM     19  H   UNL     1      -1.037   8.029   3.774  1.00  0.00     0.293 HD
ENDBRANCH  17  18
ENDBRANCH   2  12
BRANCH   8  20
ATOM     20  O   UNL     1       9.389   4.810   0.638  1.00  0.00    -0.507 OA
ATOM     21  H   UNL     1       9.941   4.774   1.489  1.00  0.00     0.293 HD
ENDBRANCH   8  20
BRANCH   6  22
ATOM     22  O   UNL     1       8.501   8.658  -2.128  1.00  0.00    -0.508 OA
ATOM     23  H   UNL     1       9.397   8.560  -2.586  1.00  0.00     0.293 HD
ENDBRANCH   6  22
TORSDOF 4
ENDMDL
MODEL 7
REMARK VINA RESULT:    -4.593      7.725      9.035
REMARK INTER + INTRA:          -5.551
REMARK INTER:                  -5.243
REMARK INTRA:                  -0.309
REMARK UNBOUND:                -0.287
REMARK SMILES O=C1C[C@H](c2ccc(O)cc2)Oc2cc(O)cc(O)c21
REMARK SMILES IDX 3 1 4 2 12 3 13 4 14 5 15 6 17 7 18 8 20 9 2 10 1 11 5 12
REMARK SMILES IDX 6 13 11 14 7 15 10 16 8 17 9 18 19 20 16 22
REMARK H PARENT 9 19 19 21 16 23
REMARK Flexibility Score: inf
ROOT
ATOM      1  C   UNL     1       6.901   5.222  -4.891  1.00  0.00     0.131 C 
ATOM      2  C   UNL     1       6.963   4.381  -6.182  1.00  0.00     0.211 C 
ATOM      3  O   UNL     1       7.267   3.017  -5.882  1.00  0.00    -0.484 OA
ATOM      4  C   UNL     1       8.225   2.658  -4.926  1.00  0.00     0.138 A 
ATOM      5  C   UNL     1       8.692   1.342  -4.886  1.00  0.00     0.093 A 
ATOM      6  C   UNL     1       9.640   0.959  -3.933  1.00  0.00     0.123 A 
ATOM      7  C   UNL     1      10.125   1.894  -3.017  1.00  0.00     0.093 A 
ATOM      8  C   UNL     1       9.657   3.217  -3.036  1.00  0.00     0.133 A 
ATOM      9  C   UNL     1       8.701   3.607  -4.000  1.00  0.00     0.102 A 
ATOM     10  C   UNL     1       8.126   4.973  -4.055  1.00  0.00     0.174 C 
ATOM     11  O   UNL     1       8.610   5.915  -3.368  1.00  0.00    -0.294 OA
ENDROOT
BRANCH   2  12
ATOM     12  C   UNL     1       5.676   4.422  -6.973  1.00  0.00    -0.007 A 
ATOM     13  C   UNL     1       5.461   3.498  -8.013  1.00  0.00     0.011 A 
ATOM     14  C   UNL     1       4.625   5.280  -6.591  1.00  0.00     0.011 A 
ATOM     15  C   UNL     1       4.224   3.435  -8.658  1.00  0.00     0.046 A 
ATOM     16  C   UNL     1       3.395   5.223  -7.247  1.00  0.00     0.046 A 
ATOM     17  C   UNL     1       3.185   4.291  -8.273  1.00  0.00     0.115 A 
BRANCH  17  18
ATOM     18  O   UNL     1       1.946   4.198  -8.901  1.00  0.00    -0.508 OA
ATOM     19  H   UNL     1       1.545   3.306  -9.141  1.00  0.00     0.293 HD
ENDBRANCH  17  18
ENDBRANCH   2  12
BRANCH   8  20
ATOM     20  O   UNL     1      10.124   4.121  -2.085  1.00  0.00    -0.507 OA
ATOM     21  H   UNL     1       9.961   5.119  -2.172  1.00  0.00     0.293 HD
ENDBRANCH   8  20
BRANCH   6  22
ATOM     22  O   UNL     1      10.101  -0.354  -3.879  1.00  0.00    -0.508 OA
ATOM     23  H   UNL     1      11.088  -0.568  -3.830  1.00  0.00     0.293 HD
ENDBRANCH   6  22
TORSDOF 4
ENDMDL
MODEL 8
REMARK VINA RESULT:    -4.532      4.922      8.686
REMARK INTER + INTRA:          -5.481
REMARK INTER:                  -5.155
REMARK INTRA:                  -0.326
REMARK UNBOUND:                -0.287
REMARK SMILES O=C1C[C@H](c2ccc(O)cc2)Oc2cc(O)cc(O)c21
REMARK SMILES IDX 3 1 4 2 12 3 13 4 14 5 15 6 17 7 18 8 20 9 2 10 1 11 5 12
REMARK SMILES IDX 6 13 11 14 7 15 10 16 8 17 9 18 19 20 16 22
REMARK H PARENT 9 19 19 21 16 23
REMARK Flexibility Score: inf
ROOT
ATOM      1  C   UNL     1       8.174   5.225  -3.849  1.00  0.00     0.131 C 
ATOM      2  C   UNL     1       9.462   4.612  -3.261  1.00  0.00     0.211 C 
ATOM      3  O   UNL     1       9.379   4.535  -1.836  1.00  0.00    -0.484 OA
ATOM      4  C   UNL     1       8.840   5.568  -1.061  1.00  0.00     0.138 A 
ATOM      5  C   UNL     1       9.054   5.572   0.318  1.00  0.00     0.093 A 
ATOM      6  C   UNL     1       8.516   6.589   1.113  1.00  0.00     0.123 A 
ATOM      7  C   UNL     1       7.762   7.607   0.526  1.00  0.00     0.093 A 
ATOM      8  C   UNL     1       7.528   7.611  -0.858  1.00  0.00     0.133 A 
ATOM      9  C   UNL     1       8.073   6.586  -1.662  1.00  0.00     0.102 A 
ATOM     10  C   UNL     1       7.832   6.497  -3.123  1.00  0.00     0.174 C 
ATOM     11  O   UNL     1       7.292   7.447  -3.757  1.00  0.00    -0.294 OA
ENDROOT
BRANCH   2  12
ATOM     12  C   UNL     1       9.754   3.231  -3.800  1.00  0.00    -0.007 A 
ATOM     13  C   UNL     1       9.992   2.166  -2.911  1.00  0.00     0.011 A 
ATOM     14  C   UNL     1       9.651   2.961  -5.180  1.00  0.00     0.011 A 
ATOM     15  C   UNL     1      10.125   0.861  -3.390  1.00  0.00     0.046 A 
ATOM     16  C   UNL     1       9.797   1.658  -5.656  1.00  0.00     0.046 A 
ATOM     17  C   UNL     1      10.021   0.602  -4.763  1.00  0.00     0.115 A 
BRANCH  17  18
ATOM     18  O   UNL     1      10.124  -0.707  -5.227  1.00  0.00    -0.508 OA
ATOM     19  H   UNL     1       9.602  -1.023  -6.028  1.00  0.00     0.293 HD
ENDBRANCH  17  18
ENDBRANCH   2  12
BRANCH   8  20
ATOM     20  O   UNL     1       6.737   8.614  -1.414  1.00  0.00    -0.507 OA
ATOM     21  H   UNL     1       6.194   8.459  -2.257  1.00  0.00     0.293 HD
ENDBRANCH   8  20
BRANCH   6  22
ATOM     22  O   UNL     1       8.715   6.593   2.491  1.00  0.00    -0.508 OA
ATOM     23  H   UNL     1       9.577   6.260   2.904  1.00  0.00     0.293 HD
ENDBRANCH   6  22
TORSDOF 4
ENDMDL
MODEL 9
REMARK VINA RESULT:    -4.517      2.112      6.913
REMARK INTER + INTRA:          -5.464
REMARK INTER:                  -5.139
REMARK INTRA:                  -0.325
REMARK UNBOUND:                -0.287
REMARK SMILES O=C1C[C@H](c2ccc(O)cc2)Oc2cc(O)cc(O)c21
REMARK SMILES IDX 3 1 4 2 12 3 13 4 14 5 15 6 17 7 18 8 20 9 2 10 1 11 5 12
REMARK SMILES IDX 6 13 11 14 7 15 10 16 8 17 9 18 19 20 16 22
REMARK H PARENT 9 19 19 21 16 23
REMARK Flexibility Score: inf
ROOT
ATOM      1  C   UNL     1       3.020   6.797   2.125  1.00  0.00     0.131 C 
ATOM      2  C   UNL     1       4.191   7.319   2.982  1.00  0.00     0.211 C 
ATOM      3  O   UNL     1       3.818   7.385   4.360  1.00  0.00    -0.484 OA
ATOM      4  C   UNL     1       2.564   7.849   4.774  1.00  0.00     0.138 A 
ATOM      5  C   UNL     1       2.363   8.172   6.118  1.00  0.00     0.093 A 
ATOM      6  C   UNL     1       1.116   8.628   6.555  1.00  0.00     0.123 A 
ATOM      7  C   UNL     1       0.065   8.762   5.645  1.00  0.00     0.093 A 
ATOM      8  C   UNL     1       0.247   8.430   4.294  1.00  0.00     0.133 A 
ATOM      9  C   UNL     1       1.508   7.973   3.850  1.00  0.00     0.102 A 
ATOM     10  C   UNL     1       1.765   7.561   2.449  1.00  0.00     0.174 C 
ATOM     11  O   UNL     1       0.924   7.788   1.535  1.00  0.00    -0.294 OA
ENDROOT
BRANCH   2  12
ATOM     12  C   UNL     1       5.433   6.467   2.861  1.00  0.00    -0.007 A 
ATOM     13  C   UNL     1       6.061   5.973   4.020  1.00  0.00     0.011 A 
ATOM     14  C   UNL     1       5.891   6.038   1.598  1.00  0.00     0.011 A 
ATOM     15  C   UNL     1       7.124   5.073   3.919  1.00  0.00     0.046 A 
ATOM     16  C   UNL     1       6.961   5.149   1.502  1.00  0.00     0.046 A 
ATOM     17  C   UNL     1       7.573   4.653   2.661  1.00  0.00     0.115 A 
BRANCH  17  18
ATOM     18  O   UNL     1       8.613   3.730   2.573  1.00  0.00    -0.508 OA
ATOM     19  H   UNL     1       8.991   3.286   3.394  1.00  0.00     0.293 HD
ENDBRANCH  17  18
ENDBRANCH   2  12
BRANCH   8  20
ATOM     20  O   UNL     1      -0.828   8.532   3.415  1.00  0.00    -0.507 OA
ATOM     21  H   UNL     1      -0.708   8.434   2.412  1.00  0.00     0.293 HD
ENDBRANCH   8  20
BRANCH   6  22
ATOM     22  O   UNL     1       0.905   8.939   7.896  1.00  0.00    -0.508 OA
ATOM     23  H   UNL     1       1.584   9.464   8.431  1.00  0.00     0.293 HD
ENDBRANCH   6  22
TORSDOF 4
ENDMDL
