MODEL 1
REMARK VINA RESULT:    -3.707      0.000      0.000
REMARK INTER + INTRA:         -10.182
REMARK INTER:                  -7.175
REMARK INTRA:                  -3.007
REMARK UNBOUND:                -3.007
REMARK SMILES CCCCCCCCCCCCCCCCCC(=O)[O-]
REMARK SMILES IDX 10 1 11 2 12 3 13 4 14 5 15 6 16 7 17 8 18 9 19 10 20 11
REMARK SMILES IDX 9 12 8 13 7 14 6 15 5 16 4 17 3 18 2 19 1 20
REMARK H PARENT
REMARK Flexibility Score: inf
ROOT
ATOM      1  C   UNL     1      17.264 -34.391  -0.597  1.00  0.00     0.000 C 
ENDROOT
BRANCH   1   2
ATOM      2  C   UNL     1      17.649 -35.880  -0.737  1.00  0.00     0.000 C 
BRANCH   2   3
ATOM      3  C   UNL     1      17.740 -36.353  -2.198  1.00  0.00     0.000 C 
BRANCH   3   4
ATOM      4  C   UNL     1      16.952 -37.648  -2.457  1.00  0.00     0.000 C 
BRANCH   4   5
ATOM      5  C   UNL     1      15.464 -37.519  -2.066  1.00  0.00     0.000 C 
BRANCH   5   6
ATOM      6  C   UNL     1      15.029 -38.484  -0.946  1.00  0.00     0.000 C 
BRANCH   6   7
ATOM      7  C   UNL     1      16.110 -39.485  -0.495  1.00  0.00     0.006 C 
BRANCH   7   8
ATOM      8  C   UNL     1      16.737 -39.166   0.873  1.00  0.00     0.053 C 
BRANCH   8   9
ATOM      9  C   UNL     1      18.186 -39.547   0.925  1.00  0.00     0.041 C 
ATOM     10  O   UNL     1      18.573 -40.461   1.701  1.00  0.00    -0.550 OA
ATOM     11  O   UNL     1      19.101 -38.918   0.092  1.00  0.00    -0.550 OA
ENDBRANCH   8   9
ENDBRANCH   7   8
ENDBRANCH   6   7
ENDBRANCH   5   6
ENDBRANCH   4   5
ENDBRANCH   3   4
ENDBRANCH   2   3
ENDBRANCH   1   2
BRANCH   1  12
ATOM     12  C   UNL     1      17.127 -33.697  -1.962  1.00  0.00     0.000 C 
BRANCH  12  13
ATOM     13  C   UNL     1      15.824 -32.888  -2.098  1.00  0.00    -0.000 C 
BRANCH  13  14
ATOM     14  C   UNL     1      14.574 -33.715  -2.449  1.00  0.00    -0.000 C 
BRANCH  14  15
ATOM     15  C   UNL     1      13.492 -33.656  -1.356  1.00  0.00    -0.000 C 
BRANCH  15  16
ATOM     16  C   UNL     1      13.487 -34.900  -0.449  1.00  0.00    -0.000 C 
BRANCH  16  17
ATOM     17  C   UNL     1      13.877 -34.642   1.019  1.00  0.00    -0.000 C 
BRANCH  17  18
ATOM     18  C   UNL     1      14.714 -35.780   1.626  1.00  0.00    -0.000 C 
BRANCH  18  19
ATOM     19  C   UNL     1      15.649 -35.292   2.742  1.00  0.00    -0.003 C 
ATOM     20  C   UNL     1      16.633 -36.369   3.201  1.00  0.00     0.004 C 
ENDBRANCH  18  19
ENDBRANCH  17  18
ENDBRANCH  16  17
ENDBRANCH  15  16
ENDBRANCH  14  15
ENDBRANCH  13  14
ENDBRANCH  12  13
ENDBRANCH   1  12
TORSDOF 16
ENDMDL
MODEL 2
REMARK VINA RESULT:    -3.632      1.321      3.833
REMARK INTER + INTRA:         -10.037
REMARK INTER:                  -7.092
REMARK INTRA:                  -2.945
REMARK UNBOUND:                -3.007
REMARK SMILES CCCCCCCCCCCCCCCCCC(=O)[O-]
REMARK SMILES IDX 10 1 11 2 12 3 13 4 14 5 15 6 16 7 17 8 18 9 19 10 20 11
REMARK SMILES IDX 9 12 8 13 7 14 6 15 5 16 4 17 3 18 2 19 1 20
REMARK H PARENT
REMARK Flexibility Score: inf
ROOT
ATOM      1  C   UNL     1      13.870 -34.682  -2.034  1.00  0.00     0.000 C 
ENDROOT
BRANCH   1   2
ATOM      2  C   UNL     1      13.501 -34.566  -0.540  1.00  0.00     0.000 C 
BRANCH   2   3
ATOM      3  C   UNL     1      14.110 -35.681   0.329  1.00  0.00     0.000 C 
BRANCH   3   4
ATOM      4  C   UNL     1      13.272 -36.970   0.320  1.00  0.00     0.000 C 
BRANCH   4   5
ATOM      5  C   UNL     1      14.039 -38.175   0.907  1.00  0.00     0.000 C 
BRANCH   5   6
ATOM      6  C   UNL     1      15.530 -37.893   1.175  1.00  0.00     0.000 C 
BRANCH   6   7
ATOM      7  C   UNL     1      16.325 -39.085   1.740  1.00  0.00     0.006 C 
BRANCH   7   8
ATOM      8  C   UNL     1      17.550 -39.484   0.901  1.00  0.00     0.053 C 
BRANCH   8   9
ATOM      9  C   UNL     1      18.821 -38.929   1.469  1.00  0.00     0.041 C 
ATOM     10  O   UNL     1      19.474 -38.060   0.833  1.00  0.00    -0.550 OA
ATOM     11  O   UNL     1      19.265 -39.348   2.716  1.00  0.00    -0.550 OA
ENDBRANCH   8   9
ENDBRANCH   7   8
ENDBRANCH   6   7
ENDBRANCH   5   6
ENDBRANCH   4   5
ENDBRANCH   3   4
ENDBRANCH   2   3
ENDBRANCH   1   2
BRANCH   1  12
ATOM     12  C   UNL     1      14.296 -33.331  -2.633  1.00  0.00     0.000 C 
BRANCH  12  13
ATOM     13  C   UNL     1      15.545 -32.740  -1.956  1.00  0.00    -0.000 C 
BRANCH  13  14
ATOM     14  C   UNL     1      16.836 -33.558  -2.137  1.00  0.00    -0.000 C 
BRANCH  14  15
ATOM     15  C   UNL     1      17.361 -34.146  -0.815  1.00  0.00    -0.000 C 
BRANCH  15  16
ATOM     16  C   UNL     1      17.669 -35.652  -0.909  1.00  0.00    -0.000 C 
BRANCH  16  17
ATOM     17  C   UNL     1      17.469 -36.276  -2.303  1.00  0.00    -0.000 C 
BRANCH  17  18
ATOM     18  C   UNL     1      17.046 -37.753  -2.243  1.00  0.00    -0.000 C 
BRANCH  18  19
ATOM     19  C   UNL     1      15.546 -37.947  -2.512  1.00  0.00    -0.003 C 
ATOM     20  C   UNL     1      15.194 -39.387  -2.888  1.00  0.00     0.004 C 
ENDBRANCH  18  19
ENDBRANCH  17  18
ENDBRANCH  16  17
ENDBRANCH  15  16
ENDBRANCH  14  15
ENDBRANCH  13  14
ENDBRANCH  12  13
ENDBRANCH   1  12
TORSDOF 16
ENDMDL
MODEL 3
REMARK VINA RESULT:    -3.577      1.295      3.661
REMARK INTER + INTRA:          -9.930
REMARK INTER:                  -7.267
REMARK INTRA:                  -2.663
REMARK UNBOUND:                -3.007
REMARK SMILES CCCCCCCCCCCCCCCCCC(=O)[O-]
REMARK SMILES IDX 10 1 11 2 12 3 13 4 14 5 15 6 16 7 17 8 18 9 19 10 20 11
REMARK SMILES IDX 9 12 8 13 7 14 6 15 5 16 4 17 3 18 2 19 1 20
REMARK H PARENT
REMARK Flexibility Score: inf
ROOT
ATOM      1  C   UNL     1      17.373 -35.343  -2.130  1.00  0.00     0.000 C 
ENDROOT
BRANCH   1   2
ATOM      2  C   UNL     1      17.515 -34.432  -0.893  1.00  0.00     0.000 C 
BRANCH   2   3
ATOM      3  C   UNL     1      18.123 -35.146   0.327  1.00  0.00     0.000 C 
BRANCH   3   4
ATOM      4  C   UNL     1      17.363 -34.853   1.631  1.00  0.00     0.000 C 
BRANCH   4   5
ATOM      5  C   UNL     1      16.223 -35.861   1.888  1.00  0.00     0.000 C 
BRANCH   5   6
ATOM      6  C   UNL     1      16.485 -36.808   3.074  1.00  0.00     0.000 C 
BRANCH   6   7
ATOM      7  C   UNL     1      16.496 -38.308   2.718  1.00  0.00     0.006 C 
BRANCH   7   8
ATOM      8  C   UNL     1      17.214 -38.640   1.400  1.00  0.00     0.053 C 
BRANCH   8   9
ATOM      9  C   UNL     1      18.695 -38.776   1.590  1.00  0.00     0.041 C 
ATOM     10  O   UNL     1      19.490 -38.172   0.823  1.00  0.00    -0.550 OA
ATOM     11  O   UNL     1      19.194 -39.542   2.635  1.00  0.00    -0.550 OA
ENDBRANCH   8   9
ENDBRANCH   7   8
ENDBRANCH   6   7
ENDBRANCH   5   6
ENDBRANCH   4   5
ENDBRANCH   3   4
ENDBRANCH   2   3
ENDBRANCH   1   2
BRANCH   1  12
ATOM     12  C   UNL     1      17.737 -36.805  -1.819  1.00  0.00     0.000 C 
BRANCH  12  13
ATOM     13  C   UNL     1      16.590 -37.787  -2.116  1.00  0.00    -0.000 C 
BRANCH  13  14
ATOM     14  C   UNL     1      15.207 -37.139  -2.308  1.00  0.00    -0.000 C 
BRANCH  14  15
ATOM     15  C   UNL     1      14.523 -36.787  -0.975  1.00  0.00    -0.000 C 
BRANCH  15  16
ATOM     16  C   UNL     1      13.687 -35.495  -1.052  1.00  0.00    -0.000 C 
BRANCH  16  17
ATOM     17  C   UNL     1      13.634 -34.833  -2.442  1.00  0.00    -0.000 C 
BRANCH  17  18
ATOM     18  C   UNL     1      14.180 -33.395  -2.442  1.00  0.00    -0.000 C 
BRANCH  18  19
ATOM     19  C   UNL     1      14.405 -32.851  -1.023  1.00  0.00    -0.003 C 
ATOM     20  C   UNL     1      13.560 -31.613  -0.725  1.00  0.00     0.004 C 
ENDBRANCH  18  19
ENDBRANCH  17  18
ENDBRANCH  16  17
ENDBRANCH  15  16
ENDBRANCH  14  15
ENDBRANCH  13  14
ENDBRANCH  12  13
ENDBRANCH   1  12
TORSDOF 16
ENDMDL
MODEL 4
REMARK VINA RESULT:    -3.521      1.262      3.055
REMARK INTER + INTRA:          -9.822
REMARK INTER:                  -6.807
REMARK INTRA:                  -3.014
REMARK UNBOUND:                -3.007
REMARK SMILES CCCCCCCCCCCCCCCCCC(=O)[O-]
REMARK SMILES IDX 10 1 11 2 12 3 13 4 14 5 15 6 16 7 17 8 18 9 19 10 20 11
REMARK SMILES IDX 9 12 8 13 7 14 6 15 5 16 4 17 3 18 2 19 1 20
REMARK H PARENT
REMARK Flexibility Score: inf
ROOT
ATOM      1  C   UNL     1      17.464 -36.164  -0.747  1.00  0.00     0.000 C 
ENDROOT
BRANCH   1   2
ATOM      2  C   UNL     1      17.857 -35.268   0.447  1.00  0.00     0.000 C 
BRANCH   2   3
ATOM      3  C   UNL     1      16.922 -35.419   1.659  1.00  0.00     0.000 C 
BRANCH   3   4
ATOM      4  C   UNL     1      15.493 -35.824   1.264  1.00  0.00     0.000 C 
BRANCH   4   5
ATOM      5  C   UNL     1      15.057 -37.154   1.916  1.00  0.00     0.000 C 
BRANCH   5   6
ATOM      6  C   UNL     1      14.710 -38.260   0.901  1.00  0.00     0.000 C 
BRANCH   6   7
ATOM      7  C   UNL     1      15.813 -39.314   0.686  1.00  0.00     0.006 C 
BRANCH   7   8
ATOM      8  C   UNL     1      16.967 -39.238   1.698  1.00  0.00     0.053 C 
BRANCH   8   9
ATOM      9  C   UNL     1      18.290 -39.540   1.061  1.00  0.00     0.041 C 
ATOM     10  O   UNL     1      19.098 -38.609   0.805  1.00  0.00    -0.550 OA
ATOM     11  O   UNL     1      18.643 -40.854   0.783  1.00  0.00    -0.550 OA
ENDBRANCH   8   9
ENDBRANCH   7   8
ENDBRANCH   6   7
ENDBRANCH   5   6
ENDBRANCH   4   5
ENDBRANCH   3   4
ENDBRANCH   2   3
ENDBRANCH   1   2
BRANCH   1  12
ATOM     12  C   UNL     1      17.393 -35.376  -2.066  1.00  0.00     0.000 C 
BRANCH  12  13
ATOM     13  C   UNL     1      17.463 -33.853  -1.861  1.00  0.00    -0.000 C 
BRANCH  13  14
ATOM     14  C   UNL     1      16.201 -33.077  -2.282  1.00  0.00    -0.000 C 
BRANCH  14  15
ATOM     15  C   UNL     1      14.980 -33.400  -1.403  1.00  0.00    -0.000 C 
BRANCH  15  16
ATOM     16  C   UNL     1      13.893 -34.191  -2.152  1.00  0.00    -0.000 C 
BRANCH  16  17
ATOM     17  C   UNL     1      12.966 -35.037  -1.258  1.00  0.00    -0.000 C 
BRANCH  17  18
ATOM     18  C   UNL     1      12.876 -36.505  -1.709  1.00  0.00    -0.000 C 
BRANCH  18  19
ATOM     19  C   UNL     1      14.169 -36.995  -2.378  1.00  0.00    -0.003 C 
ATOM     20  C   UNL     1      14.091 -38.460  -2.811  1.00  0.00     0.004 C 
ENDBRANCH  18  19
ENDBRANCH  17  18
ENDBRANCH  16  17
ENDBRANCH  15  16
ENDBRANCH  14  15
ENDBRANCH  13  14
ENDBRANCH  12  13
ENDBRANCH   1  12
TORSDOF 16
ENDMDL
MODEL 5
REMARK VINA RESULT:    -3.474      2.017      3.798
REMARK INTER + INTRA:          -9.731
REMARK INTER:                  -7.028
REMARK INTRA:                  -2.703
REMARK UNBOUND:                -3.007
REMARK SMILES CCCCCCCCCCCCCCCCCC(=O)[O-]
REMARK SMILES IDX 10 1 11 2 12 3 13 4 14 5 15 6 16 7 17 8 18 9 19 10 20 11
REMARK SMILES IDX 9 12 8 13 7 14 6 15 5 16 4 17 3 18 2 19 1 20
REMARK H PARENT
REMARK Flexibility Score: inf
ROOT
ATOM      1  C   UNL     1      17.670 -36.377  -2.288  1.00  0.00     0.000 C 
ENDROOT
BRANCH   1   2
ATOM      2  C   UNL     1      17.792 -37.736  -1.567  1.00  0.00     0.000 C 
BRANCH   2   3
ATOM      3  C   UNL     1      18.453 -37.636  -0.181  1.00  0.00     0.000 C 
BRANCH   3   4
ATOM      4  C   UNL     1      17.779 -38.535   0.868  1.00  0.00     0.000 C 
BRANCH   4   5
ATOM      5  C   UNL     1      16.290 -38.794   0.553  1.00  0.00     0.000 C 
BRANCH   5   6
ATOM      6  C   UNL     1      15.318 -38.013   1.458  1.00  0.00     0.000 C 
BRANCH   6   7
ATOM      7  C   UNL     1      15.009 -36.577   0.992  1.00  0.00     0.006 C 
BRANCH   7   8
ATOM      8  C   UNL     1      15.120 -35.515   2.099  1.00  0.00     0.053 C 
BRANCH   8   9
ATOM      9  C   UNL     1      16.484 -35.496   2.719  1.00  0.00     0.041 C 
ATOM     10  O   UNL     1      17.467 -35.042   2.074  1.00  0.00    -0.550 OA
ATOM     11  O   UNL     1      16.663 -35.946   4.020  1.00  0.00    -0.550 OA
ENDBRANCH   8   9
ENDBRANCH   7   8
ENDBRANCH   6   7
ENDBRANCH   5   6
ENDBRANCH   4   5
ENDBRANCH   3   4
ENDBRANCH   2   3
ENDBRANCH   1   2
BRANCH   1  12
ATOM     12  C   UNL     1      17.170 -35.265  -1.350  1.00  0.00     0.000 C 
BRANCH  12  13
ATOM     13  C   UNL     1      17.478 -33.851  -1.875  1.00  0.00    -0.000 C 
BRANCH  13  14
ATOM     14  C   UNL     1      16.253 -33.050  -2.354  1.00  0.00    -0.000 C 
BRANCH  14  15
ATOM     15  C   UNL     1      15.041 -33.196  -1.417  1.00  0.00    -0.000 C 
BRANCH  15  16
ATOM     16  C   UNL     1      13.697 -32.993  -2.140  1.00  0.00    -0.000 C 
BRANCH  16  17
ATOM     17  C   UNL     1      13.094 -34.263  -2.771  1.00  0.00    -0.000 C 
BRANCH  17  18
ATOM     18  C   UNL     1      13.532 -35.553  -2.056  1.00  0.00    -0.000 C 
BRANCH  18  19
ATOM     19  C   UNL     1      13.269 -36.810  -2.898  1.00  0.00    -0.003 C 
ATOM     20  C   UNL     1      14.245 -37.945  -2.584  1.00  0.00     0.004 C 
ENDBRANCH  18  19
ENDBRANCH  17  18
ENDBRANCH  16  17
ENDBRANCH  15  16
ENDBRANCH  14  15
ENDBRANCH  13  14
ENDBRANCH  12  13
ENDBRANCH   1  12
TORSDOF 16
ENDMDL
MODEL 6
REMARK VINA RESULT:    -3.471      2.831      4.418
REMARK INTER + INTRA:          -9.725
REMARK INTER:                  -7.248
REMARK INTRA:                  -2.477
REMARK UNBOUND:                -3.007
REMARK SMILES CCCCCCCCCCCCCCCCCC(=O)[O-]
REMARK SMILES IDX 10 1 11 2 12 3 13 4 14 5 15 6 16 7 17 8 18 9 19 10 20 11
REMARK SMILES IDX 9 12 8 13 7 14 6 15 5 16 4 17 3 18 2 19 1 20
REMARK H PARENT
REMARK Flexibility Score: inf
ROOT
ATOM      1  C   UNL     1      15.126 -33.402  -1.461  1.00  0.00     0.000 C 
ENDROOT
BRANCH   1   2
ATOM      2  C   UNL     1      13.997 -33.640  -2.487  1.00  0.00     0.000 C 
BRANCH   2   3
ATOM      3  C   UNL     1      12.997 -34.726  -2.054  1.00  0.00     0.000 C 
BRANCH   3   4
ATOM      4  C   UNL     1      13.146 -36.029  -2.855  1.00  0.00     0.000 C 
BRANCH   4   5
ATOM      5  C   UNL     1      13.005 -37.285  -1.969  1.00  0.00     0.000 C 
BRANCH   5   6
ATOM      6  C   UNL     1      14.213 -38.239  -2.044  1.00  0.00     0.000 C 
BRANCH   6   7
ATOM      7  C   UNL     1      14.249 -39.145  -3.290  1.00  0.00     0.006 C 
BRANCH   7   8
ATOM      8  C   UNL     1      15.635 -39.732  -3.606  1.00  0.00     0.053 C 
BRANCH   8   9
ATOM      9  C   UNL     1      15.641 -40.480  -4.904  1.00  0.00     0.041 C 
ATOM     10  O   UNL     1      14.556 -40.784  -5.466  1.00  0.00    -0.550 OA
ATOM     11  O   UNL     1      16.846 -40.811  -5.510  1.00  0.00    -0.550 OA
ENDBRANCH   8   9
ENDBRANCH   7   8
ENDBRANCH   6   7
ENDBRANCH   5   6
ENDBRANCH   4   5
ENDBRANCH   3   4
ENDBRANCH   2   3
ENDBRANCH   1   2
BRANCH   1  12
ATOM     12  C   UNL     1      16.510 -33.332  -2.129  1.00  0.00     0.000 C 
BRANCH  12  13
ATOM     13  C   UNL     1      17.415 -34.523  -1.766  1.00  0.00    -0.000 C 
BRANCH  13  14
ATOM     14  C   UNL     1      16.855 -35.907  -2.140  1.00  0.00    -0.000 C 
BRANCH  14  15
ATOM     15  C   UNL     1      17.939 -36.999  -2.185  1.00  0.00    -0.000 C 
BRANCH  15  16
ATOM     16  C   UNL     1      17.891 -37.942  -0.969  1.00  0.00    -0.000 C 
BRANCH  16  17
ATOM     17  C   UNL     1      18.466 -37.359   0.335  1.00  0.00    -0.000 C 
BRANCH  17  18
ATOM     18  C   UNL     1      17.469 -37.408   1.505  1.00  0.00    -0.000 C 
BRANCH  18  19
ATOM     19  C   UNL     1      16.014 -37.552   1.033  1.00  0.00    -0.003 C 
ATOM     20  C   UNL     1      15.248 -36.229   1.071  1.00  0.00     0.004 C 
ENDBRANCH  18  19
ENDBRANCH  17  18
ENDBRANCH  16  17
ENDBRANCH  15  16
ENDBRANCH  14  15
ENDBRANCH  13  14
ENDBRANCH  12  13
ENDBRANCH   1  12
TORSDOF 16
ENDMDL
MODEL 7
REMARK VINA RESULT:    -3.438      1.823      3.670
REMARK INTER + INTRA:          -9.660
REMARK INTER:                  -6.659
REMARK INTRA:                  -3.002
REMARK UNBOUND:                -3.007
REMARK SMILES CCCCCCCCCCCCCCCCCC(=O)[O-]
REMARK SMILES IDX 10 1 11 2 12 3 13 4 14 5 15 6 16 7 17 8 18 9 19 10 20 11
REMARK SMILES IDX 9 12 8 13 7 14 6 15 5 16 4 17 3 18 2 19 1 20
REMARK H PARENT
REMARK Flexibility Score: inf
ROOT
ATOM      1  C   UNL     1      14.876 -33.000  -1.300  1.00  0.00     0.000 C 
ENDROOT
BRANCH   1   2
ATOM      2  C   UNL     1      15.930 -33.141  -2.419  1.00  0.00     0.000 C 
BRANCH   2   3
ATOM      3  C   UNL     1      17.265 -33.730  -1.932  1.00  0.00     0.000 C 
BRANCH   3   4
ATOM      4  C   UNL     1      17.121 -35.158  -1.380  1.00  0.00     0.000 C 
BRANCH   4   5
ATOM      5  C   UNL     1      17.813 -36.208  -2.275  1.00  0.00     0.000 C 
BRANCH   5   6
ATOM      6  C   UNL     1      16.993 -37.498  -2.470  1.00  0.00     0.000 C 
BRANCH   6   7
ATOM      7  C   UNL     1      15.496 -37.374  -2.122  1.00  0.00     0.006 C 
BRANCH   7   8
ATOM      8  C   UNL     1      14.613 -38.478  -2.728  1.00  0.00     0.053 C 
BRANCH   8   9
ATOM      9  C   UNL     1      14.991 -39.837  -2.221  1.00  0.00     0.041 C 
ATOM     10  O   UNL     1      15.435 -40.709  -3.015  1.00  0.00    -0.550 OA
ATOM     11  O   UNL     1      14.888 -40.127  -0.867  1.00  0.00    -0.550 OA
ENDBRANCH   8   9
ENDBRANCH   7   8
ENDBRANCH   6   7
ENDBRANCH   5   6
ENDBRANCH   4   5
ENDBRANCH   3   4
ENDBRANCH   2   3
ENDBRANCH   1   2
BRANCH   1  12
ATOM     12  C   UNL     1      13.694 -33.965  -1.492  1.00  0.00     0.000 C 
BRANCH  12  13
ATOM     13  C   UNL     1      13.523 -34.948  -0.320  1.00  0.00    -0.000 C 
BRANCH  13  14
ATOM     14  C   UNL     1      14.064 -34.454   1.033  1.00  0.00    -0.000 C 
BRANCH  14  15
ATOM     15  C   UNL     1      15.103 -35.409   1.646  1.00  0.00    -0.000 C 
BRANCH  15  16
ATOM     16  C   UNL     1      14.893 -36.875   1.224  1.00  0.00    -0.000 C 
BRANCH  16  17
ATOM     17  C   UNL     1      16.058 -37.826   1.559  1.00  0.00    -0.000 C 
BRANCH  17  18
ATOM     18  C   UNL     1      17.410 -37.101   1.670  1.00  0.00    -0.000 C 
BRANCH  18  19
ATOM     19  C   UNL     1      18.531 -37.825   0.909  1.00  0.00    -0.003 C 
ATOM     20  C   UNL     1      18.158 -39.261   0.536  1.00  0.00     0.004 C 
ENDBRANCH  18  19
ENDBRANCH  17  18
ENDBRANCH  16  17
ENDBRANCH  15  16
ENDBRANCH  14  15
ENDBRANCH  13  14
ENDBRANCH  12  13
ENDBRANCH   1  12
TORSDOF 16
ENDMDL
MODEL 8
REMARK VINA RESULT:    -3.434      1.375      3.885
REMARK INTER + INTRA:          -9.653
REMARK INTER:                  -6.489
REMARK INTRA:                  -3.164
REMARK UNBOUND:                -3.007
REMARK SMILES CCCCCCCCCCCCCCCCCC(=O)[O-]
REMARK SMILES IDX 10 1 11 2 12 3 13 4 14 5 15 6 16 7 17 8 18 9 19 10 20 11
REMARK SMILES IDX 9 12 8 13 7 14 6 15 5 16 4 17 3 18 2 19 1 20
REMARK H PARENT
REMARK Flexibility Score: inf
ROOT
ATOM      1  C   UNL     1      16.475 -35.402   1.293  1.00  0.00     0.000 C 
ENDROOT
BRANCH   1   2
ATOM      2  C   UNL     1      16.787 -35.278   2.799  1.00  0.00     0.000 C 
BRANCH   2   3
ATOM      3  C   UNL     1      15.530 -35.285   3.686  1.00  0.00     0.000 C 
BRANCH   3   4
ATOM      4  C   UNL     1      14.371 -36.088   3.073  1.00  0.00     0.000 C 
BRANCH   4   5
ATOM      5  C   UNL     1      14.384 -37.568   3.511  1.00  0.00     0.000 C 
BRANCH   5   6
ATOM      6  C   UNL     1      14.867 -38.537   2.414  1.00  0.00     0.000 C 
BRANCH   6   7
ATOM      7  C   UNL     1      16.329 -39.003   2.557  1.00  0.00     0.006 C 
BRANCH   7   8
ATOM      8  C   UNL     1      17.154 -38.904   1.264  1.00  0.00     0.053 C 
BRANCH   8   9
ATOM      9  C   UNL     1      18.622 -38.802   1.544  1.00  0.00     0.041 C 
ATOM     10  O   UNL     1      19.109 -39.332   2.579  1.00  0.00    -0.550 OA
ATOM     11  O   UNL     1      19.458 -38.152   0.646  1.00  0.00    -0.550 OA
ENDBRANCH   8   9
ENDBRANCH   7   8
ENDBRANCH   6   7
ENDBRANCH   5   6
ENDBRANCH   4   5
ENDBRANCH   3   4
ENDBRANCH   2   3
ENDBRANCH   1   2
BRANCH   1  12
ATOM     12  C   UNL     1      17.717 -35.150   0.421  1.00  0.00     0.000 C 
BRANCH  12  13
ATOM     13  C   UNL     1      17.422 -34.275  -0.810  1.00  0.00    -0.000 C 
BRANCH  13  14
ATOM     14  C   UNL     1      17.206 -35.047  -2.125  1.00  0.00    -0.000 C 
BRANCH  14  15
ATOM     15  C   UNL     1      17.801 -36.465  -2.089  1.00  0.00    -0.000 C 
BRANCH  15  16
ATOM     16  C   UNL     1      16.730 -37.568  -2.179  1.00  0.00    -0.000 C 
BRANCH  16  17
ATOM     17  C   UNL     1      15.274 -37.065  -2.194  1.00  0.00    -0.000 C 
BRANCH  17  18
ATOM     18  C   UNL     1      14.435 -37.624  -1.031  1.00  0.00    -0.000 C 
BRANCH  18  19
ATOM     19  C   UNL     1      13.407 -36.610  -0.507  1.00  0.00    -0.003 C 
ATOM     20  C   UNL     1      13.665 -35.192  -1.017  1.00  0.00     0.004 C 
ENDBRANCH  18  19
ENDBRANCH  17  18
ENDBRANCH  16  17
ENDBRANCH  15  16
ENDBRANCH  14  15
ENDBRANCH  13  14
ENDBRANCH  12  13
ENDBRANCH   1  12
TORSDOF 16
ENDMDL
MODEL 9
REMARK VINA RESULT:    -3.428      1.229      3.321
REMARK INTER + INTRA:          -9.641
REMARK INTER:                  -6.510
REMARK INTRA:                  -3.131
REMARK UNBOUND:                -3.007
REMARK SMILES CCCCCCCCCCCCCCCCCC(=O)[O-]
REMARK SMILES IDX 10 1 11 2 12 3 13 4 14 5 15 6 16 7 17 8 18 9 19 10 20 11
REMARK SMILES IDX 9 12 8 13 7 14 6 15 5 16 4 17 3 18 2 19 1 20
REMARK H PARENT
REMARK Flexibility Score: inf
ROOT
ATOM      1  C   UNL     1      16.180 -33.062  -2.384  1.00  0.00     0.000 C 
ENDROOT
BRANCH   1   2
ATOM      2  C   UNL     1      17.345 -33.844  -1.740  1.00  0.00     0.000 C 
BRANCH   2   3
ATOM      3  C   UNL     1      17.325 -35.348  -2.065  1.00  0.00     0.000 C 
BRANCH   3   4
ATOM      4  C   UNL     1      17.547 -36.230  -0.826  1.00  0.00     0.000 C 
BRANCH   4   5
ATOM      5  C   UNL     1      17.510 -35.420   0.488  1.00  0.00     0.000 C 
BRANCH   5   6
ATOM      6  C   UNL     1      16.538 -35.986   1.541  1.00  0.00     0.000 C 
BRANCH   6   7
ATOM      7  C   UNL     1      16.374 -37.519   1.517  1.00  0.00     0.006 C 
BRANCH   7   8
ATOM      8  C   UNL     1      17.544 -38.290   2.149  1.00  0.00     0.053 C 
BRANCH   8   9
ATOM      9  C   UNL     1      17.850 -39.553   1.403  1.00  0.00     0.041 C 
ATOM     10  O   UNL     1      18.766 -39.572   0.538  1.00  0.00    -0.550 OA
ATOM     11  O   UNL     1      17.146 -40.716   1.687  1.00  0.00    -0.550 OA
ENDBRANCH   8   9
ENDBRANCH   7   8
ENDBRANCH   6   7
ENDBRANCH   5   6
ENDBRANCH   4   5
ENDBRANCH   3   4
ENDBRANCH   2   3
ENDBRANCH   1   2
BRANCH   1  12
ATOM     12  C   UNL     1      15.011 -32.853  -1.407  1.00  0.00     0.000 C 
BRANCH  12  13
ATOM     13  C   UNL     1      13.881 -33.882  -1.592  1.00  0.00    -0.000 C 
BRANCH  13  14
ATOM     14  C   UNL     1      13.613 -34.785  -0.375  1.00  0.00    -0.000 C 
BRANCH  14  15
ATOM     15  C   UNL     1      13.567 -36.280  -0.739  1.00  0.00    -0.000 C 
BRANCH  15  16
ATOM     16  C   UNL     1      13.870 -36.545  -2.225  1.00  0.00    -0.000 C 
BRANCH  16  17
ATOM     17  C   UNL     1      14.003 -38.031  -2.610  1.00  0.00    -0.000 C 
BRANCH  17  18
ATOM     18  C   UNL     1      15.458 -38.528  -2.589  1.00  0.00    -0.000 C 
BRANCH  18  19
ATOM     19  C   UNL     1      15.691 -39.622  -1.536  1.00  0.00    -0.003 C 
ATOM     20  C   UNL     1      14.450 -39.895  -0.684  1.00  0.00     0.004 C 
ENDBRANCH  18  19
ENDBRANCH  17  18
ENDBRANCH  16  17
ENDBRANCH  15  16
ENDBRANCH  14  15
ENDBRANCH  13  14
ENDBRANCH  12  13
ENDBRANCH   1  12
TORSDOF 16
ENDMDL
