MODEL 1
REMARK VINA RESULT:    22.254      0.000      0.000
REMARK INTER + INTRA:          42.411
REMARK INTER:                  35.264
REMARK INTRA:                   7.147
REMARK UNBOUND:                 7.147
REMARK SMILES C[C@@H]1O[C@H](OC[C@H]2O[C@H](Oc3c(-c4ccc(O)c(O)c4)oc4cc(O)cc(O)c4c3=O)[C@H](O)[C@H](O)[C@H]2O)[C@@H](O)[C@H](O)[C@@H]1O
REMARK SMILES IDX 7 1 36 2 34 3 32 4 9 5 8 6 6 7 5 8 4 9 1 10 2 11 42 12 3 13
REMARK SMILES IDX 40 14 38 15 43 16 41 18 39 20 37 22 35 24 10 26 11 27 12 28
REMARK SMILES IDX 30 29 21 30 29 31 31 32 22 33 27 34 23 35 26 36 24 37 13 38
REMARK SMILES IDX 20 39 14 40 18 41 15 42 16 43 19 44 17 46 28 48 25 50 33 52
REMARK H PARENT 43 17 41 19 39 21 37 23 35 25 19 45 17 47 28 49 25 51 33 53
REMARK Flexibility Score: inf
ROOT
ATOM      1  C   UNL     1      92.699 101.827  99.276  1.00  0.00     0.180 C 
ATOM      2  C   UNL     1      92.967 100.768 100.369  1.00  0.00     0.177 C 
ATOM      3  C   UNL     1      93.297 101.324 101.769  1.00  0.00     0.180 C 
ATOM      4  C   UNL     1      92.491 102.599 102.122  1.00  0.00     0.214 C 
ATOM      5  C   UNL     1      92.426 103.676 100.973  1.00  0.00     0.339 C 
ATOM      6  O   UNL     1      92.245 103.133  99.643  1.00  0.00    -0.332 OA
ENDROOT
BRANCH   1   7
ATOM      7  C   UNL     1      91.875 101.264  98.058  1.00  0.00     0.198 C 
BRANCH   7   8
ATOM      8  O   UNL     1      92.278  99.932  97.562  1.00  0.00    -0.347 OA
BRANCH   8   9
ATOM      9  C   UNL     1      93.587  99.812  96.887  1.00  0.00     0.281 C 
ATOM     10  C   UNL     1      95.595 101.793  94.355  1.00  0.00     0.041 C 
ATOM     11  C   UNL     1      95.184 101.081  95.693  1.00  0.00     0.150 C 
ATOM     12  C   UNL     1      95.712 101.837  96.932  1.00  0.00     0.174 C 
ATOM     13  O   UNL     1      93.806 100.899  95.966  1.00  0.00    -0.344 OA
ATOM     14  C   UNL     1      95.787 100.730  98.093  1.00  0.00     0.179 C 
ATOM     15  C   UNL     1      94.792  99.433  97.823  1.00  0.00     0.202 C 
BRANCH  12  16
ATOM     16  O   UNL     1      94.782 102.823  97.313  1.00  0.00    -0.388 OA
ATOM     17  H   UNL     1      95.012 103.677  96.811  1.00  0.00     0.211 HD
ENDBRANCH  12  16
BRANCH  14  18
ATOM     18  O   UNL     1      95.535 101.227  99.391  1.00  0.00    -0.387 OA
ATOM     19  H   UNL     1      95.548 102.266  99.335  1.00  0.00     0.211 HD
ENDBRANCH  14  18
BRANCH  15  20
ATOM     20  O   UNL     1      95.587  98.461  97.202  1.00  0.00    -0.385 OA
ATOM     21  H   UNL     1      96.379  98.258  97.788  1.00  0.00     0.211 HD
ENDBRANCH  15  20
ENDBRANCH   8   9
ENDBRANCH   7   8
ENDBRANCH   1   7
BRANCH   2  22
ATOM     22  O   UNL     1      91.875  99.872 100.487  1.00  0.00    -0.387 OA
ATOM     23  H   UNL     1      91.304  99.898  99.621  1.00  0.00     0.211 HD
ENDBRANCH   2  22
BRANCH   3  24
ATOM     24  O   UNL     1      94.670 101.584 101.974  1.00  0.00    -0.387 OA
ATOM     25  H   UNL     1      94.953 102.558 101.861  1.00  0.00     0.211 HD
ENDBRANCH   3  24
BRANCH   5  26
ATOM     26  O   UNL     1      93.439 104.694 101.154  1.00  0.00    -0.454 OA
BRANCH  26  27
ATOM     27  C   UNL     1      94.476 105.158 100.279  1.00  0.00     0.214 A 
ATOM     28  C   UNL     1      94.062 105.931  99.121  1.00  0.00     0.180 A 
ATOM     29  C   UNL     1      95.736 104.606 100.385  1.00  0.00     0.239 A 
ATOM     30  O   UNL     1      95.032 105.970  98.170  1.00  0.00    -0.452 OA
ATOM     31  C   UNL     1      96.530 104.433  99.203  1.00  0.00     0.111 A 
ATOM     32  O   UNL     1      96.117 104.072 101.443  1.00  0.00    -0.285 OA
ATOM     33  C   UNL     1      96.143 105.180  98.077  1.00  0.00     0.146 A 
ATOM     34  C   UNL     1      97.622 103.503  99.061  1.00  0.00     0.134 A 
ATOM     35  C   UNL     1      96.729 104.938  96.791  1.00  0.00     0.094 A 
ATOM     36  C   UNL     1      97.984 103.038  97.746  1.00  0.00     0.093 A 
ATOM     37  C   UNL     1      97.542 103.779  96.609  1.00  0.00     0.123 A 
BRANCH  28  38
ATOM     38  C   UNL     1      94.054 106.691  97.713  1.00  0.00     0.025 A 
ATOM     39  C   UNL     1      95.380 106.841  98.297  1.00  0.00     0.062 A 
ATOM     40  C   UNL     1      93.847 108.034  96.985  1.00  0.00     0.016 A 
ATOM     41  C   UNL     1      95.454 108.068  99.157  1.00  0.00     0.158 A 
ATOM     42  C   UNL     1      94.005 109.233  97.654  1.00  0.00     0.051 A 
ATOM     43  C   UNL     1      94.452 109.080  98.951  1.00  0.00     0.157 A 
BRANCH  41  44
ATOM     44  O   UNL     1      95.481 108.063 100.591  1.00  0.00    -0.504 OA
ATOM     45  H   UNL     1      94.945 107.468 101.291  1.00  0.00     0.293 HD
ENDBRANCH  41  44
BRANCH  43  46
ATOM     46  O   UNL     1      93.698 109.595  99.979  1.00  0.00    -0.504 OA
ATOM     47  H   UNL     1      93.874 109.203 100.924  1.00  0.00     0.293 HD
ENDBRANCH  43  46
ENDBRANCH  28  38
BRANCH  34  48
ATOM     48  O   UNL     1      98.202 102.930 100.186  1.00  0.00    -0.507 OA
ATOM     49  H   UNL     1      98.651 101.988 100.092  1.00  0.00     0.293 HD
ENDBRANCH  34  48
BRANCH  37  50
ATOM     50  O   UNL     1      97.527 103.145  95.328  1.00  0.00    -0.508 OA
ATOM     51  H   UNL     1      97.936 103.641  94.510  1.00  0.00     0.293 HD
ENDBRANCH  37  50
ENDBRANCH  26  27
ENDBRANCH   5  26
BRANCH   4  52
ATOM     52  O   UNL     1      92.937 103.095 103.340  1.00  0.00    -0.384 OA
ATOM     53  H   UNL     1      93.087 102.330 103.940  1.00  0.00     0.211 HD
ENDBRANCH   4  52
TORSDOF 16
ENDMDL
MODEL 2
REMARK VINA RESULT:    23.755      1.590      6.185
REMARK INTER + INTRA:          44.789
REMARK INTER:                  39.382
REMARK INTRA:                   5.407
REMARK UNBOUND:                 7.147
REMARK SMILES C[C@@H]1O[C@H](OC[C@H]2O[C@H](Oc3c(-c4ccc(O)c(O)c4)oc4cc(O)cc(O)c4c3=O)[C@H](O)[C@H](O)[C@H]2O)[C@@H](O)[C@H](O)[C@@H]1O
REMARK SMILES IDX 7 1 36 2 34 3 32 4 9 5 8 6 6 7 5 8 4 9 1 10 2 11 42 12 3 13
REMARK SMILES IDX 40 14 38 15 43 16 41 18 39 20 37 22 35 24 10 26 11 27 12 28
REMARK SMILES IDX 30 29 21 30 29 31 31 32 22 33 27 34 23 35 26 36 24 37 13 38
REMARK SMILES IDX 20 39 14 40 18 41 15 42 16 43 19 44 17 46 28 48 25 50 33 52
REMARK H PARENT 43 17 41 19 39 21 37 23 35 25 19 45 17 47 28 49 25 51 33 53
REMARK Flexibility Score: inf
ROOT
ATOM      1  C   UNL     1      94.192 104.388 100.536  1.00  0.00     0.180 C 
ATOM      2  C   UNL     1      92.717 103.938 100.448  1.00  0.00     0.177 C 
ATOM      3  C   UNL     1      92.472 102.423 100.598  1.00  0.00     0.180 C 
ATOM      4  C   UNL     1      93.415 101.754 101.629  1.00  0.00     0.214 C 
ATOM      5  C   UNL     1      94.928 102.178 101.510  1.00  0.00     0.339 C 
ATOM      6  O   UNL     1      95.143 103.585 101.240  1.00  0.00    -0.332 OA
ENDROOT
BRANCH   1   7
ATOM      7  C   UNL     1      94.353 105.910 100.906  1.00  0.00     0.198 C 
BRANCH   7   8
ATOM      8  O   UNL     1      95.005 106.760  99.889  1.00  0.00    -0.347 OA
BRANCH   8   9
ATOM      9  C   UNL     1      94.173 107.759  99.186  1.00  0.00     0.281 C 
ATOM     10  C   UNL     1      92.969 111.299  99.810  1.00  0.00     0.041 C 
ATOM     11  C   UNL     1      93.689 110.072  99.143  1.00  0.00     0.150 C 
ATOM     12  C   UNL     1      95.022 110.479  98.479  1.00  0.00     0.174 C 
ATOM     13  O   UNL     1      94.037 108.968  99.959  1.00  0.00    -0.344 OA
ATOM     14  C   UNL     1      95.286 109.360  97.359  1.00  0.00     0.179 C 
ATOM     15  C   UNL     1      94.489 107.938  97.657  1.00  0.00     0.202 C 
BRANCH  12  16
ATOM     16  O   UNL     1      96.059 110.416  99.429  1.00  0.00    -0.388 OA
ATOM     17  H   UNL     1      95.856 109.644 100.059  1.00  0.00     0.211 HD
ENDBRANCH  12  16
BRANCH  14  18
ATOM     18  O   UNL     1      96.651 109.070  97.134  1.00  0.00    -0.387 OA
ATOM     19  H   UNL     1      97.080 109.910  96.696  1.00  0.00     0.211 HD
ENDBRANCH  14  18
BRANCH  15  20
ATOM     20  O   UNL     1      93.292 108.010  96.931  1.00  0.00    -0.385 OA
ATOM     21  H   UNL     1      92.517 108.010  97.570  1.00  0.00     0.211 HD
ENDBRANCH  15  20
ENDBRANCH   8   9
ENDBRANCH   7   8
ENDBRANCH   1   7
BRANCH   2  22
ATOM     22  O   UNL     1      91.920 104.618 101.404  1.00  0.00    -0.387 OA
ATOM     23  H   UNL     1      91.642 105.546 101.033  1.00  0.00     0.211 HD
ENDBRANCH   2  22
BRANCH   3  24
ATOM     24  O   UNL     1      92.548 101.707  99.383  1.00  0.00    -0.387 OA
ATOM     25  H   UNL     1      91.845 100.976  99.261  1.00  0.00     0.211 HD
ENDBRANCH   3  24
BRANCH   5  26
ATOM     26  O   UNL     1      95.680 101.219 100.730  1.00  0.00    -0.454 OA
BRANCH  26  27
ATOM     27  C   UNL     1      95.551 100.809  99.362  1.00  0.00     0.214 A 
ATOM     28  C   UNL     1      96.333 101.539  98.380  1.00  0.00     0.180 A 
ATOM     29  C   UNL     1      94.497  99.991  99.006  1.00  0.00     0.239 A 
ATOM     30  O   UNL     1      95.850 101.361  97.121  1.00  0.00    -0.452 OA
ATOM     31  C   UNL     1      93.889 100.149  97.717  1.00  0.00     0.111 A 
ATOM     32  O   UNL     1      93.935  99.265  99.847  1.00  0.00    -0.285 OA
ATOM     33  C   UNL     1      94.638 100.849  96.756  1.00  0.00     0.146 A 
ATOM     34  C   UNL     1      92.557  99.725  97.367  1.00  0.00     0.134 A 
ATOM     35  C   UNL     1      94.054 101.244  95.507  1.00  0.00     0.094 A 
ATOM     36  C   UNL     1      91.875 100.376  96.277  1.00  0.00     0.093 A 
ATOM     37  C   UNL     1      92.642 101.127  95.336  1.00  0.00     0.123 A 
BRANCH  28  38
ATOM     38  C   UNL     1      96.898 102.119  97.000  1.00  0.00     0.025 A 
ATOM     39  C   UNL     1      97.765 102.587  98.072  1.00  0.00     0.062 A 
ATOM     40  C   UNL     1      96.901 103.306  96.015  1.00  0.00     0.016 A 
ATOM     41  C   UNL     1      97.280 103.894  98.626  1.00  0.00     0.158 A 
ATOM     42  C   UNL     1      96.582 104.581  96.445  1.00  0.00     0.051 A 
ATOM     43  C   UNL     1      96.381 104.664  97.808  1.00  0.00     0.157 A 
BRANCH  41  44
ATOM     44  O   UNL     1      96.630 104.056  99.894  1.00  0.00    -0.504 OA
ATOM     45  H   UNL     1      97.031 104.089 100.878  1.00  0.00     0.293 HD
ENDBRANCH  41  44
BRANCH  43  46
ATOM     46  O   UNL     1      95.177 105.137  98.275  1.00  0.00    -0.504 OA
ATOM     47  H   UNL     1      95.041 106.165  98.249  1.00  0.00     0.293 HD
ENDBRANCH  43  46
ENDBRANCH  28  38
BRANCH  34  48
ATOM     48  O   UNL     1      91.875  98.824  98.175  1.00  0.00    -0.507 OA
ATOM     49  H   UNL     1      92.306  97.886  98.352  1.00  0.00     0.293 HD
ENDBRANCH  34  48
BRANCH  37  50
ATOM     50  O   UNL     1      91.985 102.094  94.514  1.00  0.00    -0.508 OA
ATOM     51  H   UNL     1      91.186 102.634  94.904  1.00  0.00     0.293 HD
ENDBRANCH  37  50
ENDBRANCH  26  27
ENDBRANCH   5  26
BRANCH   4  52
ATOM     52  O   UNL     1      93.208 100.380 101.609  1.00  0.00    -0.384 OA
ATOM     53  H   UNL     1      92.369 100.209 101.126  1.00  0.00     0.211 HD
ENDBRANCH   4  52
TORSDOF 16
ENDMDL
MODEL 3
REMARK VINA RESULT:    24.507      1.634      6.129
REMARK INTER + INTRA:          45.982
REMARK INTER:                  46.760
REMARK INTRA:                  -0.778
REMARK UNBOUND:                 7.147
REMARK SMILES C[C@@H]1O[C@H](OC[C@H]2O[C@H](Oc3c(-c4ccc(O)c(O)c4)oc4cc(O)cc(O)c4c3=O)[C@H](O)[C@H](O)[C@H]2O)[C@@H](O)[C@H](O)[C@@H]1O
REMARK SMILES IDX 7 1 36 2 34 3 32 4 9 5 8 6 6 7 5 8 4 9 1 10 2 11 42 12 3 13
REMARK SMILES IDX 40 14 38 15 43 16 41 18 39 20 37 22 35 24 10 26 11 27 12 28
REMARK SMILES IDX 30 29 21 30 29 31 31 32 22 33 27 34 23 35 26 36 24 37 13 38
REMARK SMILES IDX 20 39 14 40 18 41 15 42 16 43 19 44 17 46 28 48 25 50 33 52
REMARK H PARENT 43 17 41 19 39 21 37 23 35 25 19 45 17 47 28 49 25 51 33 53
REMARK Flexibility Score: inf
ROOT
ATOM      1  C   UNL     1      93.686 104.238 100.141  1.00  0.00     0.180 C 
ATOM      2  C   UNL     1      92.424 103.628 100.791  1.00  0.00     0.177 C 
ATOM      3  C   UNL     1      92.612 102.242 101.440  1.00  0.00     0.180 C 
ATOM      4  C   UNL     1      93.985 102.078 102.138  1.00  0.00     0.214 C 
ATOM      5  C   UNL     1      95.215 102.597 101.300  1.00  0.00     0.339 C 
ATOM      6  O   UNL     1      94.984 103.837 100.589  1.00  0.00    -0.332 OA
ENDROOT
BRANCH   1   7
ATOM      7  C   UNL     1      93.603 105.801  99.977  1.00  0.00     0.198 C 
BRANCH   7   8
ATOM      8  O   UNL     1      94.382 106.599 100.946  1.00  0.00    -0.347 OA
BRANCH   8   9
ATOM      9  C   UNL     1      95.162 107.744 100.431  1.00  0.00     0.281 C 
ATOM     10  C   UNL     1      95.736 109.428  97.084  1.00  0.00     0.041 C 
ATOM     11  C   UNL     1      95.311 109.206  98.579  1.00  0.00     0.150 C 
ATOM     12  C   UNL     1      94.053 110.022  98.948  1.00  0.00     0.174 C 
ATOM     13  O   UNL     1      95.002 107.891  99.005  1.00  0.00    -0.344 OA
ATOM     14  C   UNL     1      94.129 110.206 100.540  1.00  0.00     0.179 C 
ATOM     15  C   UNL     1      95.066 109.060 101.285  1.00  0.00     0.202 C 
BRANCH  12  16
ATOM     16  O   UNL     1      92.901 109.276  98.637  1.00  0.00    -0.388 OA
ATOM     17  H   UNL     1      92.117 109.693  99.133  1.00  0.00     0.211 HD
ENDBRANCH  12  16
BRANCH  14  18
ATOM     18  O   UNL     1      92.872 110.245 101.184  1.00  0.00    -0.387 OA
ATOM     19  H   UNL     1      92.291 109.481 100.781  1.00  0.00     0.211 HD
ENDBRANCH  14  18
BRANCH  15  20
ATOM     20  O   UNL     1      96.338 109.632 101.421  1.00  0.00    -0.385 OA
ATOM     21  H   UNL     1      96.302 110.359 102.114  1.00  0.00     0.211 HD
ENDBRANCH  15  20
ENDBRANCH   8   9
ENDBRANCH   7   8
ENDBRANCH   1   7
BRANCH   2  22
ATOM     22  O   UNL     1      91.875 104.506 101.759  1.00  0.00    -0.387 OA
ATOM     23  H   UNL     1      90.844 104.545 101.654  1.00  0.00     0.211 HD
ENDBRANCH   2  22
BRANCH   3  24
ATOM     24  O   UNL     1      92.424 101.161 100.550  1.00  0.00    -0.387 OA
ATOM     25  H   UNL     1      91.996 101.401  99.654  1.00  0.00     0.211 HD
ENDBRANCH   3  24
BRANCH   5  26
ATOM     26  O   UNL     1      95.850 101.514 100.579  1.00  0.00    -0.454 OA
BRANCH  26  27
ATOM     27  C   UNL     1      95.670 101.042  99.237  1.00  0.00     0.214 A 
ATOM     28  C   UNL     1      96.396 101.741  98.192  1.00  0.00     0.180 A 
ATOM     29  C   UNL     1      94.618 100.192  98.964  1.00  0.00     0.239 A 
ATOM     30  O   UNL     1      95.864 101.500  96.964  1.00  0.00    -0.452 OA
ATOM     31  C   UNL     1      93.952 100.283  97.696  1.00  0.00     0.111 A 
ATOM     32  O   UNL     1      94.106  99.495  99.858  1.00  0.00    -0.285 OA
ATOM     33  C   UNL     1      94.647 100.953  96.674  1.00  0.00     0.146 A 
ATOM     34  C   UNL     1      92.614  99.823  97.423  1.00  0.00     0.134 A 
ATOM     35  C   UNL     1      94.003 101.283  95.436  1.00  0.00     0.094 A 
ATOM     36  C   UNL     1      91.875 100.413  96.336  1.00  0.00     0.093 A 
ATOM     37  C   UNL     1      92.587 101.135  95.332  1.00  0.00     0.123 A 
BRANCH  28  38
ATOM     38  C   UNL     1      96.892 102.269  96.765  1.00  0.00     0.025 A 
ATOM     39  C   UNL     1      97.855 102.709  97.766  1.00  0.00     0.062 A 
ATOM     40  C   UNL     1      96.885 103.439  95.760  1.00  0.00     0.016 A 
ATOM     41  C   UNL     1      97.475 104.048  98.326  1.00  0.00     0.158 A 
ATOM     42  C   UNL     1      96.662 104.735  96.185  1.00  0.00     0.051 A 
ATOM     43  C   UNL     1      96.561 104.850  97.557  1.00  0.00     0.157 A 
BRANCH  41  44
ATOM     44  O   UNL     1      96.925 104.264  99.632  1.00  0.00    -0.504 OA
ATOM     45  H   UNL     1      96.476 103.582 100.315  1.00  0.00     0.293 HD
ENDBRANCH  41  44
BRANCH  43  46
ATOM     46  O   UNL     1      95.418 105.391  98.097  1.00  0.00    -0.504 OA
ATOM     47  H   UNL     1      95.475 105.703  99.085  1.00  0.00     0.293 HD
ENDBRANCH  43  46
ENDBRANCH  28  38
BRANCH  34  48
ATOM     48  O   UNL     1      91.985  98.947  98.298  1.00  0.00    -0.507 OA
ATOM     49  H   UNL     1      92.038  97.919  98.102  1.00  0.00     0.293 HD
ENDBRANCH  34  48
BRANCH  37  50
ATOM     50  O   UNL     1      91.878 102.054  94.498  1.00  0.00    -0.508 OA
ATOM     51  H   UNL     1      90.896 102.301  94.734  1.00  0.00     0.293 HD
ENDBRANCH  37  50
ENDBRANCH  26  27
ENDBRANCH   5  26
BRANCH   4  52
ATOM     52  O   UNL     1      94.115 100.769 102.585  1.00  0.00    -0.384 OA
ATOM     53  H   UNL     1      93.235 100.336 102.506  1.00  0.00     0.211 HD
ENDBRANCH   4  52
TORSDOF 16
ENDMDL
