MODEL 1
REMARK VINA RESULT:    -6.439      0.000      0.000
REMARK INTER + INTRA:         -10.314
REMARK INTER:                  -9.075
REMARK INTRA:                  -1.240
REMARK UNBOUND:                -1.240
REMARK SMILES C[C@H](CO)CCC(=O)[C@H](C)[C@@H]1C(=O)C[C@H]2[C@@H]3CC=C4C[C@H](O)CC[C@@]4(C)[C@H]3CC[C@]21C
REMARK SMILES IDX 6 1 5 2 2 3 1 4 3 5 4 6 7 8 8 9 9 10 10 11 11 12 12 13 30 14
REMARK SMILES IDX 13 15 14 16 15 17 29 18 31 19 16 20 28 21 27 22 17 23 25 24
REMARK SMILES IDX 18 25 19 26 24 27 26 28 20 29 23 30 21 31 22 32
REMARK H PARENT 4 7 22 33
REMARK Flexibility Score: inf
ROOT
ATOM      1  C   UNL     1       3.628 -16.753 -36.311  1.00  0.00     0.076 C 
ENDROOT
BRANCH   1   2
ATOM      2  C   UNL     1       4.050 -15.619 -35.360  1.00  0.00     0.013 C 
BRANCH   2   3
ATOM      3  C   UNL     1       5.264 -16.000 -34.475  1.00  0.00     0.012 C 
ATOM      4  C   UNL     1       5.540 -17.506 -34.605  1.00  0.00     0.010 C 
BRANCH   3   5
ATOM      5  C   UNL     1       5.049 -15.622 -32.991  1.00  0.00     0.159 C 
BRANCH   5   6
ATOM      6  O   UNL     1       5.283 -16.723 -32.153  1.00  0.00    -0.396 OA
ATOM      7  H   UNL     1       6.199 -17.048 -32.355  1.00  0.00     0.210 HD
ENDBRANCH   5   6
ENDBRANCH   3   5
ENDBRANCH   2   3
ENDBRANCH   1   2
BRANCH   1   8
ATOM      8  C   UNL     1       3.501 -16.423 -37.793  1.00  0.00     0.136 C 
ATOM      9  O   UNL     1       2.362 -16.375 -38.238  1.00  0.00    -0.299 OA
BRANCH   8  10
ATOM     10  C   UNL     1       4.646 -16.152 -38.777  1.00  0.00     0.064 C 
ATOM     11  C   UNL     1       4.177 -15.208 -39.906  1.00  0.00     0.017 C 
BRANCH  10  12
ATOM     12  C   UNL     1       5.375 -17.450 -39.299  1.00  0.00     0.072 C 
ATOM     13  C   UNL     1       4.432 -18.605 -39.283  1.00  0.00     0.137 C 
ATOM     14  C   UNL     1       6.610 -18.005 -38.475  1.00  0.00    -0.019 C 
ATOM     15  O   UNL     1       3.556 -18.759 -40.120  1.00  0.00    -0.299 OA
ATOM     16  C   UNL     1       4.677 -19.594 -38.220  1.00  0.00     0.080 C 
ATOM     17  C   UNL     1       6.068 -19.248 -37.661  1.00  0.00     0.007 C 
ATOM     18  C   UNL     1       7.710 -18.469 -39.482  1.00  0.00     0.008 C 
ATOM     19  C   UNL     1       7.247 -16.941 -37.538  1.00  0.00     0.012 C 
ATOM     20  C   UNL     1       6.994 -20.507 -37.724  1.00  0.00     0.001 C 
ATOM     21  C   UNL     1       8.881 -19.275 -38.860  1.00  0.00     0.005 C 
ATOM     22  C   UNL     1       8.484 -20.107 -37.605  1.00  0.00     0.003 C 
ATOM     23  C   UNL     1       6.628 -21.548 -36.653  1.00  0.00     0.031 C 
ATOM     24  C   UNL     1       9.461 -21.310 -37.178  1.00  0.00    -0.008 C 
ATOM     25  C   UNL     1       7.448 -22.778 -36.905  1.00  0.00    -0.027 C 
ATOM     26  C   UNL     1       8.751 -22.673 -37.235  1.00  0.00    -0.065 C 
ATOM     27  C   UNL     1      10.753 -21.395 -38.048  1.00  0.00     0.014 C 
ATOM     28  C   UNL     1       9.890 -21.070 -35.701  1.00  0.00     0.016 C 
ATOM     29  C   UNL     1       9.431 -23.866 -37.880  1.00  0.00     0.063 C 
ATOM     30  C   UNL     1      11.675 -22.565 -37.655  1.00  0.00     0.033 C 
ATOM     31  C   UNL     1      10.946 -23.933 -37.589  1.00  0.00     0.118 C 
BRANCH  31  32
ATOM     32  O   UNL     1      11.198 -24.575 -36.362  1.00  0.00    -0.393 OA
ATOM     33  H   UNL     1      12.181 -24.592 -36.223  1.00  0.00     0.210 HD
ENDBRANCH  31  32
ENDBRANCH  10  12
ENDBRANCH   8  10
ENDBRANCH   1   8
TORSDOF 8
ENDMDL
MODEL 2
REMARK VINA RESULT:    -6.068      1.903      7.713
REMARK INTER + INTRA:          -9.791
REMARK INTER:                  -8.205
REMARK INTRA:                  -1.586
REMARK UNBOUND:                -1.240
REMARK SMILES C[C@H](CO)CCC(=O)[C@H](C)[C@@H]1C(=O)C[C@H]2[C@@H]3CC=C4C[C@H](O)CC[C@@]4(C)[C@H]3CC[C@]21C
REMARK SMILES IDX 6 1 5 2 2 3 1 4 3 5 4 6 7 8 8 9 9 10 10 11 11 12 12 13 30 14
REMARK SMILES IDX 13 15 14 16 15 17 29 18 31 19 16 20 28 21 27 22 17 23 25 24
REMARK SMILES IDX 18 25 19 26 24 27 26 28 20 29 23 30 21 31 22 32
REMARK H PARENT 4 7 22 33
REMARK Flexibility Score: inf
ROOT
ATOM      1  C   UNL     1      10.939 -23.472 -38.176  1.00  0.00     0.076 C 
ENDROOT
BRANCH   1   2
ATOM      2  C   UNL     1      10.711 -23.871 -36.707  1.00  0.00     0.013 C 
BRANCH   2   3
ATOM      3  C   UNL     1       9.210 -24.024 -36.354  1.00  0.00     0.012 C 
ATOM      4  C   UNL     1       8.360 -23.765 -37.608  1.00  0.00     0.010 C 
BRANCH   3   5
ATOM      5  C   UNL     1       8.778 -23.076 -35.211  1.00  0.00     0.159 C 
BRANCH   5   6
ATOM      6  O   UNL     1       9.678 -23.144 -34.135  1.00  0.00    -0.396 OA
ATOM      7  H   UNL     1      10.584 -23.253 -34.525  1.00  0.00     0.210 HD
ENDBRANCH   5   6
ENDBRANCH   3   5
ENDBRANCH   2   3
ENDBRANCH   1   2
BRANCH   1   8
ATOM      8  C   UNL     1      12.100 -22.533 -38.482  1.00  0.00     0.136 C 
ATOM      9  O   UNL     1      13.130 -22.726 -37.851  1.00  0.00    -0.299 OA
BRANCH   8  10
ATOM     10  C   UNL     1      12.106 -21.377 -39.491  1.00  0.00     0.064 C 
ATOM     11  C   UNL     1      13.535 -21.132 -40.025  1.00  0.00     0.017 C 
BRANCH  10  12
ATOM     12  C   UNL     1      11.387 -20.068 -38.983  1.00  0.00     0.072 C 
ATOM     13  C   UNL     1      11.567 -19.928 -37.509  1.00  0.00     0.137 C 
ATOM     14  C   UNL     1       9.815 -19.959 -39.148  1.00  0.00    -0.019 C 
ATOM     15  O   UNL     1      12.613 -19.552 -37.001  1.00  0.00    -0.299 OA
ATOM     16  C   UNL     1      10.365 -20.206 -36.706  1.00  0.00     0.080 C 
ATOM     17  C   UNL     1       9.205 -20.242 -37.716  1.00  0.00     0.007 C 
ATOM     18  C   UNL     1       9.463 -18.504 -39.594  1.00  0.00     0.008 C 
ATOM     19  C   UNL     1       9.243 -20.932 -40.216  1.00  0.00     0.012 C 
ATOM     20  C   UNL     1       8.092 -19.233 -37.283  1.00  0.00     0.001 C 
ATOM     21  C   UNL     1       7.954 -18.145 -39.556  1.00  0.00     0.005 C 
ATOM     22  C   UNL     1       7.147 -18.908 -38.464  1.00  0.00     0.003 C 
ATOM     23  C   UNL     1       7.289 -19.741 -36.074  1.00  0.00     0.031 C 
ATOM     24  C   UNL     1       5.729 -18.289 -38.027  1.00  0.00    -0.008 C 
ATOM     25  C   UNL     1       6.373 -18.640 -35.630  1.00  0.00    -0.027 C 
ATOM     26  C   UNL     1       5.707 -17.899 -36.540  1.00  0.00    -0.065 C 
ATOM     27  C   UNL     1       5.315 -17.040 -38.866  1.00  0.00     0.014 C 
ATOM     28  C   UNL     1       4.648 -19.390 -38.237  1.00  0.00     0.016 C 
ATOM     29  C   UNL     1       5.138 -16.562 -36.105  1.00  0.00     0.063 C 
ATOM     30  C   UNL     1       3.969 -16.434 -38.427  1.00  0.00     0.033 C 
ATOM     31  C   UNL     1       3.884 -16.145 -36.905  1.00  0.00     0.118 C 
BRANCH  31  32
ATOM     32  O   UNL     1       2.720 -16.712 -36.354  1.00  0.00    -0.393 OA
ATOM     33  H   UNL     1       2.161 -17.049 -37.101  1.00  0.00     0.210 HD
ENDBRANCH  31  32
ENDBRANCH  10  12
ENDBRANCH   8  10
ENDBRANCH   1   8
TORSDOF 8
ENDMDL
MODEL 3
REMARK VINA RESULT:    -5.810      1.791      2.480
REMARK INTER + INTRA:          -9.427
REMARK INTER:                  -8.497
REMARK INTRA:                  -0.930
REMARK UNBOUND:                -1.240
REMARK SMILES C[C@H](CO)CCC(=O)[C@H](C)[C@@H]1C(=O)C[C@H]2[C@@H]3CC=C4C[C@H](O)CC[C@@]4(C)[C@H]3CC[C@]21C
REMARK SMILES IDX 6 1 5 2 2 3 1 4 3 5 4 6 7 8 8 9 9 10 10 11 11 12 12 13 30 14
REMARK SMILES IDX 13 15 14 16 15 17 29 18 31 19 16 20 28 21 27 22 17 23 25 24
REMARK SMILES IDX 18 25 19 26 24 27 26 28 20 29 23 30 21 31 22 32
REMARK H PARENT 4 7 22 33
REMARK Flexibility Score: inf
ROOT
ATOM      1  C   UNL     1       4.484 -16.065 -36.824  1.00  0.00     0.076 C 
ENDROOT
BRANCH   1   2
ATOM      2  C   UNL     1       4.400 -16.755 -35.451  1.00  0.00     0.013 C 
BRANCH   2   3
ATOM      3  C   UNL     1       4.151 -15.757 -34.293  1.00  0.00     0.012 C 
ATOM      4  C   UNL     1       3.691 -14.408 -34.870  1.00  0.00     0.010 C 
BRANCH   3   5
ATOM      5  C   UNL     1       5.405 -15.560 -33.409  1.00  0.00     0.159 C 
BRANCH   5   6
ATOM      6  O   UNL     1       5.455 -16.522 -32.388  1.00  0.00    -0.396 OA
ATOM      7  H   UNL     1       4.534 -16.877 -32.282  1.00  0.00     0.210 HD
ENDBRANCH   5   6
ENDBRANCH   3   5
ENDBRANCH   2   3
ENDBRANCH   1   2
BRANCH   1   8
ATOM      8  C   UNL     1       5.831 -16.063 -37.535  1.00  0.00     0.136 C 
ATOM      9  O   UNL     1       6.799 -15.755 -36.853  1.00  0.00    -0.299 OA
BRANCH   8  10
ATOM     10  C   UNL     1       6.096 -16.402 -39.007  1.00  0.00     0.064 C 
ATOM     11  C   UNL     1       4.871 -16.038 -39.875  1.00  0.00     0.017 C 
BRANCH  10  12
ATOM     12  C   UNL     1       6.631 -17.867 -39.251  1.00  0.00     0.072 C 
ATOM     13  C   UNL     1       6.086 -18.787 -38.210  1.00  0.00     0.137 C 
ATOM     14  C   UNL     1       8.191 -18.125 -39.153  1.00  0.00    -0.019 C 
ATOM     15  O   UNL     1       4.938 -19.203 -38.227  1.00  0.00    -0.299 OA
ATOM     16  C   UNL     1       7.058 -19.220 -37.193  1.00  0.00     0.080 C 
ATOM     17  C   UNL     1       8.433 -18.812 -37.750  1.00  0.00     0.007 C 
ATOM     18  C   UNL     1       8.604 -19.103 -40.299  1.00  0.00     0.008 C 
ATOM     19  C   UNL     1       9.036 -16.831 -39.310  1.00  0.00     0.012 C 
ATOM     20  C   UNL     1       9.377 -20.059 -37.801  1.00  0.00     0.001 C 
ATOM     21  C   UNL     1      10.046 -19.668 -40.202  1.00  0.00     0.005 C 
ATOM     22  C   UNL     1      10.577 -19.809 -38.745  1.00  0.00     0.003 C 
ATOM     23  C   UNL     1       9.867 -20.470 -36.403  1.00  0.00     0.031 C 
ATOM     24  C   UNL     1      11.825 -20.793 -38.506  1.00  0.00    -0.008 C 
ATOM     25  C   UNL     1      10.614 -21.764 -36.537  1.00  0.00    -0.027 C 
ATOM     26  C   UNL     1      11.466 -21.956 -37.566  1.00  0.00    -0.065 C 
ATOM     27  C   UNL     1      12.400 -21.393 -39.826  1.00  0.00     0.014 C 
ATOM     28  C   UNL     1      12.953 -19.969 -37.819  1.00  0.00     0.016 C 
ATOM     29  C   UNL     1      11.873 -23.376 -37.910  1.00  0.00     0.063 C 
ATOM     30  C   UNL     1      13.579 -22.357 -39.592  1.00  0.00     0.033 C 
ATOM     31  C   UNL     1      13.274 -23.467 -38.553  1.00  0.00     0.118 C 
BRANCH  31  32
ATOM     32  O   UNL     1      14.280 -23.520 -37.570  1.00  0.00    -0.393 OA
ATOM     33  H   UNL     1      14.657 -22.608 -37.470  1.00  0.00     0.210 HD
ENDBRANCH  31  32
ENDBRANCH  10  12
ENDBRANCH   8  10
ENDBRANCH   1   8
TORSDOF 8
ENDMDL
MODEL 4
REMARK VINA RESULT:    -5.693      2.119      4.640
REMARK INTER + INTRA:          -9.262
REMARK INTER:                  -7.923
REMARK INTRA:                  -1.339
REMARK UNBOUND:                -1.240
REMARK SMILES C[C@H](CO)CCC(=O)[C@H](C)[C@@H]1C(=O)C[C@H]2[C@@H]3CC=C4C[C@H](O)CC[C@@]4(C)[C@H]3CC[C@]21C
REMARK SMILES IDX 6 1 5 2 2 3 1 4 3 5 4 6 7 8 8 9 9 10 10 11 11 12 12 13 30 14
REMARK SMILES IDX 13 15 14 16 15 17 29 18 31 19 16 20 28 21 27 22 17 23 25 24
REMARK SMILES IDX 18 25 19 26 24 27 26 28 20 29 23 30 21 31 22 32
REMARK H PARENT 4 7 22 33
REMARK Flexibility Score: inf
ROOT
ATOM      1  C   UNL     1       4.176 -16.437 -39.676  1.00  0.00     0.076 C 
ENDROOT
BRANCH   1   2
ATOM      2  C   UNL     1       4.853 -15.322 -40.491  1.00  0.00     0.013 C 
BRANCH   2   3
ATOM      3  C   UNL     1       5.977 -15.853 -41.416  1.00  0.00     0.012 C 
ATOM      4  C   UNL     1       7.313 -15.200 -41.026  1.00  0.00     0.010 C 
BRANCH   3   5
ATOM      5  C   UNL     1       5.675 -15.601 -42.911  1.00  0.00     0.159 C 
BRANCH   5   6
ATOM      6  O   UNL     1       4.489 -14.866 -43.067  1.00  0.00    -0.396 OA
ATOM      7  H   UNL     1       4.390 -14.305 -42.254  1.00  0.00     0.210 HD
ENDBRANCH   5   6
ENDBRANCH   3   5
ENDBRANCH   2   3
ENDBRANCH   1   2
BRANCH   1   8
ATOM      8  C   UNL     1       3.784 -16.124 -38.237  1.00  0.00     0.136 C 
ATOM      9  O   UNL     1       3.453 -14.969 -38.008  1.00  0.00    -0.299 OA
BRANCH   8  10
ATOM     10  C   UNL     1       3.765 -17.102 -37.055  1.00  0.00     0.064 C 
ATOM     11  C   UNL     1       2.731 -16.655 -35.999  1.00  0.00     0.017 C 
BRANCH  10  12
ATOM     12  C   UNL     1       5.188 -17.420 -36.452  1.00  0.00     0.072 C 
ATOM     13  C   UNL     1       6.062 -16.214 -36.548  1.00  0.00     0.137 C 
ATOM     14  C   UNL     1       6.070 -18.537 -37.148  1.00  0.00    -0.019 C 
ATOM     15  O   UNL     1       5.956 -15.256 -35.797  1.00  0.00    -0.299 OA
ATOM     16  C   UNL     1       7.116 -16.289 -37.573  1.00  0.00     0.080 C 
ATOM     17  C   UNL     1       7.159 -17.768 -37.998  1.00  0.00     0.007 C 
ATOM     18  C   UNL     1       6.767 -19.383 -36.036  1.00  0.00     0.008 C 
ATOM     19  C   UNL     1       5.239 -19.510 -38.030  1.00  0.00     0.012 C 
ATOM     20  C   UNL     1       8.612 -18.326 -37.833  1.00  0.00     0.001 C 
ATOM     21  C   UNL     1       7.868 -20.356 -36.534  1.00  0.00     0.005 C 
ATOM     22  C   UNL     1       8.613 -19.872 -37.813  1.00  0.00     0.003 C 
ATOM     23  C   UNL     1       9.560 -17.800 -38.924  1.00  0.00     0.031 C 
ATOM     24  C   UNL     1      10.041 -20.538 -38.132  1.00  0.00    -0.008 C 
ATOM     25  C   UNL     1      10.950 -18.246 -38.583  1.00  0.00    -0.027 C 
ATOM     26  C   UNL     1      11.172 -19.497 -38.129  1.00  0.00    -0.065 C 
ATOM     27  C   UNL     1      10.425 -21.680 -37.140  1.00  0.00     0.014 C 
ATOM     28  C   UNL     1       9.970 -21.147 -39.563  1.00  0.00     0.016 C 
ATOM     29  C   UNL     1      12.477 -19.783 -37.410  1.00  0.00     0.063 C 
ATOM     30  C   UNL     1      11.806 -22.298 -37.432  1.00  0.00     0.033 C 
ATOM     31  C   UNL     1      12.942 -21.249 -37.553  1.00  0.00     0.118 C 
BRANCH  31  32
ATOM     32  O   UNL     1      13.669 -21.435 -38.743  1.00  0.00    -0.393 OA
ATOM     33  H   UNL     1      13.705 -22.410 -38.929  1.00  0.00     0.210 HD
ENDBRANCH  31  32
ENDBRANCH  10  12
ENDBRANCH   8  10
ENDBRANCH   1   8
TORSDOF 8
ENDMDL
MODEL 5
REMARK VINA RESULT:    -5.692      2.276      7.558
REMARK INTER + INTRA:          -9.260
REMARK INTER:                  -7.969
REMARK INTRA:                  -1.292
REMARK UNBOUND:                -1.240
REMARK SMILES C[C@H](CO)CCC(=O)[C@H](C)[C@@H]1C(=O)C[C@H]2[C@@H]3CC=C4C[C@H](O)CC[C@@]4(C)[C@H]3CC[C@]21C
REMARK SMILES IDX 6 1 5 2 2 3 1 4 3 5 4 6 7 8 8 9 9 10 10 11 11 12 12 13 30 14
REMARK SMILES IDX 13 15 14 16 15 17 29 18 31 19 16 20 28 21 27 22 17 23 25 24
REMARK SMILES IDX 18 25 19 26 24 27 26 28 20 29 23 30 21 31 22 32
REMARK H PARENT 4 7 22 33
REMARK Flexibility Score: inf
ROOT
ATOM      1  C   UNL     1       8.603 -22.285 -38.580  1.00  0.00     0.076 C 
ENDROOT
BRANCH   1   2
ATOM      2  C   UNL     1       8.860 -23.375 -37.524  1.00  0.00     0.013 C 
BRANCH   2   3
ATOM      3  C   UNL     1       8.236 -23.035 -36.148  1.00  0.00     0.012 C 
ATOM      4  C   UNL     1       6.984 -22.167 -36.353  1.00  0.00     0.010 C 
BRANCH   3   5
ATOM      5  C   UNL     1       9.236 -22.317 -35.212  1.00  0.00     0.159 C 
BRANCH   5   6
ATOM      6  O   UNL     1       9.639 -23.160 -34.165  1.00  0.00    -0.396 OA
ATOM      7  H   UNL     1       9.609 -24.088 -34.516  1.00  0.00     0.210 HD
ENDBRANCH   5   6
ENDBRANCH   3   5
ENDBRANCH   2   3
ENDBRANCH   1   2
BRANCH   1   8
ATOM      8  C   UNL     1       9.797 -21.475 -39.067  1.00  0.00     0.136 C 
ATOM      9  O   UNL     1      10.893 -21.829 -38.654  1.00  0.00    -0.299 OA
BRANCH   8  10
ATOM     10  C   UNL     1       9.766 -20.266 -40.012  1.00  0.00     0.064 C 
ATOM     11  C   UNL     1      11.066 -20.194 -40.842  1.00  0.00     0.017 C 
BRANCH  10  12
ATOM     12  C   UNL     1       9.385 -18.904 -39.312  1.00  0.00     0.072 C 
ATOM     13  C   UNL     1       9.886 -18.897 -37.907  1.00  0.00     0.137 C 
ATOM     14  C   UNL     1       7.851 -18.553 -39.129  1.00  0.00    -0.019 C 
ATOM     15  O   UNL     1      11.061 -18.716 -37.622  1.00  0.00    -0.299 OA
ATOM     16  C   UNL     1       8.848 -19.051 -36.875  1.00  0.00     0.080 C 
ATOM     17  C   UNL     1       7.514 -18.844 -37.612  1.00  0.00     0.007 C 
ATOM     18  C   UNL     1       7.650 -17.034 -39.435  1.00  0.00     0.008 C 
ATOM     19  C   UNL     1       6.923 -19.353 -40.085  1.00  0.00     0.012 C 
ATOM     20  C   UNL     1       6.689 -17.714 -36.911  1.00  0.00     0.001 C 
ATOM     21  C   UNL     1       6.259 -16.460 -39.058  1.00  0.00     0.005 C 
ATOM     22  C   UNL     1       5.584 -17.171 -37.848  1.00  0.00     0.003 C 
ATOM     23  C   UNL     1       6.083 -18.183 -35.578  1.00  0.00     0.031 C 
ATOM     24  C   UNL     1       4.404 -16.382 -37.093  1.00  0.00    -0.008 C 
ATOM     25  C   UNL     1       5.467 -16.992 -34.906  1.00  0.00    -0.027 C 
ATOM     26  C   UNL     1       4.753 -16.099 -35.622  1.00  0.00    -0.065 C 
ATOM     27  C   UNL     1       4.030 -15.030 -37.775  1.00  0.00     0.014 C 
ATOM     28  C   UNL     1       3.142 -17.293 -37.106  1.00  0.00     0.016 C 
ATOM     29  C   UNL     1       4.506 -14.727 -35.025  1.00  0.00     0.063 C 
ATOM     30  C   UNL     1       2.918 -14.263 -37.034  1.00  0.00     0.033 C 
ATOM     31  C   UNL     1       3.198 -14.074 -35.520  1.00  0.00     0.118 C 
BRANCH  31  32
ATOM     32  O   UNL     1       2.097 -14.500 -34.752  1.00  0.00    -0.393 OA
ATOM     33  H   UNL     1       1.966 -13.845 -34.019  1.00  0.00     0.210 HD
ENDBRANCH  31  32
ENDBRANCH  10  12
ENDBRANCH   8  10
ENDBRANCH   1   8
TORSDOF 8
ENDMDL
MODEL 6
REMARK VINA RESULT:    -5.669      2.359      8.847
REMARK INTER + INTRA:          -9.229
REMARK INTER:                  -8.600
REMARK INTRA:                  -0.630
REMARK UNBOUND:                -1.240
REMARK SMILES C[C@H](CO)CCC(=O)[C@H](C)[C@@H]1C(=O)C[C@H]2[C@@H]3CC=C4C[C@H](O)CC[C@@]4(C)[C@H]3CC[C@]21C
REMARK SMILES IDX 6 1 5 2 2 3 1 4 3 5 4 6 7 8 8 9 9 10 10 11 11 12 12 13 30 14
REMARK SMILES IDX 13 15 14 16 15 17 29 18 31 19 16 20 28 21 27 22 17 23 25 24
REMARK SMILES IDX 18 25 19 26 24 27 26 28 20 29 23 30 21 31 22 32
REMARK H PARENT 4 7 22 33
REMARK Flexibility Score: inf
ROOT
ATOM      1  C   UNL     1      12.860 -21.974 -38.395  1.00  0.00     0.076 C 
ENDROOT
BRANCH   1   2
ATOM      2  C   UNL     1      14.260 -22.267 -37.827  1.00  0.00     0.013 C 
BRANCH   2   3
ATOM      3  C   UNL     1      15.265 -22.722 -38.916  1.00  0.00     0.012 C 
ATOM      4  C   UNL     1      15.122 -21.820 -40.153  1.00  0.00     0.010 C 
BRANCH   3   5
ATOM      5  C   UNL     1      15.070 -24.204 -39.309  1.00  0.00     0.159 C 
BRANCH   5   6
ATOM      6  O   UNL     1      16.183 -24.686 -40.017  1.00  0.00    -0.396 OA
ATOM      7  H   UNL     1      16.489 -23.949 -40.608  1.00  0.00     0.210 HD
ENDBRANCH   5   6
ENDBRANCH   3   5
ENDBRANCH   2   3
ENDBRANCH   1   2
BRANCH   1   8
ATOM      8  C   UNL     1      11.760 -21.603 -37.409  1.00  0.00     0.136 C 
ATOM      9  O   UNL     1      11.919 -20.558 -36.792  1.00  0.00    -0.299 OA
BRANCH   8  10
ATOM     10  C   UNL     1      10.484 -22.401 -37.110  1.00  0.00     0.064 C 
ATOM     11  C   UNL     1      10.711 -23.905 -37.378  1.00  0.00     0.017 C 
BRANCH  10  12
ATOM     12  C   UNL     1       9.183 -21.825 -37.793  1.00  0.00     0.072 C 
ATOM     13  C   UNL     1       9.530 -21.200 -39.102  1.00  0.00     0.137 C 
ATOM     14  C   UNL     1       8.395 -20.664 -37.057  1.00  0.00    -0.019 C 
ATOM     15  O   UNL     1       9.770 -21.853 -40.107  1.00  0.00    -0.299 OA
ATOM     16  C   UNL     1       9.492 -19.729 -39.119  1.00  0.00     0.080 C 
ATOM     17  C   UNL     1       8.775 -19.330 -37.817  1.00  0.00     0.007 C 
ATOM     18  C   UNL     1       6.864 -20.937 -37.198  1.00  0.00     0.008 C 
ATOM     19  C   UNL     1       8.721 -20.570 -35.541  1.00  0.00     0.012 C 
ATOM     20  C   UNL     1       7.552 -18.410 -38.145  1.00  0.00     0.001 C 
ATOM     21  C   UNL     1       5.940 -19.770 -36.761  1.00  0.00     0.005 C 
ATOM     22  C   UNL     1       6.564 -18.356 -36.957  1.00  0.00     0.003 C 
ATOM     23  C   UNL     1       7.988 -16.992 -38.549  1.00  0.00     0.031 C 
ATOM     24  C   UNL     1       5.557 -17.103 -36.988  1.00  0.00    -0.008 C 
ATOM     25  C   UNL     1       6.770 -16.247 -39.007  1.00  0.00    -0.027 C 
ATOM     26  C   UNL     1       5.607 -16.361 -38.334  1.00  0.00    -0.065 C 
ATOM     27  C   UNL     1       4.074 -17.494 -36.700  1.00  0.00     0.014 C 
ATOM     28  C   UNL     1       6.014 -16.102 -35.886  1.00  0.00     0.016 C 
ATOM     29  C   UNL     1       4.324 -15.953 -39.033  1.00  0.00     0.063 C 
ATOM     30  C   UNL     1       3.108 -16.296 -36.757  1.00  0.00     0.033 C 
ATOM     31  C   UNL     1       3.230 -15.463 -38.060  1.00  0.00     0.118 C 
BRANCH  31  32
ATOM     32  O   UNL     1       3.391 -14.096 -37.765  1.00  0.00    -0.393 OA
ATOM     33  H   UNL     1       3.599 -13.623 -38.613  1.00  0.00     0.210 HD
ENDBRANCH  31  32
ENDBRANCH  10  12
ENDBRANCH   8  10
ENDBRANCH   1   8
TORSDOF 8
ENDMDL
MODEL 7
REMARK VINA RESULT:    -5.644      2.067      8.098
REMARK INTER + INTRA:          -9.193
REMARK INTER:                  -7.841
REMARK INTRA:                  -1.353
REMARK UNBOUND:                -1.240
REMARK SMILES C[C@H](CO)CCC(=O)[C@H](C)[C@@H]1C(=O)C[C@H]2[C@@H]3CC=C4C[C@H](O)CC[C@@]4(C)[C@H]3CC[C@]21C
REMARK SMILES IDX 6 1 5 2 2 3 1 4 3 5 4 6 7 8 8 9 9 10 10 11 11 12 12 13 30 14
REMARK SMILES IDX 13 15 14 16 15 17 29 18 31 19 16 20 28 21 27 22 17 23 25 24
REMARK SMILES IDX 18 25 19 26 24 27 26 28 20 29 23 30 21 31 22 32
REMARK H PARENT 4 7 22 33
REMARK Flexibility Score: inf
ROOT
ATOM      1  C   UNL     1      12.013 -23.576 -37.907  1.00  0.00     0.076 C 
ENDROOT
BRANCH   1   2
ATOM      2  C   UNL     1      13.149 -22.537 -37.896  1.00  0.00     0.013 C 
BRANCH   2   3
ATOM      3  C   UNL     1      12.862 -21.326 -38.819  1.00  0.00     0.012 C 
ATOM      4  C   UNL     1      13.866 -21.320 -39.984  1.00  0.00     0.010 C 
BRANCH   3   5
ATOM      5  C   UNL     1      12.920 -19.982 -38.057  1.00  0.00     0.159 C 
BRANCH   5   6
ATOM      6  O   UNL     1      12.665 -20.169 -36.690  1.00  0.00    -0.396 OA
ATOM      7  H   UNL     1      12.567 -19.265 -36.290  1.00  0.00     0.210 HD
ENDBRANCH   5   6
ENDBRANCH   3   5
ENDBRANCH   2   3
ENDBRANCH   1   2
BRANCH   1   8
ATOM      8  C   UNL     1      10.749 -23.250 -37.123  1.00  0.00     0.136 C 
ATOM      9  O   UNL     1      10.873 -22.446 -36.209  1.00  0.00    -0.299 OA
BRANCH   8  10
ATOM     10  C   UNL     1       9.346 -23.825 -37.359  1.00  0.00     0.064 C 
ATOM     11  C   UNL     1       9.437 -25.229 -37.996  1.00  0.00     0.017 C 
BRANCH  10  12
ATOM     12  C   UNL     1       8.362 -22.850 -38.114  1.00  0.00     0.072 C 
ATOM     13  C   UNL     1       9.123 -22.014 -39.088  1.00  0.00     0.137 C 
ATOM     14  C   UNL     1       7.581 -21.762 -37.267  1.00  0.00    -0.019 C 
ATOM     15  O   UNL     1       9.523 -22.442 -40.160  1.00  0.00    -0.299 OA
ATOM     16  C   UNL     1       9.297 -20.605 -38.697  1.00  0.00     0.080 C 
ATOM     17  C   UNL     1       8.328 -20.392 -37.521  1.00  0.00     0.007 C 
ATOM     18  C   UNL     1       6.116 -21.675 -37.803  1.00  0.00     0.008 C 
ATOM     19  C   UNL     1       7.509 -22.103 -35.753  1.00  0.00     0.012 C 
ATOM     20  C   UNL     1       7.374 -19.191 -37.830  1.00  0.00     0.001 C 
ATOM     21  C   UNL     1       5.283 -20.483 -37.264  1.00  0.00     0.005 C 
ATOM     22  C   UNL     1       6.127 -19.222 -36.915  1.00  0.00     0.003 C 
ATOM     23  C   UNL     1       8.094 -17.837 -37.714  1.00  0.00     0.031 C 
ATOM     24  C   UNL     1       5.350 -17.819 -36.806  1.00  0.00    -0.008 C 
ATOM     25  C   UNL     1       7.155 -16.771 -38.193  1.00  0.00    -0.027 C 
ATOM     26  C   UNL     1       5.852 -16.803 -37.845  1.00  0.00    -0.065 C 
ATOM     27  C   UNL     1       3.804 -17.956 -36.964  1.00  0.00     0.014 C 
ATOM     28  C   UNL     1       5.638 -17.226 -35.396  1.00  0.00     0.016 C 
ATOM     29  C   UNL     1       4.866 -15.986 -38.659  1.00  0.00     0.063 C 
ATOM     30  C   UNL     1       3.063 -16.608 -36.887  1.00  0.00     0.033 C 
ATOM     31  C   UNL     1       3.636 -15.530 -37.844  1.00  0.00     0.118 C 
BRANCH  31  32
ATOM     32  O   UNL     1       3.904 -14.336 -37.149  1.00  0.00    -0.393 OA
ATOM     33  H   UNL     1       4.238 -14.577 -36.246  1.00  0.00     0.210 HD
ENDBRANCH  31  32
ENDBRANCH  10  12
ENDBRANCH   8  10
ENDBRANCH   1   8
TORSDOF 8
ENDMDL
MODEL 8
REMARK VINA RESULT:    -5.628      2.656      4.758
REMARK INTER + INTRA:          -9.171
REMARK INTER:                  -8.805
REMARK INTRA:                  -0.365
REMARK UNBOUND:                -1.240
REMARK SMILES C[C@H](CO)CCC(=O)[C@H](C)[C@@H]1C(=O)C[C@H]2[C@@H]3CC=C4C[C@H](O)CC[C@@]4(C)[C@H]3CC[C@]21C
REMARK SMILES IDX 6 1 5 2 2 3 1 4 3 5 4 6 7 8 8 9 9 10 10 11 11 12 12 13 30 14
REMARK SMILES IDX 13 15 14 16 15 17 29 18 31 19 16 20 28 21 27 22 17 23 25 24
REMARK SMILES IDX 18 25 19 26 24 27 26 28 20 29 23 30 21 31 22 32
REMARK H PARENT 4 7 22 33
REMARK Flexibility Score: inf
ROOT
ATOM      1  C   UNL     1       6.166 -18.243 -35.868  1.00  0.00     0.076 C 
ENDROOT
BRANCH   1   2
ATOM      2  C   UNL     1       5.782 -16.752 -35.853  1.00  0.00     0.013 C 
BRANCH   2   3
ATOM      3  C   UNL     1       4.730 -16.416 -34.766  1.00  0.00     0.012 C 
ATOM      4  C   UNL     1       3.603 -15.574 -35.386  1.00  0.00     0.010 C 
BRANCH   3   5
ATOM      5  C   UNL     1       5.351 -15.672 -33.560  1.00  0.00     0.159 C 
BRANCH   5   6
ATOM      6  O   UNL     1       5.410 -16.506 -32.432  1.00  0.00    -0.396 OA
ATOM      7  H   UNL     1       5.152 -17.416 -32.733  1.00  0.00     0.210 HD
ENDBRANCH   5   6
ENDBRANCH   3   5
ENDBRANCH   2   3
ENDBRANCH   1   2
BRANCH   1   8
ATOM      8  C   UNL     1       6.728 -18.816 -37.162  1.00  0.00     0.136 C 
ATOM      9  O   UNL     1       7.466 -18.079 -37.802  1.00  0.00    -0.299 OA
BRANCH   8  10
ATOM     10  C   UNL     1       6.462 -20.211 -37.743  1.00  0.00     0.064 C 
ATOM     11  C   UNL     1       5.034 -20.682 -37.388  1.00  0.00     0.017 C 
BRANCH  10  12
ATOM     12  C   UNL     1       7.579 -21.275 -37.414  1.00  0.00     0.072 C 
ATOM     13  C   UNL     1       8.395 -20.814 -36.253  1.00  0.00     0.137 C 
ATOM     14  C   UNL     1       8.684 -21.573 -38.511  1.00  0.00    -0.019 C 
ATOM     15  O   UNL     1       7.999 -20.872 -35.099  1.00  0.00    -0.299 OA
ATOM     16  C   UNL     1       9.750 -20.348 -36.590  1.00  0.00     0.080 C 
ATOM     17  C   UNL     1       9.984 -20.807 -38.040  1.00  0.00     0.007 C 
ATOM     18  C   UNL     1       8.955 -23.111 -38.537  1.00  0.00     0.008 C 
ATOM     19  C   UNL     1       8.254 -21.145 -39.942  1.00  0.00     0.012 C 
ATOM     20  C   UNL     1      11.294 -21.658 -38.123  1.00  0.00     0.001 C 
ATOM     21  C   UNL     1      10.187 -23.553 -39.369  1.00  0.00     0.005 C 
ATOM     22  C   UNL     1      11.330 -22.496 -39.423  1.00  0.00     0.003 C 
ATOM     23  C   UNL     1      12.557 -20.789 -38.006  1.00  0.00     0.031 C 
ATOM     24  C   UNL     1      12.795 -23.014 -39.837  1.00  0.00    -0.008 C 
ATOM     25  C   UNL     1      13.742 -21.704 -37.921  1.00  0.00    -0.027 C 
ATOM     26  C   UNL     1      13.820 -22.794 -38.712  1.00  0.00    -0.065 C 
ATOM     27  C   UNL     1      12.827 -24.521 -40.239  1.00  0.00     0.014 C 
ATOM     28  C   UNL     1      13.263 -22.178 -41.064  1.00  0.00     0.016 C 
ATOM     29  C   UNL     1      14.785 -23.899 -38.325  1.00  0.00     0.063 C 
ATOM     30  C   UNL     1      14.236 -25.021 -40.610  1.00  0.00     0.033 C 
ATOM     31  C   UNL     1      15.310 -24.699 -39.537  1.00  0.00     0.118 C 
BRANCH  31  32
ATOM     32  O   UNL     1      16.423 -24.064 -40.120  1.00  0.00    -0.393 OA
ATOM     33  H   UNL     1      16.601 -24.501 -40.992  1.00  0.00     0.210 HD
ENDBRANCH  31  32
ENDBRANCH  10  12
ENDBRANCH   8  10
ENDBRANCH   1   8
TORSDOF 8
ENDMDL
MODEL 9
REMARK VINA RESULT:    -5.519      2.408      4.633
REMARK INTER + INTRA:          -9.016
REMARK INTER:                  -8.341
REMARK INTRA:                  -0.676
REMARK UNBOUND:                -1.240
REMARK SMILES C[C@H](CO)CCC(=O)[C@H](C)[C@@H]1C(=O)C[C@H]2[C@@H]3CC=C4C[C@H](O)CC[C@@]4(C)[C@H]3CC[C@]21C
REMARK SMILES IDX 6 1 5 2 2 3 1 4 3 5 4 6 7 8 8 9 9 10 10 11 11 12 12 13 30 14
REMARK SMILES IDX 13 15 14 16 15 17 29 18 31 19 16 20 28 21 27 22 17 23 25 24
REMARK SMILES IDX 18 25 19 26 24 27 26 28 20 29 23 30 21 31 22 32
REMARK H PARENT 4 7 22 33
REMARK Flexibility Score: inf
ROOT
ATOM      1  C   UNL     1       2.953 -14.356 -38.544  1.00  0.00     0.076 C 
ENDROOT
BRANCH   1   2
ATOM      2  C   UNL     1       1.550 -14.000 -39.067  1.00  0.00     0.013 C 
BRANCH   2   3
ATOM      3  C   UNL     1       1.555 -12.765 -40.003  1.00  0.00     0.012 C 
ATOM      4  C   UNL     1       0.983 -13.158 -41.374  1.00  0.00     0.010 C 
BRANCH   3   5
ATOM      5  C   UNL     1       2.969 -12.161 -40.167  1.00  0.00     0.159 C 
BRANCH   5   6
ATOM      6  O   UNL     1       2.898 -10.806 -40.530  1.00  0.00    -0.396 OA
ATOM      7  H   UNL     1       3.001 -10.767 -41.516  1.00  0.00     0.210 HD
ENDBRANCH   5   6
ENDBRANCH   3   5
ENDBRANCH   2   3
ENDBRANCH   1   2
BRANCH   1   8
ATOM      8  C   UNL     1       3.301 -15.832 -38.400  1.00  0.00     0.136 C 
ATOM      9  O   UNL     1       3.576 -16.425 -39.435  1.00  0.00    -0.299 OA
BRANCH   8  10
ATOM     10  C   UNL     1       3.336 -16.647 -37.100  1.00  0.00     0.064 C 
ATOM     11  C   UNL     1       2.342 -16.066 -36.070  1.00  0.00     0.017 C 
BRANCH  10  12
ATOM     12  C   UNL     1       4.785 -16.880 -36.519  1.00  0.00     0.072 C 
ATOM     13  C   UNL     1       5.647 -15.699 -36.815  1.00  0.00     0.137 C 
ATOM     14  C   UNL     1       5.643 -18.082 -37.093  1.00  0.00    -0.019 C 
ATOM     15  O   UNL     1       5.568 -14.647 -36.198  1.00  0.00    -0.299 OA
ATOM     16  C   UNL     1       6.659 -15.914 -37.863  1.00  0.00     0.080 C 
ATOM     17  C   UNL     1       6.692 -17.436 -38.084  1.00  0.00     0.007 C 
ATOM     18  C   UNL     1       6.389 -18.769 -35.905  1.00  0.00     0.008 C 
ATOM     19  C   UNL     1       4.781 -19.166 -37.799  1.00  0.00     0.012 C 
ATOM     20  C   UNL     1       8.153 -17.968 -37.906  1.00  0.00     0.001 C 
ATOM     21  C   UNL     1       7.473 -19.802 -36.311  1.00  0.00     0.005 C 
ATOM     22  C   UNL     1       8.163 -19.497 -37.675  1.00  0.00     0.003 C 
ATOM     23  C   UNL     1       9.052 -17.596 -39.096  1.00  0.00     0.031 C 
ATOM     24  C   UNL     1       9.579 -20.201 -37.959  1.00  0.00    -0.008 C 
ATOM     25  C   UNL     1      10.458 -17.993 -38.755  1.00  0.00    -0.027 C 
ATOM     26  C   UNL     1      10.705 -19.170 -38.145  1.00  0.00    -0.065 C 
ATOM     27  C   UNL     1      10.010 -21.197 -36.838  1.00  0.00     0.014 C 
ATOM     28  C   UNL     1       9.453 -20.999 -39.290  1.00  0.00     0.016 C 
ATOM     29  C   UNL     1      12.040 -19.356 -37.449  1.00  0.00     0.063 C 
ATOM     30  C   UNL     1      11.381 -21.850 -37.100  1.00  0.00     0.033 C 
ATOM     31  C   UNL     1      12.506 -20.828 -37.410  1.00  0.00     0.118 C 
BRANCH  31  32
ATOM     32  O   UNL     1      13.184 -21.176 -38.594  1.00  0.00    -0.393 OA
ATOM     33  H   UNL     1      13.927 -21.787 -38.351  1.00  0.00     0.210 HD
ENDBRANCH  31  32
ENDBRANCH  10  12
ENDBRANCH   8  10
ENDBRANCH   1   8
TORSDOF 8
ENDMDL
