MODEL 1
REMARK VINA RESULT:    -4.659      0.000      0.000
REMARK INTER + INTRA:          -6.316
REMARK INTER:                  -6.021
REMARK INTRA:                  -0.295
REMARK UNBOUND:                -0.295
REMARK SMILES CO[C@@]1(CO)O[C@@H](CO)[C@H](O)[C@H]1O
REMARK SMILES IDX 3 1 12 2 10 3 7 4 6 5 2 6 1 7 4 8 5 9 13 11 11 13 8 15 9 16
REMARK H PARENT 5 10 13 12 11 14 9 17
REMARK Flexibility Score: inf
ROOT
ATOM      1  C   UNL     1      -4.723  -1.390  -7.419  1.00  0.00     0.221 C 
ATOM      2  C   UNL     1      -6.100  -1.042  -8.038  1.00  0.00     0.207 C 
ATOM      3  C   UNL     1      -6.554   0.195  -7.278  1.00  0.00     0.180 C 
ATOM      4  C   UNL     1      -5.321   0.604  -6.461  1.00  0.00     0.179 C 
ATOM      5  O   UNL     1      -4.223  -0.195  -6.854  1.00  0.00    -0.337 OA
ENDROOT
BRANCH   1   6
ATOM      6  O   UNL     1      -3.786  -1.805  -8.414  1.00  0.00    -0.349 OA
ATOM      7  C   UNL     1      -2.577  -1.066  -8.394  1.00  0.00     0.198 C 
ENDBRANCH   1   6
BRANCH   1   8
ATOM      8  C   UNL     1      -4.847  -2.436  -6.271  1.00  0.00     0.224 C 
BRANCH   8   9
ATOM      9  O   UNL     1      -4.484  -3.714  -6.723  1.00  0.00    -0.391 OA
ATOM     10  H   UNL     1      -5.328  -4.194  -6.929  1.00  0.00     0.210 HD
ENDBRANCH   8   9
ENDBRANCH   1   8
BRANCH   2  11
ATOM     11  O   UNL     1      -6.003  -0.765  -9.417  1.00  0.00    -0.385 OA
ATOM     12  H   UNL     1      -5.064  -0.505  -9.612  1.00  0.00     0.211 HD
ENDBRANCH   2  11
BRANCH   3  13
ATOM     13  O   UNL     1      -7.665  -0.067  -6.453  1.00  0.00    -0.387 OA
ATOM     14  H   UNL     1      -8.473   0.310  -6.889  1.00  0.00     0.211 HD
ENDBRANCH   3  13
BRANCH   4  15
ATOM     15  C   UNL     1      -4.972   2.084  -6.660  1.00  0.00     0.191 C 
BRANCH  15  16
ATOM     16  O   UNL     1      -6.113   2.811  -7.025  1.00  0.00    -0.394 OA
ATOM     17  H   UNL     1      -6.509   2.346  -7.808  1.00  0.00     0.210 HD
ENDBRANCH  15  16
ENDBRANCH   4  15
TORSDOF 7
ENDMDL
MODEL 2
REMARK VINA RESULT:    -4.366      1.857      3.131
REMARK INTER + INTRA:          -5.938
REMARK INTER:                  -5.611
REMARK INTRA:                  -0.326
REMARK UNBOUND:                -0.295
REMARK SMILES CO[C@@]1(CO)O[C@@H](CO)[C@H](O)[C@H]1O
REMARK SMILES IDX 3 1 12 2 10 3 7 4 6 5 2 6 1 7 4 8 5 9 13 11 11 13 8 15 9 16
REMARK H PARENT 5 10 13 12 11 14 9 17
REMARK Flexibility Score: inf
ROOT
ATOM      1  C   UNL     1      -4.341  -0.903  -7.531  1.00  0.00     0.221 C 
ATOM      2  C   UNL     1      -3.443  -0.885  -8.793  1.00  0.00     0.207 C 
ATOM      3  C   UNL     1      -3.211   0.593  -9.071  1.00  0.00     0.180 C 
ATOM      4  C   UNL     1      -3.780   1.299  -7.832  1.00  0.00     0.179 C 
ATOM      5  O   UNL     1      -4.124   0.326  -6.867  1.00  0.00    -0.337 OA
ENDROOT
BRANCH   1   6
ATOM      6  O   UNL     1      -3.959  -1.939  -6.625  1.00  0.00    -0.349 OA
ATOM      7  C   UNL     1      -3.728  -1.479  -5.306  1.00  0.00     0.198 C 
ENDBRANCH   1   6
BRANCH   1   8
ATOM      8  C   UNL     1      -5.854  -0.980  -7.893  1.00  0.00     0.224 C 
BRANCH   8   9
ATOM      9  O   UNL     1      -6.025  -1.167  -9.272  1.00  0.00    -0.391 OA
ATOM     10  H   UNL     1      -5.649  -2.060  -9.488  1.00  0.00     0.210 HD
ENDBRANCH   8   9
ENDBRANCH   1   8
BRANCH   2  11
ATOM     11  O   UNL     1      -2.216  -1.543  -8.576  1.00  0.00    -0.385 OA
ATOM     12  H   UNL     1      -1.762  -1.103  -7.809  1.00  0.00     0.211 HD
ENDBRANCH   2  11
BRANCH   3  13
ATOM     13  O   UNL     1      -3.848   1.017 -10.254  1.00  0.00    -0.387 OA
ATOM     14  H   UNL     1      -3.274   0.769 -11.024  1.00  0.00     0.211 HD
ENDBRANCH   3  13
BRANCH   4  15
ATOM     15  C   UNL     1      -2.772   2.284  -7.227  1.00  0.00     0.191 C 
BRANCH  15  16
ATOM     16  O   UNL     1      -2.652   3.422  -8.037  1.00  0.00    -0.394 OA
ATOM     17  H   UNL     1      -1.707   3.458  -8.339  1.00  0.00     0.210 HD
ENDBRANCH  15  16
ENDBRANCH   4  15
TORSDOF 7
ENDMDL
MODEL 3
REMARK VINA RESULT:    -4.292      1.443      4.152
REMARK INTER + INTRA:          -5.841
REMARK INTER:                  -5.475
REMARK INTRA:                  -0.367
REMARK UNBOUND:                -0.295
REMARK SMILES CO[C@@]1(CO)O[C@@H](CO)[C@H](O)[C@H]1O
REMARK SMILES IDX 3 1 12 2 10 3 7 4 6 5 2 6 1 7 4 8 5 9 13 11 11 13 8 15 9 16
REMARK H PARENT 5 10 13 12 11 14 9 17
REMARK Flexibility Score: inf
ROOT
ATOM      1  C   UNL     1      -4.909   0.242  -7.338  1.00  0.00     0.221 C 
ATOM      2  C   UNL     1      -4.995  -0.560  -8.662  1.00  0.00     0.207 C 
ATOM      3  C   UNL     1      -3.864  -1.572  -8.565  1.00  0.00     0.180 C 
ATOM      4  C   UNL     1      -3.372  -1.442  -7.116  1.00  0.00     0.179 C 
ATOM      5  O   UNL     1      -4.248  -0.591  -6.407  1.00  0.00    -0.337 OA
ENDROOT
BRANCH   1   6
ATOM      6  O   UNL     1      -6.204   0.520  -6.804  1.00  0.00    -0.349 OA
ATOM      7  C   UNL     1      -6.404   1.886  -6.489  1.00  0.00     0.198 C 
ENDBRANCH   1   6
BRANCH   1   8
ATOM      8  C   UNL     1      -4.059   1.538  -7.496  1.00  0.00     0.224 C 
BRANCH   8   9
ATOM      9  O   UNL     1      -3.676   1.720  -8.833  1.00  0.00    -0.391 OA
ATOM     10  H   UNL     1      -2.767   1.333  -8.925  1.00  0.00     0.210 HD
ENDBRANCH   8   9
ENDBRANCH   1   8
BRANCH   2  11
ATOM     11  O   UNL     1      -6.234  -1.218  -8.799  1.00  0.00    -0.385 OA
ATOM     12  H   UNL     1      -6.261  -1.637  -9.700  1.00  0.00     0.211 HD
ENDBRANCH   2  11
BRANCH   3  13
ATOM     13  O   UNL     1      -2.836  -1.310  -9.492  1.00  0.00    -0.387 OA
ATOM     14  H   UNL     1      -2.092  -0.859  -9.015  1.00  0.00     0.211 HD
ENDBRANCH   3  13
BRANCH   4  15
ATOM     15  C   UNL     1      -3.306  -2.804  -6.414  1.00  0.00     0.191 C 
BRANCH  15  16
ATOM     16  O   UNL     1      -4.414  -3.590  -6.764  1.00  0.00    -0.394 OA
ATOM     17  H   UNL     1      -5.051  -3.537  -6.004  1.00  0.00     0.210 HD
ENDBRANCH  15  16
ENDBRANCH   4  15
TORSDOF 7
ENDMDL
MODEL 4
REMARK VINA RESULT:    -4.271      1.460      2.231
REMARK INTER + INTRA:          -5.813
REMARK INTER:                  -5.452
REMARK INTRA:                  -0.362
REMARK UNBOUND:                -0.295
REMARK SMILES CO[C@@]1(CO)O[C@@H](CO)[C@H](O)[C@H]1O
REMARK SMILES IDX 3 1 12 2 10 3 7 4 6 5 2 6 1 7 4 8 5 9 13 11 11 13 8 15 9 16
REMARK H PARENT 5 10 13 12 11 14 9 17
REMARK Flexibility Score: inf
ROOT
ATOM      1  C   UNL     1      -4.385  -0.887  -6.382  1.00  0.00     0.221 C 
ATOM      2  C   UNL     1      -4.244  -0.528  -7.883  1.00  0.00     0.207 C 
ATOM      3  C   UNL     1      -5.673  -0.303  -8.353  1.00  0.00     0.180 C 
ATOM      4  C   UNL     1      -6.497  -0.311  -7.058  1.00  0.00     0.179 C 
ATOM      5  O   UNL     1      -5.617  -0.343  -5.954  1.00  0.00    -0.337 OA
ENDROOT
BRANCH   1   6
ATOM      6  O   UNL     1      -3.363  -0.275  -5.594  1.00  0.00    -0.349 OA
ATOM      7  C   UNL     1      -2.353  -1.178  -5.180  1.00  0.00     0.198 C 
ENDBRANCH   1   6
BRANCH   1   8
ATOM      8  C   UNL     1      -4.446  -2.427  -6.154  1.00  0.00     0.224 C 
BRANCH   8   9
ATOM      9  O   UNL     1      -4.366  -3.112  -7.376  1.00  0.00    -0.391 OA
ATOM     10  H   UNL     1      -3.419  -3.063  -7.669  1.00  0.00     0.210 HD
ENDBRANCH   8   9
ENDBRANCH   1   8
BRANCH   2  11
ATOM     11  O   UNL     1      -3.474   0.637  -8.076  1.00  0.00    -0.385 OA
ATOM     12  H   UNL     1      -3.981   1.245  -8.677  1.00  0.00     0.211 HD
ENDBRANCH   2  11
BRANCH   3  13
ATOM     13  O   UNL     1      -6.100  -1.302  -9.251  1.00  0.00    -0.387 OA
ATOM     14  H   UNL     1      -5.652  -2.153  -9.007  1.00  0.00     0.211 HD
ENDBRANCH   3  13
BRANCH   4  15
ATOM     15  C   UNL     1      -7.403   0.922  -6.953  1.00  0.00     0.191 C 
BRANCH  15  16
ATOM     16  O   UNL     1      -6.670   2.091  -7.205  1.00  0.00    -0.394 OA
ATOM     17  H   UNL     1      -7.237   2.851  -6.910  1.00  0.00     0.210 HD
ENDBRANCH  15  16
ENDBRANCH   4  15
TORSDOF 7
ENDMDL
MODEL 5
REMARK VINA RESULT:    -4.243      1.865      3.420
REMARK INTER + INTRA:          -5.778
REMARK INTER:                  -5.398
REMARK INTRA:                  -0.379
REMARK UNBOUND:                -0.295
REMARK SMILES CO[C@@]1(CO)O[C@@H](CO)[C@H](O)[C@H]1O
REMARK SMILES IDX 3 1 12 2 10 3 7 4 6 5 2 6 1 7 4 8 5 9 13 11 11 13 8 15 9 16
REMARK H PARENT 5 10 13 12 11 14 9 17
REMARK Flexibility Score: inf
ROOT
ATOM      1  C   UNL     1      -3.432   0.907  -7.622  1.00  0.00     0.221 C 
ATOM      2  C   UNL     1      -3.424   0.032  -8.901  1.00  0.00     0.207 C 
ATOM      3  C   UNL     1      -4.407  -1.089  -8.597  1.00  0.00     0.180 C 
ATOM      4  C   UNL     1      -5.077  -0.652  -7.287  1.00  0.00     0.179 C 
ATOM      5  O   UNL     1      -4.665   0.663  -6.976  1.00  0.00    -0.337 OA
ENDROOT
BRANCH   1   6
ATOM      6  O   UNL     1      -3.394   2.300  -7.934  1.00  0.00    -0.349 OA
ATOM      7  C   UNL     1      -4.236   3.087  -7.111  1.00  0.00     0.198 C 
ENDBRANCH   1   6
BRANCH   1   8
ATOM      8  C   UNL     1      -2.296   0.505  -6.634  1.00  0.00     0.224 C 
BRANCH   8   9
ATOM      9  O   UNL     1      -1.489  -0.499  -7.189  1.00  0.00    -0.391 OA
ATOM     10  H   UNL     1      -1.406  -0.297  -8.156  1.00  0.00     0.210 HD
ENDBRANCH   8   9
ENDBRANCH   1   8
BRANCH   2  11
ATOM     11  O   UNL     1      -3.840   0.756 -10.037  1.00  0.00    -0.385 OA
ATOM     12  H   UNL     1      -3.210   1.514 -10.165  1.00  0.00     0.211 HD
ENDBRANCH   2  11
BRANCH   3  13
ATOM     13  O   UNL     1      -3.765  -2.336  -8.467  1.00  0.00    -0.387 OA
ATOM     14  H   UNL     1      -3.279  -2.349  -7.602  1.00  0.00     0.211 HD
ENDBRANCH   3  13
BRANCH   4  15
ATOM     15  C   UNL     1      -6.607  -0.696  -7.389  1.00  0.00     0.191 C 
BRANCH  15  16
ATOM     16  O   UNL     1      -7.075   0.355  -8.190  1.00  0.00    -0.394 OA
ATOM     17  H   UNL     1      -7.619  -0.058  -8.912  1.00  0.00     0.210 HD
ENDBRANCH  15  16
ENDBRANCH   4  15
TORSDOF 7
ENDMDL
MODEL 6
REMARK VINA RESULT:    -4.232      1.589      3.874
REMARK INTER + INTRA:          -5.764
REMARK INTER:                  -5.500
REMARK INTRA:                  -0.263
REMARK UNBOUND:                -0.295
REMARK SMILES CO[C@@]1(CO)O[C@@H](CO)[C@H](O)[C@H]1O
REMARK SMILES IDX 3 1 12 2 10 3 7 4 6 5 2 6 1 7 4 8 5 9 13 11 11 13 8 15 9 16
REMARK H PARENT 5 10 13 12 11 14 9 17
REMARK Flexibility Score: inf
ROOT
ATOM      1  C   UNL     1      -3.730   0.708  -7.724  1.00  0.00     0.221 C 
ATOM      2  C   UNL     1      -5.259   0.652  -7.967  1.00  0.00     0.207 C 
ATOM      3  C   UNL     1      -5.592  -0.832  -7.933  1.00  0.00     0.180 C 
ATOM      4  C   UNL     1      -4.297  -1.494  -7.441  1.00  0.00     0.179 C 
ATOM      5  O   UNL     1      -3.386  -0.487  -7.053  1.00  0.00    -0.337 OA
ENDROOT
BRANCH   1   6
ATOM      6  O   UNL     1      -3.371   1.789  -6.862  1.00  0.00    -0.349 OA
ATOM      7  C   UNL     1      -2.891   2.928  -7.554  1.00  0.00     0.198 C 
ENDBRANCH   1   6
BRANCH   1   8
ATOM      8  C   UNL     1      -2.928   0.743  -9.059  1.00  0.00     0.224 C 
BRANCH   8   9
ATOM      9  O   UNL     1      -3.795   0.872 -10.155  1.00  0.00    -0.391 OA
ATOM     10  H   UNL     1      -4.133  -0.038 -10.360  1.00  0.00     0.210 HD
ENDBRANCH   8   9
ENDBRANCH   1   8
BRANCH   2  11
ATOM     11  O   UNL     1      -5.977   1.340  -6.968  1.00  0.00    -0.385 OA
ATOM     12  H   UNL     1      -5.399   1.401  -6.162  1.00  0.00     0.211 HD
ENDBRANCH   2  11
BRANCH   3  13
ATOM     13  O   UNL     1      -5.981  -1.318  -9.197  1.00  0.00    -0.387 OA
ATOM     14  H   UNL     1      -6.921  -1.047  -9.360  1.00  0.00     0.211 HD
ENDBRANCH   3  13
BRANCH   4  15
ATOM     15  C   UNL     1      -4.553  -2.435  -6.258  1.00  0.00     0.191 C 
BRANCH  15  16
ATOM     16  O   UNL     1      -4.470  -3.773  -6.669  1.00  0.00    -0.394 OA
ATOM     17  H   UNL     1      -5.378  -4.161  -6.561  1.00  0.00     0.210 HD
ENDBRANCH  15  16
ENDBRANCH   4  15
TORSDOF 7
ENDMDL
MODEL 7
REMARK VINA RESULT:    -4.206      1.484      3.320
REMARK INTER + INTRA:          -5.730
REMARK INTER:                  -5.357
REMARK INTRA:                  -0.373
REMARK UNBOUND:                -0.295
REMARK SMILES CO[C@@]1(CO)O[C@@H](CO)[C@H](O)[C@H]1O
REMARK SMILES IDX 3 1 12 2 10 3 7 4 6 5 2 6 1 7 4 8 5 9 13 11 11 13 8 15 9 16
REMARK H PARENT 5 10 13 12 11 14 9 17
REMARK Flexibility Score: inf
ROOT
ATOM      1  C   UNL     1      -4.581  -0.660  -6.308  1.00  0.00     0.221 C 
ATOM      2  C   UNL     1      -5.166  -1.684  -7.313  1.00  0.00     0.207 C 
ATOM      3  C   UNL     1      -4.857  -1.091  -8.680  1.00  0.00     0.180 C 
ATOM      4  C   UNL     1      -3.921   0.086  -8.372  1.00  0.00     0.179 C 
ATOM      5  O   UNL     1      -3.578   0.054  -7.002  1.00  0.00    -0.337 OA
ENDROOT
BRANCH   1   6
ATOM      6  O   UNL     1      -3.945  -1.306  -5.205  1.00  0.00    -0.349 OA
ATOM      7  C   UNL     1      -2.591  -0.927  -5.032  1.00  0.00     0.198 C 
ENDBRANCH   1   6
BRANCH   1   8
ATOM      8  C   UNL     1      -5.650   0.371  -5.836  1.00  0.00     0.224 C 
BRANCH   8   9
ATOM      9  O   UNL     1      -6.905   0.068  -6.383  1.00  0.00    -0.391 OA
ATOM     10  H   UNL     1      -6.852   0.275  -7.352  1.00  0.00     0.210 HD
ENDBRANCH   8   9
ENDBRANCH   1   8
BRANCH   2  11
ATOM     11  O   UNL     1      -4.568  -2.953  -7.181  1.00  0.00    -0.385 OA
ATOM     12  H   UNL     1      -4.669  -3.243  -6.236  1.00  0.00     0.211 HD
ENDBRANCH   2  11
BRANCH   3  13
ATOM     13  O   UNL     1      -6.021  -0.673  -9.353  1.00  0.00    -0.387 OA
ATOM     14  H   UNL     1      -6.553  -1.477  -9.588  1.00  0.00     0.211 HD
ENDBRANCH   3  13
BRANCH   4  15
ATOM     15  C   UNL     1      -2.644   0.033  -9.219  1.00  0.00     0.191 C 
BRANCH  15  16
ATOM     16  O   UNL     1      -2.643  -1.109 -10.034  1.00  0.00    -0.394 OA
ATOM     17  H   UNL     1      -3.530  -1.141 -10.480  1.00  0.00     0.210 HD
ENDBRANCH  15  16
ENDBRANCH   4  15
TORSDOF 7
ENDMDL
MODEL 8
REMARK VINA RESULT:    -4.194      3.221      5.812
REMARK INTER + INTRA:          -5.714
REMARK INTER:                  -5.485
REMARK INTRA:                  -0.229
REMARK UNBOUND:                -0.295
REMARK SMILES CO[C@@]1(CO)O[C@@H](CO)[C@H](O)[C@H]1O
REMARK SMILES IDX 3 1 12 2 10 3 7 4 6 5 2 6 1 7 4 8 5 9 13 11 11 13 8 15 9 16
REMARK H PARENT 5 10 13 12 11 14 9 17
REMARK Flexibility Score: inf
ROOT
ATOM      1  C   UNL     1      -2.017  -1.412  -8.776  1.00  0.00     0.221 C 
ATOM      2  C   UNL     1      -1.019  -2.577  -8.552  1.00  0.00     0.207 C 
ATOM      3  C   UNL     1      -0.747  -3.115  -9.949  1.00  0.00     0.180 C 
ATOM      4  C   UNL     1      -1.406  -2.087 -10.879  1.00  0.00     0.179 C 
ATOM      5  O   UNL     1      -1.839  -0.984 -10.111  1.00  0.00    -0.337 OA
ENDROOT
BRANCH   1   6
ATOM      6  O   UNL     1      -1.723  -0.295  -7.937  1.00  0.00    -0.349 OA
ATOM      7  C   UNL     1      -2.631   0.781  -8.091  1.00  0.00     0.198 C 
ENDBRANCH   1   6
BRANCH   1   8
ATOM      8  C   UNL     1      -3.497  -1.875  -8.625  1.00  0.00     0.224 C 
BRANCH   8   9
ATOM      9  O   UNL     1      -3.596  -2.925  -7.700  1.00  0.00    -0.391 OA
ATOM     10  H   UNL     1      -3.248  -3.737  -8.152  1.00  0.00     0.210 HD
ENDBRANCH   8   9
ENDBRANCH   1   8
BRANCH   2  11
ATOM     11  O   UNL     1       0.178  -2.136  -7.953  1.00  0.00    -0.385 OA
ATOM     12  H   UNL     1      -0.049  -1.729  -7.076  1.00  0.00     0.211 HD
ENDBRANCH   2  11
BRANCH   3  13
ATOM     13  O   UNL     1      -1.281  -4.406 -10.133  1.00  0.00    -0.387 OA
ATOM     14  H   UNL     1      -2.255  -4.320 -10.302  1.00  0.00     0.211 HD
ENDBRANCH   3  13
BRANCH   4  15
ATOM     15  C   UNL     1      -0.439  -1.603 -11.967  1.00  0.00     0.191 C 
BRANCH  15  16
ATOM     16  O   UNL     1      -0.706  -2.250 -13.182  1.00  0.00    -0.394 OA
ATOM     17  H   UNL     1      -0.240  -3.126 -13.147  1.00  0.00     0.210 HD
ENDBRANCH  15  16
ENDBRANCH   4  15
TORSDOF 7
ENDMDL
MODEL 9
REMARK VINA RESULT:    -4.183      1.997      3.774
REMARK INTER + INTRA:          -5.701
REMARK INTER:                  -5.420
REMARK INTRA:                  -0.281
REMARK UNBOUND:                -0.295
REMARK SMILES CO[C@@]1(CO)O[C@@H](CO)[C@H](O)[C@H]1O
REMARK SMILES IDX 3 1 12 2 10 3 7 4 6 5 2 6 1 7 4 8 5 9 13 11 11 13 8 15 9 16
REMARK H PARENT 5 10 13 12 11 14 9 17
REMARK Flexibility Score: inf
ROOT
ATOM      1  C   UNL     1      -2.303  -1.671  -8.456  1.00  0.00     0.221 C 
ATOM      2  C   UNL     1      -2.285  -0.122  -8.490  1.00  0.00     0.207 C 
ATOM      3  C   UNL     1      -3.724   0.266  -8.794  1.00  0.00     0.180 C 
ATOM      4  C   UNL     1      -4.499  -1.054  -8.673  1.00  0.00     0.179 C 
ATOM      5  O   UNL     1      -3.634  -2.050  -8.169  1.00  0.00    -0.337 OA
ENDROOT
BRANCH   1   6
ATOM      6  O   UNL     1      -1.487  -2.185  -7.403  1.00  0.00    -0.349 OA
ATOM      7  C   UNL     1      -2.179  -3.054  -6.524  1.00  0.00     0.198 C 
ENDBRANCH   1   6
BRANCH   1   8
ATOM      8  C   UNL     1      -1.926  -2.289  -9.835  1.00  0.00     0.224 C 
BRANCH   8   9
ATOM      9  O   UNL     1      -1.806  -1.289 -10.811  1.00  0.00    -0.391 OA
ATOM     10  H   UNL     1      -2.019  -0.428 -10.365  1.00  0.00     0.210 HD
ENDBRANCH   8   9
ENDBRANCH   1   8
BRANCH   2  11
ATOM     11  O   UNL     1      -1.877   0.428  -7.258  1.00  0.00    -0.385 OA
ATOM     12  H   UNL     1      -1.831   1.415  -7.362  1.00  0.00     0.211 HD
ENDBRANCH   2  11
BRANCH   3  13
ATOM     13  O   UNL     1      -3.862   0.839 -10.073  1.00  0.00    -0.387 OA
ATOM     14  H   UNL     1      -3.233   1.603 -10.143  1.00  0.00     0.211 HD
ENDBRANCH   3  13
BRANCH   4  15
ATOM     15  C   UNL     1      -5.714  -0.918  -7.748  1.00  0.00     0.191 C 
BRANCH  15  16
ATOM     16  O   UNL     1      -6.726  -0.175  -8.374  1.00  0.00    -0.394 OA
ATOM     17  H   UNL     1      -7.505  -0.783  -8.474  1.00  0.00     0.210 HD
ENDBRANCH  15  16
ENDBRANCH   4  15
TORSDOF 7
ENDMDL
