MODEL 1
REMARK VINA RESULT:    -3.065      0.000      0.000
REMARK INTER + INTRA:          -5.288
REMARK INTER:                  -4.857
REMARK INTRA:                  -0.431
REMARK UNBOUND:                -0.431
REMARK SMILES CCCCCCCCCCCC(=O)[O-]
REMARK SMILES IDX 7 1 8 2 9 3 10 4 11 5 12 6 13 7 14 8 6 9 5 10 4 11 3 12 2 13
REMARK SMILES IDX 1 14
REMARK H PARENT
REMARK Flexibility Score: inf
ROOT
ATOM      1  C   UNL     1      27.944  20.616  14.960  1.00  0.00     0.000 C 
ENDROOT
BRANCH   1   2
ATOM      2  C   UNL     1      27.511  20.956  16.402  1.00  0.00     0.000 C 
BRANCH   2   3
ATOM      3  C   UNL     1      26.138  20.353  16.752  1.00  0.00     0.000 C 
BRANCH   3   4
ATOM      4  C   UNL     1      25.313  20.001  15.504  1.00  0.00     0.006 C 
BRANCH   4   5
ATOM      5  C   UNL     1      23.808  19.938  15.795  1.00  0.00     0.053 C 
BRANCH   5   6
ATOM      6  C   UNL     1      23.031  19.930  14.517  1.00  0.00     0.041 C 
ATOM      7  O   UNL     1      23.631  19.905  13.409  1.00  0.00    -0.550 OA
ATOM      8  O   UNL     1      21.644  19.999  14.546  1.00  0.00    -0.550 OA
ENDBRANCH   5   6
ENDBRANCH   4   5
ENDBRANCH   3   4
ENDBRANCH   2   3
ENDBRANCH   1   2
BRANCH   1   9
ATOM      9  C   UNL     1      29.458  20.748  14.723  1.00  0.00     0.000 C 
BRANCH   9  10
ATOM     10  C   UNL     1      29.916  20.090  13.411  1.00  0.00    -0.000 C 
BRANCH  10  11
ATOM     11  C   UNL     1      30.125  21.111  12.281  1.00  0.00    -0.000 C 
BRANCH  11  12
ATOM     12  C   UNL     1      28.873  21.298  11.410  1.00  0.00    -0.000 C 
BRANCH  12  13
ATOM     13  C   UNL     1      29.251  21.456   9.932  1.00  0.00    -0.003 C 
ATOM     14  C   UNL     1      28.560  20.405   9.069  1.00  0.00     0.004 C 
ENDBRANCH  12  13
ENDBRANCH  11  12
ENDBRANCH  10  11
ENDBRANCH   9  10
ENDBRANCH   1   9
TORSDOF 10
ENDMDL
MODEL 2
REMARK VINA RESULT:    -3.034      3.050      6.438
REMARK INTER + INTRA:          -5.238
REMARK INTER:                  -4.920
REMARK INTRA:                  -0.319
REMARK UNBOUND:                -0.431
REMARK SMILES CCCCCCCCCCCC(=O)[O-]
REMARK SMILES IDX 7 1 8 2 9 3 10 4 11 5 12 6 13 7 14 8 6 9 5 10 4 11 3 12 2 13
REMARK SMILES IDX 1 14
REMARK H PARENT
REMARK Flexibility Score: inf
ROOT
ATOM      1  C   UNL     1      26.430  19.984  15.645  1.00  0.00     0.000 C 
ENDROOT
BRANCH   1   2
ATOM      2  C   UNL     1      27.407  21.154  15.886  1.00  0.00     0.000 C 
BRANCH   2   3
ATOM      3  C   UNL     1      28.773  20.914  15.218  1.00  0.00     0.000 C 
BRANCH   3   4
ATOM      4  C   UNL     1      29.143  22.021  14.219  1.00  0.00     0.006 C 
BRANCH   4   5
ATOM      5  C   UNL     1      29.836  21.471  12.965  1.00  0.00     0.053 C 
BRANCH   5   6
ATOM      6  C   UNL     1      29.437  22.264  11.760  1.00  0.00     0.041 C 
ATOM      7  O   UNL     1      29.671  23.500  11.709  1.00  0.00    -0.550 OA
ATOM      8  O   UNL     1      28.763  21.647  10.714  1.00  0.00    -0.550 OA
ENDBRANCH   5   6
ENDBRANCH   4   5
ENDBRANCH   3   4
ENDBRANCH   2   3
ENDBRANCH   1   2
BRANCH   1   9
ATOM      9  C   UNL     1      24.978  20.300  16.045  1.00  0.00     0.000 C 
BRANCH   9  10
ATOM     10  C   UNL     1      23.993  20.164  14.872  1.00  0.00    -0.000 C 
BRANCH  10  11
ATOM     11  C   UNL     1      22.554  20.538  15.264  1.00  0.00    -0.000 C 
BRANCH  11  12
ATOM     12  C   UNL     1      21.502  19.875  14.361  1.00  0.00    -0.000 C 
BRANCH  12  13
ATOM     13  C   UNL     1      21.930  19.928  12.890  1.00  0.00    -0.003 C 
ATOM     14  C   UNL     1      20.719  19.906  11.961  1.00  0.00     0.004 C 
ENDBRANCH  12  13
ENDBRANCH  11  12
ENDBRANCH  10  11
ENDBRANCH   9  10
ENDBRANCH   1   9
TORSDOF 10
ENDMDL
MODEL 3
REMARK VINA RESULT:    -2.826      1.225      1.894
REMARK INTER + INTRA:          -4.909
REMARK INTER:                  -4.510
REMARK INTRA:                  -0.399
REMARK UNBOUND:                -0.431
REMARK SMILES CCCCCCCCCCCC(=O)[O-]
REMARK SMILES IDX 7 1 8 2 9 3 10 4 11 5 12 6 13 7 14 8 6 9 5 10 4 11 3 12 2 13
REMARK SMILES IDX 1 14
REMARK H PARENT
REMARK Flexibility Score: inf
ROOT
ATOM      1  C   UNL     1      27.836  20.634  14.627  1.00  0.00     0.000 C 
ENDROOT
BRANCH   1   2
ATOM      2  C   UNL     1      27.748  20.756  16.163  1.00  0.00     0.000 C 
BRANCH   2   3
ATOM      3  C   UNL     1      26.304  20.608  16.675  1.00  0.00     0.000 C 
BRANCH   3   4
ATOM      4  C   UNL     1      25.334  20.147  15.576  1.00  0.00     0.006 C 
BRANCH   4   5
ATOM      5  C   UNL     1      23.864  20.279  15.999  1.00  0.00     0.053 C 
BRANCH   5   6
ATOM      6  C   UNL     1      22.967  20.149  14.809  1.00  0.00     0.041 C 
ATOM      7  O   UNL     1      21.717  20.092  14.960  1.00  0.00    -0.550 OA
ATOM      8  O   UNL     1      23.512  20.041  13.536  1.00  0.00    -0.550 OA
ENDBRANCH   5   6
ENDBRANCH   4   5
ENDBRANCH   3   4
ENDBRANCH   2   3
ENDBRANCH   1   2
BRANCH   1   9
ATOM      9  C   UNL     1      29.275  20.669  14.086  1.00  0.00     0.000 C 
BRANCH   9  10
ATOM     10  C   UNL     1      29.426  19.936  12.743  1.00  0.00    -0.000 C 
BRANCH  10  11
ATOM     11  C   UNL     1      29.145  20.848  11.538  1.00  0.00    -0.000 C 
BRANCH  11  12
ATOM     12  C   UNL     1      30.056  22.084  11.504  1.00  0.00    -0.000 C 
BRANCH  12  13
ATOM     13  C   UNL     1      29.300  23.337  11.961  1.00  0.00    -0.003 C 
ATOM     14  C   UNL     1      30.080  24.606  11.629  1.00  0.00     0.004 C 
ENDBRANCH  12  13
ENDBRANCH  11  12
ENDBRANCH  10  11
ENDBRANCH   9  10
ENDBRANCH   1   9
TORSDOF 10
ENDMDL
MODEL 4
REMARK VINA RESULT:    -2.593     14.543     16.457
REMARK INTER + INTRA:          -4.540
REMARK INTER:                  -3.647
REMARK INTRA:                  -0.894
REMARK UNBOUND:                -0.431
REMARK SMILES CCCCCCCCCCCC(=O)[O-]
REMARK SMILES IDX 7 1 8 2 9 3 10 4 11 5 12 6 13 7 14 8 6 9 5 10 4 11 3 12 2 13
REMARK SMILES IDX 1 14
REMARK H PARENT
REMARK Flexibility Score: inf
ROOT
ATOM      1  C   UNL     1      12.744  20.981  18.409  1.00  0.00     0.000 C 
ENDROOT
BRANCH   1   2
ATOM      2  C   UNL     1      11.371  20.668  19.041  1.00  0.00     0.000 C 
BRANCH   2   3
ATOM      3  C   UNL     1      10.653  21.941  19.525  1.00  0.00     0.000 C 
BRANCH   3   4
ATOM      4  C   UNL     1      10.387  21.930  21.038  1.00  0.00     0.006 C 
BRANCH   4   5
ATOM      5  C   UNL     1      10.917  20.659  21.716  1.00  0.00     0.053 C 
BRANCH   5   6
ATOM      6  C   UNL     1      11.810  21.015  22.863  1.00  0.00     0.041 C 
ATOM      7  O   UNL     1      12.465  22.091  22.847  1.00  0.00    -0.550 OA
ATOM      8  O   UNL     1      11.958  20.136  23.928  1.00  0.00    -0.550 OA
ENDBRANCH   5   6
ENDBRANCH   4   5
ENDBRANCH   3   4
ENDBRANCH   2   3
ENDBRANCH   1   2
BRANCH   1   9
ATOM      9  C   UNL     1      13.083  20.093  17.200  1.00  0.00     0.000 C 
BRANCH   9  10
ATOM     10  C   UNL     1      13.385  20.906  15.929  1.00  0.00    -0.000 C 
BRANCH  10  11
ATOM     11  C   UNL     1      12.458  22.123  15.773  1.00  0.00    -0.000 C 
BRANCH  11  12
ATOM     12  C   UNL     1      11.700  22.124  14.438  1.00  0.00    -0.000 C 
BRANCH  12  13
ATOM     13  C   UNL     1      10.191  22.268  14.663  1.00  0.00    -0.003 C 
ATOM     14  C   UNL     1       9.881  22.654  16.107  1.00  0.00     0.004 C 
ENDBRANCH  12  13
ENDBRANCH  11  12
ENDBRANCH  10  11
ENDBRANCH   9  10
ENDBRANCH   1   9
TORSDOF 10
ENDMDL
MODEL 5
REMARK VINA RESULT:    -2.587     13.089     16.687
REMARK INTER + INTRA:          -4.530
REMARK INTER:                  -3.906
REMARK INTRA:                  -0.625
REMARK UNBOUND:                -0.431
REMARK SMILES CCCCCCCCCCCC(=O)[O-]
REMARK SMILES IDX 7 1 8 2 9 3 10 4 11 5 12 6 13 7 14 8 6 9 5 10 4 11 3 12 2 13
REMARK SMILES IDX 1 14
REMARK H PARENT
REMARK Flexibility Score: inf
ROOT
ATOM      1  C   UNL     1       9.958  22.962  16.719  1.00  0.00     0.000 C 
ENDROOT
BRANCH   1   2
ATOM      2  C   UNL     1      10.236  22.330  15.339  1.00  0.00     0.000 C 
BRANCH   2   3
ATOM      3  C   UNL     1      11.737  22.320  14.998  1.00  0.00     0.000 C 
BRANCH   3   4
ATOM      4  C   UNL     1      12.465  21.095  15.572  1.00  0.00     0.006 C 
BRANCH   4   5
ATOM      5  C   UNL     1      13.947  21.373  15.857  1.00  0.00     0.053 C 
BRANCH   5   6
ATOM      6  C   UNL     1      14.479  20.390  16.852  1.00  0.00     0.041 C 
ATOM      7  O   UNL     1      13.724  19.918  17.743  1.00  0.00    -0.550 OA
ATOM      8  O   UNL     1      15.821  20.031  16.826  1.00  0.00    -0.550 OA
ENDBRANCH   5   6
ENDBRANCH   4   5
ENDBRANCH   3   4
ENDBRANCH   2   3
ENDBRANCH   1   2
BRANCH   1   9
ATOM      9  C   UNL     1       9.875  21.937  17.863  1.00  0.00     0.000 C 
BRANCH   9  10
ATOM     10  C   UNL     1      11.010  22.094  18.888  1.00  0.00    -0.000 C 
BRANCH  10  11
ATOM     11  C   UNL     1      10.549  21.809  20.327  1.00  0.00    -0.000 C 
BRANCH  11  12
ATOM     12  C   UNL     1      10.919  20.395  20.799  1.00  0.00    -0.000 C 
BRANCH  12  13
ATOM     13  C   UNL     1      12.071  20.438  21.811  1.00  0.00    -0.003 C 
ATOM     14  C   UNL     1      11.906  21.599  22.787  1.00  0.00     0.004 C 
ENDBRANCH  12  13
ENDBRANCH  11  12
ENDBRANCH  10  11
ENDBRANCH   9  10
ENDBRANCH   1   9
TORSDOF 10
ENDMDL
MODEL 6
REMARK VINA RESULT:    -2.483      1.629      2.491
REMARK INTER + INTRA:          -4.366
REMARK INTER:                  -3.787
REMARK INTRA:                  -0.579
REMARK UNBOUND:                -0.431
REMARK SMILES CCCCCCCCCCCC(=O)[O-]
REMARK SMILES IDX 7 1 8 2 9 3 10 4 11 5 12 6 13 7 14 8 6 9 5 10 4 11 3 12 2 13
REMARK SMILES IDX 1 14
REMARK H PARENT
REMARK Flexibility Score: inf
ROOT
ATOM      1  C   UNL     1      26.344  21.180  16.824  1.00  0.00     0.000 C 
ENDROOT
BRANCH   1   2
ATOM      2  C   UNL     1      25.581  19.875  16.515  1.00  0.00     0.000 C 
BRANCH   2   3
ATOM      3  C   UNL     1      24.741  19.986  15.230  1.00  0.00     0.000 C 
BRANCH   3   4
ATOM      4  C   UNL     1      23.459  20.809  15.432  1.00  0.00     0.006 C 
BRANCH   4   5
ATOM      5  C   UNL     1      22.195  20.025  15.054  1.00  0.00     0.053 C 
BRANCH   5   6
ATOM      6  C   UNL     1      21.919  20.156  13.589  1.00  0.00     0.041 C 
ATOM      7  O   UNL     1      20.780  19.875  13.130  1.00  0.00    -0.550 OA
ATOM      8  O   UNL     1      22.934  20.542  12.723  1.00  0.00    -0.550 OA
ENDBRANCH   5   6
ENDBRANCH   4   5
ENDBRANCH   3   4
ENDBRANCH   2   3
ENDBRANCH   1   2
BRANCH   1   9
ATOM      9  C   UNL     1      27.869  20.997  16.910  1.00  0.00     0.000 C 
BRANCH   9  10
ATOM     10  C   UNL     1      28.463  20.340  15.654  1.00  0.00    -0.000 C 
BRANCH  10  11
ATOM     11  C   UNL     1      28.514  21.300  14.454  1.00  0.00    -0.000 C 
BRANCH  11  12
ATOM     12  C   UNL     1      27.858  20.713  13.196  1.00  0.00    -0.000 C 
BRANCH  12  13
ATOM     13  C   UNL     1      27.868  21.728  12.046  1.00  0.00    -0.003 C 
ATOM     14  C   UNL     1      29.013  22.725  12.200  1.00  0.00     0.004 C 
ENDBRANCH  12  13
ENDBRANCH  11  12
ENDBRANCH  10  11
ENDBRANCH   9  10
ENDBRANCH   1   9
TORSDOF 10
ENDMDL
MODEL 7
REMARK VINA RESULT:    -2.358     12.347     15.845
REMARK INTER + INTRA:          -4.168
REMARK INTER:                  -3.175
REMARK INTRA:                  -0.993
REMARK UNBOUND:                -0.431
REMARK SMILES CCCCCCCCCCCC(=O)[O-]
REMARK SMILES IDX 7 1 8 2 9 3 10 4 11 5 12 6 13 7 14 8 6 9 5 10 4 11 3 12 2 13
REMARK SMILES IDX 1 14
REMARK H PARENT
REMARK Flexibility Score: inf
ROOT
ATOM      1  C   UNL     1      10.243  22.917  15.690  1.00  0.00     0.000 C 
ENDROOT
BRANCH   1   2
ATOM      2  C   UNL     1       9.910  21.843  16.746  1.00  0.00     0.000 C 
BRANCH   2   3
ATOM      3  C   UNL     1       9.875  22.423  18.172  1.00  0.00     0.000 C 
BRANCH   3   4
ATOM      4  C   UNL     1      11.151  22.110  18.968  1.00  0.00     0.006 C 
BRANCH   4   5
ATOM      5  C   UNL     1      11.038  20.804  19.766  1.00  0.00     0.053 C 
BRANCH   5   6
ATOM      6  C   UNL     1      11.455  21.025  21.186  1.00  0.00     0.041 C 
ATOM      7  O   UNL     1      10.949  21.963  21.857  1.00  0.00    -0.550 OA
ATOM      8  O   UNL     1      12.438  20.224  21.755  1.00  0.00    -0.550 OA
ENDBRANCH   5   6
ENDBRANCH   4   5
ENDBRANCH   3   4
ENDBRANCH   2   3
ENDBRANCH   1   2
BRANCH   1   9
ATOM      9  C   UNL     1      11.538  22.635  14.909  1.00  0.00     0.000 C 
BRANCH   9  10
ATOM     10  C   UNL     1      12.119  21.241  15.200  1.00  0.00    -0.000 C 
BRANCH  10  11
ATOM     11  C   UNL     1      13.496  21.306  15.881  1.00  0.00    -0.000 C 
BRANCH  11  12
ATOM     12  C   UNL     1      13.667  20.242  16.975  1.00  0.00    -0.000 C 
BRANCH  12  13
ATOM     13  C   UNL     1      15.149  19.922  17.202  1.00  0.00    -0.003 C 
ATOM     14  C   UNL     1      16.048  20.932  16.496  1.00  0.00     0.004 C 
ENDBRANCH  12  13
ENDBRANCH  11  12
ENDBRANCH  10  11
ENDBRANCH   9  10
ENDBRANCH   1   9
TORSDOF 10
ENDMDL
MODEL 8
REMARK VINA RESULT:    -2.247      2.932      6.364
REMARK INTER + INTRA:          -3.992
REMARK INTER:                  -3.406
REMARK INTRA:                  -0.586
REMARK UNBOUND:                -0.431
REMARK SMILES CCCCCCCCCCCC(=O)[O-]
REMARK SMILES IDX 7 1 8 2 9 3 10 4 11 5 12 6 13 7 14 8 6 9 5 10 4 11 3 12 2 13
REMARK SMILES IDX 1 14
REMARK H PARENT
REMARK Flexibility Score: inf
ROOT
ATOM      1  C   UNL     1      27.532  21.176  13.745  1.00  0.00     0.000 C 
ENDROOT
BRANCH   1   2
ATOM      2  C   UNL     1      27.953  19.931  12.936  1.00  0.00     0.000 C 
BRANCH   2   3
ATOM      3  C   UNL     1      29.260  20.163  12.156  1.00  0.00     0.000 C 
BRANCH   3   4
ATOM      4  C   UNL     1      29.416  21.618  11.687  1.00  0.00     0.006 C 
BRANCH   4   5
ATOM      5  C   UNL     1      30.115  21.723  10.324  1.00  0.00     0.053 C 
BRANCH   5   6
ATOM      6  C   UNL     1      29.441  20.836   9.325  1.00  0.00     0.041 C 
ATOM      7  O   UNL     1      30.125  20.074   8.591  1.00  0.00    -0.550 OA
ATOM      8  O   UNL     1      28.062  20.886   9.169  1.00  0.00    -0.550 OA
ENDBRANCH   5   6
ENDBRANCH   4   5
ENDBRANCH   3   4
ENDBRANCH   2   3
ENDBRANCH   1   2
BRANCH   1   9
ATOM      9  C   UNL     1      28.122  21.219  15.165  1.00  0.00     0.000 C 
BRANCH   9  10
ATOM     10  C   UNL     1      27.054  21.440  16.249  1.00  0.00    -0.000 C 
BRANCH  10  11
ATOM     11  C   UNL     1      26.381  20.130  16.690  1.00  0.00    -0.000 C 
BRANCH  11  12
ATOM     12  C   UNL     1      24.865  20.130  16.444  1.00  0.00    -0.000 C 
BRANCH  12  13
ATOM     13  C   UNL     1      24.553  20.028  14.946  1.00  0.00    -0.003 C 
ATOM     14  C   UNL     1      23.050  20.099  14.689  1.00  0.00     0.004 C 
ENDBRANCH  12  13
ENDBRANCH  11  12
ENDBRANCH  10  11
ENDBRANCH   9  10
ENDBRANCH   1   9
TORSDOF 10
ENDMDL
MODEL 9
REMARK VINA RESULT:    -1.939     15.549     16.603
REMARK INTER + INTRA:          -3.503
REMARK INTER:                  -3.122
REMARK INTRA:                  -0.381
REMARK UNBOUND:                -0.431
REMARK SMILES CCCCCCCCCCCC(=O)[O-]
REMARK SMILES IDX 7 1 8 2 9 3 10 4 11 5 12 6 13 7 14 8 6 9 5 10 4 11 3 12 2 13
REMARK SMILES IDX 1 14
REMARK H PARENT
REMARK Flexibility Score: inf
ROOT
ATOM      1  C   UNL     1      13.054  19.905  20.770  1.00  0.00     0.000 C 
ENDROOT
BRANCH   1   2
ATOM      2  C   UNL     1      12.433  19.947  22.182  1.00  0.00     0.000 C 
BRANCH   2   3
ATOM      3  C   UNL     1      12.372  21.379  22.746  1.00  0.00     0.000 C 
BRANCH   3   4
ATOM      4  C   UNL     1      11.039  22.077  22.441  1.00  0.00     0.006 C 
BRANCH   4   5
ATOM      5  C   UNL     1      11.188  23.197  21.402  1.00  0.00     0.053 C 
BRANCH   5   6
ATOM      6  C   UNL     1      10.273  22.957  20.242  1.00  0.00     0.041 C 
ATOM      7  O   UNL     1       9.884  21.789  19.973  1.00  0.00    -0.550 OA
ATOM      8  O   UNL     1       9.889  24.015  19.429  1.00  0.00    -0.550 OA
ENDBRANCH   5   6
ENDBRANCH   4   5
ENDBRANCH   3   4
ENDBRANCH   2   3
ENDBRANCH   1   2
BRANCH   1   9
ATOM      9  C   UNL     1      12.012  19.882  19.638  1.00  0.00     0.000 C 
BRANCH   9  10
ATOM     10  C   UNL     1      12.650  19.922  18.240  1.00  0.00    -0.000 C 
BRANCH  10  11
ATOM     11  C   UNL     1      12.626  21.329  17.621  1.00  0.00    -0.000 C 
BRANCH  11  12
ATOM     12  C   UNL     1      11.303  21.640  16.904  1.00  0.00    -0.000 C 
BRANCH  12  13
ATOM     13  C   UNL     1      11.547  22.004  15.435  1.00  0.00    -0.003 C 
ATOM     14  C   UNL     1      10.232  22.149  14.676  1.00  0.00     0.004 C 
ENDBRANCH  12  13
ENDBRANCH  11  12
ENDBRANCH  10  11
ENDBRANCH   9  10
ENDBRANCH   1   9
TORSDOF 10
ENDMDL
