MODEL 1
REMARK VINA RESULT:    -3.860      0.000      0.000
REMARK INTER + INTRA:          -5.952
REMARK INTER:                  -5.215
REMARK INTRA:                  -0.738
REMARK UNBOUND:                -0.738
REMARK SMILES O=C[C@@H](O)[C@@H](O)[C@H](O)CO
REMARK SMILES IDX 7 1 9 2 10 3 5 5 3 6 2 7 1 8 4 9 6 11 8 13
REMARK H PARENT 10 4 4 10 6 12 8 14
REMARK Flexibility Score: inf
ROOT
ATOM      1  C   UNL     1      42.798  11.994  33.803  1.00  0.00     0.171 C 
ENDROOT
BRANCH   1   2
ATOM      2  C   UNL     1      43.576  13.247  34.252  1.00  0.00     0.190 C 
BRANCH   2   3
ATOM      3  O   UNL     1      44.928  13.157  33.888  1.00  0.00    -0.394 OA
ATOM      4  H   UNL     1      45.355  14.009  34.167  1.00  0.00     0.210 HD
ENDBRANCH   2   3
ENDBRANCH   1   2
BRANCH   1   5
ATOM      5  C   UNL     1      43.416  10.679  34.356  1.00  0.00     0.181 C 
BRANCH   5   6
ATOM      6  C   UNL     1      42.391   9.526  34.420  1.00  0.00     0.209 C 
BRANCH   6   7
ATOM      7  C   UNL     1      42.568   8.551  33.286  1.00  0.00     0.258 C 
ATOM      8  O   UNL     1      42.473   8.925  32.127  1.00  0.00    -0.300 OA
ENDBRANCH   6   7
BRANCH   6   9
ATOM      9  O   UNL     1      42.544   8.846  35.638  1.00  0.00    -0.383 OA
ATOM     10  H   UNL     1      42.914   9.499  36.288  1.00  0.00     0.211 HD
ENDBRANCH   6   9
ENDBRANCH   5   6
BRANCH   5  11
ATOM     11  O   UNL     1      44.530  10.286  33.592  1.00  0.00    -0.387 OA
ATOM     12  H   UNL     1      44.754   9.356  33.856  1.00  0.00     0.211 HD
ENDBRANCH   5  11
ENDBRANCH   1   5
BRANCH   1  13
ATOM     13  O   UNL     1      42.698  11.966  32.400  1.00  0.00    -0.388 OA
ATOM     14  H   UNL     1      42.433  12.874  32.096  1.00  0.00     0.211 HD
ENDBRANCH   1  13
TORSDOF 8
ENDMDL
MODEL 2
REMARK VINA RESULT:    -3.780      1.546      1.715
REMARK INTER + INTRA:          -5.843
REMARK INTER:                  -5.280
REMARK INTRA:                  -0.564
REMARK UNBOUND:                -0.738
REMARK SMILES O=C[C@@H](O)[C@@H](O)[C@H](O)CO
REMARK SMILES IDX 7 1 9 2 10 3 5 5 3 6 2 7 1 8 4 9 6 11 8 13
REMARK H PARENT 10 4 4 10 6 12 8 14
REMARK Flexibility Score: inf
ROOT
ATOM      1  C   UNL     1      43.309  11.429  33.715  1.00  0.00     0.171 C 
ENDROOT
BRANCH   1   2
ATOM      2  C   UNL     1      44.792  11.824  33.868  1.00  0.00     0.190 C 
BRANCH   2   3
ATOM      3  O   UNL     1      45.596  11.128  32.952  1.00  0.00    -0.394 OA
ATOM      4  H   UNL     1      46.208  11.796  32.546  1.00  0.00     0.210 HD
ENDBRANCH   2   3
ENDBRANCH   1   2
BRANCH   1   5
ATOM      5  C   UNL     1      43.125   9.912  33.423  1.00  0.00     0.181 C 
BRANCH   5   6
ATOM      6  C   UNL     1      41.673   9.440  33.653  1.00  0.00     0.209 C 
BRANCH   6   7
ATOM      7  C   UNL     1      41.616   8.043  34.214  1.00  0.00     0.258 C 
ATOM      8  O   UNL     1      42.029   7.097  33.560  1.00  0.00    -0.300 OA
ENDBRANCH   6   7
BRANCH   6   9
ATOM      9  O   UNL     1      41.044  10.319  34.548  1.00  0.00    -0.383 OA
ATOM     10  H   UNL     1      40.160  10.546  34.156  1.00  0.00     0.211 HD
ENDBRANCH   6   9
ENDBRANCH   5   6
BRANCH   5  11
ATOM     11  O   UNL     1      43.527   9.600  32.111  1.00  0.00    -0.387 OA
ATOM     12  H   UNL     1      42.703   9.473  31.573  1.00  0.00     0.211 HD
ENDBRANCH   5  11
ENDBRANCH   1   5
BRANCH   1  13
ATOM     13  O   UNL     1      42.698  12.222  32.727  1.00  0.00    -0.388 OA
ATOM     14  H   UNL     1      42.026  12.800  33.174  1.00  0.00     0.211 HD
ENDBRANCH   1  13
TORSDOF 8
ENDMDL
MODEL 3
REMARK VINA RESULT:    -3.721      1.593      4.236
REMARK INTER + INTRA:          -5.763
REMARK INTER:                  -5.343
REMARK INTRA:                  -0.421
REMARK UNBOUND:                -0.738
REMARK SMILES O=C[C@@H](O)[C@@H](O)[C@H](O)CO
REMARK SMILES IDX 7 1 9 2 10 3 5 5 3 6 2 7 1 8 4 9 6 11 8 13
REMARK H PARENT 10 4 4 10 6 12 8 14
REMARK Flexibility Score: inf
ROOT
ATOM      1  C   UNL     1      44.132  10.957  33.805  1.00  0.00     0.171 C 
ENDROOT
BRANCH   1   2
ATOM      2  C   UNL     1      43.370   9.705  33.325  1.00  0.00     0.190 C 
BRANCH   2   3
ATOM      3  O   UNL     1      43.533   9.516  31.944  1.00  0.00    -0.394 OA
ATOM      4  H   UNL     1      42.670   9.166  31.602  1.00  0.00     0.210 HD
ENDBRANCH   2   3
ENDBRANCH   1   2
BRANCH   1   5
ATOM      5  C   UNL     1      43.220  12.214  33.890  1.00  0.00     0.181 C 
BRANCH   5   6
ATOM      6  C   UNL     1      43.962  13.445  34.452  1.00  0.00     0.209 C 
BRANCH   6   7
ATOM      7  C   UNL     1      43.190  14.113  35.559  1.00  0.00     0.258 C 
ATOM      8  O   UNL     1      42.249  14.848  35.300  1.00  0.00    -0.300 OA
ENDBRANCH   6   7
BRANCH   6   9
ATOM      9  O   UNL     1      45.212  13.038  34.946  1.00  0.00    -0.383 OA
ATOM     10  H   UNL     1      45.387  13.574  35.764  1.00  0.00     0.211 HD
ENDBRANCH   6   9
ENDBRANCH   5   6
BRANCH   5  11
ATOM     11  O   UNL     1      42.669  12.521  32.632  1.00  0.00    -0.387 OA
ATOM     12  H   UNL     1      43.398  12.904  32.078  1.00  0.00     0.211 HD
ENDBRANCH   5  11
ENDBRANCH   1   5
BRANCH   1  13
ATOM     13  O   UNL     1      45.250  11.186  32.983  1.00  0.00    -0.388 OA
ATOM     14  H   UNL     1      45.978  11.551  33.553  1.00  0.00     0.211 HD
ENDBRANCH   1  13
TORSDOF 8
ENDMDL
MODEL 4
REMARK VINA RESULT:    -3.719      1.773      4.092
REMARK INTER + INTRA:          -5.761
REMARK INTER:                  -5.374
REMARK INTRA:                  -0.387
REMARK UNBOUND:                -0.738
REMARK SMILES O=C[C@@H](O)[C@@H](O)[C@H](O)CO
REMARK SMILES IDX 7 1 9 2 10 3 5 5 3 6 2 7 1 8 4 9 6 11 8 13
REMARK H PARENT 10 4 4 10 6 12 8 14
REMARK Flexibility Score: inf
ROOT
ATOM      1  C   UNL     1      44.725  11.258  33.679  1.00  0.00     0.171 C 
ENDROOT
BRANCH   1   2
ATOM      2  C   UNL     1      43.435  10.524  33.260  1.00  0.00     0.190 C 
BRANCH   2   3
ATOM      3  O   UNL     1      43.500   9.162  33.591  1.00  0.00    -0.394 OA
ATOM      4  H   UNL     1      42.607   8.777  33.389  1.00  0.00     0.210 HD
ENDBRANCH   2   3
ENDBRANCH   1   2
BRANCH   1   5
ATOM      5  C   UNL     1      44.504  12.784  33.875  1.00  0.00     0.181 C 
BRANCH   5   6
ATOM      6  C   UNL     1      43.009  13.156  33.975  1.00  0.00     0.209 C 
BRANCH   6   7
ATOM      7  C   UNL     1      42.612  13.525  35.380  1.00  0.00     0.258 C 
ATOM      8  O   UNL     1      42.486  12.662  36.235  1.00  0.00    -0.300 OA
ENDBRANCH   6   7
BRANCH   6   9
ATOM      9  O   UNL     1      42.751  14.242  33.125  1.00  0.00    -0.383 OA
ATOM     10  H   UNL     1      41.816  14.143  32.806  1.00  0.00     0.211 HD
ENDBRANCH   6   9
ENDBRANCH   5   6
BRANCH   5  11
ATOM     11  O   UNL     1      45.189  13.250  35.012  1.00  0.00    -0.387 OA
ATOM     12  H   UNL     1      45.760  12.506  35.337  1.00  0.00     0.211 HD
ENDBRANCH   5  11
ENDBRANCH   1   5
BRANCH   1  13
ATOM     13  O   UNL     1      45.749  11.000  32.750  1.00  0.00    -0.388 OA
ATOM     14  H   UNL     1      45.483  10.207  32.215  1.00  0.00     0.211 HD
ENDBRANCH   1  13
TORSDOF 8
ENDMDL
MODEL 5
REMARK VINA RESULT:    -3.707      0.918      1.770
REMARK INTER + INTRA:          -5.745
REMARK INTER:                  -5.278
REMARK INTRA:                  -0.467
REMARK UNBOUND:                -0.738
REMARK SMILES O=C[C@@H](O)[C@@H](O)[C@H](O)CO
REMARK SMILES IDX 7 1 9 2 10 3 5 5 3 6 2 7 1 8 4 9 6 11 8 13
REMARK H PARENT 10 4 4 10 6 12 8 14
REMARK Flexibility Score: inf
ROOT
ATOM      1  C   UNL     1      43.222  12.205  34.013  1.00  0.00     0.171 C 
ENDROOT
BRANCH   1   2
ATOM      2  C   UNL     1      44.029  13.278  34.772  1.00  0.00     0.190 C 
BRANCH   2   3
ATOM      3  O   UNL     1      45.389  12.939  34.828  1.00  0.00    -0.394 OA
ATOM      4  H   UNL     1      45.432  11.961  34.994  1.00  0.00     0.210 HD
ENDBRANCH   2   3
ENDBRANCH   1   2
BRANCH   1   5
ATOM      5  C   UNL     1      44.024  10.887  33.814  1.00  0.00     0.181 C 
BRANCH   5   6
ATOM      6  C   UNL     1      43.129   9.715  33.358  1.00  0.00     0.209 C 
BRANCH   6   7
ATOM      7  C   UNL     1      42.085   9.369  34.387  1.00  0.00     0.258 C 
ATOM      8  O   UNL     1      42.222   8.387  35.101  1.00  0.00    -0.300 OA
ENDBRANCH   6   7
BRANCH   6   9
ATOM      9  O   UNL     1      42.491  10.068  32.159  1.00  0.00    -0.383 OA
ATOM     10  H   UNL     1      42.966   9.592  31.428  1.00  0.00     0.211 HD
ENDBRANCH   6   9
ENDBRANCH   5   6
BRANCH   5  11
ATOM     11  O   UNL     1      45.075  11.072  32.896  1.00  0.00    -0.387 OA
ATOM     12  H   UNL     1      45.317  10.176  32.544  1.00  0.00     0.211 HD
ENDBRANCH   5  11
ENDBRANCH   1   5
BRANCH   1  13
ATOM     13  O   UNL     1      42.767  12.722  32.786  1.00  0.00    -0.388 OA
ATOM     14  H   UNL     1      43.260  13.566  32.611  1.00  0.00     0.211 HD
ENDBRANCH   1  13
TORSDOF 8
ENDMDL
MODEL 6
REMARK VINA RESULT:    -3.686      1.442      1.976
REMARK INTER + INTRA:          -5.716
REMARK INTER:                  -5.375
REMARK INTRA:                  -0.341
REMARK UNBOUND:                -0.738
REMARK SMILES O=C[C@@H](O)[C@@H](O)[C@H](O)CO
REMARK SMILES IDX 7 1 9 2 10 3 5 5 3 6 2 7 1 8 4 9 6 11 8 13
REMARK H PARENT 10 4 4 10 6 12 8 14
REMARK Flexibility Score: inf
ROOT
ATOM      1  C   UNL     1      44.378  12.737  34.257  1.00  0.00     0.171 C 
ENDROOT
BRANCH   1   2
ATOM      2  C   UNL     1      43.049  13.140  34.929  1.00  0.00     0.190 C 
BRANCH   2   3
ATOM      3  O   UNL     1      43.173  13.143  36.326  1.00  0.00    -0.394 OA
ATOM      4  H   UNL     1      43.878  12.481  36.550  1.00  0.00     0.210 HD
ENDBRANCH   2   3
ENDBRANCH   1   2
BRANCH   1   5
ATOM      5  C   UNL     1      44.465  11.210  33.980  1.00  0.00     0.181 C 
BRANCH   5   6
ATOM      6  C   UNL     1      43.073  10.547  33.886  1.00  0.00     0.209 C 
BRANCH   6   7
ATOM      7  C   UNL     1      42.706  10.204  32.466  1.00  0.00     0.258 C 
ATOM      8  O   UNL     1      42.884   9.073  32.038  1.00  0.00    -0.300 OA
ENDBRANCH   6   7
BRANCH   6   9
ATOM      9  O   UNL     1      43.074   9.374  34.656  1.00  0.00    -0.383 OA
ATOM     10  H   UNL     1      43.670   9.539  35.433  1.00  0.00     0.211 HD
ENDBRANCH   6   9
ENDBRANCH   5   6
BRANCH   5  11
ATOM     11  O   UNL     1      45.197  10.952  32.806  1.00  0.00    -0.387 OA
ATOM     12  H   UNL     1      44.553  10.627  32.124  1.00  0.00     0.211 HD
ENDBRANCH   5  11
ENDBRANCH   1   5
BRANCH   1  13
ATOM     13  O   UNL     1      45.464  13.184  35.031  1.00  0.00    -0.388 OA
ATOM     14  H   UNL     1      46.112  12.435  35.106  1.00  0.00     0.211 HD
ENDBRANCH   1  13
TORSDOF 8
ENDMDL
MODEL 7
REMARK VINA RESULT:    -3.648      1.643      2.617
REMARK INTER + INTRA:          -5.665
REMARK INTER:                  -5.158
REMARK INTRA:                  -0.507
REMARK UNBOUND:                -0.738
REMARK SMILES O=C[C@@H](O)[C@@H](O)[C@H](O)CO
REMARK SMILES IDX 7 1 9 2 10 3 5 5 3 6 2 7 1 8 4 9 6 11 8 13
REMARK H PARENT 10 4 4 10 6 12 8 14
REMARK Flexibility Score: inf
ROOT
ATOM      1  C   UNL     1      43.064  10.494  32.746  1.00  0.00     0.171 C 
ENDROOT
BRANCH   1   2
ATOM      2  C   UNL     1      44.098  11.248  33.607  1.00  0.00     0.190 C 
BRANCH   2   3
ATOM      3  O   UNL     1      45.379  11.169  33.040  1.00  0.00    -0.394 OA
ATOM      4  H   UNL     1      45.607  12.083  32.725  1.00  0.00     0.210 HD
ENDBRANCH   2   3
ENDBRANCH   1   2
BRANCH   1   5
ATOM      5  C   UNL     1      41.955   9.821  33.602  1.00  0.00     0.181 C 
BRANCH   5   6
ATOM      6  C   UNL     1      42.430   8.504  34.254  1.00  0.00     0.209 C 
BRANCH   6   7
ATOM      7  C   UNL     1      41.762   8.258  35.581  1.00  0.00     0.258 C 
ATOM      8  O   UNL     1      42.260   8.684  36.612  1.00  0.00    -0.300 OA
ENDBRANCH   6   7
BRANCH   6   9
ATOM      9  O   UNL     1      42.140   7.437  33.390  1.00  0.00    -0.383 OA
ATOM     10  H   UNL     1      42.064   6.622  33.953  1.00  0.00     0.211 HD
ENDBRANCH   6   9
ENDBRANCH   5   6
BRANCH   5  11
ATOM     11  O   UNL     1      41.481  10.700  34.593  1.00  0.00    -0.387 OA
ATOM     12  H   UNL     1      40.533  10.900  34.379  1.00  0.00     0.211 HD
ENDBRANCH   5  11
ENDBRANCH   1   5
BRANCH   1  13
ATOM     13  O   UNL     1      43.715   9.560  31.919  1.00  0.00    -0.388 OA
ATOM     14  H   UNL     1      43.810   9.967  31.018  1.00  0.00     0.211 HD
ENDBRANCH   1  13
TORSDOF 8
ENDMDL
MODEL 8
REMARK VINA RESULT:    -3.606      1.414      3.724
REMARK INTER + INTRA:          -5.608
REMARK INTER:                  -4.640
REMARK INTRA:                  -0.968
REMARK UNBOUND:                -0.738
REMARK SMILES O=C[C@@H](O)[C@@H](O)[C@H](O)CO
REMARK SMILES IDX 7 1 9 2 10 3 5 5 3 6 2 7 1 8 4 9 6 11 8 13
REMARK H PARENT 10 4 4 10 6 12 8 14
REMARK Flexibility Score: inf
ROOT
ATOM      1  C   UNL     1      42.149   9.587  32.759  1.00  0.00     0.171 C 
ENDROOT
BRANCH   1   2
ATOM      2  C   UNL     1      42.649   8.249  33.340  1.00  0.00     0.190 C 
BRANCH   2   3
ATOM      3  O   UNL     1      42.594   8.258  34.742  1.00  0.00    -0.394 OA
ATOM      4  H   UNL     1      42.348   7.338  35.023  1.00  0.00     0.210 HD
ENDBRANCH   2   3
ENDBRANCH   1   2
BRANCH   1   5
ATOM      5  C   UNL     1      43.178  10.738  32.942  1.00  0.00     0.181 C 
BRANCH   5   6
ATOM      6  C   UNL     1      42.579  11.952  33.686  1.00  0.00     0.209 C 
BRANCH   6   7
ATOM      7  C   UNL     1      42.858  11.901  35.165  1.00  0.00     0.258 C 
ATOM      8  O   UNL     1      42.431  10.979  35.843  1.00  0.00    -0.300 OA
ENDBRANCH   6   7
BRANCH   6   9
ATOM      9  O   UNL     1      43.130  13.129  33.155  1.00  0.00    -0.383 OA
ATOM     10  H   UNL     1      43.774  12.853  32.451  1.00  0.00     0.211 HD
ENDBRANCH   6   9
ENDBRANCH   5   6
BRANCH   5  11
ATOM     11  O   UNL     1      44.326  10.284  33.617  1.00  0.00    -0.387 OA
ATOM     12  H   UNL     1      44.258   9.296  33.681  1.00  0.00     0.211 HD
ENDBRANCH   5  11
ENDBRANCH   1   5
BRANCH   1  13
ATOM     13  O   UNL     1      40.900   9.918  33.316  1.00  0.00    -0.388 OA
ATOM     14  H   UNL     1      41.064  10.346  34.197  1.00  0.00     0.211 HD
ENDBRANCH   1  13
TORSDOF 8
ENDMDL
MODEL 9
REMARK VINA RESULT:    -3.552      1.356      3.550
REMARK INTER + INTRA:          -5.536
REMARK INTER:                  -4.617
REMARK INTRA:                  -0.919
REMARK UNBOUND:                -0.738
REMARK SMILES O=C[C@@H](O)[C@@H](O)[C@H](O)CO
REMARK SMILES IDX 7 1 9 2 10 3 5 5 3 6 2 7 1 8 4 9 6 11 8 13
REMARK H PARENT 10 4 4 10 6 12 8 14
REMARK Flexibility Score: inf
ROOT
ATOM      1  C   UNL     1      42.168   9.884  33.697  1.00  0.00     0.171 C 
ENDROOT
BRANCH   1   2
ATOM      2  C   UNL     1      42.510   9.269  32.325  1.00  0.00     0.190 C 
BRANCH   2   3
ATOM      3  O   UNL     1      43.848   9.512  31.983  1.00  0.00    -0.394 OA
ATOM      4  H   UNL     1      44.325   8.645  32.065  1.00  0.00     0.210 HD
ENDBRANCH   2   3
ENDBRANCH   1   2
BRANCH   1   5
ATOM      5  C   UNL     1      42.261  11.437  33.692  1.00  0.00     0.181 C 
BRANCH   5   6
ATOM      6  C   UNL     1      43.197  11.975  34.797  1.00  0.00     0.209 C 
BRANCH   6   7
ATOM      7  C   UNL     1      44.581  12.260  34.275  1.00  0.00     0.258 C 
ATOM      8  O   UNL     1      45.214  11.391  33.695  1.00  0.00    -0.300 OA
ENDBRANCH   6   7
BRANCH   6   9
ATOM      9  O   UNL     1      42.651  13.158  35.320  1.00  0.00    -0.383 OA
ATOM     10  H   UNL     1      43.407  13.786  35.461  1.00  0.00     0.211 HD
ENDBRANCH   6   9
ENDBRANCH   5   6
BRANCH   5  11
ATOM     11  O   UNL     1      42.683  11.912  32.437  1.00  0.00    -0.387 OA
ATOM     12  H   UNL     1      42.135  12.712  32.226  1.00  0.00     0.211 HD
ENDBRANCH   5  11
ENDBRANCH   1   5
BRANCH   1  13
ATOM     13  O   UNL     1      42.985   9.322  34.694  1.00  0.00    -0.388 OA
ATOM     14  H   UNL     1      42.424   9.174  35.500  1.00  0.00     0.211 HD
ENDBRANCH   1  13
TORSDOF 8
ENDMDL
