MODEL 1
REMARK VINA RESULT:    -7.836      0.000      0.000
REMARK INTER + INTRA:          -9.276
REMARK INTER:                  -9.439
REMARK INTRA:                   0.163
REMARK UNBOUND:                 0.163
REMARK SMILES O=c1c(O)c(-c2ccc(O)c(O)c2)oc2cc(O)cc(O)c12
REMARK SMILES IDX 5 1 3 2 2 3 1 4 22 5 20 6 19 7 17 8 16 9 15 10 14 11 6 12
REMARK SMILES IDX 7 13 8 14 9 15 13 16 11 17 10 18 12 20 4 22 21 24 18 26
REMARK H PARENT 10 19 12 21 4 23 21 25 18 27
REMARK Flexibility Score: inf
ROOT
ATOM      1  C   UNL     1      33.841  27.910  20.301  1.00  0.00     0.180 A 
ATOM      2  C   UNL     1      33.265  28.765  19.347  1.00  0.00     0.208 A 
ATOM      3  C   UNL     1      32.972  28.262  18.069  1.00  0.00     0.238 A 
ATOM      4  O   UNL     1      32.407  29.017  17.236  1.00  0.00    -0.285 OA
ATOM      5  C   UNL     1      33.273  26.914  17.757  1.00  0.00     0.111 A 
ATOM      6  C   UNL     1      33.057  26.308  16.483  1.00  0.00     0.134 A 
ATOM      7  C   UNL     1      33.270  24.934  16.326  1.00  0.00     0.093 A 
ATOM      8  C   UNL     1      33.756  24.155  17.380  1.00  0.00     0.123 A 
ATOM      9  C   UNL     1      34.026  24.749  18.611  1.00  0.00     0.094 A 
ATOM     10  C   UNL     1      33.788  26.111  18.808  1.00  0.00     0.146 A 
ATOM     11  O   UNL     1      34.051  26.633  20.000  1.00  0.00    -0.452 OA
ENDROOT
BRANCH   1  12
ATOM     12  C   UNL     1      34.201  28.375  21.660  1.00  0.00     0.025 A 
ATOM     13  C   UNL     1      34.768  29.648  21.828  1.00  0.00     0.016 A 
ATOM     14  C   UNL     1      35.097  30.114  23.103  1.00  0.00     0.051 A 
ATOM     15  C   UNL     1      34.849  29.325  24.230  1.00  0.00     0.157 A 
ATOM     16  C   UNL     1      33.934  27.590  22.797  1.00  0.00     0.062 A 
ATOM     17  C   UNL     1      34.261  28.058  24.079  1.00  0.00     0.158 A 
BRANCH  15  18
ATOM     18  O   UNL     1      35.190  29.816  25.490  1.00  0.00    -0.504 OA
ATOM     19  H   UNL     1      35.982  30.434  25.631  1.00  0.00     0.293 HD
ENDBRANCH  15  18
BRANCH  17  20
ATOM     20  O   UNL     1      33.998  27.272  25.200  1.00  0.00    -0.504 OA
ATOM     21  H   UNL     1      33.181  27.428  25.778  1.00  0.00     0.293 HD
ENDBRANCH  17  20
ENDBRANCH   1  12
BRANCH   2  22
ATOM     22  O   UNL     1      32.955  30.087  19.682  1.00  0.00    -0.502 OA
ATOM     23  H   UNL     1      32.931  30.831  18.995  1.00  0.00     0.293 HD
ENDBRANCH   2  22
BRANCH   6  24
ATOM     24  O   UNL     1      32.662  27.013  15.342  1.00  0.00    -0.507 OA
ATOM     25  H   UNL     1      32.822  26.708  14.393  1.00  0.00     0.293 HD
ENDBRANCH   6  24
BRANCH   8  26
ATOM     26  O   UNL     1      33.980  22.791  17.211  1.00  0.00    -0.508 OA
ATOM     27  H   UNL     1      34.395  22.227  17.944  1.00  0.00     0.293 HD
ENDBRANCH   8  26
TORSDOF 6
ENDMDL
MODEL 2
REMARK VINA RESULT:    -7.692      1.164      2.916
REMARK INTER + INTRA:          -9.102
REMARK INTER:                  -9.240
REMARK INTRA:                   0.138
REMARK UNBOUND:                 0.163
REMARK SMILES O=c1c(O)c(-c2ccc(O)c(O)c2)oc2cc(O)cc(O)c12
REMARK SMILES IDX 5 1 3 2 2 3 1 4 22 5 20 6 19 7 17 8 16 9 15 10 14 11 6 12
REMARK SMILES IDX 7 13 8 14 9 15 13 16 11 17 10 18 12 20 4 22 21 24 18 26
REMARK H PARENT 10 19 12 21 4 23 21 25 18 27
REMARK Flexibility Score: inf
ROOT
ATOM      1  C   UNL     1      34.300  26.814  20.681  1.00  0.00     0.180 A 
ATOM      2  C   UNL     1      34.601  25.441  20.674  1.00  0.00     0.208 A 
ATOM      3  C   UNL     1      34.401  24.707  19.493  1.00  0.00     0.238 A 
ATOM      4  O   UNL     1      34.723  23.491  19.477  1.00  0.00    -0.285 OA
ATOM      5  C   UNL     1      33.889  25.351  18.341  1.00  0.00     0.111 A 
ATOM      6  C   UNL     1      33.610  24.697  17.104  1.00  0.00     0.134 A 
ATOM      7  C   UNL     1      33.230  25.457  15.991  1.00  0.00     0.093 A 
ATOM      8  C   UNL     1      33.055  26.840  16.089  1.00  0.00     0.123 A 
ATOM      9  C   UNL     1      33.268  27.479  17.308  1.00  0.00     0.094 A 
ATOM     10  C   UNL     1      33.684  26.752  18.426  1.00  0.00     0.146 A 
ATOM     11  O   UNL     1      33.884  27.403  19.566  1.00  0.00    -0.452 OA
ENDROOT
BRANCH   1  12
ATOM     12  C   UNL     1      34.460  27.649  21.894  1.00  0.00     0.025 A 
ATOM     13  C   UNL     1      34.885  28.981  21.765  1.00  0.00     0.016 A 
ATOM     14  C   UNL     1      35.023  29.792  22.894  1.00  0.00     0.051 A 
ATOM     15  C   UNL     1      34.725  29.292  24.165  1.00  0.00     0.157 A 
ATOM     16  C   UNL     1      34.141  27.153  23.171  1.00  0.00     0.062 A 
ATOM     17  C   UNL     1      34.277  27.967  24.306  1.00  0.00     0.158 A 
BRANCH  15  18
ATOM     18  O   UNL     1      34.875  30.125  25.273  1.00  0.00    -0.504 OA
ATOM     19  H   UNL     1      35.075  31.114  25.181  1.00  0.00     0.293 HD
ENDBRANCH  15  18
BRANCH  17  20
ATOM     20  O   UNL     1      33.964  27.467  25.569  1.00  0.00    -0.504 OA
ATOM     21  H   UNL     1      34.229  27.958  26.415  1.00  0.00     0.293 HD
ENDBRANCH  17  20
ENDBRANCH   1  12
BRANCH   2  22
ATOM     22  O   UNL     1      35.126  24.830  21.816  1.00  0.00    -0.502 OA
ATOM     23  H   UNL     1      34.743  23.974  22.199  1.00  0.00     0.293 HD
ENDBRANCH   2  22
BRANCH   6  24
ATOM     24  O   UNL     1      33.665  23.312  16.924  1.00  0.00    -0.507 OA
ATOM     25  H   UNL     1      34.064  22.851  16.119  1.00  0.00     0.293 HD
ENDBRANCH   6  24
BRANCH   8  26
ATOM     26  O   UNL     1      32.661  27.586  14.981  1.00  0.00    -0.508 OA
ATOM     27  H   UNL     1      31.683  27.749  14.772  1.00  0.00     0.293 HD
ENDBRANCH   8  26
TORSDOF 6
ENDMDL
MODEL 3
REMARK VINA RESULT:    -7.052      1.159      1.675
REMARK INTER + INTRA:          -8.331
REMARK INTER:                  -7.999
REMARK INTRA:                  -0.333
REMARK UNBOUND:                 0.163
REMARK SMILES O=c1c(O)c(-c2ccc(O)c(O)c2)oc2cc(O)cc(O)c12
REMARK SMILES IDX 5 1 3 2 2 3 1 4 22 5 20 6 19 7 17 8 16 9 15 10 14 11 6 12
REMARK SMILES IDX 7 13 8 14 9 15 13 16 11 17 10 18 12 20 4 22 21 24 18 26
REMARK H PARENT 10 19 12 21 4 23 21 25 18 27
REMARK Flexibility Score: inf
ROOT
ATOM      1  C   UNL     1      34.255  27.640  20.511  1.00  0.00     0.180 A 
ATOM      2  C   UNL     1      33.603  28.343  19.483  1.00  0.00     0.208 A 
ATOM      3  C   UNL     1      33.192  27.645  18.335  1.00  0.00     0.238 A 
ATOM      4  O   UNL     1      32.561  28.268  17.443  1.00  0.00    -0.285 OA
ATOM      5  C   UNL     1      33.452  26.258  18.224  1.00  0.00     0.111 A 
ATOM      6  C   UNL     1      33.116  25.459  17.090  1.00  0.00     0.134 A 
ATOM      7  C   UNL     1      33.302  24.073  17.141  1.00  0.00     0.093 A 
ATOM      8  C   UNL     1      33.873  23.464  18.262  1.00  0.00     0.123 A 
ATOM      9  C   UNL     1      34.259  24.243  19.351  1.00  0.00     0.094 A 
ATOM     10  C   UNL     1      34.052  25.624  19.343  1.00  0.00     0.146 A 
ATOM     11  O   UNL     1      34.425  26.327  20.405  1.00  0.00    -0.452 OA
ENDROOT
BRANCH   1  12
ATOM     12  C   UNL     1      34.740  28.311  21.739  1.00  0.00     0.025 A 
ATOM     13  C   UNL     1      33.940  28.302  22.892  1.00  0.00     0.016 A 
ATOM     14  C   UNL     1      34.386  28.912  24.067  1.00  0.00     0.051 A 
ATOM     15  C   UNL     1      35.643  29.523  24.114  1.00  0.00     0.157 A 
ATOM     16  C   UNL     1      36.011  28.909  21.792  1.00  0.00     0.062 A 
ATOM     17  C   UNL     1      36.463  29.519  22.973  1.00  0.00     0.158 A 
BRANCH  15  18
ATOM     18  O   UNL     1      36.060  30.125  25.301  1.00  0.00    -0.504 OA
ATOM     19  H   UNL     1      36.586  29.620  26.005  1.00  0.00     0.293 HD
ENDBRANCH  15  18
BRANCH  17  20
ATOM     20  O   UNL     1      37.723  30.114  23.016  1.00  0.00    -0.504 OA
ATOM     21  H   UNL     1      38.259  30.161  23.875  1.00  0.00     0.293 HD
ENDBRANCH  17  20
ENDBRANCH   1  12
BRANCH   2  22
ATOM     22  O   UNL     1      33.337  29.708  19.623  1.00  0.00    -0.502 OA
ATOM     23  H   UNL     1      34.063  30.387  19.817  1.00  0.00     0.293 HD
ENDBRANCH   2  22
BRANCH   6  24
ATOM     24  O   UNL     1      32.626  25.978  15.887  1.00  0.00    -0.507 OA
ATOM     25  H   UNL     1      33.039  26.749  15.383  1.00  0.00     0.293 HD
ENDBRANCH   6  24
BRANCH   8  26
ATOM     26  O   UNL     1      34.070  22.086  18.300  1.00  0.00    -0.508 OA
ATOM     27  H   UNL     1      34.359  21.615  19.149  1.00  0.00     0.293 HD
ENDBRANCH   8  26
TORSDOF 6
ENDMDL
MODEL 4
REMARK VINA RESULT:    -6.999      1.360      3.428
REMARK INTER + INTRA:          -8.268
REMARK INTER:                  -8.643
REMARK INTRA:                   0.375
REMARK UNBOUND:                 0.163
REMARK SMILES O=c1c(O)c(-c2ccc(O)c(O)c2)oc2cc(O)cc(O)c12
REMARK SMILES IDX 5 1 3 2 2 3 1 4 22 5 20 6 19 7 17 8 16 9 15 10 14 11 6 12
REMARK SMILES IDX 7 13 8 14 9 15 13 16 11 17 10 18 12 20 4 22 21 24 18 26
REMARK H PARENT 10 19 12 21 4 23 21 25 18 27
REMARK Flexibility Score: inf
ROOT
ATOM      1  C   UNL     1      33.888  26.824  20.464  1.00  0.00     0.180 A 
ATOM      2  C   UNL     1      34.290  25.659  19.789  1.00  0.00     0.208 A 
ATOM      3  C   UNL     1      34.098  25.575  18.400  1.00  0.00     0.238 A 
ATOM      4  O   UNL     1      34.509  24.552  17.794  1.00  0.00    -0.285 OA
ATOM      5  C   UNL     1      33.493  26.651  17.707  1.00  0.00     0.111 A 
ATOM      6  C   UNL     1      33.214  26.659  16.307  1.00  0.00     0.134 A 
ATOM      7  C   UNL     1      32.733  27.827  15.705  1.00  0.00     0.093 A 
ATOM      8  C   UNL     1      32.459  28.969  16.464  1.00  0.00     0.123 A 
ATOM      9  C   UNL     1      32.672  28.952  17.840  1.00  0.00     0.094 A 
ATOM     10  C   UNL     1      33.187  27.812  18.463  1.00  0.00     0.146 A 
ATOM     11  O   UNL     1      33.384  27.842  19.776  1.00  0.00    -0.452 OA
ENDROOT
BRANCH   1  12
ATOM     12  C   UNL     1      34.034  26.976  21.929  1.00  0.00     0.025 A 
ATOM     13  C   UNL     1      34.095  25.831  22.740  1.00  0.00     0.016 A 
ATOM     14  C   UNL     1      34.252  25.951  24.123  1.00  0.00     0.051 A 
ATOM     15  C   UNL     1      34.369  27.212  24.715  1.00  0.00     0.157 A 
ATOM     16  C   UNL     1      34.172  28.243  22.524  1.00  0.00     0.062 A 
ATOM     17  C   UNL     1      34.333  28.365  23.912  1.00  0.00     0.158 A 
BRANCH  15  18
ATOM     18  O   UNL     1      34.523  27.300  26.098  1.00  0.00    -0.504 OA
ATOM     19  H   UNL     1      34.017  27.980  26.654  1.00  0.00     0.293 HD
ENDBRANCH  15  18
BRANCH  17  20
ATOM     20  O   UNL     1      34.463  29.625  24.495  1.00  0.00    -0.504 OA
ATOM     21  H   UNL     1      34.080  29.829  25.411  1.00  0.00     0.293 HD
ENDBRANCH  17  20
ENDBRANCH   1  12
BRANCH   2  22
ATOM     22  O   UNL     1      34.905  24.617  20.489  1.00  0.00    -0.502 OA
ATOM     23  H   UNL     1      35.191  23.755  20.041  1.00  0.00     0.293 HD
ENDBRANCH   2  22
BRANCH   6  24
ATOM     24  O   UNL     1      33.364  25.545  15.476  1.00  0.00    -0.507 OA
ATOM     25  H   UNL     1      32.994  25.472  14.539  1.00  0.00     0.293 HD
ENDBRANCH   6  24
BRANCH   8  26
ATOM     26  O   UNL     1      31.965  30.122  15.860  1.00  0.00    -0.508 OA
ATOM     27  H   UNL     1      32.438  30.552  15.073  1.00  0.00     0.293 HD
ENDBRANCH   8  26
TORSDOF 6
ENDMDL
MODEL 5
REMARK VINA RESULT:    -6.696      1.643      7.167
REMARK INTER + INTRA:          -7.903
REMARK INTER:                  -8.404
REMARK INTRA:                   0.501
REMARK UNBOUND:                 0.163
REMARK SMILES O=c1c(O)c(-c2ccc(O)c(O)c2)oc2cc(O)cc(O)c12
REMARK SMILES IDX 5 1 3 2 2 3 1 4 22 5 20 6 19 7 17 8 16 9 15 10 14 11 6 12
REMARK SMILES IDX 7 13 8 14 9 15 13 16 11 17 10 18 12 20 4 22 21 24 18 26
REMARK H PARENT 10 19 12 21 4 23 21 25 18 27
REMARK Flexibility Score: inf
ROOT
ATOM      1  C   UNL     1      33.990  26.431  19.535  1.00  0.00     0.180 A 
ATOM      2  C   UNL     1      34.328  25.183  20.085  1.00  0.00     0.208 A 
ATOM      3  C   UNL     1      34.672  25.108  21.445  1.00  0.00     0.238 A 
ATOM      4  O   UNL     1      34.922  23.981  21.944  1.00  0.00    -0.285 OA
ATOM      5  C   UNL     1      34.688  26.284  22.233  1.00  0.00     0.111 A 
ATOM      6  C   UNL     1      35.060  26.332  23.610  1.00  0.00     0.134 A 
ATOM      7  C   UNL     1      34.914  27.527  24.324  1.00  0.00     0.093 A 
ATOM      8  C   UNL     1      34.471  28.694  23.693  1.00  0.00     0.123 A 
ATOM      9  C   UNL     1      34.163  28.671  22.335  1.00  0.00     0.094 A 
ATOM     10  C   UNL     1      34.263  27.484  21.605  1.00  0.00     0.146 A 
ATOM     11  O   UNL     1      33.950  27.505  20.316  1.00  0.00    -0.452 OA
ENDROOT
BRANCH   1  12
ATOM     12  C   UNL     1      33.641  26.593  18.106  1.00  0.00     0.025 A 
ATOM     13  C   UNL     1      33.860  25.530  17.216  1.00  0.00     0.016 A 
ATOM     14  C   UNL     1      33.520  25.655  15.867  1.00  0.00     0.051 A 
ATOM     15  C   UNL     1      32.941  26.834  15.389  1.00  0.00     0.157 A 
ATOM     16  C   UNL     1      33.040  27.772  17.628  1.00  0.00     0.062 A 
ATOM     17  C   UNL     1      32.695  27.898  16.274  1.00  0.00     0.158 A 
BRANCH  15  18
ATOM     18  O   UNL     1      32.614  26.930  14.037  1.00  0.00    -0.504 OA
ATOM     19  H   UNL     1      33.212  27.406  13.371  1.00  0.00     0.293 HD
ENDBRANCH  15  18
BRANCH  17  20
ATOM     20  O   UNL     1      32.105  29.072  15.807  1.00  0.00    -0.504 OA
ATOM     21  H   UNL     1      32.192  29.946  16.311  1.00  0.00     0.293 HD
ENDBRANCH  17  20
ENDBRANCH   1  12
BRANCH   2  22
ATOM     22  O   UNL     1      34.285  24.030  19.295  1.00  0.00    -0.502 OA
ATOM     23  H   UNL     1      34.192  24.065  18.287  1.00  0.00     0.293 HD
ENDBRANCH   2  22
BRANCH   6  24
ATOM     24  O   UNL     1      35.599  25.249  24.311  1.00  0.00    -0.507 OA
ATOM     25  H   UNL     1      35.516  24.283  24.029  1.00  0.00     0.293 HD
ENDBRANCH   6  24
BRANCH   8  26
ATOM     26  O   UNL     1      34.343  29.883  24.407  1.00  0.00    -0.508 OA
ATOM     27  H   UNL     1      33.479  30.411  24.406  1.00  0.00     0.293 HD
ENDBRANCH   8  26
TORSDOF 6
ENDMDL
MODEL 6
REMARK VINA RESULT:    -6.517      2.122      6.210
REMARK INTER + INTRA:          -7.687
REMARK INTER:                  -8.218
REMARK INTRA:                   0.530
REMARK UNBOUND:                 0.163
REMARK SMILES O=c1c(O)c(-c2ccc(O)c(O)c2)oc2cc(O)cc(O)c12
REMARK SMILES IDX 5 1 3 2 2 3 1 4 22 5 20 6 19 7 17 8 16 9 15 10 14 11 6 12
REMARK SMILES IDX 7 13 8 14 9 15 13 16 11 17 10 18 12 20 4 22 21 24 18 26
REMARK H PARENT 10 19 12 21 4 23 21 25 18 27
REMARK Flexibility Score: inf
ROOT
ATOM      1  C   UNL     1      33.678  25.166  18.680  1.00  0.00     0.180 A 
ATOM      2  C   UNL     1      33.305  25.759  17.462  1.00  0.00     0.208 A 
ATOM      3  C   UNL     1      33.158  27.154  17.400  1.00  0.00     0.238 A 
ATOM      4  O   UNL     1      32.876  27.684  16.294  1.00  0.00    -0.285 OA
ATOM      5  C   UNL     1      33.371  27.936  18.561  1.00  0.00     0.111 A 
ATOM      6  C   UNL     1      33.211  29.353  18.624  1.00  0.00     0.134 A 
ATOM      7  C   UNL     1      33.575  30.039  19.789  1.00  0.00     0.093 A 
ATOM      8  C   UNL     1      34.031  29.350  20.917  1.00  0.00     0.123 A 
ATOM      9  C   UNL     1      34.134  27.962  20.885  1.00  0.00     0.094 A 
ATOM     10  C   UNL     1      33.813  27.254  19.724  1.00  0.00     0.146 A 
ATOM     11  O   UNL     1      33.935  25.932  19.734  1.00  0.00    -0.452 OA
ENDROOT
BRANCH   1  12
ATOM     12  C   UNL     1      33.828  23.700  18.829  1.00  0.00     0.025 A 
ATOM     13  C   UNL     1      33.472  22.857  17.764  1.00  0.00     0.016 A 
ATOM     14  C   UNL     1      33.624  21.473  17.877  1.00  0.00     0.051 A 
ATOM     15  C   UNL     1      34.148  20.911  19.044  1.00  0.00     0.157 A 
ATOM     16  C   UNL     1      34.374  23.135  19.995  1.00  0.00     0.062 A 
ATOM     17  C   UNL     1      34.530  21.745  20.109  1.00  0.00     0.158 A 
BRANCH  15  18
ATOM     18  O   UNL     1      34.286  19.526  19.128  1.00  0.00    -0.504 OA
ATOM     19  H   UNL     1      35.089  19.090  19.567  1.00  0.00     0.293 HD
ENDBRANCH  15  18
BRANCH  17  20
ATOM     20  O   UNL     1      35.067  21.193  21.270  1.00  0.00    -0.504 OA
ATOM     21  H   UNL     1      34.896  20.228  21.528  1.00  0.00     0.293 HD
ENDBRANCH  17  20
ENDBRANCH   1  12
BRANCH   2  22
ATOM     22  O   UNL     1      33.120  24.970  16.322  1.00  0.00    -0.502 OA
ATOM     23  H   UNL     1      33.347  23.983  16.301  1.00  0.00     0.293 HD
ENDBRANCH   2  22
BRANCH   6  24
ATOM     24  O   UNL     1      32.678  30.125  17.587  1.00  0.00    -0.507 OA
ATOM     25  H   UNL     1      33.157  30.341  16.725  1.00  0.00     0.293 HD
ENDBRANCH   6  24
BRANCH   8  26
ATOM     26  O   UNL     1      34.376  30.038  22.078  1.00  0.00    -0.508 OA
ATOM     27  H   UNL     1      33.793  30.779  22.448  1.00  0.00     0.293 HD
ENDBRANCH   8  26
TORSDOF 6
ENDMDL
MODEL 7
REMARK VINA RESULT:    -6.436      3.036      4.259
REMARK INTER + INTRA:          -7.589
REMARK INTER:                  -7.453
REMARK INTRA:                  -0.137
REMARK UNBOUND:                 0.163
REMARK SMILES O=c1c(O)c(-c2ccc(O)c(O)c2)oc2cc(O)cc(O)c12
REMARK SMILES IDX 5 1 3 2 2 3 1 4 22 5 20 6 19 7 17 8 16 9 15 10 14 11 6 12
REMARK SMILES IDX 7 13 8 14 9 15 13 16 11 17 10 18 12 20 4 22 21 24 18 26
REMARK H PARENT 10 19 12 21 4 23 21 25 18 27
REMARK Flexibility Score: inf
ROOT
ATOM      1  C   UNL     1      34.837  25.051  20.588  1.00  0.00     0.180 A 
ATOM      2  C   UNL     1      34.413  25.033  19.248  1.00  0.00     0.208 A 
ATOM      3  C   UNL     1      34.059  23.807  18.662  1.00  0.00     0.238 A 
ATOM      4  O   UNL     1      33.629  23.804  17.479  1.00  0.00    -0.285 OA
ATOM      5  C   UNL     1      34.147  22.613  19.418  1.00  0.00     0.111 A 
ATOM      6  C   UNL     1      33.852  21.311  18.914  1.00  0.00     0.134 A 
ATOM      7  C   UNL     1      33.849  20.216  19.787  1.00  0.00     0.093 A 
ATOM      8  C   UNL     1      34.194  20.368  21.133  1.00  0.00     0.123 A 
ATOM      9  C   UNL     1      34.541  21.625  21.621  1.00  0.00     0.094 A 
ATOM     10  C   UNL     1      34.518  22.742  20.782  1.00  0.00     0.146 A 
ATOM     11  O   UNL     1      34.846  23.923  21.290  1.00  0.00    -0.452 OA
ENDROOT
BRANCH   1  12
ATOM     12  C   UNL     1      35.250  26.300  21.266  1.00  0.00     0.025 A 
ATOM     13  C   UNL     1      34.307  27.318  21.474  1.00  0.00     0.016 A 
ATOM     14  C   UNL     1      34.671  28.497  22.130  1.00  0.00     0.051 A 
ATOM     15  C   UNL     1      35.974  28.670  22.603  1.00  0.00     0.157 A 
ATOM     16  C   UNL     1      36.557  26.467  21.760  1.00  0.00     0.062 A 
ATOM     17  C   UNL     1      36.923  27.649  22.421  1.00  0.00     0.158 A 
BRANCH  15  18
ATOM     18  O   UNL     1      36.309  29.858  23.252  1.00  0.00    -0.504 OA
ATOM     19  H   UNL     1      36.264  30.757  22.786  1.00  0.00     0.293 HD
ENDBRANCH  15  18
BRANCH  17  20
ATOM     20  O   UNL     1      38.222  27.809  22.903  1.00  0.00    -0.504 OA
ATOM     21  H   UNL     1      38.499  27.454  23.810  1.00  0.00     0.293 HD
ENDBRANCH  17  20
ENDBRANCH   1  12
BRANCH   2  22
ATOM     22  O   UNL     1      34.312  26.226  18.526  1.00  0.00    -0.502 OA
ATOM     23  H   UNL     1      33.859  27.051  18.899  1.00  0.00     0.293 HD
ENDBRANCH   2  22
BRANCH   6  24
ATOM     24  O   UNL     1      33.586  21.036  17.570  1.00  0.00    -0.507 OA
ATOM     25  H   UNL     1      34.205  20.533  16.951  1.00  0.00     0.293 HD
ENDBRANCH   6  24
BRANCH   8  26
ATOM     26  O   UNL     1      34.203  19.272  21.992  1.00  0.00    -0.508 OA
ATOM     27  H   UNL     1      34.756  19.268  22.841  1.00  0.00     0.293 HD
ENDBRANCH   8  26
TORSDOF 6
ENDMDL
MODEL 8
REMARK VINA RESULT:    -6.149      2.689      6.626
REMARK INTER + INTRA:          -7.244
REMARK INTER:                  -7.378
REMARK INTRA:                   0.134
REMARK UNBOUND:                 0.163
REMARK SMILES O=c1c(O)c(-c2ccc(O)c(O)c2)oc2cc(O)cc(O)c12
REMARK SMILES IDX 5 1 3 2 2 3 1 4 22 5 20 6 19 7 17 8 16 9 15 10 14 11 6 12
REMARK SMILES IDX 7 13 8 14 9 15 13 16 11 17 10 18 12 20 4 22 21 24 18 26
REMARK H PARENT 10 19 12 21 4 23 21 25 18 27
REMARK Flexibility Score: inf
ROOT
ATOM      1  C   UNL     1      34.575  25.044  20.270  1.00  0.00     0.180 A 
ATOM      2  C   UNL     1      33.723  26.037  19.757  1.00  0.00     0.208 A 
ATOM      3  C   UNL     1      33.936  27.376  20.126  1.00  0.00     0.238 A 
ATOM      4  O   UNL     1      33.205  28.266  19.622  1.00  0.00    -0.285 OA
ATOM      5  C   UNL     1      34.989  27.701  21.016  1.00  0.00     0.111 A 
ATOM      6  C   UNL     1      35.272  29.018  21.489  1.00  0.00     0.134 A 
ATOM      7  C   UNL     1      36.417  29.243  22.262  1.00  0.00     0.093 A 
ATOM      8  C   UNL     1      37.253  28.187  22.635  1.00  0.00     0.123 A 
ATOM      9  C   UNL     1      36.953  26.890  22.227  1.00  0.00     0.094 A 
ATOM     10  C   UNL     1      35.837  26.640  21.424  1.00  0.00     0.146 A 
ATOM     11  O   UNL     1      35.594  25.390  21.050  1.00  0.00    -0.452 OA
ENDROOT
BRANCH   1  12
ATOM     12  C   UNL     1      34.398  23.610  19.947  1.00  0.00     0.025 A 
ATOM     13  C   UNL     1      34.143  23.227  18.621  1.00  0.00     0.016 A 
ATOM     14  C   UNL     1      33.992  21.878  18.291  1.00  0.00     0.051 A 
ATOM     15  C   UNL     1      34.110  20.892  19.274  1.00  0.00     0.157 A 
ATOM     16  C   UNL     1      34.536  22.616  20.932  1.00  0.00     0.062 A 
ATOM     17  C   UNL     1      34.387  21.260  20.602  1.00  0.00     0.158 A 
BRANCH  15  18
ATOM     18  O   UNL     1      33.952  19.553  18.914  1.00  0.00    -0.504 OA
ATOM     19  H   UNL     1      34.604  19.081  18.299  1.00  0.00     0.293 HD
ENDBRANCH  15  18
BRANCH  17  20
ATOM     20  O   UNL     1      34.520  20.280  21.584  1.00  0.00    -0.504 OA
ATOM     21  H   UNL     1      34.202  19.330  21.433  1.00  0.00     0.293 HD
ENDBRANCH  17  20
ENDBRANCH   1  12
BRANCH   2  22
ATOM     22  O   UNL     1      32.704  25.697  18.863  1.00  0.00    -0.502 OA
ATOM     23  H   UNL     1      31.732  25.928  19.032  1.00  0.00     0.293 HD
ENDBRANCH   2  22
BRANCH   6  24
ATOM     24  O   UNL     1      34.452  30.125  21.252  1.00  0.00    -0.507 OA
ATOM     25  H   UNL     1      33.861  30.562  21.944  1.00  0.00     0.293 HD
ENDBRANCH   6  24
BRANCH   8  26
ATOM     26  O   UNL     1      38.382  28.417  23.417  1.00  0.00    -0.508 OA
ATOM     27  H   UNL     1      39.285  28.612  23.001  1.00  0.00     0.293 HD
ENDBRANCH   8  26
TORSDOF 6
ENDMDL
MODEL 9
REMARK VINA RESULT:    -6.140      2.912      6.159
REMARK INTER + INTRA:          -7.233
REMARK INTER:                  -7.431
REMARK INTRA:                   0.198
REMARK UNBOUND:                 0.163
REMARK SMILES O=c1c(O)c(-c2ccc(O)c(O)c2)oc2cc(O)cc(O)c12
REMARK SMILES IDX 5 1 3 2 2 3 1 4 22 5 20 6 19 7 17 8 16 9 15 10 14 11 6 12
REMARK SMILES IDX 7 13 8 14 9 15 13 16 11 17 10 18 12 20 4 22 21 24 18 26
REMARK H PARENT 10 19 12 21 4 23 21 25 18 27
REMARK Flexibility Score: inf
ROOT
ATOM      1  C   UNL     1      33.754  24.348  18.547  1.00  0.00     0.180 A 
ATOM      2  C   UNL     1      33.753  24.404  17.143  1.00  0.00     0.208 A 
ATOM      3  C   UNL     1      33.526  25.638  16.511  1.00  0.00     0.238 A 
ATOM      4  O   UNL     1      33.579  25.693  15.255  1.00  0.00    -0.285 OA
ATOM      5  C   UNL     1      33.288  26.796  17.291  1.00  0.00     0.111 A 
ATOM      6  C   UNL     1      33.007  28.089  16.758  1.00  0.00     0.134 A 
ATOM      7  C   UNL     1      32.918  29.188  17.620  1.00  0.00     0.093 A 
ATOM      8  C   UNL     1      33.033  29.029  19.004  1.00  0.00     0.123 A 
ATOM      9  C   UNL     1      33.249  27.761  19.538  1.00  0.00     0.094 A 
ATOM     10  C   UNL     1      33.379  26.651  18.700  1.00  0.00     0.146 A 
ATOM     11  O   UNL     1      33.594  25.463  19.251  1.00  0.00    -0.452 OA
ENDROOT
BRANCH   1  12
ATOM     12  C   UNL     1      33.961  23.080  19.284  1.00  0.00     0.025 A 
ATOM     13  C   UNL     1      34.589  23.105  20.539  1.00  0.00     0.016 A 
ATOM     14  C   UNL     1      34.776  21.923  21.260  1.00  0.00     0.051 A 
ATOM     15  C   UNL     1      34.325  20.703  20.748  1.00  0.00     0.157 A 
ATOM     16  C   UNL     1      33.490  21.855  18.779  1.00  0.00     0.062 A 
ATOM     17  C   UNL     1      33.675  20.667  19.503  1.00  0.00     0.158 A 
BRANCH  15  18
ATOM     18  O   UNL     1      34.528  19.540  21.490  1.00  0.00    -0.504 OA
ATOM     19  H   UNL     1      34.008  19.344  22.337  1.00  0.00     0.293 HD
ENDBRANCH  15  18
BRANCH  17  20
ATOM     20  O   UNL     1      33.210  19.456  18.993  1.00  0.00    -0.504 OA
ATOM     21  H   UNL     1      33.844  18.752  18.634  1.00  0.00     0.293 HD
ENDBRANCH  17  20
ENDBRANCH   1  12
BRANCH   2  22
ATOM     22  O   UNL     1      34.011  23.254  16.392  1.00  0.00    -0.502 OA
ATOM     23  H   UNL     1      34.897  22.765  16.432  1.00  0.00     0.293 HD
ENDBRANCH   2  22
BRANCH   6  24
ATOM     24  O   UNL     1      32.782  28.341  15.401  1.00  0.00    -0.507 OA
ATOM     25  H   UNL     1      31.901  28.199  14.928  1.00  0.00     0.293 HD
ENDBRANCH   6  24
BRANCH   8  26
ATOM     26  O   UNL     1      32.928  30.125  19.856  1.00  0.00    -0.508 OA
ATOM     27  H   UNL     1      33.716  30.446  20.407  1.00  0.00     0.293 HD
ENDBRANCH   8  26
TORSDOF 6
ENDMDL
