MODEL 1
REMARK VINA RESULT:     9.175      0.000      0.000
REMARK INTER + INTRA:          21.725
REMARK INTER:                  23.120
REMARK INTRA:                  -1.395
REMARK UNBOUND:                -1.395
REMARK SMILES CCCCCCCCCCCCCCCCCCCCCCCCCCCC(=O)[O-]
REMARK SMILES IDX 15 1 16 2 17 3 18 4 19 5 20 6 21 7 22 8 23 9 24 10 25 11
REMARK SMILES IDX 26 12 27 13 28 14 29 15 30 16 14 17 13 18 12 19 11 20 10 21
REMARK SMILES IDX 9 22 8 23 7 24 6 25 5 26 4 27 3 28 2 29 1 30
REMARK H PARENT
REMARK Flexibility Score: inf
ROOT
ATOM      1  C   UNL     1      31.579  21.125  37.191  1.00  0.00     0.000 C 
ENDROOT
BRANCH   1   2
ATOM      2  C   UNL     1      30.755  20.133  38.032  1.00  0.00     0.000 C 
BRANCH   2   3
ATOM      3  C   UNL     1      31.656  19.179  38.850  1.00  0.00     0.000 C 
BRANCH   3   4
ATOM      4  C   UNL     1      32.386  18.137  37.986  1.00  0.00     0.000 C 
BRANCH   4   5
ATOM      5  C   UNL     1      33.661  17.601  38.657  1.00  0.00     0.000 C 
BRANCH   5   6
ATOM      6  C   UNL     1      33.766  17.993  40.142  1.00  0.00     0.000 C 
BRANCH   6   7
ATOM      7  C   UNL     1      33.946  16.816  41.116  1.00  0.00     0.000 C 
BRANCH   7   8
ATOM      8  C   UNL     1      34.440  17.256  42.506  1.00  0.00     0.000 C 
BRANCH   8   9
ATOM      9  C   UNL     1      34.335  16.126  43.549  1.00  0.00     0.000 C 
BRANCH   9  10
ATOM     10  C   UNL     1      35.448  15.065  43.442  1.00  0.00     0.000 C 
BRANCH  10  11
ATOM     11  C   UNL     1      35.456  14.289  42.110  1.00  0.00     0.000 C 
BRANCH  11  12
ATOM     12  C   UNL     1      34.376  13.193  42.058  1.00  0.00     0.006 C 
BRANCH  12  13
ATOM     13  C   UNL     1      34.632  12.176  40.940  1.00  0.00     0.053 C 
BRANCH  13  14
ATOM     14  C   UNL     1      33.418  11.348  40.653  1.00  0.00     0.041 C 
ATOM     15  O   UNL     1      33.038  10.473  41.474  1.00  0.00    -0.550 OA
ATOM     16  O   UNL     1      32.690  11.562  39.487  1.00  0.00    -0.550 OA
ENDBRANCH  13  14
ENDBRANCH  12  13
ENDBRANCH  11  12
ENDBRANCH  10  11
ENDBRANCH   9  10
ENDBRANCH   8   9
ENDBRANCH   7   8
ENDBRANCH   6   7
ENDBRANCH   5   6
ENDBRANCH   4   5
ENDBRANCH   3   4
ENDBRANCH   2   3
ENDBRANCH   1   2
BRANCH   1  17
ATOM     17  C   UNL     1      31.732  22.496  37.884  1.00  0.00     0.000 C 
BRANCH  17  18
ATOM     18  C   UNL     1      31.545  23.696  36.940  1.00  0.00     0.000 C 
BRANCH  18  19
ATOM     19  C   UNL     1      32.719  23.872  35.962  1.00  0.00     0.000 C 
BRANCH  19  20
ATOM     20  C   UNL     1      32.409  24.852  34.813  1.00  0.00     0.000 C 
BRANCH  20  21
ATOM     21  C   UNL     1      33.346  24.759  33.594  1.00  0.00     0.000 C 
BRANCH  21  22
ATOM     22  C   UNL     1      32.654  25.125  32.270  1.00  0.00    -0.000 C 
BRANCH  22  23
ATOM     23  C   UNL     1      31.131  24.913  32.314  1.00  0.00    -0.000 C 
BRANCH  23  24
ATOM     24  C   UNL     1      30.647  23.694  31.500  1.00  0.00    -0.000 C 
BRANCH  24  25
ATOM     25  C   UNL     1      29.780  24.107  30.297  1.00  0.00    -0.000 C 
BRANCH  25  26
ATOM     26  C   UNL     1      30.503  25.076  29.348  1.00  0.00    -0.000 C 
BRANCH  26  27
ATOM     27  C   UNL     1      31.146  24.357  28.150  1.00  0.00    -0.000 C 
BRANCH  27  28
ATOM     28  C   UNL     1      32.415  23.580  28.537  1.00  0.00    -0.000 C 
BRANCH  28  29
ATOM     29  C   UNL     1      33.611  24.501  28.824  1.00  0.00    -0.003 C 
ATOM     30  C   UNL     1      34.878  23.692  29.085  1.00  0.00     0.004 C 
ENDBRANCH  28  29
ENDBRANCH  27  28
ENDBRANCH  26  27
ENDBRANCH  25  26
ENDBRANCH  24  25
ENDBRANCH  23  24
ENDBRANCH  22  23
ENDBRANCH  21  22
ENDBRANCH  20  21
ENDBRANCH  19  20
ENDBRANCH  18  19
ENDBRANCH  17  18
ENDBRANCH   1  17
TORSDOF 26
ENDMDL
MODEL 2
REMARK VINA RESULT:     9.401      0.892      1.484
REMARK INTER + INTRA:          22.294
REMARK INTER:                  23.737
REMARK INTRA:                  -1.443
REMARK UNBOUND:                -1.395
REMARK SMILES CCCCCCCCCCCCCCCCCCCCCCCCCCCC(=O)[O-]
REMARK SMILES IDX 15 1 16 2 17 3 18 4 19 5 20 6 21 7 22 8 23 9 24 10 25 11
REMARK SMILES IDX 26 12 27 13 28 14 29 15 30 16 14 17 13 18 12 19 11 20 10 21
REMARK SMILES IDX 9 22 8 23 7 24 6 25 5 26 4 27 3 28 2 29 1 30
REMARK H PARENT
REMARK Flexibility Score: inf
ROOT
ATOM      1  C   UNL     1      31.209  20.103  37.137  1.00  0.00     0.000 C 
ENDROOT
BRANCH   1   2
ATOM      2  C   UNL     1      31.315  18.937  38.137  1.00  0.00     0.000 C 
BRANCH   2   3
ATOM      3  C   UNL     1      32.769  18.706  38.607  1.00  0.00     0.000 C 
BRANCH   3   4
ATOM      4  C   UNL     1      32.897  17.618  39.687  1.00  0.00     0.000 C 
BRANCH   4   5
ATOM      5  C   UNL     1      33.881  18.005  40.803  1.00  0.00     0.000 C 
BRANCH   5   6
ATOM      6  C   UNL     1      33.901  16.991  41.962  1.00  0.00     0.000 C 
BRANCH   6   7
ATOM      7  C   UNL     1      35.110  17.105  42.907  1.00  0.00     0.000 C 
BRANCH   7   8
ATOM      8  C   UNL     1      35.249  15.899  43.852  1.00  0.00     0.000 C 
BRANCH   8   9
ATOM      9  C   UNL     1      36.546  15.103  43.599  1.00  0.00     0.000 C 
BRANCH   9  10
ATOM     10  C   UNL     1      36.344  13.577  43.529  1.00  0.00     0.000 C 
BRANCH  10  11
ATOM     11  C   UNL     1      35.909  13.059  42.143  1.00  0.00     0.000 C 
BRANCH  11  12
ATOM     12  C   UNL     1      34.410  12.710  42.088  1.00  0.00     0.006 C 
BRANCH  12  13
ATOM     13  C   UNL     1      33.966  12.274  40.686  1.00  0.00     0.053 C 
BRANCH  13  14
ATOM     14  C   UNL     1      33.260  10.954  40.712  1.00  0.00     0.041 C 
ATOM     15  O   UNL     1      32.264  10.782  41.463  1.00  0.00    -0.550 OA
ATOM     16  O   UNL     1      33.686   9.920  39.885  1.00  0.00    -0.550 OA
ENDBRANCH  13  14
ENDBRANCH  12  13
ENDBRANCH  11  12
ENDBRANCH  10  11
ENDBRANCH   9  10
ENDBRANCH   8   9
ENDBRANCH   7   8
ENDBRANCH   6   7
ENDBRANCH   5   6
ENDBRANCH   4   5
ENDBRANCH   3   4
ENDBRANCH   2   3
ENDBRANCH   1   2
BRANCH   1  17
ATOM     17  C   UNL     1      32.074  21.312  37.552  1.00  0.00     0.000 C 
BRANCH  17  18
ATOM     18  C   UNL     1      31.261  22.516  38.057  1.00  0.00     0.000 C 
BRANCH  18  19
ATOM     19  C   UNL     1      31.096  23.611  36.991  1.00  0.00     0.000 C 
BRANCH  19  20
ATOM     20  C   UNL     1      32.356  23.811  36.127  1.00  0.00     0.000 C 
BRANCH  20  21
ATOM     21  C   UNL     1      32.406  25.125  35.324  1.00  0.00     0.000 C 
BRANCH  21  22
ATOM     22  C   UNL     1      32.608  24.904  33.815  1.00  0.00    -0.000 C 
BRANCH  22  23
ATOM     23  C   UNL     1      31.318  24.477  33.095  1.00  0.00    -0.000 C 
BRANCH  23  24
ATOM     24  C   UNL     1      31.137  25.123  31.704  1.00  0.00    -0.000 C 
BRANCH  24  25
ATOM     25  C   UNL     1      30.569  24.130  30.674  1.00  0.00    -0.000 C 
BRANCH  25  26
ATOM     26  C   UNL     1      30.356  24.765  29.291  1.00  0.00    -0.000 C 
BRANCH  26  27
ATOM     27  C   UNL     1      31.595  24.643  28.388  1.00  0.00    -0.000 C 
BRANCH  27  28
ATOM     28  C   UNL     1      32.410  23.370  28.670  1.00  0.00    -0.000 C 
BRANCH  28  29
ATOM     29  C   UNL     1      33.835  23.438  28.100  1.00  0.00    -0.003 C 
ATOM     30  C   UNL     1      34.744  24.279  28.991  1.00  0.00     0.004 C 
ENDBRANCH  28  29
ENDBRANCH  27  28
ENDBRANCH  26  27
ENDBRANCH  25  26
ENDBRANCH  24  25
ENDBRANCH  23  24
ENDBRANCH  22  23
ENDBRANCH  21  22
ENDBRANCH  20  21
ENDBRANCH  19  20
ENDBRANCH  18  19
ENDBRANCH  17  18
ENDBRANCH   1  17
TORSDOF 26
ENDMDL
MODEL 3
REMARK VINA RESULT:     9.418      4.619     13.476
REMARK INTER + INTRA:          22.337
REMARK INTER:                  23.851
REMARK INTRA:                  -1.514
REMARK UNBOUND:                -1.395
REMARK SMILES CCCCCCCCCCCCCCCCCCCCCCCCCCCC(=O)[O-]
REMARK SMILES IDX 15 1 16 2 17 3 18 4 19 5 20 6 21 7 22 8 23 9 24 10 25 11
REMARK SMILES IDX 26 12 27 13 28 14 29 15 30 16 14 17 13 18 12 19 11 20 10 21
REMARK SMILES IDX 9 22 8 23 7 24 6 25 5 26 4 27 3 28 2 29 1 30
REMARK H PARENT
REMARK Flexibility Score: inf
ROOT
ATOM      1  C   UNL     1      32.054  18.657  37.178  1.00  0.00     0.000 C 
ENDROOT
BRANCH   1   2
ATOM      2  C   UNL     1      30.792  19.536  37.245  1.00  0.00     0.000 C 
BRANCH   2   3
ATOM      3  C   UNL     1      31.046  20.861  37.997  1.00  0.00     0.000 C 
BRANCH   3   4
ATOM      4  C   UNL     1      32.062  21.778  37.294  1.00  0.00     0.000 C 
BRANCH   4   5
ATOM      5  C   UNL     1      31.522  23.201  37.076  1.00  0.00     0.000 C 
BRANCH   5   6
ATOM      6  C   UNL     1      32.636  24.231  36.814  1.00  0.00     0.000 C 
BRANCH   6   7
ATOM      7  C   UNL     1      32.643  24.837  35.400  1.00  0.00     0.000 C 
BRANCH   7   8
ATOM      8  C   UNL     1      31.267  24.781  34.714  1.00  0.00     0.000 C 
BRANCH   8   9
ATOM      9  C   UNL     1      31.357  24.282  33.258  1.00  0.00     0.000 C 
BRANCH   9  10
ATOM     10  C   UNL     1      30.041  24.412  32.465  1.00  0.00     0.000 C 
BRANCH  10  11
ATOM     11  C   UNL     1      30.190  25.122  31.105  1.00  0.00     0.000 C 
BRANCH  11  12
ATOM     12  C   UNL     1      30.415  24.134  29.946  1.00  0.00     0.006 C 
BRANCH  12  13
ATOM     13  C   UNL     1      31.257  24.743  28.818  1.00  0.00     0.053 C 
BRANCH  13  14
ATOM     14  C   UNL     1      32.613  24.113  28.735  1.00  0.00     0.041 C 
ATOM     15  O   UNL     1      33.561  24.553  29.437  1.00  0.00    -0.550 OA
ATOM     16  O   UNL     1      32.822  23.021  27.900  1.00  0.00    -0.550 OA
ENDBRANCH  13  14
ENDBRANCH  12  13
ENDBRANCH  11  12
ENDBRANCH  10  11
ENDBRANCH   9  10
ENDBRANCH   8   9
ENDBRANCH   7   8
ENDBRANCH   6   7
ENDBRANCH   5   6
ENDBRANCH   4   5
ENDBRANCH   3   4
ENDBRANCH   2   3
ENDBRANCH   1   2
BRANCH   1  17
ATOM     17  C   UNL     1      32.123  17.639  38.337  1.00  0.00     0.000 C 
BRANCH  17  18
ATOM     18  C   UNL     1      33.427  17.706  39.148  1.00  0.00     0.000 C 
BRANCH  18  19
ATOM     19  C   UNL     1      33.191  18.061  40.626  1.00  0.00     0.000 C 
BRANCH  19  20
ATOM     20  C   UNL     1      33.837  17.056  41.600  1.00  0.00     0.000 C 
BRANCH  20  21
ATOM     21  C   UNL     1      34.646  17.681  42.753  1.00  0.00     0.000 C 
BRANCH  21  22
ATOM     22  C   UNL     1      35.708  16.730  43.331  1.00  0.00    -0.000 C 
BRANCH  22  23
ATOM     23  C   UNL     1      35.150  15.332  43.647  1.00  0.00    -0.000 C 
BRANCH  23  24
ATOM     24  C   UNL     1      36.174  14.193  43.456  1.00  0.00    -0.000 C 
BRANCH  24  25
ATOM     25  C   UNL     1      35.619  13.055  42.580  1.00  0.00    -0.000 C 
BRANCH  25  26
ATOM     26  C   UNL     1      34.602  13.549  41.539  1.00  0.00    -0.000 C 
BRANCH  26  27
ATOM     27  C   UNL     1      34.736  12.818  40.192  1.00  0.00    -0.000 C 
BRANCH  27  28
ATOM     28  C   UNL     1      34.345  11.334  40.282  1.00  0.00    -0.000 C 
BRANCH  28  29
ATOM     29  C   UNL     1      32.838  11.128  40.501  1.00  0.00    -0.003 C 
ATOM     30  C   UNL     1      32.520  10.919  41.978  1.00  0.00     0.004 C 
ENDBRANCH  28  29
ENDBRANCH  27  28
ENDBRANCH  26  27
ENDBRANCH  25  26
ENDBRANCH  24  25
ENDBRANCH  23  24
ENDBRANCH  22  23
ENDBRANCH  21  22
ENDBRANCH  20  21
ENDBRANCH  19  20
ENDBRANCH  18  19
ENDBRANCH  17  18
ENDBRANCH   1  17
TORSDOF 26
ENDMDL
MODEL 4
REMARK VINA RESULT:    10.215      9.196     12.688
REMARK INTER + INTRA:          24.347
REMARK INTER:                  25.186
REMARK INTRA:                  -0.840
REMARK UNBOUND:                -1.395
REMARK SMILES CCCCCCCCCCCCCCCCCCCCCCCCCCCC(=O)[O-]
REMARK SMILES IDX 15 1 16 2 17 3 18 4 19 5 20 6 21 7 22 8 23 9 24 10 25 11
REMARK SMILES IDX 26 12 27 13 28 14 29 15 30 16 14 17 13 18 12 19 11 20 10 21
REMARK SMILES IDX 9 22 8 23 7 24 6 25 5 26 4 27 3 28 2 29 1 30
REMARK H PARENT
REMARK Flexibility Score: inf
ROOT
ATOM      1  C   UNL     1      29.254  21.910  45.121  1.00  0.00     0.000 C 
ENDROOT
BRANCH   1   2
ATOM      2  C   UNL     1      30.462  21.783  44.174  1.00  0.00     0.000 C 
BRANCH   2   3
ATOM      3  C   UNL     1      30.469  20.434  43.421  1.00  0.00     0.000 C 
BRANCH   3   4
ATOM      4  C   UNL     1      31.881  19.945  43.054  1.00  0.00     0.000 C 
BRANCH   4   5
ATOM      5  C   UNL     1      31.863  18.808  42.019  1.00  0.00     0.000 C 
BRANCH   5   6
ATOM      6  C   UNL     1      33.247  18.167  41.811  1.00  0.00     0.000 C 
BRANCH   6   7
ATOM      7  C   UNL     1      33.435  16.792  42.476  1.00  0.00     0.000 C 
BRANCH   7   8
ATOM      8  C   UNL     1      34.891  16.520  42.893  1.00  0.00     0.000 C 
BRANCH   8   9
ATOM      9  C   UNL     1      35.027  15.246  43.751  1.00  0.00     0.000 C 
BRANCH   9  10
ATOM     10  C   UNL     1      35.968  14.182  43.153  1.00  0.00     0.000 C 
BRANCH  10  11
ATOM     11  C   UNL     1      35.241  13.018  42.450  1.00  0.00     0.000 C 
BRANCH  11  12
ATOM     12  C   UNL     1      34.993  13.294  40.956  1.00  0.00     0.006 C 
BRANCH  12  13
ATOM     13  C   UNL     1      33.614  12.805  40.496  1.00  0.00     0.053 C 
BRANCH  13  14
ATOM     14  C   UNL     1      33.449  11.331  40.707  1.00  0.00     0.041 C 
ATOM     15  O   UNL     1      34.329  10.529  40.298  1.00  0.00    -0.550 OA
ATOM     16  O   UNL     1      32.333  10.846  41.380  1.00  0.00    -0.550 OA
ENDBRANCH  13  14
ENDBRANCH  12  13
ENDBRANCH  11  12
ENDBRANCH  10  11
ENDBRANCH   9  10
ENDBRANCH   8   9
ENDBRANCH   7   8
ENDBRANCH   6   7
ENDBRANCH   5   6
ENDBRANCH   4   5
ENDBRANCH   3   4
ENDBRANCH   2   3
ENDBRANCH   1   2
BRANCH   1  17
ATOM     17  C   UNL     1      29.197  23.287  45.817  1.00  0.00     0.000 C 
BRANCH  17  18
ATOM     18  C   UNL     1      27.808  23.947  45.778  1.00  0.00     0.000 C 
BRANCH  18  19
ATOM     19  C   UNL     1      26.689  23.006  46.253  1.00  0.00     0.000 C 
BRANCH  19  20
ATOM     20  C   UNL     1      25.278  23.515  45.896  1.00  0.00     0.000 C 
BRANCH  20  21
ATOM     21  C   UNL     1      24.122  22.859  46.677  1.00  0.00     0.000 C 
BRANCH  21  22
ATOM     22  C   UNL     1      22.957  22.420  45.775  1.00  0.00    -0.000 C 
BRANCH  22  23
ATOM     23  C   UNL     1      21.605  23.007  46.217  1.00  0.00    -0.000 C 
BRANCH  23  24
ATOM     24  C   UNL     1      20.662  21.976  46.873  1.00  0.00    -0.000 C 
BRANCH  24  25
ATOM     25  C   UNL     1      19.607  22.647  47.772  1.00  0.00    -0.000 C 
BRANCH  25  26
ATOM     26  C   UNL     1      19.373  24.123  47.415  1.00  0.00    -0.000 C 
BRANCH  26  27
ATOM     27  C   UNL     1      17.905  24.547  47.591  1.00  0.00    -0.000 C 
BRANCH  27  28
ATOM     28  C   UNL     1      17.080  24.369  46.306  1.00  0.00    -0.000 C 
BRANCH  28  29
ATOM     29  C   UNL     1      17.941  23.971  45.097  1.00  0.00    -0.003 C 
ATOM     30  C   UNL     1      18.835  25.125  44.654  1.00  0.00     0.004 C 
ENDBRANCH  28  29
ENDBRANCH  27  28
ENDBRANCH  26  27
ENDBRANCH  25  26
ENDBRANCH  24  25
ENDBRANCH  23  24
ENDBRANCH  22  23
ENDBRANCH  21  22
ENDBRANCH  20  21
ENDBRANCH  19  20
ENDBRANCH  18  19
ENDBRANCH  17  18
ENDBRANCH   1  17
TORSDOF 26
ENDMDL
MODEL 5
REMARK VINA RESULT:    10.380      1.080      2.266
REMARK INTER + INTRA:          24.762
REMARK INTER:                  25.755
REMARK INTRA:                  -0.993
REMARK UNBOUND:                -1.395
REMARK SMILES CCCCCCCCCCCCCCCCCCCCCCCCCCCC(=O)[O-]
REMARK SMILES IDX 15 1 16 2 17 3 18 4 19 5 20 6 21 7 22 8 23 9 24 10 25 11
REMARK SMILES IDX 26 12 27 13 28 14 29 15 30 16 14 17 13 18 12 19 11 20 10 21
REMARK SMILES IDX 9 22 8 23 7 24 6 25 5 26 4 27 3 28 2 29 1 30
REMARK H PARENT
REMARK Flexibility Score: inf
ROOT
ATOM      1  C   UNL     1      30.937  19.720  36.920  1.00  0.00     0.000 C 
ENDROOT
BRANCH   1   2
ATOM      2  C   UNL     1      30.955  18.615  37.991  1.00  0.00     0.000 C 
BRANCH   2   3
ATOM      3  C   UNL     1      31.834  18.997  39.204  1.00  0.00     0.000 C 
BRANCH   3   4
ATOM      4  C   UNL     1      32.975  18.000  39.470  1.00  0.00     0.000 C 
BRANCH   4   5
ATOM      5  C   UNL     1      33.641  18.215  40.839  1.00  0.00     0.000 C 
BRANCH   5   6
ATOM      6  C   UNL     1      33.965  16.895  41.561  1.00  0.00     0.000 C 
BRANCH   6   7
ATOM      7  C   UNL     1      34.850  17.037  42.813  1.00  0.00     0.000 C 
BRANCH   7   8
ATOM      8  C   UNL     1      34.828  15.786  43.709  1.00  0.00     0.000 C 
BRANCH   8   9
ATOM      9  C   UNL     1      36.145  14.988  43.634  1.00  0.00     0.000 C 
BRANCH   9  10
ATOM     10  C   UNL     1      35.952  13.470  43.451  1.00  0.00     0.000 C 
BRANCH  10  11
ATOM     11  C   UNL     1      35.585  13.048  42.014  1.00  0.00     0.000 C 
BRANCH  11  12
ATOM     12  C   UNL     1      34.509  11.947  41.979  1.00  0.00     0.006 C 
BRANCH  12  13
ATOM     13  C   UNL     1      34.199  11.483  40.551  1.00  0.00     0.053 C 
BRANCH  13  14
ATOM     14  C   UNL     1      32.921  10.704  40.485  1.00  0.00     0.041 C 
ATOM     15  O   UNL     1      32.648  10.017  39.466  1.00  0.00    -0.550 OA
ATOM     16  O   UNL     1      32.043  10.716  41.564  1.00  0.00    -0.550 OA
ENDBRANCH  13  14
ENDBRANCH  12  13
ENDBRANCH  11  12
ENDBRANCH  10  11
ENDBRANCH   9  10
ENDBRANCH   8   9
ENDBRANCH   7   8
ENDBRANCH   6   7
ENDBRANCH   5   6
ENDBRANCH   4   5
ENDBRANCH   3   4
ENDBRANCH   2   3
ENDBRANCH   1   2
BRANCH   1  17
ATOM     17  C   UNL     1      32.226  20.570  36.932  1.00  0.00     0.000 C 
BRANCH  17  18
ATOM     18  C   UNL     1      32.019  22.008  37.438  1.00  0.00     0.000 C 
BRANCH  18  19
ATOM     19  C   UNL     1      31.490  22.953  36.347  1.00  0.00     0.000 C 
BRANCH  19  20
ATOM     20  C   UNL     1      32.569  23.908  35.798  1.00  0.00     0.000 C 
BRANCH  20  21
ATOM     21  C   UNL     1      32.044  25.072  34.936  1.00  0.00     0.000 C 
BRANCH  21  22
ATOM     22  C   UNL     1      32.607  25.066  33.505  1.00  0.00    -0.000 C 
BRANCH  22  23
ATOM     23  C   UNL     1      34.136  24.891  33.465  1.00  0.00    -0.000 C 
BRANCH  23  24
ATOM     24  C   UNL     1      34.752  25.113  32.067  1.00  0.00    -0.000 C 
BRANCH  24  25
ATOM     25  C   UNL     1      33.685  25.125  30.958  1.00  0.00    -0.000 C 
BRANCH  25  26
ATOM     26  C   UNL     1      33.990  24.128  29.829  1.00  0.00    -0.000 C 
BRANCH  26  27
ATOM     27  C   UNL     1      33.318  24.518  28.501  1.00  0.00    -0.000 C 
BRANCH  27  28
ATOM     28  C   UNL     1      32.386  23.420  27.964  1.00  0.00    -0.000 C 
BRANCH  28  29
ATOM     29  C   UNL     1      30.985  23.470  28.593  1.00  0.00    -0.003 C 
ATOM     30  C   UNL     1      30.754  24.793  29.318  1.00  0.00     0.004 C 
ENDBRANCH  28  29
ENDBRANCH  27  28
ENDBRANCH  26  27
ENDBRANCH  25  26
ENDBRANCH  24  25
ENDBRANCH  23  24
ENDBRANCH  22  23
ENDBRANCH  21  22
ENDBRANCH  20  21
ENDBRANCH  19  20
ENDBRANCH  18  19
ENDBRANCH  17  18
ENDBRANCH   1  17
TORSDOF 26
ENDMDL
MODEL 6
REMARK VINA RESULT:    10.445      9.897     14.876
REMARK INTER + INTRA:          24.927
REMARK INTER:                  25.715
REMARK INTRA:                  -0.789
REMARK UNBOUND:                -1.395
REMARK SMILES CCCCCCCCCCCCCCCCCCCCCCCCCCCC(=O)[O-]
REMARK SMILES IDX 15 1 16 2 17 3 18 4 19 5 20 6 21 7 22 8 23 9 24 10 25 11
REMARK SMILES IDX 26 12 27 13 28 14 29 15 30 16 14 17 13 18 12 19 11 20 10 21
REMARK SMILES IDX 9 22 8 23 7 24 6 25 5 26 4 27 3 28 2 29 1 30
REMARK H PARENT
REMARK Flexibility Score: inf
ROOT
ATOM      1  C   UNL     1      31.067  21.084  43.669  1.00  0.00     0.000 C 
ENDROOT
BRANCH   1   2
ATOM      2  C   UNL     1      29.713  21.303  44.371  1.00  0.00     0.000 C 
BRANCH   2   3
ATOM      3  C   UNL     1      29.768  22.466  45.386  1.00  0.00     0.000 C 
BRANCH   3   4
ATOM      4  C   UNL     1      28.734  23.571  45.106  1.00  0.00     0.000 C 
BRANCH   4   5
ATOM      5  C   UNL     1      27.790  23.813  46.295  1.00  0.00     0.000 C 
BRANCH   5   6
ATOM      6  C   UNL     1      26.330  24.043  45.863  1.00  0.00     0.000 C 
BRANCH   6   7
ATOM      7  C   UNL     1      25.329  22.983  46.356  1.00  0.00     0.000 C 
BRANCH   7   8
ATOM      8  C   UNL     1      24.042  22.936  45.514  1.00  0.00     0.000 C 
BRANCH   8   9
ATOM      9  C   UNL     1      22.862  22.307  46.284  1.00  0.00     0.000 C 
BRANCH   9  10
ATOM     10  C   UNL     1      21.479  22.843  45.863  1.00  0.00     0.000 C 
BRANCH  10  11
ATOM     11  C   UNL     1      20.336  22.468  46.826  1.00  0.00     0.000 C 
BRANCH  11  12
ATOM     12  C   UNL     1      19.700  23.700  47.496  1.00  0.00     0.006 C 
BRANCH  12  13
ATOM     13  C   UNL     1      18.238  23.900  47.078  1.00  0.00     0.053 C 
BRANCH  13  14
ATOM     14  C   UNL     1      18.125  24.374  45.661  1.00  0.00     0.041 C 
ATOM     15  O   UNL     1      19.128  24.856  45.072  1.00  0.00    -0.550 OA
ATOM     16  O   UNL     1      16.917  24.257  44.983  1.00  0.00    -0.550 OA
ENDBRANCH  13  14
ENDBRANCH  12  13
ENDBRANCH  11  12
ENDBRANCH  10  11
ENDBRANCH   9  10
ENDBRANCH   8   9
ENDBRANCH   7   8
ENDBRANCH   6   7
ENDBRANCH   5   6
ENDBRANCH   4   5
ENDBRANCH   3   4
ENDBRANCH   2   3
ENDBRANCH   1   2
BRANCH   1  17
ATOM     17  C   UNL     1      31.096  19.781  42.843  1.00  0.00     0.000 C 
BRANCH  17  18
ATOM     18  C   UNL     1      32.512  19.305  42.479  1.00  0.00     0.000 C 
BRANCH  18  19
ATOM     19  C   UNL     1      32.659  17.775  42.534  1.00  0.00     0.000 C 
BRANCH  19  20
ATOM     20  C   UNL     1      34.127  17.307  42.551  1.00  0.00     0.000 C 
BRANCH  20  21
ATOM     21  C   UNL     1      34.472  16.249  43.616  1.00  0.00     0.000 C 
BRANCH  21  22
ATOM     22  C   UNL     1      35.954  15.839  43.603  1.00  0.00    -0.000 C 
BRANCH  22  23
ATOM     23  C   UNL     1      36.156  14.318  43.720  1.00  0.00    -0.000 C 
BRANCH  23  24
ATOM     24  C   UNL     1      36.199  13.588  42.361  1.00  0.00    -0.000 C 
BRANCH  24  25
ATOM     25  C   UNL     1      34.799  13.145  41.898  1.00  0.00    -0.000 C 
BRANCH  25  26
ATOM     26  C   UNL     1      34.569  13.377  40.396  1.00  0.00    -0.000 C 
BRANCH  26  27
ATOM     27  C   UNL     1      33.675  12.298  39.763  1.00  0.00    -0.000 C 
BRANCH  27  28
ATOM     28  C   UNL     1      33.244  11.220  40.770  1.00  0.00    -0.000 C 
BRANCH  28  29
ATOM     29  C   UNL     1      32.693   9.957  40.091  1.00  0.00    -0.003 C 
ATOM     30  C   UNL     1      33.803   8.943  39.831  1.00  0.00     0.004 C 
ENDBRANCH  28  29
ENDBRANCH  27  28
ENDBRANCH  26  27
ENDBRANCH  25  26
ENDBRANCH  24  25
ENDBRANCH  23  24
ENDBRANCH  22  23
ENDBRANCH  21  22
ENDBRANCH  20  21
ENDBRANCH  19  20
ENDBRANCH  18  19
ENDBRANCH  17  18
ENDBRANCH   1  17
TORSDOF 26
ENDMDL
MODEL 7
REMARK VINA RESULT:    10.551      1.258      3.315
REMARK INTER + INTRA:          25.192
REMARK INTER:                  26.557
REMARK INTRA:                  -1.365
REMARK UNBOUND:                -1.395
REMARK SMILES CCCCCCCCCCCCCCCCCCCCCCCCCCCC(=O)[O-]
REMARK SMILES IDX 15 1 16 2 17 3 18 4 19 5 20 6 21 7 22 8 23 9 24 10 25 11
REMARK SMILES IDX 26 12 27 13 28 14 29 15 30 16 14 17 13 18 12 19 11 20 10 21
REMARK SMILES IDX 9 22 8 23 7 24 6 25 5 26 4 27 3 28 2 29 1 30
REMARK H PARENT
REMARK Flexibility Score: inf
ROOT
ATOM      1  C   UNL     1      32.212  17.519  38.121  1.00  0.00     0.000 C 
ENDROOT
BRANCH   1   2
ATOM      2  C   UNL     1      32.757  18.246  39.364  1.00  0.00     0.000 C 
BRANCH   2   3
ATOM      3  C   UNL     1      33.788  17.389  40.132  1.00  0.00     0.000 C 
BRANCH   3   4
ATOM      4  C   UNL     1      34.154  17.963  41.512  1.00  0.00     0.000 C 
BRANCH   4   5
ATOM      5  C   UNL     1      33.945  16.949  42.649  1.00  0.00     0.000 C 
BRANCH   5   6
ATOM      6  C   UNL     1      35.186  16.794  43.547  1.00  0.00     0.000 C 
BRANCH   6   7
ATOM      7  C   UNL     1      36.118  15.627  43.175  1.00  0.00     0.000 C 
BRANCH   7   8
ATOM      8  C   UNL     1      35.410  14.261  43.199  1.00  0.00     0.000 C 
BRANCH   8   9
ATOM      9  C   UNL     1      35.112  13.731  41.782  1.00  0.00     0.000 C 
BRANCH   9  10
ATOM     10  C   UNL     1      35.195  12.197  41.654  1.00  0.00     0.000 C 
BRANCH  10  11
ATOM     11  C   UNL     1      33.876  11.463  41.971  1.00  0.00     0.000 C 
BRANCH  11  12
ATOM     12  C   UNL     1      32.816  11.656  40.872  1.00  0.00     0.006 C 
BRANCH  12  13
ATOM     13  C   UNL     1      33.075  10.765  39.651  1.00  0.00     0.053 C 
BRANCH  13  14
ATOM     14  C   UNL     1      32.705   9.338  39.915  1.00  0.00     0.041 C 
ATOM     15  O   UNL     1      31.528   9.039  40.248  1.00  0.00    -0.550 OA
ATOM     16  O   UNL     1      33.656   8.334  39.766  1.00  0.00    -0.550 OA
ENDBRANCH  13  14
ENDBRANCH  12  13
ENDBRANCH  11  12
ENDBRANCH  10  11
ENDBRANCH   9  10
ENDBRANCH   8   9
ENDBRANCH   7   8
ENDBRANCH   6   7
ENDBRANCH   5   6
ENDBRANCH   4   5
ENDBRANCH   3   4
ENDBRANCH   2   3
ENDBRANCH   1   2
BRANCH   1  17
ATOM     17  C   UNL     1      31.439  18.466  37.179  1.00  0.00     0.000 C 
BRANCH  17  18
ATOM     18  C   UNL     1      31.134  19.843  37.793  1.00  0.00     0.000 C 
BRANCH  18  19
ATOM     19  C   UNL     1      31.341  20.997  36.797  1.00  0.00     0.000 C 
BRANCH  19  20
ATOM     20  C   UNL     1      31.513  22.366  37.484  1.00  0.00     0.000 C 
BRANCH  20  21
ATOM     21  C   UNL     1      32.546  23.306  36.834  1.00  0.00     0.000 C 
BRANCH  21  22
ATOM     22  C   UNL     1      31.915  24.571  36.230  1.00  0.00    -0.000 C 
BRANCH  22  23
ATOM     23  C   UNL     1      32.461  24.901  34.829  1.00  0.00    -0.000 C 
BRANCH  23  24
ATOM     24  C   UNL     1      31.362  25.104  33.764  1.00  0.00    -0.000 C 
BRANCH  24  25
ATOM     25  C   UNL     1      31.823  24.658  32.364  1.00  0.00    -0.000 C 
BRANCH  25  26
ATOM     26  C   UNL     1      33.300  24.984  32.093  1.00  0.00    -0.000 C 
BRANCH  26  27
ATOM     27  C   UNL     1      33.609  25.113  30.591  1.00  0.00    -0.000 C 
BRANCH  27  28
ATOM     28  C   UNL     1      33.065  23.932  29.771  1.00  0.00    -0.000 C 
BRANCH  28  29
ATOM     29  C   UNL     1      31.824  24.302  28.946  1.00  0.00    -0.003 C 
ATOM     30  C   UNL     1      30.695  23.301  29.171  1.00  0.00     0.004 C 
ENDBRANCH  28  29
ENDBRANCH  27  28
ENDBRANCH  26  27
ENDBRANCH  25  26
ENDBRANCH  24  25
ENDBRANCH  23  24
ENDBRANCH  22  23
ENDBRANCH  21  22
ENDBRANCH  20  21
ENDBRANCH  19  20
ENDBRANCH  18  19
ENDBRANCH  17  18
ENDBRANCH   1  17
TORSDOF 26
ENDMDL
