MODEL 1
REMARK VINA RESULT:    -6.014      0.000      0.000
REMARK INTER + INTRA:          -7.342
REMARK INTER:                  -7.420
REMARK INTRA:                   0.078
REMARK UNBOUND:                 0.078
REMARK SMILES O=C1c2c(O)cc(O)cc2O[C@@H](c2cc(O)c(O)c(O)c2)[C@@H]1O
REMARK SMILES IDX 12 1 22 2 2 3 1 4 3 5 4 6 6 7 7 8 9 9 10 10 11 11 13 12
REMARK SMILES IDX 14 13 15 14 21 15 17 16 19 17 16 18 18 20 20 22 23 24 5 26
REMARK SMILES IDX 8 28
REMARK H PARENT 16 19 18 21 20 23 23 25 5 27 8 29
REMARK Flexibility Score: inf
ROOT
ATOM      1  C   UNL     1      38.285  11.398  26.542  1.00  0.00     0.240 C 
ATOM      2  C   UNL     1      38.025  10.203  27.480  1.00  0.00     0.231 C 
ATOM      3  C   UNL     1      36.702  10.353  28.196  1.00  0.00     0.202 C 
ATOM      4  O   UNL     1      36.180   9.326  28.705  1.00  0.00    -0.291 OA
ATOM      5  C   UNL     1      36.127  11.710  28.430  1.00  0.00     0.105 A 
ATOM      6  C   UNL     1      34.911  11.952  29.127  1.00  0.00     0.133 A 
ATOM      7  C   UNL     1      34.562  13.264  29.473  1.00  0.00     0.093 A 
ATOM      8  C   UNL     1      35.364  14.342  29.097  1.00  0.00     0.123 A 
ATOM      9  C   UNL     1      36.525  14.116  28.353  1.00  0.00     0.093 A 
ATOM     10  C   UNL     1      36.895  12.815  28.005  1.00  0.00     0.138 A 
ATOM     11  O   UNL     1      38.045  12.623  27.232  1.00  0.00    -0.481 OA
ENDROOT
BRANCH   1  12
ATOM     12  C   UNL     1      39.700  11.376  26.012  1.00  0.00     0.003 A 
ATOM     13  C   UNL     1      40.593  10.376  26.427  1.00  0.00     0.058 A 
ATOM     14  C   UNL     1      41.913  10.364  25.965  1.00  0.00     0.161 A 
ATOM     15  C   UNL     1      40.153  12.383  25.145  1.00  0.00     0.058 A 
ATOM     16  C   UNL     1      42.359  11.365  25.086  1.00  0.00     0.200 A 
ATOM     17  C   UNL     1      41.474  12.379  24.678  1.00  0.00     0.161 A 
BRANCH  14  18
ATOM     18  O   UNL     1      42.769   9.349  26.394  1.00  0.00    -0.504 OA
ATOM     19  H   UNL     1      43.775   9.418  26.301  1.00  0.00     0.293 HD
ENDBRANCH  14  18
BRANCH  16  20
ATOM     20  O   UNL     1      43.677  11.345  24.628  1.00  0.00    -0.502 OA
ATOM     21  H   UNL     1      43.911  11.144  23.664  1.00  0.00     0.293 HD
ENDBRANCH  16  20
BRANCH  17  22
ATOM     22  O   UNL     1      41.912  13.380  23.810  1.00  0.00    -0.504 OA
ATOM     23  H   UNL     1      41.465  13.539  22.916  1.00  0.00     0.293 HD
ENDBRANCH  17  22
ENDBRANCH   1  12
BRANCH   2  24
ATOM     24  O   UNL     1      38.077   8.990  26.770  1.00  0.00    -0.381 OA
ATOM     25  H   UNL     1      38.421   9.189  25.860  1.00  0.00     0.211 HD
ENDBRANCH   2  24
BRANCH   6  26
ATOM     26  O   UNL     1      34.012  10.943  29.476  1.00  0.00    -0.507 OA
ATOM     27  H   UNL     1      34.213  10.211  30.142  1.00  0.00     0.293 HD
ENDBRANCH   6  26
BRANCH   8  28
ATOM     28  O   UNL     1      34.990  15.636  29.455  1.00  0.00    -0.508 OA
ATOM     29  H   UNL     1      34.024  15.938  29.412  1.00  0.00     0.293 HD
ENDBRANCH   8  28
TORSDOF 7
ENDMDL
MODEL 2
REMARK VINA RESULT:    -6.010      0.073      1.757
REMARK INTER + INTRA:          -7.337
REMARK INTER:                  -7.431
REMARK INTRA:                   0.094
REMARK UNBOUND:                 0.078
REMARK SMILES O=C1c2c(O)cc(O)cc2O[C@@H](c2cc(O)c(O)c(O)c2)[C@@H]1O
REMARK SMILES IDX 12 1 22 2 2 3 1 4 3 5 4 6 6 7 7 8 9 9 10 10 11 11 13 12
REMARK SMILES IDX 14 13 15 14 21 15 17 16 19 17 16 18 18 20 20 22 23 24 5 26
REMARK SMILES IDX 8 28
REMARK H PARENT 16 19 18 21 20 23 23 25 5 27 8 29
REMARK Flexibility Score: inf
ROOT
ATOM      1  C   UNL     1      38.310  11.449  26.552  1.00  0.00     0.240 C 
ATOM      2  C   UNL     1      38.017  10.239  27.462  1.00  0.00     0.231 C 
ATOM      3  C   UNL     1      36.687  10.398  28.164  1.00  0.00     0.202 C 
ATOM      4  O   UNL     1      36.141   9.370  28.644  1.00  0.00    -0.291 OA
ATOM      5  C   UNL     1      36.133  11.759  28.418  1.00  0.00     0.105 A 
ATOM      6  C   UNL     1      34.912  12.009  29.105  1.00  0.00     0.133 A 
ATOM      7  C   UNL     1      34.581  13.319  29.474  1.00  0.00     0.093 A 
ATOM      8  C   UNL     1      35.406  14.390  29.130  1.00  0.00     0.123 A 
ATOM      9  C   UNL     1      36.573  14.159  28.397  1.00  0.00     0.093 A 
ATOM     10  C   UNL     1      36.925  12.860  28.026  1.00  0.00     0.138 A 
ATOM     11  O   UNL     1      38.082  12.663  27.264  1.00  0.00    -0.481 OA
ENDROOT
BRANCH   1  12
ATOM     12  C   UNL     1      39.731  11.412  26.040  1.00  0.00     0.003 A 
ATOM     13  C   UNL     1      40.186  12.399  25.153  1.00  0.00     0.058 A 
ATOM     14  C   UNL     1      41.491  12.358  24.650  1.00  0.00     0.161 A 
ATOM     15  C   UNL     1      40.593  10.365  26.402  1.00  0.00     0.058 A 
ATOM     16  C   UNL     1      42.355  11.316  25.025  1.00  0.00     0.200 A 
ATOM     17  C   UNL     1      41.901  10.315  25.903  1.00  0.00     0.161 A 
BRANCH  14  18
ATOM     18  O   UNL     1      41.910  13.361  23.775  1.00  0.00    -0.504 OA
ATOM     19  H   UNL     1      42.884  13.496  23.537  1.00  0.00     0.293 HD
ENDBRANCH  14  18
BRANCH  16  20
ATOM     20  O   UNL     1      43.656  11.282  24.521  1.00  0.00    -0.502 OA
ATOM     21  H   UNL     1      43.850  11.262  23.527  1.00  0.00     0.293 HD
ENDBRANCH  16  20
BRANCH  17  22
ATOM     22  O   UNL     1      42.752   9.274  26.274  1.00  0.00    -0.504 OA
ATOM     23  H   UNL     1      43.750   9.320  26.110  1.00  0.00     0.293 HD
ENDBRANCH  17  22
ENDBRANCH   1  12
BRANCH   2  24
ATOM     24  O   UNL     1      38.056   9.040  26.727  1.00  0.00    -0.381 OA
ATOM     25  H   UNL     1      37.262   9.027  26.131  1.00  0.00     0.211 HD
ENDBRANCH   2  24
BRANCH   6  26
ATOM     26  O   UNL     1      33.990  11.008  29.421  1.00  0.00    -0.507 OA
ATOM     27  H   UNL     1      34.130  10.318  30.144  1.00  0.00     0.293 HD
ENDBRANCH   6  26
BRANCH   8  28
ATOM     28  O   UNL     1      35.050  15.683  29.510  1.00  0.00    -0.508 OA
ATOM     29  H   UNL     1      34.440  16.254  28.937  1.00  0.00     0.293 HD
ENDBRANCH   8  28
TORSDOF 7
ENDMDL
MODEL 3
REMARK VINA RESULT:    -5.914      4.868      8.488
REMARK INTER + INTRA:          -7.219
REMARK INTER:                  -7.000
REMARK INTRA:                  -0.220
REMARK UNBOUND:                 0.078
REMARK SMILES O=C1c2c(O)cc(O)cc2O[C@@H](c2cc(O)c(O)c(O)c2)[C@@H]1O
REMARK SMILES IDX 12 1 22 2 2 3 1 4 3 5 4 6 6 7 7 8 9 9 10 10 11 11 13 12
REMARK SMILES IDX 14 13 15 14 21 15 17 16 19 17 16 18 18 20 20 22 23 24 5 26
REMARK SMILES IDX 8 28
REMARK H PARENT 16 19 18 21 20 23 23 25 5 27 8 29
REMARK Flexibility Score: inf
ROOT
ATOM      1  C   UNL     1      43.899  13.089  24.563  1.00  0.00     0.240 C 
ATOM      2  C   UNL     1      44.801  12.461  23.482  1.00  0.00     0.231 C 
ATOM      3  C   UNL     1      45.128  13.465  22.399  1.00  0.00     0.202 C 
ATOM      4  O   UNL     1      46.118  13.236  21.655  1.00  0.00    -0.291 OA
ATOM      5  C   UNL     1      44.200  14.599  22.125  1.00  0.00     0.105 A 
ATOM      6  C   UNL     1      44.404  15.568  21.102  1.00  0.00     0.133 A 
ATOM      7  C   UNL     1      43.378  16.469  20.790  1.00  0.00     0.093 A 
ATOM      8  C   UNL     1      42.178  16.466  21.503  1.00  0.00     0.123 A 
ATOM      9  C   UNL     1      41.999  15.562  22.553  1.00  0.00     0.093 A 
ATOM     10  C   UNL     1      43.006  14.650  22.876  1.00  0.00     0.138 A 
ATOM     11  O   UNL     1      42.810  13.779  23.953  1.00  0.00    -0.481 OA
ENDROOT
BRANCH   1  12
ATOM     12  C   UNL     1      43.374  12.037  25.512  1.00  0.00     0.003 A 
ATOM     13  C   UNL     1      42.105  11.472  25.307  1.00  0.00     0.058 A 
ATOM     14  C   UNL     1      41.598  10.519  26.196  1.00  0.00     0.161 A 
ATOM     15  C   UNL     1      44.122  11.652  26.636  1.00  0.00     0.058 A 
ATOM     16  C   UNL     1      42.356  10.127  27.312  1.00  0.00     0.200 A 
ATOM     17  C   UNL     1      43.622  10.699  27.532  1.00  0.00     0.161 A 
BRANCH  14  18
ATOM     18  O   UNL     1      40.336   9.976  25.956  1.00  0.00    -0.504 OA
ATOM     19  H   UNL     1      39.728   9.673  26.706  1.00  0.00     0.293 HD
ENDBRANCH  14  18
BRANCH  16  20
ATOM     20  O   UNL     1      41.844   9.174  28.194  1.00  0.00    -0.502 OA
ATOM     21  H   UNL     1      41.395   9.430  29.065  1.00  0.00     0.293 HD
ENDBRANCH  16  20
BRANCH  17  22
ATOM     22  O   UNL     1      44.376  10.318  28.642  1.00  0.00    -0.504 OA
ATOM     23  H   UNL     1      44.996   9.518  28.613  1.00  0.00     0.293 HD
ENDBRANCH  17  22
ENDBRANCH   1  12
BRANCH   2  24
ATOM     24  O   UNL     1      45.975  11.937  24.053  1.00  0.00    -0.381 OA
ATOM     25  H   UNL     1      45.707  11.223  24.689  1.00  0.00     0.211 HD
ENDBRANCH   2  24
BRANCH   6  26
ATOM     26  O   UNL     1      45.598  15.694  20.391  1.00  0.00    -0.507 OA
ATOM     27  H   UNL     1      45.989  16.575  20.092  1.00  0.00     0.293 HD
ENDBRANCH   6  26
BRANCH   8  28
ATOM     28  O   UNL     1      41.177  17.376  21.169  1.00  0.00    -0.508 OA
ATOM     29  H   UNL     1      41.394  18.269  20.743  1.00  0.00     0.293 HD
ENDBRANCH   8  28
TORSDOF 7
ENDMDL
MODEL 4
REMARK VINA RESULT:    -5.791      3.612      7.013
REMARK INTER + INTRA:          -7.067
REMARK INTER:                  -6.688
REMARK INTRA:                  -0.379
REMARK UNBOUND:                 0.078
REMARK SMILES O=C1c2c(O)cc(O)cc2O[C@@H](c2cc(O)c(O)c(O)c2)[C@@H]1O
REMARK SMILES IDX 12 1 22 2 2 3 1 4 3 5 4 6 6 7 7 8 9 9 10 10 11 11 13 12
REMARK SMILES IDX 14 13 15 14 21 15 17 16 19 17 16 18 18 20 20 22 23 24 5 26
REMARK SMILES IDX 8 28
REMARK H PARENT 16 19 18 21 20 23 23 25 5 27 8 29
REMARK Flexibility Score: inf
ROOT
ATOM      1  C   UNL     1      43.883  12.928  23.887  1.00  0.00     0.240 C 
ATOM      2  C   UNL     1      44.731  12.430  25.074  1.00  0.00     0.231 C 
ATOM      3  C   UNL     1      44.006  11.348  25.842  1.00  0.00     0.202 C 
ATOM      4  O   UNL     1      44.681  10.599  26.596  1.00  0.00    -0.291 OA
ATOM      5  C   UNL     1      42.515  11.290  25.827  1.00  0.00     0.105 A 
ATOM      6  C   UNL     1      41.746  10.336  26.549  1.00  0.00     0.133 A 
ATOM      7  C   UNL     1      40.357  10.490  26.635  1.00  0.00     0.093 A 
ATOM      8  C   UNL     1      39.709  11.537  25.978  1.00  0.00     0.123 A 
ATOM      9  C   UNL     1      40.452  12.439  25.211  1.00  0.00     0.093 A 
ATOM     10  C   UNL     1      41.839  12.307  25.119  1.00  0.00     0.138 A 
ATOM     11  O   UNL     1      42.552  13.205  24.317  1.00  0.00    -0.481 OA
ENDROOT
BRANCH   1  12
ATOM     12  C   UNL     1      44.490  14.164  23.265  1.00  0.00     0.003 A 
ATOM     13  C   UNL     1      44.581  15.354  24.005  1.00  0.00     0.058 A 
ATOM     14  C   UNL     1      45.114  16.511  23.429  1.00  0.00     0.161 A 
ATOM     15  C   UNL     1      44.918  14.154  21.928  1.00  0.00     0.058 A 
ATOM     16  C   UNL     1      45.555  16.494  22.095  1.00  0.00     0.200 A 
ATOM     17  C   UNL     1      45.453  15.310  21.343  1.00  0.00     0.161 A 
BRANCH  14  18
ATOM     18  O   UNL     1      45.194  17.673  24.198  1.00  0.00    -0.504 OA
ATOM     19  H   UNL     1      44.598  17.830  25.001  1.00  0.00     0.293 HD
ENDBRANCH  14  18
BRANCH  16  20
ATOM     20  O   UNL     1      46.087  17.652  21.528  1.00  0.00    -0.502 OA
ATOM     21  H   UNL     1      45.501  18.399  21.175  1.00  0.00     0.293 HD
ENDBRANCH  16  20
BRANCH  17  22
ATOM     22  O   UNL     1      45.883  15.286  20.017  1.00  0.00    -0.504 OA
ATOM     23  H   UNL     1      45.379  14.772  19.304  1.00  0.00     0.293 HD
ENDBRANCH  17  22
ENDBRANCH   1  12
BRANCH   2  24
ATOM     24  O   UNL     1      45.988  11.978  24.635  1.00  0.00    -0.381 OA
ATOM     25  H   UNL     1      46.679  12.423  25.193  1.00  0.00     0.211 HD
ENDBRANCH   2  24
BRANCH   6  26
ATOM     26  O   UNL     1      42.301   9.216  27.173  1.00  0.00    -0.507 OA
ATOM     27  H   UNL     1      43.066   9.256  27.829  1.00  0.00     0.293 HD
ENDBRANCH   6  26
BRANCH   8  28
ATOM     28  O   UNL     1      38.325  11.663  26.081  1.00  0.00    -0.508 OA
ATOM     29  H   UNL     1      37.892  12.076  26.899  1.00  0.00     0.293 HD
ENDBRANCH   8  28
TORSDOF 7
ENDMDL
MODEL 5
REMARK VINA RESULT:    -5.780      2.034      3.243
REMARK INTER + INTRA:          -7.054
REMARK INTER:                  -6.684
REMARK INTRA:                  -0.370
REMARK UNBOUND:                 0.078
REMARK SMILES O=C1c2c(O)cc(O)cc2O[C@@H](c2cc(O)c(O)c(O)c2)[C@@H]1O
REMARK SMILES IDX 12 1 22 2 2 3 1 4 3 5 4 6 6 7 7 8 9 9 10 10 11 11 13 12
REMARK SMILES IDX 14 13 15 14 21 15 17 16 19 17 16 18 18 20 20 22 23 24 5 26
REMARK SMILES IDX 8 28
REMARK H PARENT 16 19 18 21 20 23 23 25 5 27 8 29
REMARK Flexibility Score: inf
ROOT
ATOM      1  C   UNL     1      39.088  11.605  26.796  1.00  0.00     0.240 C 
ATOM      2  C   UNL     1      39.961  10.813  27.791  1.00  0.00     0.231 C 
ATOM      3  C   UNL     1      39.118   9.871  28.621  1.00  0.00     0.202 C 
ATOM      4  O   UNL     1      39.694   8.917  29.207  1.00  0.00    -0.291 OA
ATOM      5  C   UNL     1      37.678  10.173  28.865  1.00  0.00     0.105 A 
ATOM      6  C   UNL     1      36.818   9.369  29.664  1.00  0.00     0.133 A 
ATOM      7  C   UNL     1      35.544   9.843  30.000  1.00  0.00     0.093 A 
ATOM      8  C   UNL     1      35.084  11.069  29.518  1.00  0.00     0.123 A 
ATOM      9  C   UNL     1      35.899  11.833  28.677  1.00  0.00     0.093 A 
ATOM     10  C   UNL     1      37.176  11.382  28.337  1.00  0.00     0.138 A 
ATOM     11  O   UNL     1      37.955  12.152  27.467  1.00  0.00    -0.481 OA
ENDROOT
BRANCH   1  12
ATOM     12  C   UNL     1      39.880  12.711  26.139  1.00  0.00     0.003 A 
ATOM     13  C   UNL     1      40.221  13.863  26.865  1.00  0.00     0.058 A 
ATOM     14  C   UNL     1      40.928  14.905  26.257  1.00  0.00     0.161 A 
ATOM     15  C   UNL     1      40.237  12.625  24.783  1.00  0.00     0.058 A 
ATOM     16  C   UNL     1      41.295  14.809  24.905  1.00  0.00     0.200 A 
ATOM     17  C   UNL     1      40.944  13.665  24.166  1.00  0.00     0.161 A 
BRANCH  14  18
ATOM     18  O   UNL     1      41.255  16.031  27.014  1.00  0.00    -0.504 OA
ATOM     19  H   UNL     1      41.715  16.836  26.610  1.00  0.00     0.293 HD
ENDBRANCH  14  18
BRANCH  16  20
ATOM     20  O   UNL     1      42.002  15.853  24.305  1.00  0.00    -0.502 OA
ATOM     21  H   UNL     1      42.935  16.113  24.601  1.00  0.00     0.293 HD
ENDBRANCH  16  20
BRANCH  17  22
ATOM     22  O   UNL     1      41.300  13.566  22.821  1.00  0.00    -0.504 OA
ATOM     23  H   UNL     1      40.661  13.836  22.082  1.00  0.00     0.293 HD
ENDBRANCH  17  22
ENDBRANCH   1  12
BRANCH   2  24
ATOM     24  O   UNL     1      40.979  10.114  27.116  1.00  0.00    -0.381 OA
ATOM     25  H   UNL     1      40.548   9.388  26.593  1.00  0.00     0.211 HD
ENDBRANCH   2  24
BRANCH   6  26
ATOM     26  O   UNL     1      37.165   8.097  30.125  1.00  0.00    -0.507 OA
ATOM     27  H   UNL     1      36.825   7.237  29.721  1.00  0.00     0.293 HD
ENDBRANCH   6  26
BRANCH   8  28
ATOM     28  O   UNL     1      33.811  11.513  29.869  1.00  0.00    -0.508 OA
ATOM     29  H   UNL     1      32.980  10.997  29.607  1.00  0.00     0.293 HD
ENDBRANCH   8  28
TORSDOF 7
ENDMDL
MODEL 6
REMARK VINA RESULT:    -5.753      3.197      5.763
REMARK INTER + INTRA:          -7.021
REMARK INTER:                  -6.747
REMARK INTRA:                  -0.274
REMARK UNBOUND:                 0.078
REMARK SMILES O=C1c2c(O)cc(O)cc2O[C@@H](c2cc(O)c(O)c(O)c2)[C@@H]1O
REMARK SMILES IDX 12 1 22 2 2 3 1 4 3 5 4 6 6 7 7 8 9 9 10 10 11 11 13 12
REMARK SMILES IDX 14 13 15 14 21 15 17 16 19 17 16 18 18 20 20 22 23 24 5 26
REMARK SMILES IDX 8 28
REMARK H PARENT 16 19 18 21 20 23 23 25 5 27 8 29
REMARK Flexibility Score: inf
ROOT
ATOM      1  C   UNL     1      41.913  14.214  25.179  1.00  0.00     0.240 C 
ATOM      2  C   UNL     1      41.003  15.235  25.890  1.00  0.00     0.231 C 
ATOM      3  C   UNL     1      40.291  14.602  27.065  1.00  0.00     0.202 C 
ATOM      4  O   UNL     1      39.807  15.359  27.947  1.00  0.00    -0.291 OA
ATOM      5  C   UNL     1      40.030  13.133  27.078  1.00  0.00     0.105 A 
ATOM      6  C   UNL     1      39.334  12.455  28.118  1.00  0.00     0.133 A 
ATOM      7  C   UNL     1      38.962  11.117  27.942  1.00  0.00     0.093 A 
ATOM      8  C   UNL     1      39.310  10.422  26.783  1.00  0.00     0.123 A 
ATOM      9  C   UNL     1      40.052  11.062  25.787  1.00  0.00     0.093 A 
ATOM     10  C   UNL     1      40.427  12.399  25.940  1.00  0.00     0.138 A 
ATOM     11  O   UNL     1      41.198  13.003  24.941  1.00  0.00    -0.481 OA
ENDROOT
BRANCH   1  12
ATOM     12  C   UNL     1      42.435  14.768  23.874  1.00  0.00     0.003 A 
ATOM     13  C   UNL     1      43.741  14.472  23.455  1.00  0.00     0.058 A 
ATOM     14  C   UNL     1      44.244  15.003  22.263  1.00  0.00     0.161 A 
ATOM     15  C   UNL     1      41.643  15.626  23.095  1.00  0.00     0.058 A 
ATOM     16  C   UNL     1      43.444  15.850  21.479  1.00  0.00     0.200 A 
ATOM     17  C   UNL     1      42.139  16.163  21.900  1.00  0.00     0.161 A 
BRANCH  14  18
ATOM     18  O   UNL     1      45.545  14.680  21.876  1.00  0.00    -0.504 OA
ATOM     19  H   UNL     1      46.192  15.377  21.528  1.00  0.00     0.293 HD
ENDBRANCH  14  18
BRANCH  16  20
ATOM     20  O   UNL     1      43.952  16.376  20.290  1.00  0.00    -0.502 OA
ATOM     21  H   UNL     1      44.912  16.687  20.203  1.00  0.00     0.293 HD
ENDBRANCH  16  20
BRANCH  17  22
ATOM     22  O   UNL     1      41.341  17.009  21.129  1.00  0.00    -0.504 OA
ATOM     23  H   UNL     1      40.952  17.863  21.509  1.00  0.00     0.293 HD
ENDBRANCH  17  22
ENDBRANCH   1  12
BRANCH   2  24
ATOM     24  O   UNL     1      41.739  16.362  26.298  1.00  0.00    -0.381 OA
ATOM     25  H   UNL     1      42.396  16.061  26.980  1.00  0.00     0.211 HD
ENDBRANCH   2  24
BRANCH   6  26
ATOM     26  O   UNL     1      39.013  13.049  29.340  1.00  0.00    -0.507 OA
ATOM     27  H   UNL     1      38.079  13.322  29.608  1.00  0.00     0.293 HD
ENDBRANCH   6  26
BRANCH   8  28
ATOM     28  O   UNL     1      38.926   9.090  26.637  1.00  0.00    -0.508 OA
ATOM     29  H   UNL     1      38.303   8.644  27.301  1.00  0.00     0.293 HD
ENDBRANCH   8  28
TORSDOF 7
ENDMDL
MODEL 7
REMARK VINA RESULT:    -5.748      2.009      6.948
REMARK INTER + INTRA:          -7.015
REMARK INTER:                  -6.675
REMARK INTRA:                  -0.339
REMARK UNBOUND:                 0.078
REMARK SMILES O=C1c2c(O)cc(O)cc2O[C@@H](c2cc(O)c(O)c(O)c2)[C@@H]1O
REMARK SMILES IDX 12 1 22 2 2 3 1 4 3 5 4 6 6 7 7 8 9 9 10 10 11 11 13 12
REMARK SMILES IDX 14 13 15 14 21 15 17 16 19 17 16 18 18 20 20 22 23 24 5 26
REMARK SMILES IDX 8 28
REMARK H PARENT 16 19 18 21 20 23 23 25 5 27 8 29
REMARK Flexibility Score: inf
ROOT
ATOM      1  C   UNL     1      39.906  11.216  26.707  1.00  0.00     0.240 C 
ATOM      2  C   UNL     1      40.987  10.121  26.608  1.00  0.00     0.231 C 
ATOM      3  C   UNL     1      42.277  10.682  26.052  1.00  0.00     0.202 C 
ATOM      4  O   UNL     1      43.339  10.032  26.240  1.00  0.00    -0.291 OA
ATOM      5  C   UNL     1      42.251  11.882  25.166  1.00  0.00     0.105 A 
ATOM      6  C   UNL     1      43.407  12.455  24.565  1.00  0.00     0.133 A 
ATOM      7  C   UNL     1      43.257  13.449  23.589  1.00  0.00     0.093 A 
ATOM      8  C   UNL     1      41.993  13.924  23.237  1.00  0.00     0.123 A 
ATOM      9  C   UNL     1      40.859  13.412  23.872  1.00  0.00     0.093 A 
ATOM     10  C   UNL     1      40.985  12.415  24.841  1.00  0.00     0.138 A 
ATOM     11  O   UNL     1      39.834  11.946  25.483  1.00  0.00    -0.481 OA
ENDROOT
BRANCH   1  12
ATOM     12  C   UNL     1      38.556  10.620  27.029  1.00  0.00     0.003 A 
ATOM     13  C   UNL     1      38.123   9.457  26.373  1.00  0.00     0.058 A 
ATOM     14  C   UNL     1      36.863   8.914  26.643  1.00  0.00     0.161 A 
ATOM     15  C   UNL     1      37.699  11.249  27.946  1.00  0.00     0.058 A 
ATOM     16  C   UNL     1      36.013   9.539  27.571  1.00  0.00     0.200 A 
ATOM     17  C   UNL     1      36.434  10.712  28.222  1.00  0.00     0.161 A 
BRANCH  14  18
ATOM     18  O   UNL     1      36.471   7.753  25.975  1.00  0.00    -0.504 OA
ATOM     19  H   UNL     1      36.004   7.780  25.078  1.00  0.00     0.293 HD
ENDBRANCH  14  18
BRANCH  16  20
ATOM     20  O   UNL     1      34.758   8.990  27.837  1.00  0.00    -0.502 OA
ATOM     21  H   UNL     1      34.642   8.034  28.150  1.00  0.00     0.293 HD
ENDBRANCH  16  20
BRANCH  17  22
ATOM     22  O   UNL     1      35.593  11.341  29.140  1.00  0.00    -0.504 OA
ATOM     23  H   UNL     1      35.771  11.302  30.136  1.00  0.00     0.293 HD
ENDBRANCH  17  22
ENDBRANCH   1  12
BRANCH   2  24
ATOM     24  O   UNL     1      41.201   9.516  27.859  1.00  0.00    -0.381 OA
ATOM     25  H   UNL     1      41.960   9.986  28.294  1.00  0.00     0.211 HD
ENDBRANCH   2  24
BRANCH   6  26
ATOM     26  O   UNL     1      44.711  12.097  24.912  1.00  0.00    -0.507 OA
ATOM     27  H   UNL     1      45.434  11.878  24.243  1.00  0.00     0.293 HD
ENDBRANCH   6  26
BRANCH   8  28
ATOM     28  O   UNL     1      41.877  14.914  22.263  1.00  0.00    -0.508 OA
ATOM     29  H   UNL     1      41.029  15.460  22.162  1.00  0.00     0.293 HD
ENDBRANCH   8  28
TORSDOF 7
ENDMDL
MODEL 8
REMARK VINA RESULT:    -5.746      3.086      4.903
REMARK INTER + INTRA:          -7.012
REMARK INTER:                  -6.642
REMARK INTRA:                  -0.370
REMARK UNBOUND:                 0.078
REMARK SMILES O=C1c2c(O)cc(O)cc2O[C@@H](c2cc(O)c(O)c(O)c2)[C@@H]1O
REMARK SMILES IDX 12 1 22 2 2 3 1 4 3 5 4 6 6 7 7 8 9 9 10 10 11 11 13 12
REMARK SMILES IDX 14 13 15 14 21 15 17 16 19 17 16 18 18 20 20 22 23 24 5 26
REMARK SMILES IDX 8 28
REMARK H PARENT 16 19 18 21 20 23 23 25 5 27 8 29
REMARK Flexibility Score: inf
ROOT
ATOM      1  C   UNL     1      39.611  15.031  28.213  1.00  0.00     0.240 C 
ATOM      2  C   UNL     1      38.499  16.097  28.265  1.00  0.00     0.231 C 
ATOM      3  C   UNL     1      37.231  15.529  28.862  1.00  0.00     0.202 C 
ATOM      4  O   UNL     1      36.368  16.333  29.302  1.00  0.00    -0.291 OA
ATOM      5  C   UNL     1      36.952  14.066  28.773  1.00  0.00     0.105 A 
ATOM      6  C   UNL     1      35.770  13.447  29.268  1.00  0.00     0.133 A 
ATOM      7  C   UNL     1      35.508  12.108  28.955  1.00  0.00     0.093 A 
ATOM      8  C   UNL     1      36.415  11.355  28.208  1.00  0.00     0.123 A 
ATOM      9  C   UNL     1      37.609  11.938  27.776  1.00  0.00     0.093 A 
ATOM     10  C   UNL     1      37.886  13.274  28.071  1.00  0.00     0.138 A 
ATOM     11  O   UNL     1      39.104  13.821  27.653  1.00  0.00    -0.481 OA
ENDROOT
BRANCH   1  12
ATOM     12  C   UNL     1      40.792  15.516  27.404  1.00  0.00     0.003 A 
ATOM     13  C   UNL     1      40.704  15.596  26.005  1.00  0.00     0.058 A 
ATOM     14  C   UNL     1      41.801  16.016  25.246  1.00  0.00     0.161 A 
ATOM     15  C   UNL     1      42.004  15.839  28.034  1.00  0.00     0.058 A 
ATOM     16  C   UNL     1      43.008  16.352  25.881  1.00  0.00     0.200 A 
ATOM     17  C   UNL     1      43.108  16.260  27.281  1.00  0.00     0.161 A 
BRANCH  14  18
ATOM     18  O   UNL     1      41.672  16.090  23.859  1.00  0.00    -0.504 OA
ATOM     19  H   UNL     1      42.476  16.096  23.243  1.00  0.00     0.293 HD
ENDBRANCH  14  18
BRANCH  16  20
ATOM     20  O   UNL     1      44.097  16.771  25.117  1.00  0.00    -0.502 OA
ATOM     21  H   UNL     1      44.658  16.125  24.574  1.00  0.00     0.293 HD
ENDBRANCH  16  20
BRANCH  17  22
ATOM     22  O   UNL     1      44.305  16.585  27.918  1.00  0.00    -0.504 OA
ATOM     23  H   UNL     1      44.492  17.524  28.249  1.00  0.00     0.293 HD
ENDBRANCH  17  22
ENDBRANCH   1  12
BRANCH   2  24
ATOM     24  O   UNL     1      38.926  17.230  28.980  1.00  0.00    -0.381 OA
ATOM     25  H   UNL     1      39.907  17.149  29.114  1.00  0.00     0.211 HD
ENDBRANCH   2  24
BRANCH   6  26
ATOM     26  O   UNL     1      34.846  14.101  30.086  1.00  0.00    -0.507 OA
ATOM     27  H   UNL     1      34.243  14.848  29.773  1.00  0.00     0.293 HD
ENDBRANCH   6  26
BRANCH   8  28
ATOM     28  O   UNL     1      36.127  10.024  27.913  1.00  0.00    -0.508 OA
ATOM     29  H   UNL     1      35.257   9.758  27.466  1.00  0.00     0.293 HD
ENDBRANCH   8  28
TORSDOF 7
ENDMDL
MODEL 9
REMARK VINA RESULT:    -5.735      3.198      5.930
REMARK INTER + INTRA:          -6.999
REMARK INTER:                  -6.704
REMARK INTRA:                  -0.295
REMARK UNBOUND:                 0.078
REMARK SMILES O=C1c2c(O)cc(O)cc2O[C@@H](c2cc(O)c(O)c(O)c2)[C@@H]1O
REMARK SMILES IDX 12 1 22 2 2 3 1 4 3 5 4 6 6 7 7 8 9 9 10 10 11 11 13 12
REMARK SMILES IDX 14 13 15 14 21 15 17 16 19 17 16 18 18 20 20 22 23 24 5 26
REMARK SMILES IDX 8 28
REMARK H PARENT 16 19 18 21 20 23 23 25 5 27 8 29
REMARK Flexibility Score: inf
ROOT
ATOM      1  C   UNL     1      41.952  14.237  25.232  1.00  0.00     0.240 C 
ATOM      2  C   UNL     1      41.037  15.247  25.953  1.00  0.00     0.231 C 
ATOM      3  C   UNL     1      40.309  14.592  27.106  1.00  0.00     0.202 C 
ATOM      4  O   UNL     1      39.819  15.333  27.998  1.00  0.00    -0.291 OA
ATOM      5  C   UNL     1      40.044  13.124  27.086  1.00  0.00     0.105 A 
ATOM      6  C   UNL     1      39.334  12.428  28.104  1.00  0.00     0.133 A 
ATOM      7  C   UNL     1      38.958  11.095  27.896  1.00  0.00     0.093 A 
ATOM      8  C   UNL     1      39.318  10.422  26.727  1.00  0.00     0.123 A 
ATOM      9  C   UNL     1      40.073  11.081  25.753  1.00  0.00     0.093 A 
ATOM     10  C   UNL     1      40.451  12.412  25.937  1.00  0.00     0.138 A 
ATOM     11  O   UNL     1      41.235  13.034  24.960  1.00  0.00    -0.481 OA
ENDROOT
BRANCH   1  12
ATOM     12  C   UNL     1      42.491  14.815  23.944  1.00  0.00     0.003 A 
ATOM     13  C   UNL     1      41.684  15.644  23.150  1.00  0.00     0.058 A 
ATOM     14  C   UNL     1      42.164  16.160  21.942  1.00  0.00     0.161 A 
ATOM     15  C   UNL     1      43.783  14.488  23.501  1.00  0.00     0.058 A 
ATOM     16  C   UNL     1      43.461  15.842  21.508  1.00  0.00     0.200 A 
ATOM     17  C   UNL     1      44.271  15.000  22.291  1.00  0.00     0.161 A 
BRANCH  14  18
ATOM     18  O   UNL     1      41.334  16.987  21.184  1.00  0.00    -0.504 OA
ATOM     19  H   UNL     1      40.427  17.291  21.516  1.00  0.00     0.293 HD
ENDBRANCH  14  18
BRANCH  16  20
ATOM     20  O   UNL     1      43.934  16.362  20.303  1.00  0.00    -0.502 OA
ATOM     21  H   UNL     1      43.518  17.175  19.865  1.00  0.00     0.293 HD
ENDBRANCH  16  20
BRANCH  17  22
ATOM     22  O   UNL     1      45.558  14.674  21.864  1.00  0.00    -0.504 OA
ATOM     23  H   UNL     1      46.367  14.825  22.454  1.00  0.00     0.293 HD
ENDBRANCH  17  22
ENDBRANCH   1  12
BRANCH   2  24
ATOM     24  O   UNL     1      41.773  16.362  26.392  1.00  0.00    -0.381 OA
ATOM     25  H   UNL     1      42.447  16.571  25.694  1.00  0.00     0.211 HD
ENDBRANCH   2  24
BRANCH   6  26
ATOM     26  O   UNL     1      39.000  12.998  29.334  1.00  0.00    -0.507 OA
ATOM     27  H   UNL     1      38.064  13.269  29.597  1.00  0.00     0.293 HD
ENDBRANCH   6  26
BRANCH   8  28
ATOM     28  O   UNL     1      38.930   9.096  26.550  1.00  0.00    -0.508 OA
ATOM     29  H   UNL     1      39.249   8.364  27.174  1.00  0.00     0.293 HD
ENDBRANCH   8  28
TORSDOF 7
ENDMDL
