MODEL 1
REMARK VINA RESULT:    -3.935      0.000      0.000
REMARK INTER + INTRA:          -1.169
REMARK INTER:                  -4.856
REMARK INTRA:                   3.687
REMARK UNBOUND:                 3.687
REMARK SMILES C=C1CC[C@H]2[C@H]([C@@H]3[C@H](C)CC[C@H]13)C2(C)C
REMARK SMILES IDX 3 1 2 2 1 3 12 4 9 5 8 6 10 7 7 8 11 9 4 11 5 12 6 13 13 14
REMARK SMILES IDX 14 16 15 17
REMARK H PARENT
REMARK Flexibility Score: 80.00
ROOT
ATOM      1  C   UNL     1     163.272 169.216 198.549  1.00  0.00     0.031 C 
ENDROOT
BRANCH   1   2
ATOM      2  C   UNL     1     164.241 168.270 197.833  1.00  0.00    -0.074 C 
ATOM      3  C   UNL     1     163.743 167.409 196.930  1.00  0.00     0.008 C 
BRANCH   2   4
ATOM      4  C   UNL     1     165.739 168.204 198.198  1.00  0.00     0.018 C 
ATOM      5  C   UNL     1     167.966 168.436 201.296  1.00  0.00     0.008 C 
ATOM      6  C   UNL     1     167.502 168.317 199.838  1.00  0.00    -0.010 C 
ATOM      7  C   UNL     1     167.514 169.654 199.096  1.00  0.00     0.004 C 
ATOM      8  C   UNL     1     166.087 167.754 199.643  1.00  0.00     0.003 CG0
ATOM      9  C   UNL     1     166.482 169.531 197.973  1.00  0.00     0.008 C 
ATOM     10  G   UNL     1     165.081 168.347 200.656  1.00  0.00     0.000 G0
ENDBRANCH   2   4
ENDBRANCH   1   2
BRANCH   1  11
ATOM     11  C   UNL     1     162.722 168.637 199.879  1.00  0.00     0.009 C 
BRANCH  11  12
ATOM     12  C   UNL     1     163.703 167.632 200.500  1.00  0.00    -0.001 C 
ATOM     13  C   UNL     1     165.062 168.353 200.670  1.00  0.00     0.002 CG0
ATOM     14  C   UNL     1     164.384 167.688 201.866  1.00  0.00    -0.029 C 
ATOM     15  G   UNL     1     166.058 167.732 199.663  1.00  0.00     0.000 G0
ATOM     16  C   UNL     1     164.960 166.365 202.382  1.00  0.00     0.011 C 
ATOM     17  C   UNL     1     163.754 168.620 202.909  1.00  0.00     0.011 C 
ENDBRANCH  11  12
ENDBRANCH   1  11
TORSDOF 0
ENDMDL
MODEL 2
REMARK VINA RESULT:    -3.836      1.718      3.532
REMARK INTER + INTRA:          -1.046
REMARK INTER:                  -4.883
REMARK INTRA:                   3.838
REMARK UNBOUND:                 3.687
REMARK SMILES C=C1CC[C@H]2[C@H]([C@@H]3[C@H](C)CC[C@H]13)C2(C)C
REMARK SMILES IDX 3 1 2 2 1 3 12 4 9 5 8 6 10 7 7 8 11 9 4 11 5 12 6 13 13 14
REMARK SMILES IDX 14 16 15 17
REMARK H PARENT
REMARK Flexibility Score: 80.00
ROOT
ATOM      1  C   UNL     1     168.548 169.706 198.534  1.00  0.00     0.031 C 
ENDROOT
BRANCH   1   2
ATOM      2  C   UNL     1     168.887 168.265 198.141  1.00  0.00    -0.074 C 
ATOM      3  C   UNL     1     169.209 168.011 196.862  1.00  0.00     0.008 C 
BRANCH   2   4
ATOM      4  C   UNL     1     168.763 167.094 199.140  1.00  0.00     0.018 C 
ATOM      5  C   UNL     1     166.543 166.017 202.059  1.00  0.00     0.008 C 
ATOM      6  C   UNL     1     167.670 166.050 201.017  1.00  0.00    -0.010 C 
ATOM      7  C   UNL     1     168.963 166.663 201.555  1.00  0.00     0.004 C 
ATOM      8  C   UNL     1     167.352 166.828 199.731  1.00  0.00     0.003 CG0
ATOM      9  C   UNL     1     169.715 167.212 200.341  1.00  0.00     0.008 C 
ATOM     10  G   UNL     1     166.623 168.160 200.024  1.00  0.00     0.000 G0
ENDBRANCH   2   4
ENDBRANCH   1   2
BRANCH   1  11
ATOM     11  C   UNL     1     167.036 170.033 198.416  1.00  0.00     0.009 C 
BRANCH  11  12
ATOM     12  C   UNL     1     166.173 168.790 198.674  1.00  0.00    -0.001 C 
ATOM     13  C   UNL     1     166.630 168.178 200.022  1.00  0.00     0.002 CG0
ATOM     14  C   UNL     1     165.165 168.549 199.796  1.00  0.00    -0.029 C 
ATOM     15  G   UNL     1     167.338 166.838 199.719  1.00  0.00     0.000 G0
ATOM     16  C   UNL     1     164.160 167.416 199.561  1.00  0.00     0.011 C 
ATOM     17  C   UNL     1     164.646 169.791 200.531  1.00  0.00     0.011 C 
ENDBRANCH  11  12
ENDBRANCH   1  11
TORSDOF 0
ENDMDL
MODEL 3
REMARK VINA RESULT:    -3.754      4.153      5.275
REMARK INTER + INTRA:          -0.945
REMARK INTER:                  -4.692
REMARK INTRA:                   3.748
REMARK UNBOUND:                 3.687
REMARK SMILES C=C1CC[C@H]2[C@H]([C@@H]3[C@H](C)CC[C@H]13)C2(C)C
REMARK SMILES IDX 3 1 2 2 1 3 12 4 9 5 8 6 10 7 7 8 11 9 4 11 5 12 6 13 13 14
REMARK SMILES IDX 14 16 15 17
REMARK H PARENT
REMARK Flexibility Score: 80.00
ROOT
ATOM      1  C   UNL     1     164.792 162.398 198.848  1.00  0.00     0.031 C 
ENDROOT
BRANCH   1   2
ATOM      2  C   UNL     1     165.163 162.878 197.441  1.00  0.00    -0.074 C 
ATOM      3  C   UNL     1     165.139 161.987 196.436  1.00  0.00     0.008 C 
BRANCH   2   4
ATOM      4  C   UNL     1     165.664 164.313 197.171  1.00  0.00     0.018 C 
ATOM      5  C   UNL     1     167.845 166.968 198.845  1.00  0.00     0.008 C 
ATOM      6  C   UNL     1     166.908 166.260 197.857  1.00  0.00    -0.010 C 
ATOM      7  C   UNL     1     165.434 166.582 198.096  1.00  0.00     0.004 C 
ATOM      8  C   UNL     1     166.997 164.727 197.853  1.00  0.00     0.003 CG0
ATOM      9  C   UNL     1     164.639 165.397 197.541  1.00  0.00     0.008 C 
ATOM     10  G   UNL     1     167.081 164.146 199.283  1.00  0.00     0.000 G0
ENDBRANCH   2   4
ENDBRANCH   1   2
BRANCH   1  11
ATOM     11  C   UNL     1     166.018 161.951 199.685  1.00  0.00     0.009 C 
BRANCH  11  12
ATOM     12  C   UNL     1     167.308 162.622 199.191  1.00  0.00    -0.001 C 
ATOM     13  C   UNL     1     167.106 164.153 199.293  1.00  0.00     0.002 CG0
ATOM     14  C   UNL     1     168.295 163.482 199.978  1.00  0.00    -0.029 C 
ATOM     15  G   UNL     1     167.018 164.718 197.856  1.00  0.00     0.000 G0
ATOM     16  C   UNL     1     169.683 163.653 199.349  1.00  0.00     0.011 C 
ATOM     17  C   UNL     1     168.238 163.367 201.506  1.00  0.00     0.011 C 
ENDBRANCH  11  12
ENDBRANCH   1  11
TORSDOF 0
ENDMDL
MODEL 4
REMARK VINA RESULT:    -3.687      4.429      5.191
REMARK INTER + INTRA:          -0.862
REMARK INTER:                  -4.695
REMARK INTRA:                   3.834
REMARK UNBOUND:                 3.687
REMARK SMILES C=C1CC[C@H]2[C@H]([C@@H]3[C@H](C)CC[C@H]13)C2(C)C
REMARK SMILES IDX 3 1 2 2 1 3 12 4 9 5 8 6 10 7 7 8 11 9 4 11 5 12 6 13 13 14
REMARK SMILES IDX 14 16 15 17
REMARK H PARENT
REMARK Flexibility Score: 80.00
ROOT
ATOM      1  C   UNL     1     164.456 164.138 199.145  1.00  0.00     0.031 C 
ENDROOT
BRANCH   1   2
ATOM      2  C   UNL     1     165.177 162.791 199.037  1.00  0.00    -0.074 C 
ATOM      3  C   UNL     1     164.579 161.800 198.355  1.00  0.00     0.008 C 
BRANCH   2   4
ATOM      4  C   UNL     1     166.504 162.511 199.774  1.00  0.00     0.018 C 
ATOM      5  C   UNL     1     168.222 163.424 203.064  1.00  0.00     0.008 C 
ATOM      6  C   UNL     1     167.956 162.841 201.669  1.00  0.00    -0.010 C 
ATOM      7  C   UNL     1     168.510 163.713 200.542  1.00  0.00     0.004 C 
ATOM      8  C   UNL     1     166.477 162.616 201.324  1.00  0.00     0.003 CG0
ATOM      9  C   UNL     1     167.664 163.404 199.305  1.00  0.00     0.008 C 
ATOM     10  G   UNL     1     165.588 163.798 201.775  1.00  0.00     0.000 G0
ENDBRANCH   2   4
ENDBRANCH   1   2
BRANCH   1  11
ATOM     11  C   UNL     1     163.577 164.262 200.417  1.00  0.00     0.009 C 
BRANCH  11  12
ATOM     12  C   UNL     1     164.110 163.378 201.553  1.00  0.00    -0.001 C 
ATOM     13  C   UNL     1     165.584 163.783 201.806  1.00  0.00     0.002 CG0
ATOM     14  C   UNL     1     164.570 163.797 202.949  1.00  0.00    -0.029 C 
ATOM     15  G   UNL     1     166.483 162.616 201.336  1.00  0.00     0.000 G0
ATOM     16  C   UNL     1     164.642 162.679 203.995  1.00  0.00     0.011 C 
ATOM     17  C   UNL     1     164.103 165.173 203.440  1.00  0.00     0.011 C 
ENDBRANCH  11  12
ENDBRANCH   1  11
TORSDOF 0
ENDMDL
MODEL 5
REMARK VINA RESULT:    -3.667      3.857      6.022
REMARK INTER + INTRA:          -0.837
REMARK INTER:                  -4.624
REMARK INTRA:                   3.786
REMARK UNBOUND:                 3.687
REMARK SMILES C=C1CC[C@H]2[C@H]([C@@H]3[C@H](C)CC[C@H]13)C2(C)C
REMARK SMILES IDX 3 1 2 2 1 3 12 4 9 5 8 6 10 7 7 8 11 9 4 11 5 12 6 13 13 14
REMARK SMILES IDX 14 16 15 17
REMARK H PARENT
REMARK Flexibility Score: 80.00
ROOT
ATOM      1  C   UNL     1     168.266 167.832 201.259  1.00  0.00     0.031 C 
ENDROOT
BRANCH   1   2
ATOM      2  C   UNL     1     168.493 167.004 202.527  1.00  0.00    -0.074 C 
ATOM      3  C   UNL     1     169.433 167.412 203.396  1.00  0.00     0.008 C 
BRANCH   2   4
ATOM      4  C   UNL     1     167.758 165.670 202.776  1.00  0.00     0.018 C 
ATOM      5  C   UNL     1     166.459 162.677 200.784  1.00  0.00     0.008 C 
ATOM      6  C   UNL     1     166.766 163.637 201.942  1.00  0.00    -0.010 C 
ATOM      7  C   UNL     1     165.610 164.588 202.251  1.00  0.00     0.004 C 
ATOM      8  C   UNL     1     167.994 164.538 201.739  1.00  0.00     0.003 CG0
ATOM      9  C   UNL     1     166.234 165.826 202.900  1.00  0.00     0.008 C 
ATOM     10  G   UNL     1     168.059 165.117 200.306  1.00  0.00     0.000 G0
ENDBRANCH   2   4
ENDBRANCH   1   2
BRANCH   1  11
ATOM     11  C   UNL     1     169.131 167.364 200.060  1.00  0.00     0.009 C 
BRANCH  11  12
ATOM     12  C   UNL     1     169.422 165.858 200.133  1.00  0.00    -0.001 C 
ATOM     13  C   UNL     1     168.066 165.129 200.293  1.00  0.00     0.002 CG0
ATOM     14  C   UNL     1     169.013 164.761 199.152  1.00  0.00    -0.029 C 
ATOM     15  G   UNL     1     168.009 164.539 201.722  1.00  0.00     0.000 G0
ATOM     16  C   UNL     1     169.793 163.445 199.255  1.00  0.00     0.011 C 
ATOM     17  C   UNL     1     168.607 165.216 197.745  1.00  0.00     0.011 C 
ENDBRANCH  11  12
ENDBRANCH   1  11
TORSDOF 0
ENDMDL
MODEL 6
REMARK VINA RESULT:    -3.634      2.018      4.409
REMARK INTER + INTRA:          -0.797
REMARK INTER:                  -4.579
REMARK INTRA:                   3.782
REMARK UNBOUND:                 3.687
REMARK SMILES C=C1CC[C@H]2[C@H]([C@@H]3[C@H](C)CC[C@H]13)C2(C)C
REMARK SMILES IDX 3 1 2 2 1 3 12 4 9 5 8 6 10 7 7 8 11 9 4 11 5 12 6 13 13 14
REMARK SMILES IDX 14 16 15 17
REMARK H PARENT
REMARK Flexibility Score: 80.00
ROOT
ATOM      1  C   UNL     1     169.450 166.487 200.310  1.00  0.00     0.031 C 
ENDROOT
BRANCH   1   2
ATOM      2  C   UNL     1     168.900 167.370 201.434  1.00  0.00    -0.074 C 
ATOM      3  C   UNL     1     169.393 167.208 202.673  1.00  0.00     0.008 C 
BRANCH   2   4
ATOM      4  C   UNL     1     167.730 168.352 201.206  1.00  0.00     0.018 C 
ATOM      5  C   UNL     1     164.472 168.543 199.217  1.00  0.00     0.008 C 
ATOM      6  C   UNL     1     165.650 168.916 200.127  1.00  0.00    -0.010 C 
ATOM      7  C   UNL     1     166.742 169.700 199.399  1.00  0.00     0.004 C 
ATOM      8  C   UNL     1     166.369 167.731 200.789  1.00  0.00     0.003 CG0
ATOM      9  C   UNL     1     168.041 169.441 200.166  1.00  0.00     0.008 C 
ATOM     10  G   UNL     1     166.583 166.559 199.804  1.00  0.00     0.000 G0
ENDBRANCH   2   4
ENDBRANCH   1   2
BRANCH   1  11
ATOM     11  C   UNL     1     168.625 165.192 200.090  1.00  0.00     0.009 C 
BRANCH  11  12
ATOM     12  C   UNL     1     167.176 165.363 200.569  1.00  0.00    -0.001 C 
ATOM     13  C   UNL     1     166.565 166.552 199.787  1.00  0.00     0.002 CG0
ATOM     14  C   UNL     1     165.884 165.184 199.774  1.00  0.00    -0.029 C 
ATOM     15  G   UNL     1     166.357 167.717 200.782  1.00  0.00     0.000 G0
ATOM     16  C   UNL     1     164.607 165.002 200.602  1.00  0.00     0.011 C 
ATOM     17  C   UNL     1     165.985 164.375 198.474  1.00  0.00     0.011 C 
ENDBRANCH  11  12
ENDBRANCH   1  11
TORSDOF 0
ENDMDL
MODEL 7
REMARK VINA RESULT:    -3.621      1.497      2.217
REMARK INTER + INTRA:          -0.780
REMARK INTER:                  -4.622
REMARK INTRA:                   3.841
REMARK UNBOUND:                 3.687
REMARK SMILES C=C1CC[C@H]2[C@H]([C@@H]3[C@H](C)CC[C@H]13)C2(C)C
REMARK SMILES IDX 3 1 2 2 1 3 12 4 9 5 8 6 10 7 7 8 11 9 4 11 5 12 6 13 13 14
REMARK SMILES IDX 14 16 15 17
REMARK H PARENT
REMARK Flexibility Score: 80.00
ROOT
ATOM      1  C   UNL     1     164.855 170.099 200.732  1.00  0.00     0.031 C 
ENDROOT
BRANCH   1   2
ATOM      2  C   UNL     1     164.723 169.389 199.382  1.00  0.00    -0.074 C 
ATOM      3  C   UNL     1     163.492 169.095 198.933  1.00  0.00     0.008 C 
BRANCH   2   4
ATOM      4  C   UNL     1     165.955 168.909 198.585  1.00  0.00     0.018 C 
ATOM      5  C   UNL     1     169.447 167.501 199.246  1.00  0.00     0.008 C 
ATOM      6  C   UNL     1     168.205 168.046 198.527  1.00  0.00    -0.010 C 
ATOM      7  C   UNL     1     168.305 169.538 198.211  1.00  0.00     0.004 C 
ATOM      8  C   UNL     1     166.880 167.876 199.285  1.00  0.00     0.003 CG0
ATOM      9  C   UNL     1     166.868 170.056 198.122  1.00  0.00     0.008 C 
ATOM     10  G   UNL     1     167.025 168.206 200.789  1.00  0.00     0.000 G0
ENDBRANCH   2   4
ENDBRANCH   1   2
BRANCH   1  11
ATOM     11  C   UNL     1     165.009 169.120 201.926  1.00  0.00     0.009 C 
BRANCH  11  12
ATOM     12  C   UNL     1     165.698 167.818 201.496  1.00  0.00    -0.001 C 
ATOM     13  C   UNL     1     167.027 168.202 200.801  1.00  0.00     0.002 CG0
ATOM     14  C   UNL     1     167.024 167.237 201.986  1.00  0.00    -0.029 C 
ATOM     15  G   UNL     1     166.888 167.875 199.296  1.00  0.00     0.000 G0
ATOM     16  C   UNL     1     167.246 165.747 201.706  1.00  0.00     0.011 C 
ATOM     17  C   UNL     1     167.559 167.778 203.318  1.00  0.00     0.011 C 
ENDBRANCH  11  12
ENDBRANCH   1  11
TORSDOF 0
ENDMDL
MODEL 8
REMARK VINA RESULT:    -3.610      4.052      5.767
REMARK INTER + INTRA:          -0.767
REMARK INTER:                  -4.576
REMARK INTRA:                   3.810
REMARK UNBOUND:                 3.687
REMARK SMILES C=C1CC[C@H]2[C@H]([C@@H]3[C@H](C)CC[C@H]13)C2(C)C
REMARK SMILES IDX 3 1 2 2 1 3 12 4 9 5 8 6 10 7 7 8 11 9 4 11 5 12 6 13 13 14
REMARK SMILES IDX 14 16 15 17
REMARK H PARENT
REMARK Flexibility Score: 80.00
ROOT
ATOM      1  C   UNL     1     167.399 161.876 200.235  1.00  0.00     0.031 C 
ENDROOT
BRANCH   1   2
ATOM      2  C   UNL     1     167.564 162.835 199.053  1.00  0.00    -0.074 C 
ATOM      3  C   UNL     1     168.798 163.275 198.755  1.00  0.00     0.008 C 
BRANCH   2   4
ATOM      4  C   UNL     1     166.352 163.389 198.273  1.00  0.00     0.018 C 
ATOM      5  C   UNL     1     162.767 164.529 198.946  1.00  0.00     0.008 C 
ATOM      6  C   UNL     1     164.069 164.159 198.223  1.00  0.00    -0.010 C 
ATOM      7  C   UNL     1     164.058 162.736 197.665  1.00  0.00     0.004 C 
ATOM      8  C   UNL     1     165.343 164.255 199.075  1.00  0.00     0.003 CG0
ATOM      9  C   UNL     1     165.522 162.297 197.578  1.00  0.00     0.008 C 
ATOM     10  G   UNL     1     165.137 163.679 200.495  1.00  0.00     0.000 G0
ENDBRANCH   2   4
ENDBRANCH   1   2
BRANCH   1  11
ATOM     11  C   UNL     1     167.077 162.599 201.569  1.00  0.00     0.009 C 
BRANCH  11  12
ATOM     12  C   UNL     1     166.409 163.959 201.322  1.00  0.00    -0.001 C 
ATOM     13  C   UNL     1     165.119 163.702 200.505  1.00  0.00     0.002 CG0
ATOM     14  C   UNL     1     165.059 164.462 201.829  1.00  0.00    -0.029 C 
ATOM     15  G   UNL     1     165.337 164.268 199.083  1.00  0.00     0.000 G0
ATOM     16  C   UNL     1     164.849 165.979 201.784  1.00  0.00     0.011 C 
ATOM     17  C   UNL     1     164.455 163.716 203.026  1.00  0.00     0.011 C 
ENDBRANCH  11  12
ENDBRANCH   1  11
TORSDOF 0
ENDMDL
MODEL 9
REMARK VINA RESULT:    -3.547      3.605      4.894
REMARK INTER + INTRA:          -0.689
REMARK INTER:                  -4.507
REMARK INTRA:                   3.817
REMARK UNBOUND:                 3.687
REMARK SMILES C=C1CC[C@H]2[C@H]([C@@H]3[C@H](C)CC[C@H]13)C2(C)C
REMARK SMILES IDX 3 1 2 2 1 3 12 4 9 5 8 6 10 7 7 8 11 9 4 11 5 12 6 13 13 14
REMARK SMILES IDX 14 16 15 17
REMARK H PARENT
REMARK Flexibility Score: 80.00
ROOT
ATOM      1  C   UNL     1     163.148 162.620 199.061  1.00  0.00     0.031 C 
ENDROOT
BRANCH   1   2
ATOM      2  C   UNL     1     163.065 163.956 198.317  1.00  0.00    -0.074 C 
ATOM      3  C   UNL     1     162.750 163.941 197.012  1.00  0.00     0.008 C 
BRANCH   2   4
ATOM      4  C   UNL     1     163.436 165.293 198.993  1.00  0.00     0.018 C 
ATOM      5  C   UNL     1     165.961 166.640 201.528  1.00  0.00     0.008 C 
ATOM      6  C   UNL     1     164.789 166.553 200.540  1.00  0.00    -0.010 C 
ATOM      7  C   UNL     1     163.444 166.324 201.228  1.00  0.00     0.004 C 
ATOM      8  C   UNL     1     164.902 165.444 199.484  1.00  0.00     0.003 CG0
ATOM      9  C   UNL     1     162.545 165.638 200.197  1.00  0.00     0.008 C 
ATOM     10  G   UNL     1     165.414 164.116 200.088  1.00  0.00     0.000 G0
ENDBRANCH   2   4
ENDBRANCH   1   2
BRANCH   1  11
ATOM     11  C   UNL     1     164.577 162.017 199.077  1.00  0.00     0.009 C 
BRANCH  11  12
ATOM     12  C   UNL     1     165.647 163.109 198.943  1.00  0.00    -0.001 C 
ATOM     13  C   UNL     1     165.430 164.117 200.099  1.00  0.00     0.002 CG0
ATOM     14  C   UNL     1     166.788 163.445 199.902  1.00  0.00    -0.029 C 
ATOM     15  G   UNL     1     164.916 165.440 199.484  1.00  0.00     0.000 G0
ATOM     16  C   UNL     1     167.931 164.282 199.316  1.00  0.00     0.011 C 
ATOM     17  C   UNL     1     167.175 162.361 200.916  1.00  0.00     0.011 C 
ENDBRANCH  11  12
ENDBRANCH   1  11
TORSDOF 0
ENDMDL
