MODEL 1
REMARK VINA RESULT:    -3.825      0.000      0.000
REMARK INTER + INTRA:          -4.923
REMARK INTER:                  -4.608
REMARK INTRA:                  -0.315
REMARK UNBOUND:                -0.315
REMARK SMILES O=c1c(O)c(-c2ccc(O)c(O)c2)oc2cc(O)cc(O)c12
REMARK SMILES IDX 5 1 3 2 2 3 1 4 22 5 20 6 19 7 17 8 16 9 15 10 14 11 6 12
REMARK SMILES IDX 7 13 8 14 9 15 13 16 11 17 10 18 12 20 4 22 21 24 18 26
REMARK H PARENT 10 19 12 21 4 23 21 25 18 27
REMARK Flexibility Score: inf
ROOT
ATOM      1  C   UNL     1     -17.064  29.586  15.378  1.00  0.00     0.180 A 
ATOM      2  C   UNL     1     -17.056  28.201  15.617  1.00  0.00     0.208 A 
ATOM      3  C   UNL     1     -18.273  27.544  15.857  1.00  0.00     0.238 A 
ATOM      4  O   UNL     1     -18.255  26.314  16.125  1.00  0.00    -0.285 OA
ATOM      5  C   UNL     1     -19.485  28.276  15.838  1.00  0.00     0.111 A 
ATOM      6  C   UNL     1     -20.780  27.707  16.029  1.00  0.00     0.134 A 
ATOM      7  C   UNL     1     -21.896  28.547  16.119  1.00  0.00     0.093 A 
ATOM      8  C   UNL     1     -21.774  29.929  15.962  1.00  0.00     0.123 A 
ATOM      9  C   UNL     1     -20.521  30.488  15.716  1.00  0.00     0.094 A 
ATOM     10  C   UNL     1     -19.384  29.681  15.656  1.00  0.00     0.146 A 
ATOM     11  O   UNL     1     -18.209  30.255  15.432  1.00  0.00    -0.452 OA
ENDROOT
BRANCH   1  12
ATOM     12  C   UNL     1     -15.823  30.343  15.092  1.00  0.00     0.025 A 
ATOM     13  C   UNL     1     -15.109  30.989  16.113  1.00  0.00     0.016 A 
ATOM     14  C   UNL     1     -13.929  31.677  15.823  1.00  0.00     0.051 A 
ATOM     15  C   UNL     1     -13.433  31.723  14.516  1.00  0.00     0.157 A 
ATOM     16  C   UNL     1     -15.316  30.370  13.783  1.00  0.00     0.062 A 
ATOM     17  C   UNL     1     -14.133  31.058  13.483  1.00  0.00     0.158 A 
BRANCH  15  18
ATOM     18  O   UNL     1     -12.251  32.432  14.292  1.00  0.00    -0.504 OA
ATOM     19  H   UNL     1     -11.459  32.064  13.785  1.00  0.00     0.293 HD
ENDBRANCH  15  18
BRANCH  17  20
ATOM     20  O   UNL     1     -13.696  31.052  12.157  1.00  0.00    -0.504 OA
ATOM     21  H   UNL     1     -13.141  30.313  11.749  1.00  0.00     0.293 HD
ENDBRANCH  17  20
ENDBRANCH   1  12
BRANCH   2  22
ATOM     22  O   UNL     1     -15.846  27.500  15.653  1.00  0.00    -0.502 OA
ATOM     23  H   UNL     1     -15.121  27.703  16.330  1.00  0.00     0.293 HD
ENDBRANCH   2  22
BRANCH   6  24
ATOM     24  O   UNL     1     -21.024  26.333  16.105  1.00  0.00    -0.507 OA
ATOM     25  H   UNL     1     -21.937  25.918  16.216  1.00  0.00     0.293 HD
ENDBRANCH   6  24
BRANCH   8  26
ATOM     26  O   UNL     1     -22.893  30.756  16.038  1.00  0.00    -0.508 OA
ATOM     27  H   UNL     1     -23.612  30.611  16.737  1.00  0.00     0.293 HD
ENDBRANCH   8  26
TORSDOF 6
ENDMDL
MODEL 2
REMARK VINA RESULT:    -3.786      3.457      5.964
REMARK INTER + INTRA:          -4.876
REMARK INTER:                  -5.139
REMARK INTRA:                   0.263
REMARK UNBOUND:                -0.315
REMARK SMILES O=c1c(O)c(-c2ccc(O)c(O)c2)oc2cc(O)cc(O)c12
REMARK SMILES IDX 5 1 3 2 2 3 1 4 22 5 20 6 19 7 17 8 16 9 15 10 14 11 6 12
REMARK SMILES IDX 7 13 8 14 9 15 13 16 11 17 10 18 12 20 4 22 21 24 18 26
REMARK H PARENT 10 19 12 21 4 23 21 25 18 27
REMARK Flexibility Score: inf
ROOT
ATOM      1  C   UNL     1     -13.923  30.466  11.450  1.00  0.00     0.180 A 
ATOM      2  C   UNL     1     -13.004  29.501  11.898  1.00  0.00     0.208 A 
ATOM      3  C   UNL     1     -13.219  28.880  13.139  1.00  0.00     0.238 A 
ATOM      4  O   UNL     1     -12.365  28.057  13.560  1.00  0.00    -0.285 OA
ATOM      5  C   UNL     1     -14.358  29.219  13.909  1.00  0.00     0.111 A 
ATOM      6  C   UNL     1     -14.697  28.625  15.162  1.00  0.00     0.134 A 
ATOM      7  C   UNL     1     -15.776  29.131  15.896  1.00  0.00     0.093 A 
ATOM      8  C   UNL     1     -16.568  30.166  15.394  1.00  0.00     0.123 A 
ATOM      9  C   UNL     1     -16.281  30.712  14.145  1.00  0.00     0.094 A 
ATOM     10  C   UNL     1     -15.190  30.254  13.405  1.00  0.00     0.146 A 
ATOM     11  O   UNL     1     -14.945  30.809  12.224  1.00  0.00    -0.452 OA
ENDROOT
BRANCH   1  12
ATOM     12  C   UNL     1     -13.777  31.145  10.142  1.00  0.00     0.025 A 
ATOM     13  C   UNL     1     -12.514  31.391   9.583  1.00  0.00     0.016 A 
ATOM     14  C   UNL     1     -12.402  32.011   8.337  1.00  0.00     0.051 A 
ATOM     15  C   UNL     1     -13.544  32.385   7.621  1.00  0.00     0.157 A 
ATOM     16  C   UNL     1     -14.925  31.499   9.415  1.00  0.00     0.062 A 
ATOM     17  C   UNL     1     -14.823  32.122   8.165  1.00  0.00     0.158 A 
BRANCH  15  18
ATOM     18  O   UNL     1     -13.363  33.006   6.383  1.00  0.00    -0.504 OA
ATOM     19  H   UNL     1     -13.828  32.718   5.533  1.00  0.00     0.293 HD
ENDBRANCH  15  18
BRANCH  17  20
ATOM     20  O   UNL     1     -16.007  32.457   7.506  1.00  0.00    -0.504 OA
ATOM     21  H   UNL     1     -16.085  33.204   6.830  1.00  0.00     0.293 HD
ENDBRANCH  17  20
ENDBRANCH   1  12
BRANCH   2  22
ATOM     22  O   UNL     1     -11.875  29.196  11.133  1.00  0.00    -0.502 OA
ATOM     23  H   UNL     1     -11.807  29.427  10.149  1.00  0.00     0.293 HD
ENDBRANCH   2  22
BRANCH   6  24
ATOM     24  O   UNL     1     -14.029  27.527  15.710  1.00  0.00    -0.507 OA
ATOM     25  H   UNL     1     -14.463  26.645  15.937  1.00  0.00     0.293 HD
ENDBRANCH   6  24
BRANCH   8  26
ATOM     26  O   UNL     1     -17.650  30.653  16.125  1.00  0.00    -0.508 OA
ATOM     27  H   UNL     1     -18.202  31.437  15.796  1.00  0.00     0.293 HD
ENDBRANCH   8  26
TORSDOF 6
ENDMDL
MODEL 3
REMARK VINA RESULT:    -3.509      2.108      7.142
REMARK INTER + INTRA:          -4.543
REMARK INTER:                  -4.994
REMARK INTRA:                   0.451
REMARK UNBOUND:                -0.315
REMARK SMILES O=c1c(O)c(-c2ccc(O)c(O)c2)oc2cc(O)cc(O)c12
REMARK SMILES IDX 5 1 3 2 2 3 1 4 22 5 20 6 19 7 17 8 16 9 15 10 14 11 6 12
REMARK SMILES IDX 7 13 8 14 9 15 13 16 11 17 10 18 12 20 4 22 21 24 18 26
REMARK H PARENT 10 19 12 21 4 23 21 25 18 27
REMARK Flexibility Score: inf
ROOT
ATOM      1  C   UNL     1     -16.967  29.408  15.748  1.00  0.00     0.180 A 
ATOM      2  C   UNL     1     -16.279  30.631  15.833  1.00  0.00     0.208 A 
ATOM      3  C   UNL     1     -14.883  30.639  15.687  1.00  0.00     0.238 A 
ATOM      4  O   UNL     1     -14.267  31.728  15.819  1.00  0.00    -0.285 OA
ATOM      5  C   UNL     1     -14.193  29.427  15.441  1.00  0.00     0.111 A 
ATOM      6  C   UNL     1     -12.784  29.323  15.236  1.00  0.00     0.134 A 
ATOM      7  C   UNL     1     -12.194  28.058  15.131  1.00  0.00     0.093 A 
ATOM      8  C   UNL     1     -12.969  26.896  15.158  1.00  0.00     0.123 A 
ATOM      9  C   UNL     1     -14.352  26.991  15.297  1.00  0.00     0.094 A 
ATOM     10  C   UNL     1     -14.966  28.236  15.440  1.00  0.00     0.146 A 
ATOM     11  O   UNL     1     -16.285  28.281  15.582  1.00  0.00    -0.452 OA
ENDROOT
BRANCH   1  12
ATOM     12  C   UNL     1     -18.441  29.323  15.867  1.00  0.00     0.025 A 
ATOM     13  C   UNL     1     -19.237  30.477  15.927  1.00  0.00     0.016 A 
ATOM     14  C   UNL     1     -20.627  30.371  16.015  1.00  0.00     0.051 A 
ATOM     15  C   UNL     1     -21.248  29.118  16.031  1.00  0.00     0.157 A 
ATOM     16  C   UNL     1     -19.063  28.065  15.860  1.00  0.00     0.062 A 
ATOM     17  C   UNL     1     -20.456  27.949  15.948  1.00  0.00     0.158 A 
BRANCH  15  18
ATOM     18  O   UNL     1     -22.641  29.082  16.125  1.00  0.00    -0.504 OA
ATOM     19  H   UNL     1     -23.263  29.543  15.476  1.00  0.00     0.293 HD
ENDBRANCH  15  18
BRANCH  17  20
ATOM     20  O   UNL     1     -21.004  26.665  15.949  1.00  0.00    -0.504 OA
ATOM     21  H   UNL     1     -20.455  25.817  15.983  1.00  0.00     0.293 HD
ENDBRANCH  17  20
ENDBRANCH   1  12
BRANCH   2  22
ATOM     22  O   UNL     1     -16.977  31.813  16.098  1.00  0.00    -0.502 OA
ATOM     23  H   UNL     1     -16.828  32.354  16.941  1.00  0.00     0.293 HD
ENDBRANCH   2  22
BRANCH   6  24
ATOM     24  O   UNL     1     -11.932  30.423  15.102  1.00  0.00    -0.507 OA
ATOM     25  H   UNL     1     -11.728  31.084  15.837  1.00  0.00     0.293 HD
ENDBRANCH   6  24
BRANCH   8  26
ATOM     26  O   UNL     1     -12.374  25.642  15.036  1.00  0.00    -0.508 OA
ATOM     27  H   UNL     1     -12.842  24.878  14.563  1.00  0.00     0.293 HD
ENDBRANCH   8  26
TORSDOF 6
ENDMDL
MODEL 4
REMARK VINA RESULT:    -3.354      4.439      6.966
REMARK INTER + INTRA:          -4.355
REMARK INTER:                  -4.546
REMARK INTRA:                   0.191
REMARK UNBOUND:                -0.315
REMARK SMILES O=c1c(O)c(-c2ccc(O)c(O)c2)oc2cc(O)cc(O)c12
REMARK SMILES IDX 5 1 3 2 2 3 1 4 22 5 20 6 19 7 17 8 16 9 15 10 14 11 6 12
REMARK SMILES IDX 7 13 8 14 9 15 13 16 11 17 10 18 12 20 4 22 21 24 18 26
REMARK H PARENT 10 19 12 21 4 23 21 25 18 27
REMARK Flexibility Score: inf
ROOT
ATOM      1  C   UNL     1     -13.790  30.524  11.407  1.00  0.00     0.180 A 
ATOM      2  C   UNL     1     -14.817  30.985  12.248  1.00  0.00     0.208 A 
ATOM      3  C   UNL     1     -15.046  30.329  13.468  1.00  0.00     0.238 A 
ATOM      4  O   UNL     1     -16.002  30.711  14.191  1.00  0.00    -0.285 OA
ATOM      5  C   UNL     1     -14.233  29.230  13.839  1.00  0.00     0.111 A 
ATOM      6  C   UNL     1     -14.349  28.516  15.070  1.00  0.00     0.134 A 
ATOM      7  C   UNL     1     -13.579  27.365  15.274  1.00  0.00     0.093 A 
ATOM      8  C   UNL     1     -12.651  26.939  14.321  1.00  0.00     0.123 A 
ATOM      9  C   UNL     1     -12.488  27.664  13.143  1.00  0.00     0.094 A 
ATOM     10  C   UNL     1     -13.267  28.796  12.894  1.00  0.00     0.146 A 
ATOM     11  O   UNL     1     -13.089  29.451  11.753  1.00  0.00    -0.452 OA
ENDROOT
BRANCH   1  12
ATOM     12  C   UNL     1     -13.473  31.180  10.117  1.00  0.00     0.025 A 
ATOM     13  C   UNL     1     -12.148  31.326   9.678  1.00  0.00     0.016 A 
ATOM     14  C   UNL     1     -11.875  31.927   8.447  1.00  0.00     0.051 A 
ATOM     15  C   UNL     1     -12.915  32.380   7.628  1.00  0.00     0.157 A 
ATOM     16  C   UNL     1     -14.518  31.613   9.287  1.00  0.00     0.062 A 
ATOM     17  C   UNL     1     -14.254  32.217   8.051  1.00  0.00     0.158 A 
BRANCH  15  18
ATOM     18  O   UNL     1     -12.574  32.976   6.411  1.00  0.00    -0.504 OA
ATOM     19  H   UNL     1     -12.817  33.923   6.159  1.00  0.00     0.293 HD
ENDBRANCH  15  18
BRANCH  17  20
ATOM     20  O   UNL     1     -15.344  32.636   7.285  1.00  0.00    -0.504 OA
ATOM     21  H   UNL     1     -15.491  33.589   6.985  1.00  0.00     0.293 HD
ENDBRANCH  17  20
ENDBRANCH   1  12
BRANCH   2  22
ATOM     22  O   UNL     1     -15.622  32.058  11.852  1.00  0.00    -0.502 OA
ATOM     23  H   UNL     1     -16.614  31.957  11.679  1.00  0.00     0.293 HD
ENDBRANCH   2  22
BRANCH   6  24
ATOM     24  O   UNL     1     -15.177  28.908  16.125  1.00  0.00    -0.507 OA
ATOM     25  H   UNL     1     -15.154  28.510  17.052  1.00  0.00     0.293 HD
ENDBRANCH   6  24
BRANCH   8  26
ATOM     26  O   UNL     1     -11.877  25.801  14.540  1.00  0.00    -0.508 OA
ATOM     27  H   UNL     1     -12.241  24.871  14.366  1.00  0.00     0.293 HD
ENDBRANCH   8  26
TORSDOF 6
ENDMDL
MODEL 5
REMARK VINA RESULT:    -3.243      1.659      3.202
REMARK INTER + INTRA:          -4.222
REMARK INTER:                  -4.602
REMARK INTRA:                   0.380
REMARK UNBOUND:                -0.315
REMARK SMILES O=c1c(O)c(-c2ccc(O)c(O)c2)oc2cc(O)cc(O)c12
REMARK SMILES IDX 5 1 3 2 2 3 1 4 22 5 20 6 19 7 17 8 16 9 15 10 14 11 6 12
REMARK SMILES IDX 7 13 8 14 9 15 13 16 11 17 10 18 12 20 4 22 21 24 18 26
REMARK H PARENT 10 19 12 21 4 23 21 25 18 27
REMARK Flexibility Score: inf
ROOT
ATOM      1  C   UNL     1     -16.963  29.374  15.733  1.00  0.00     0.180 A 
ATOM      2  C   UNL     1     -18.168  30.095  15.783  1.00  0.00     0.208 A 
ATOM      3  C   UNL     1     -19.383  29.390  15.817  1.00  0.00     0.238 A 
ATOM      4  O   UNL     1     -20.460  30.040  15.807  1.00  0.00    -0.285 OA
ATOM      5  C   UNL     1     -19.376  27.974  15.818  1.00  0.00     0.111 A 
ATOM      6  C   UNL     1     -20.544  27.158  15.891  1.00  0.00     0.134 A 
ATOM      7  C   UNL     1     -20.426  25.770  15.753  1.00  0.00     0.093 A 
ATOM      8  C   UNL     1     -19.176  25.163  15.609  1.00  0.00     0.123 A 
ATOM      9  C   UNL     1     -18.024  25.947  15.597  1.00  0.00     0.094 A 
ATOM     10  C   UNL     1     -18.113  27.337  15.696  1.00  0.00     0.146 A 
ATOM     11  O   UNL     1     -16.992  28.048  15.668  1.00  0.00    -0.452 OA
ENDROOT
BRANCH   1  12
ATOM     12  C   UNL     1     -15.643  30.046  15.720  1.00  0.00     0.025 A 
ATOM     13  C   UNL     1     -15.499  31.383  16.121  1.00  0.00     0.016 A 
ATOM     14  C   UNL     1     -14.241  31.988  16.123  1.00  0.00     0.051 A 
ATOM     15  C   UNL     1     -13.103  31.270  15.739  1.00  0.00     0.157 A 
ATOM     16  C   UNL     1     -14.500  29.317  15.355  1.00  0.00     0.062 A 
ATOM     17  C   UNL     1     -13.233  29.916  15.354  1.00  0.00     0.158 A 
BRANCH  15  18
ATOM     18  O   UNL     1     -11.875  31.935  15.759  1.00  0.00    -0.504 OA
ATOM     19  H   UNL     1     -11.702  32.814  15.292  1.00  0.00     0.293 HD
ENDBRANCH  15  18
BRANCH  17  20
ATOM     20  O   UNL     1     -12.144  29.133  14.967  1.00  0.00    -0.504 OA
ATOM     21  H   UNL     1     -12.001  28.789  14.027  1.00  0.00     0.293 HD
ENDBRANCH  17  20
ENDBRANCH   1  12
BRANCH   2  22
ATOM     22  O   UNL     1     -18.153  31.492  15.760  1.00  0.00    -0.502 OA
ATOM     23  H   UNL     1     -18.899  32.037  15.343  1.00  0.00     0.293 HD
ENDBRANCH   2  22
BRANCH   6  24
ATOM     24  O   UNL     1     -21.830  27.654  16.125  1.00  0.00    -0.507 OA
ATOM     25  H   UNL     1     -22.520  27.821  15.408  1.00  0.00     0.293 HD
ENDBRANCH   6  24
BRANCH   8  26
ATOM     26  O   UNL     1     -19.066  23.779  15.488  1.00  0.00    -0.508 OA
ATOM     27  H   UNL     1     -19.336  23.159  16.243  1.00  0.00     0.293 HD
ENDBRANCH   8  26
TORSDOF 6
ENDMDL
MODEL 6
REMARK VINA RESULT:    -2.907      4.800      7.259
REMARK INTER + INTRA:          -3.817
REMARK INTER:                  -3.663
REMARK INTRA:                  -0.155
REMARK UNBOUND:                -0.315
REMARK SMILES O=c1c(O)c(-c2ccc(O)c(O)c2)oc2cc(O)cc(O)c12
REMARK SMILES IDX 5 1 3 2 2 3 1 4 22 5 20 6 19 7 17 8 16 9 15 10 14 11 6 12
REMARK SMILES IDX 7 13 8 14 9 15 13 16 11 17 10 18 12 20 4 22 21 24 18 26
REMARK H PARENT 10 19 12 21 4 23 21 25 18 27
REMARK Flexibility Score: inf
ROOT
ATOM      1  C   UNL     1     -13.152  31.003  11.252  1.00  0.00     0.180 A 
ATOM      2  C   UNL     1     -12.476  31.654  12.299  1.00  0.00     0.208 A 
ATOM      3  C   UNL     1     -12.450  31.056  13.569  1.00  0.00     0.238 A 
ATOM      4  O   UNL     1     -11.891  31.669  14.515  1.00  0.00    -0.285 OA
ATOM      5  C   UNL     1     -13.085  29.807  13.772  1.00  0.00     0.111 A 
ATOM      6  C   UNL     1     -13.087  29.090  15.007  1.00  0.00     0.134 A 
ATOM      7  C   UNL     1     -13.857  27.927  15.128  1.00  0.00     0.093 A 
ATOM      8  C   UNL     1     -14.573  27.419  14.042  1.00  0.00     0.123 A 
ATOM      9  C   UNL     1     -14.529  28.080  12.816  1.00  0.00     0.094 A 
ATOM     10  C   UNL     1     -13.799  29.261  12.673  1.00  0.00     0.146 A 
ATOM     11  O   UNL     1     -13.793  29.865  11.491  1.00  0.00    -0.452 OA
ENDROOT
BRANCH   1  12
ATOM     12  C   UNL     1     -13.202  31.559   9.880  1.00  0.00     0.025 A 
ATOM     13  C   UNL     1     -12.032  31.769   9.134  1.00  0.00     0.016 A 
ATOM     14  C   UNL     1     -12.105  32.272   7.833  1.00  0.00     0.051 A 
ATOM     15  C   UNL     1     -13.343  32.563   7.249  1.00  0.00     0.157 A 
ATOM     16  C   UNL     1     -14.446  31.829   9.289  1.00  0.00     0.062 A 
ATOM     17  C   UNL     1     -14.530  32.335   7.985  1.00  0.00     0.158 A 
BRANCH  15  18
ATOM     18  O   UNL     1     -13.347  33.068   5.947  1.00  0.00    -0.504 OA
ATOM     19  H   UNL     1     -14.180  33.368   5.460  1.00  0.00     0.293 HD
ENDBRANCH  15  18
BRANCH  17  20
ATOM     20  O   UNL     1     -15.800  32.592   7.467  1.00  0.00    -0.504 OA
ATOM     21  H   UNL     1     -16.658  32.456   7.983  1.00  0.00     0.293 HD
ENDBRANCH  17  20
ENDBRANCH   1  12
BRANCH   2  22
ATOM     22  O   UNL     1     -11.875  32.897  12.082  1.00  0.00    -0.502 OA
ATOM     23  H   UNL     1     -11.461  33.153  11.194  1.00  0.00     0.293 HD
ENDBRANCH   2  22
BRANCH   6  24
ATOM     24  O   UNL     1     -12.334  29.459  16.125  1.00  0.00    -0.507 OA
ATOM     25  H   UNL     1     -12.314  28.952  16.997  1.00  0.00     0.293 HD
ENDBRANCH   6  24
BRANCH   8  26
ATOM     26  O   UNL     1     -15.324  26.252  14.167  1.00  0.00    -0.508 OA
ATOM     27  H   UNL     1     -14.899  25.377  14.451  1.00  0.00     0.293 HD
ENDBRANCH   8  26
TORSDOF 6
ENDMDL
MODEL 7
REMARK VINA RESULT:    -2.884      1.623      6.760
REMARK INTER + INTRA:          -3.789
REMARK INTER:                  -4.332
REMARK INTRA:                   0.543
REMARK UNBOUND:                -0.315
REMARK SMILES O=c1c(O)c(-c2ccc(O)c(O)c2)oc2cc(O)cc(O)c12
REMARK SMILES IDX 5 1 3 2 2 3 1 4 22 5 20 6 19 7 17 8 16 9 15 10 14 11 6 12
REMARK SMILES IDX 7 13 8 14 9 15 13 16 11 17 10 18 12 20 4 22 21 24 18 26
REMARK H PARENT 10 19 12 21 4 23 21 25 18 27
REMARK Flexibility Score: inf
ROOT
ATOM      1  C   UNL     1     -16.955  29.112  15.851  1.00  0.00     0.180 A 
ATOM      2  C   UNL     1     -16.284  27.893  15.656  1.00  0.00     0.208 A 
ATOM      3  C   UNL     1     -14.880  27.888  15.603  1.00  0.00     0.238 A 
ATOM      4  O   UNL     1     -14.287  26.802  15.374  1.00  0.00    -0.285 OA
ATOM      5  C   UNL     1     -14.165  29.099  15.763  1.00  0.00     0.111 A 
ATOM      6  C   UNL     1     -12.742  29.206  15.768  1.00  0.00     0.134 A 
ATOM      7  C   UNL     1     -12.145  30.472  15.803  1.00  0.00     0.093 A 
ATOM      8  C   UNL     1     -12.918  31.632  15.898  1.00  0.00     0.123 A 
ATOM      9  C   UNL     1     -14.307  31.534  15.955  1.00  0.00     0.094 A 
ATOM     10  C   UNL     1     -14.933  30.288  15.886  1.00  0.00     0.146 A 
ATOM     11  O   UNL     1     -16.258  30.240  15.931  1.00  0.00    -0.452 OA
ENDROOT
BRANCH   1  12
ATOM     12  C   UNL     1     -18.431  29.194  15.942  1.00  0.00     0.025 A 
ATOM     13  C   UNL     1     -19.092  30.430  16.003  1.00  0.00     0.016 A 
ATOM     14  C   UNL     1     -20.486  30.482  16.065  1.00  0.00     0.051 A 
ATOM     15  C   UNL     1     -21.246  29.307  16.054  1.00  0.00     0.157 A 
ATOM     16  C   UNL     1     -19.191  28.014  15.909  1.00  0.00     0.062 A 
ATOM     17  C   UNL     1     -20.590  28.056  15.971  1.00  0.00     0.158 A 
BRANCH  15  18
ATOM     18  O   UNL     1     -22.635  29.428  16.123  1.00  0.00    -0.504 OA
ATOM     19  H   UNL     1     -23.116  30.061  16.746  1.00  0.00     0.293 HD
ENDBRANCH  15  18
BRANCH  17  20
ATOM     20  O   UNL     1     -21.280  26.843  15.946  1.00  0.00    -0.504 OA
ATOM     21  H   UNL     1     -22.285  26.766  15.876  1.00  0.00     0.293 HD
ENDBRANCH  17  20
ENDBRANCH   1  12
BRANCH   2  22
ATOM     22  O   UNL     1     -17.010  26.711  15.479  1.00  0.00    -0.502 OA
ATOM     23  H   UNL     1     -16.836  26.077  14.708  1.00  0.00     0.293 HD
ENDBRANCH   2  22
BRANCH   6  24
ATOM     24  O   UNL     1     -11.877  28.108  15.768  1.00  0.00    -0.507 OA
ATOM     25  H   UNL     1     -11.022  28.051  16.301  1.00  0.00     0.293 HD
ENDBRANCH   6  24
BRANCH   8  26
ATOM     26  O   UNL     1     -12.315  32.887  15.948  1.00  0.00    -0.508 OA
ATOM     27  H   UNL     1     -12.848  33.737  15.802  1.00  0.00     0.293 HD
ENDBRANCH   8  26
TORSDOF 6
ENDMDL
MODEL 8
REMARK VINA RESULT:    -2.602      1.849      6.841
REMARK INTER + INTRA:          -3.450
REMARK INTER:                  -3.822
REMARK INTRA:                   0.372
REMARK UNBOUND:                -0.315
REMARK SMILES O=c1c(O)c(-c2ccc(O)c(O)c2)oc2cc(O)cc(O)c12
REMARK SMILES IDX 5 1 3 2 2 3 1 4 22 5 20 6 19 7 17 8 16 9 15 10 14 11 6 12
REMARK SMILES IDX 7 13 8 14 9 15 13 16 11 17 10 18 12 20 4 22 21 24 18 26
REMARK H PARENT 10 19 12 21 4 23 21 25 18 27
REMARK Flexibility Score: inf
ROOT
ATOM      1  C   UNL     1     -16.895  27.924  15.450  1.00  0.00     0.180 A 
ATOM      2  C   UNL     1     -15.822  27.135  15.000  1.00  0.00     0.208 A 
ATOM      3  C   UNL     1     -14.546  27.712  14.901  1.00  0.00     0.238 A 
ATOM      4  O   UNL     1     -13.601  27.016  14.446  1.00  0.00    -0.285 OA
ATOM      5  C   UNL     1     -14.354  29.066  15.269  1.00  0.00     0.111 A 
ATOM      6  C   UNL     1     -13.097  29.742  15.247  1.00  0.00     0.134 A 
ATOM      7  C   UNL     1     -13.049  31.117  15.507  1.00  0.00     0.093 A 
ATOM      8  C   UNL     1     -14.201  31.826  15.852  1.00  0.00     0.123 A 
ATOM      9  C   UNL     1     -15.423  31.163  15.935  1.00  0.00     0.094 A 
ATOM     10  C   UNL     1     -15.510  29.800  15.646  1.00  0.00     0.146 A 
ATOM     11  O   UNL     1     -16.696  29.208  15.725  1.00  0.00    -0.452 OA
ENDROOT
BRANCH   1  12
ATOM     12  C   UNL     1     -18.263  27.380  15.605  1.00  0.00     0.025 A 
ATOM     13  C   UNL     1     -18.496  25.998  15.679  1.00  0.00     0.016 A 
ATOM     14  C   UNL     1     -19.793  25.509  15.848  1.00  0.00     0.051 A 
ATOM     15  C   UNL     1     -20.877  26.386  15.961  1.00  0.00     0.157 A 
ATOM     16  C   UNL     1     -19.347  28.262  15.740  1.00  0.00     0.062 A 
ATOM     17  C   UNL     1     -20.651  27.781  15.910  1.00  0.00     0.158 A 
BRANCH  15  18
ATOM     18  O   UNL     1     -22.149  25.832  16.125  1.00  0.00    -0.504 OA
ATOM     19  H   UNL     1     -22.387  24.881  15.880  1.00  0.00     0.293 HD
ENDBRANCH  15  18
BRANCH  17  20
ATOM     20  O   UNL     1     -21.681  28.717  16.025  1.00  0.00    -0.504 OA
ATOM     21  H   UNL     1     -21.939  29.169  16.890  1.00  0.00     0.293 HD
ENDBRANCH  17  20
ENDBRANCH   1  12
BRANCH   2  22
ATOM     22  O   UNL     1     -16.037  25.807  14.622  1.00  0.00    -0.502 OA
ATOM     23  H   UNL     1     -15.301  25.112  14.634  1.00  0.00     0.293 HD
ENDBRANCH   2  22
BRANCH   6  24
ATOM     24  O   UNL     1     -11.875  29.109  15.005  1.00  0.00    -0.507 OA
ATOM     25  H   UNL     1     -11.279  28.719  15.720  1.00  0.00     0.293 HD
ENDBRANCH   6  24
BRANCH   8  26
ATOM     26  O   UNL     1     -14.141  33.192  16.125  1.00  0.00    -0.508 OA
ATOM     27  H   UNL     1     -14.415  33.564  17.027  1.00  0.00     0.293 HD
ENDBRANCH   8  26
TORSDOF 6
ENDMDL
