MODEL 1
REMARK VINA RESULT:    -4.480      0.000      0.000
REMARK INTER + INTRA:          -4.840
REMARK INTER:                  -4.742
REMARK INTRA:                  -0.098
REMARK UNBOUND:                -0.098
REMARK SMILES C=C(C)[C@@H]1CC=C(C)C(=O)C1
REMARK SMILES IDX 8 1 7 2 6 3 5 4 4 5 11 6 9 7 10 8 2 9 1 10 3 11
REMARK H PARENT
REMARK Flexibility Score: inf
ROOT
ATOM      1  C   UNL     1       9.593  65.599 -29.858  1.00  0.00     0.048 C 
ATOM      2  C   UNL     1      10.990  66.106 -29.624  1.00  0.00    -0.012 C 
ATOM      3  C   UNL     1      11.220  67.013 -28.660  1.00  0.00    -0.019 C 
ATOM      4  C   UNL     1      12.600  67.541 -28.373  1.00  0.00     0.036 C 
ATOM      5  C   UNL     1      13.448  67.603 -29.657  1.00  0.00     0.025 C 
ATOM      6  C   UNL     1      13.481  66.227 -30.345  1.00  0.00     0.089 C 
ATOM      7  C   UNL     1      12.087  65.699 -30.538  1.00  0.00     0.158 C 
ATOM      8  O   UNL     1      11.865  64.875 -31.466  1.00  0.00    -0.295 OA
ENDROOT
BRANCH   5   9
ATOM      9  C   UNL     1      14.853  68.118 -29.374  1.00  0.00    -0.077 C 
ATOM     10  C   UNL     1      15.878  67.257 -29.273  1.00  0.00     0.008 C 
ATOM     11  C   UNL     1      15.130  69.591 -29.198  1.00  0.00     0.039 C 
ENDBRANCH   5   9
TORSDOF 1
ENDMDL
MODEL 2
REMARK VINA RESULT:    -4.431      2.242      4.369
REMARK INTER + INTRA:          -4.788
REMARK INTER:                  -4.690
REMARK INTRA:                  -0.098
REMARK UNBOUND:                -0.098
REMARK SMILES C=C(C)[C@@H]1CC=C(C)C(=O)C1
REMARK SMILES IDX 8 1 7 2 6 3 5 4 4 5 11 6 9 7 10 8 2 9 1 10 3 11
REMARK H PARENT
REMARK Flexibility Score: inf
ROOT
ATOM      1  C   UNL     1      14.153  71.166 -27.805  1.00  0.00     0.048 C 
ATOM      2  C   UNL     1      13.984  69.764 -28.326  1.00  0.00    -0.012 C 
ATOM      3  C   UNL     1      15.025  69.131 -28.893  1.00  0.00    -0.019 C 
ATOM      4  C   UNL     1      14.914  67.723 -29.414  1.00  0.00     0.036 C 
ATOM      5  C   UNL     1      13.500  67.441 -29.955  1.00  0.00     0.025 C 
ATOM      6  C   UNL     1      12.444  67.748 -28.878  1.00  0.00     0.089 C 
ATOM      7  C   UNL     1      12.640  69.133 -28.325  1.00  0.00     0.158 C 
ATOM      8  O   UNL     1      11.655  69.740 -27.826  1.00  0.00    -0.295 OA
ENDROOT
BRANCH   5   9
ATOM      9  C   UNL     1      13.373  66.013 -30.467  1.00  0.00    -0.077 C 
ATOM     10  C   UNL     1      14.318  65.105 -30.173  1.00  0.00     0.008 C 
ATOM     11  C   UNL     1      12.198  65.582 -31.311  1.00  0.00     0.039 C 
ENDBRANCH   5   9
TORSDOF 1
ENDMDL
MODEL 3
REMARK VINA RESULT:    -4.292      2.300      3.941
REMARK INTER + INTRA:          -4.641
REMARK INTER:                  -4.546
REMARK INTRA:                  -0.096
REMARK UNBOUND:                -0.098
REMARK SMILES C=C(C)[C@@H]1CC=C(C)C(=O)C1
REMARK SMILES IDX 8 1 7 2 6 3 5 4 4 5 11 6 9 7 10 8 2 9 1 10 3 11
REMARK H PARENT
REMARK Flexibility Score: inf
ROOT
ATOM      1  C   UNL     1      14.858  66.064 -29.769  1.00  0.00     0.048 C 
ATOM      2  C   UNL     1      14.354  67.413 -29.334  1.00  0.00    -0.012 C 
ATOM      3  C   UNL     1      15.224  68.414 -29.116  1.00  0.00    -0.019 C 
ATOM      4  C   UNL     1      14.773  69.787 -28.696  1.00  0.00     0.036 C 
ATOM      5  C   UNL     1      13.507  69.711 -27.821  1.00  0.00     0.025 C 
ATOM      6  C   UNL     1      12.399  68.931 -28.550  1.00  0.00     0.089 C 
ATOM      7  C   UNL     1      12.914  67.600 -29.026  1.00  0.00     0.158 C 
ATOM      8  O   UNL     1      12.101  66.652 -29.195  1.00  0.00    -0.295 OA
ENDROOT
BRANCH   5   9
ATOM      9  C   UNL     1      13.031  71.097 -27.407  1.00  0.00    -0.077 C 
ATOM     10  C   UNL     1      13.924  72.059 -27.125  1.00  0.00     0.008 C 
ATOM     11  C   UNL     1      11.562  71.425 -27.302  1.00  0.00     0.039 C 
ENDBRANCH   5   9
TORSDOF 1
ENDMDL
MODEL 4
REMARK VINA RESULT:    -4.165      8.115     10.449
REMARK INTER + INTRA:          -4.507
REMARK INTER:                  -4.411
REMARK INTRA:                  -0.096
REMARK UNBOUND:                -0.098
REMARK SMILES C=C(C)[C@@H]1CC=C(C)C(=O)C1
REMARK SMILES IDX 8 1 7 2 6 3 5 4 4 5 11 6 9 7 10 8 2 9 1 10 3 11
REMARK H PARENT
REMARK Flexibility Score: inf
ROOT
ATOM      1  C   UNL     1      14.450  79.189 -25.878  1.00  0.00     0.048 C 
ATOM      2  C   UNL     1      14.158  77.720 -25.734  1.00  0.00    -0.012 C 
ATOM      3  C   UNL     1      14.663  77.036 -24.694  1.00  0.00    -0.019 C 
ATOM      4  C   UNL     1      14.388  75.569 -24.493  1.00  0.00     0.036 C 
ATOM      5  C   UNL     1      14.233  74.844 -25.843  1.00  0.00     0.025 C 
ATOM      6  C   UNL     1      13.152  75.529 -26.698  1.00  0.00     0.089 C 
ATOM      7  C   UNL     1      13.418  77.005 -26.805  1.00  0.00     0.158 C 
ATOM      8  O   UNL     1      12.974  77.639 -27.799  1.00  0.00    -0.295 OA
ENDROOT
BRANCH   5   9
ATOM      9  C   UNL     1      13.936  73.364 -25.650  1.00  0.00    -0.077 C 
ATOM     10  C   UNL     1      13.747  72.570 -26.716  1.00  0.00     0.008 C 
ATOM     11  C   UNL     1      13.843  72.754 -24.272  1.00  0.00     0.039 C 
ENDBRANCH   5   9
TORSDOF 1
ENDMDL
MODEL 5
REMARK VINA RESULT:    -4.165     18.084     19.354
REMARK INTER + INTRA:          -4.506
REMARK INTER:                  -4.408
REMARK INTRA:                  -0.098
REMARK UNBOUND:                -0.098
REMARK SMILES C=C(C)[C@@H]1CC=C(C)C(=O)C1
REMARK SMILES IDX 8 1 7 2 6 3 5 4 4 5 11 6 9 7 10 8 2 9 1 10 3 11
REMARK H PARENT
REMARK Flexibility Score: inf
ROOT
ATOM      1  C   UNL     1       4.003  80.964 -16.657  1.00  0.00     0.048 C 
ATOM      2  C   UNL     1       4.360  79.506 -16.543  1.00  0.00    -0.012 C 
ATOM      3  C   UNL     1       3.392  78.594 -16.346  1.00  0.00    -0.019 C 
ATOM      4  C   UNL     1       3.692  77.123 -16.241  1.00  0.00     0.036 C 
ATOM      5  C   UNL     1       5.070  76.881 -15.599  1.00  0.00     0.025 C 
ATOM      6  C   UNL     1       6.162  77.645 -16.370  1.00  0.00     0.089 C 
ATOM      7  C   UNL     1       5.786  79.093 -16.524  1.00  0.00     0.158 C 
ATOM      8  O   UNL     1       6.696  79.952 -16.673  1.00  0.00    -0.295 OA
ENDROOT
BRANCH   5   9
ATOM      9  C   UNL     1       5.390  75.395 -15.507  1.00  0.00    -0.077 C 
ATOM     10  C   UNL     1       4.499  74.487 -15.934  1.00  0.00     0.008 C 
ATOM     11  C   UNL     1       6.701  74.908 -14.939  1.00  0.00     0.039 C 
ENDBRANCH   5   9
TORSDOF 1
ENDMDL
MODEL 6
REMARK VINA RESULT:    -4.150     17.549     19.133
REMARK INTER + INTRA:          -4.490
REMARK INTER:                  -4.394
REMARK INTRA:                  -0.096
REMARK UNBOUND:                -0.098
REMARK SMILES C=C(C)[C@@H]1CC=C(C)C(=O)C1
REMARK SMILES IDX 8 1 7 2 6 3 5 4 4 5 11 6 9 7 10 8 2 9 1 10 3 11
REMARK H PARENT
REMARK Flexibility Score: inf
ROOT
ATOM      1  C   UNL     1      -1.231  79.830 -22.267  1.00  0.00     0.048 C 
ATOM      2  C   UNL     1      -0.822  78.456 -21.809  1.00  0.00    -0.012 C 
ATOM      3  C   UNL     1      -1.195  77.376 -22.518  1.00  0.00    -0.019 C 
ATOM      4  C   UNL     1      -0.799  75.981 -22.115  1.00  0.00     0.036 C 
ATOM      5  C   UNL     1      -0.697  75.854 -20.583  1.00  0.00     0.025 C 
ATOM      6  C   UNL     1       0.264  76.918 -20.021  1.00  0.00     0.089 C 
ATOM      7  C   UNL     1      -0.117  78.287 -20.514  1.00  0.00     0.158 C 
ATOM      8  O   UNL     1       0.202  79.297 -19.830  1.00  0.00    -0.295 OA
ENDROOT
BRANCH   5   9
ATOM      9  C   UNL     1      -0.278  74.451 -20.166  1.00  0.00    -0.077 C 
ATOM     10  C   UNL     1      -0.084  74.163 -18.870  1.00  0.00     0.008 C 
ATOM     11  C   UNL     1      -0.069  73.358 -21.186  1.00  0.00     0.039 C 
ENDBRANCH   5   9
TORSDOF 1
ENDMDL
MODEL 7
REMARK VINA RESULT:    -4.108     18.000     19.304
REMARK INTER + INTRA:          -4.446
REMARK INTER:                  -4.348
REMARK INTRA:                  -0.098
REMARK UNBOUND:                -0.098
REMARK SMILES C=C(C)[C@@H]1CC=C(C)C(=O)C1
REMARK SMILES IDX 8 1 7 2 6 3 5 4 4 5 11 6 9 7 10 8 2 9 1 10 3 11
REMARK H PARENT
REMARK Flexibility Score: inf
ROOT
ATOM      1  C   UNL     1       6.662  74.927 -15.126  1.00  0.00     0.048 C 
ATOM      2  C   UNL     1       5.814  76.118 -15.481  1.00  0.00    -0.012 C 
ATOM      3  C   UNL     1       4.498  76.106 -15.214  1.00  0.00    -0.019 C 
ATOM      4  C   UNL     1       3.607  77.277 -15.533  1.00  0.00     0.036 C 
ATOM      5  C   UNL     1       4.094  78.016 -16.794  1.00  0.00     0.025 C 
ATOM      6  C   UNL     1       5.568  78.430 -16.636  1.00  0.00     0.089 C 
ATOM      7  C   UNL     1       6.409  77.250 -16.237  1.00  0.00     0.158 C 
ATOM      8  O   UNL     1       7.637  77.246 -16.520  1.00  0.00    -0.295 OA
ENDROOT
BRANCH   5   9
ATOM      9  C   UNL     1       3.210  79.215 -17.113  1.00  0.00    -0.077 C 
ATOM     10  C   UNL     1       3.631  80.457 -16.828  1.00  0.00     0.008 C 
ATOM     11  C   UNL     1       1.853  79.043 -17.750  1.00  0.00     0.039 C 
ENDBRANCH   5   9
TORSDOF 1
ENDMDL
MODEL 8
REMARK VINA RESULT:    -4.103     18.292     19.211
REMARK INTER + INTRA:          -4.441
REMARK INTER:                  -4.353
REMARK INTRA:                  -0.088
REMARK UNBOUND:                -0.098
REMARK SMILES C=C(C)[C@@H]1CC=C(C)C(=O)C1
REMARK SMILES IDX 8 1 7 2 6 3 5 4 4 5 11 6 9 7 10 8 2 9 1 10 3 11
REMARK H PARENT
REMARK Flexibility Score: inf
ROOT
ATOM      1  C   UNL     1      -0.138  74.391 -19.683  1.00  0.00     0.048 C 
ATOM      2  C   UNL     1      -0.466  75.662 -20.419  1.00  0.00    -0.012 C 
ATOM      3  C   UNL     1      -1.237  75.618 -21.519  1.00  0.00    -0.019 C 
ATOM      4  C   UNL     1      -1.609  76.861 -22.283  1.00  0.00     0.036 C 
ATOM      5  C   UNL     1      -0.485  77.911 -22.215  1.00  0.00     0.025 C 
ATOM      6  C   UNL     1      -0.123  78.214 -20.750  1.00  0.00     0.089 C 
ATOM      7  C   UNL     1       0.162  76.941 -20.002  1.00  0.00     0.158 C 
ATOM      8  O   UNL     1       0.913  76.978 -18.991  1.00  0.00    -0.295 OA
ENDROOT
BRANCH   5   9
ATOM      9  C   UNL     1      -0.861  79.180 -22.969  1.00  0.00    -0.077 C 
ATOM     10  C   UNL     1      -0.540  79.312 -24.266  1.00  0.00     0.008 C 
ATOM     11  C   UNL     1      -1.593  80.311 -22.288  1.00  0.00     0.039 C 
ENDBRANCH   5   9
TORSDOF 1
ENDMDL
MODEL 9
REMARK VINA RESULT:    -4.080      8.541      9.792
REMARK INTER + INTRA:          -4.416
REMARK INTER:                  -4.318
REMARK INTRA:                  -0.098
REMARK UNBOUND:                -0.098
REMARK SMILES C=C(C)[C@@H]1CC=C(C)C(=O)C1
REMARK SMILES IDX 8 1 7 2 6 3 5 4 4 5 11 6 9 7 10 8 2 9 1 10 3 11
REMARK H PARENT
REMARK Flexibility Score: inf
ROOT
ATOM      1  C   UNL     1       9.599  77.895 -31.286  1.00  0.00     0.048 C 
ATOM      2  C   UNL     1       9.255  76.503 -30.831  1.00  0.00    -0.012 C 
ATOM      3  C   UNL     1      10.236  75.639 -30.520  1.00  0.00    -0.019 C 
ATOM      4  C   UNL     1       9.947  74.240 -30.043  1.00  0.00     0.036 C 
ATOM      5  C   UNL     1       8.661  73.690 -30.687  1.00  0.00     0.025 C 
ATOM      6  C   UNL     1       7.483  74.647 -30.434  1.00  0.00     0.089 C 
ATOM      7  C   UNL     1       7.842  76.048 -30.847  1.00  0.00     0.158 C 
ATOM      8  O   UNL     1       6.923  76.847 -31.173  1.00  0.00    -0.295 OA
ENDROOT
BRANCH   5   9
ATOM      9  C   UNL     1       8.349  72.282 -30.196  1.00  0.00    -0.077 C 
ATOM     10  C   UNL     1       9.258  71.602 -29.480  1.00  0.00     0.008 C 
ATOM     11  C   UNL     1       7.028  71.619 -30.499  1.00  0.00     0.039 C 
ENDBRANCH   5   9
TORSDOF 1
ENDMDL
