MODEL 1
REMARK VINA RESULT:    22.291      0.000      0.000
REMARK INTER + INTRA:          24.440
REMARK INTER:                  24.246
REMARK INTRA:                   0.194
REMARK UNBOUND:                 0.194
REMARK SMILES CC1=C2C[C@H](C(C)(C)O)CC[C@]2(C)CCC1
REMARK SMILES IDX 6 1 7 2 8 3 5 4 1 5 2 6 3 7 16 8 4 9 12 10 15 11 11 12 14 13
REMARK SMILES IDX 13 14 10 15 9 16
REMARK H PARENT 9 17
REMARK Flexibility Score: inf
ROOT
ATOM      1  C   UNL     1     -34.448  25.011   7.053  1.00  0.00     0.062 C 
ATOM      2  C   UNL     1     -33.424  25.500   8.107  1.00  0.00     0.042 C 
ATOM      3  C   UNL     1     -33.660  24.487   5.828  1.00  0.00     0.042 C 
ENDROOT
BRANCH   1   4
ATOM      4  C   UNL     1     -35.411  23.871   7.582  1.00  0.00     0.024 C 
ATOM      5  C   UNL     1     -38.974  26.115   6.606  1.00  0.00     0.039 C 
ATOM      6  C   UNL     1     -38.536  24.923   5.783  1.00  0.00    -0.074 C 
ATOM      7  C   UNL     1     -37.575  24.049   6.226  1.00  0.00    -0.065 C 
ATOM      8  C   UNL     1     -39.125  24.823   4.387  1.00  0.00     0.031 C 
ATOM      9  C   UNL     1     -36.916  24.229   7.592  1.00  0.00     0.038 C 
ATOM     10  C   UNL     1     -37.324  22.715   5.502  1.00  0.00    -0.011 C 
ATOM     11  C   UNL     1     -39.095  23.414   3.807  1.00  0.00     0.005 C 
ATOM     12  C   UNL     1     -35.818  22.323   5.567  1.00  0.00     0.011 C 
ATOM     13  C   UNL     1     -37.714  22.800   4.003  1.00  0.00     0.011 C 
ATOM     14  C   UNL     1     -38.170  21.612   6.190  1.00  0.00     0.016 C 
ATOM     15  C   UNL     1     -35.197  22.471   6.959  1.00  0.00     0.008 C 
ENDBRANCH   1   4
BRANCH   1  16
ATOM     16  O   UNL     1     -35.232  26.107   6.635  1.00  0.00    -0.390 OA
ATOM     17  H   UNL     1     -35.330  26.738   7.398  1.00  0.00     0.211 HD
ENDBRANCH   1  16
TORSDOF 2
ENDMDL
MODEL 2
REMARK VINA RESULT:    23.637      1.943      4.787
REMARK INTER + INTRA:          25.904
REMARK INTER:                  25.806
REMARK INTRA:                   0.098
REMARK UNBOUND:                 0.194
REMARK SMILES CC1=C2C[C@H](C(C)(C)O)CC[C@]2(C)CCC1
REMARK SMILES IDX 6 1 7 2 8 3 5 4 1 5 2 6 3 7 16 8 4 9 12 10 15 11 11 12 14 13
REMARK SMILES IDX 13 14 10 15 9 16
REMARK H PARENT 9 17
REMARK Flexibility Score: inf
ROOT
ATOM      1  C   UNL     1     -38.299  23.367   3.755  1.00  0.00     0.062 C 
ATOM      2  C   UNL     1     -39.070  24.635   4.196  1.00  0.00     0.042 C 
ATOM      3  C   UNL     1     -37.058  23.818   2.949  1.00  0.00     0.042 C 
ENDROOT
BRANCH   1   4
ATOM      4  C   UNL     1     -37.835  22.452   4.961  1.00  0.00     0.024 C 
ATOM      5  C   UNL     1     -33.645  22.950   4.024  1.00  0.00     0.039 C 
ATOM      6  C   UNL     1     -34.281  23.642   5.210  1.00  0.00    -0.074 C 
ATOM      7  C   UNL     1     -35.524  23.290   5.674  1.00  0.00    -0.065 C 
ATOM      8  C   UNL     1     -33.524  24.831   5.773  1.00  0.00     0.031 C 
ATOM      9  C   UNL     1     -36.317  22.159   5.023  1.00  0.00     0.038 C 
ATOM     10  C   UNL     1     -36.046  23.821   7.021  1.00  0.00    -0.011 C 
ATOM     11  C   UNL     1     -33.886  25.161   7.217  1.00  0.00     0.005 C 
ATOM     12  C   UNL     1     -37.587  24.036   6.973  1.00  0.00     0.011 C 
ATOM     13  C   UNL     1     -35.401  25.186   7.382  1.00  0.00     0.011 C 
ATOM     14  C   UNL     1     -35.707  22.786   8.125  1.00  0.00     0.016 C 
ATOM     15  C   UNL     1     -38.359  22.866   6.357  1.00  0.00     0.008 C 
ENDBRANCH   1   4
BRANCH   1  16
ATOM     16  O   UNL     1     -39.125  22.605   2.901  1.00  0.00    -0.390 OA
ATOM     17  H   UNL     1     -39.808  22.138   3.452  1.00  0.00     0.211 HD
ENDBRANCH   1  16
TORSDOF 2
ENDMDL
MODEL 3
REMARK VINA RESULT:    23.643      1.569      4.908
REMARK INTER + INTRA:          25.910
REMARK INTER:                  25.725
REMARK INTRA:                   0.185
REMARK UNBOUND:                 0.194
REMARK SMILES CC1=C2C[C@H](C(C)(C)O)CC[C@]2(C)CCC1
REMARK SMILES IDX 6 1 7 2 8 3 5 4 1 5 2 6 3 7 16 8 4 9 12 10 15 11 11 12 14 13
REMARK SMILES IDX 13 14 10 15 9 16
REMARK H PARENT 9 17
REMARK Flexibility Score: inf
ROOT
ATOM      1  C   UNL     1     -38.149  23.141   4.200  1.00  0.00     0.062 C 
ATOM      2  C   UNL     1     -39.125  22.262   3.380  1.00  0.00     0.042 C 
ATOM      3  C   UNL     1     -38.945  24.342   4.764  1.00  0.00     0.042 C 
ENDROOT
BRANCH   1   4
ATOM      4  C   UNL     1     -37.448  22.371   5.393  1.00  0.00     0.024 C 
ATOM      5  C   UNL     1     -33.494  22.952   3.746  1.00  0.00     0.039 C 
ATOM      6  C   UNL     1     -33.974  23.732   4.951  1.00  0.00    -0.074 C 
ATOM      7  C   UNL     1     -35.106  23.375   5.641  1.00  0.00    -0.065 C 
ATOM      8  C   UNL     1     -33.209  25.002   5.272  1.00  0.00     0.031 C 
ATOM      9  C   UNL     1     -35.925  22.152   5.234  1.00  0.00     0.038 C 
ATOM     10  C   UNL     1     -35.439  24.016   7.000  1.00  0.00    -0.011 C 
ATOM     11  C   UNL     1     -33.357  25.459   6.718  1.00  0.00     0.005 C 
ATOM     12  C   UNL     1     -36.979  24.159   7.184  1.00  0.00     0.011 C 
ATOM     13  C   UNL     1     -34.826  25.436   7.124  1.00  0.00     0.011 C 
ATOM     14  C   UNL     1     -34.871  23.112   8.125  1.00  0.00     0.016 C 
ATOM     15  C   UNL     1     -37.768  22.901   6.811  1.00  0.00     0.008 C 
ENDBRANCH   1   4
BRANCH   1  16
ATOM     16  O   UNL     1     -37.151  23.641   3.337  1.00  0.00    -0.390 OA
ATOM     17  H   UNL     1     -37.578  23.923   2.485  1.00  0.00     0.211 HD
ENDBRANCH   1  16
TORSDOF 2
ENDMDL
