MODEL 1
REMARK VINA RESULT:    -3.252      0.000      0.000
REMARK INTER + INTRA:          -5.893
REMARK INTER:                  -4.964
REMARK INTRA:                  -0.929
REMARK UNBOUND:                -0.929
REMARK SMILES O=C([O-])CCCCCCCCC(=O)[O-]
REMARK SMILES IDX 7 1 6 2 5 3 4 4 2 5 1 6 3 7 8 8 9 9 10 10 11 11 12 12 13 13
REMARK SMILES IDX 14 14
REMARK H PARENT
REMARK Flexibility Score: inf
ROOT
ATOM      1  C   UNL     1     -94.587 148.972 238.233  1.00  0.00     0.000 C 
ENDROOT
BRANCH   1   2
ATOM      2  C   UNL     1     -93.817 148.341 237.067  1.00  0.00     0.000 C 
BRANCH   2   3
ATOM      3  C   UNL     1     -94.740 148.097 235.865  1.00  0.00     0.006 C 
BRANCH   3   4
ATOM      4  C   UNL     1     -95.429 149.383 235.390  1.00  0.00     0.053 C 
BRANCH   4   5
ATOM      5  C   UNL     1     -96.915 149.217 235.307  1.00  0.00     0.041 C 
ATOM      6  O   UNL     1     -97.494 148.328 235.985  1.00  0.00    -0.550 OA
ATOM      7  O   UNL     1     -97.658 150.026 234.456  1.00  0.00    -0.550 OA
ENDBRANCH   4   5
ENDBRANCH   3   4
ENDBRANCH   2   3
ENDBRANCH   1   2
BRANCH   1   8
ATOM      8  C   UNL     1     -95.467 147.935 238.939  1.00  0.00     0.000 C 
BRANCH   8   9
ATOM      9  C   UNL     1     -96.793 148.556 239.397  1.00  0.00     0.000 C 
BRANCH   9  10
ATOM     10  C   UNL     1     -96.800 150.073 239.162  1.00  0.00     0.006 C 
BRANCH  10  11
ATOM     11  C   UNL     1     -98.223 150.643 239.090  1.00  0.00     0.053 C 
BRANCH  11  12
ATOM     12  C   UNL     1     -99.044 150.245 240.279  1.00  0.00     0.041 C 
ATOM     13  O   UNL     1     -98.705 150.614 241.434  1.00  0.00    -0.550 OA
ATOM     14  O   UNL     1    -100.200 149.496 240.107  1.00  0.00    -0.550 OA
ENDBRANCH  11  12
ENDBRANCH  10  11
ENDBRANCH   9  10
ENDBRANCH   8   9
ENDBRANCH   1   8
TORSDOF 9
ENDMDL
MODEL 2
REMARK VINA RESULT:    -3.247      0.935      4.362
REMARK INTER + INTRA:          -5.885
REMARK INTER:                  -4.925
REMARK INTRA:                  -0.960
REMARK UNBOUND:                -0.929
REMARK SMILES O=C([O-])CCCCCCCCC(=O)[O-]
REMARK SMILES IDX 7 1 6 2 5 3 4 4 2 5 1 6 3 7 8 8 9 9 10 10 11 11 12 12 13 13
REMARK SMILES IDX 14 14
REMARK H PARENT
REMARK Flexibility Score: inf
ROOT
ATOM      1  C   UNL     1     -94.548 148.761 238.128  1.00  0.00     0.000 C 
ENDROOT
BRANCH   1   2
ATOM      2  C   UNL     1     -95.449 147.765 238.867  1.00  0.00     0.000 C 
BRANCH   2   3
ATOM      3  C   UNL     1     -96.696 148.463 239.429  1.00  0.00     0.006 C 
BRANCH   3   4
ATOM      4  C   UNL     1     -96.720 149.962 239.104  1.00  0.00     0.053 C 
BRANCH   4   5
ATOM      5  C   UNL     1     -98.073 150.560 239.342  1.00  0.00     0.041 C 
ATOM      6  O   UNL     1     -98.704 151.100 238.395  1.00  0.00    -0.550 OA
ATOM      7  O   UNL     1     -98.624 150.548 240.616  1.00  0.00    -0.550 OA
ENDBRANCH   4   5
ENDBRANCH   3   4
ENDBRANCH   2   3
ENDBRANCH   1   2
BRANCH   1   8
ATOM      8  C   UNL     1     -93.702 148.054 237.063  1.00  0.00     0.000 C 
BRANCH   8   9
ATOM      9  C   UNL     1     -94.349 148.172 235.677  1.00  0.00     0.000 C 
BRANCH   9  10
ATOM     10  C   UNL     1     -95.229 149.426 235.585  1.00  0.00     0.006 C 
BRANCH  10  11
ATOM     11  C   UNL     1     -96.427 149.228 234.647  1.00  0.00     0.053 C 
BRANCH  11  12
ATOM     12  C   UNL     1     -97.730 149.318 235.380  1.00  0.00     0.041 C 
ATOM     13  O   UNL     1     -98.051 148.429 236.211  1.00  0.00    -0.550 OA
ATOM     14  O   UNL     1     -98.573 150.401 235.171  1.00  0.00    -0.550 OA
ENDBRANCH  11  12
ENDBRANCH  10  11
ENDBRANCH   9  10
ENDBRANCH   8   9
ENDBRANCH   1   8
TORSDOF 9
ENDMDL
MODEL 3
REMARK VINA RESULT:    -3.243      1.197      4.398
REMARK INTER + INTRA:          -5.878
REMARK INTER:                  -4.803
REMARK INTRA:                  -1.075
REMARK UNBOUND:                -0.929
REMARK SMILES O=C([O-])CCCCCCCCC(=O)[O-]
REMARK SMILES IDX 7 1 6 2 5 3 4 4 2 5 1 6 3 7 8 8 9 9 10 10 11 11 12 12 13 13
REMARK SMILES IDX 14 14
REMARK H PARENT
REMARK Flexibility Score: inf
ROOT
ATOM      1  C   UNL     1     -95.472 147.891 238.902  1.00  0.00     0.000 C 
ENDROOT
BRANCH   1   2
ATOM      2  C   UNL     1     -96.752 148.561 239.415  1.00  0.00     0.000 C 
BRANCH   2   3
ATOM      3  C   UNL     1     -96.808 150.037 238.995  1.00  0.00     0.006 C 
BRANCH   3   4
ATOM      4  C   UNL     1     -98.170 150.675 239.294  1.00  0.00     0.053 C 
BRANCH   4   5
ATOM      5  C   UNL     1     -99.139 150.468 238.170  1.00  0.00     0.041 C 
ATOM      6  O   UNL     1     -99.254 151.335 237.263  1.00  0.00    -0.550 OA
ATOM      7  O   UNL     1     -99.937 149.332 238.140  1.00  0.00    -0.550 OA
ENDBRANCH   4   5
ENDBRANCH   3   4
ENDBRANCH   2   3
ENDBRANCH   1   2
BRANCH   1   8
ATOM      8  C   UNL     1     -94.586 148.893 238.154  1.00  0.00     0.000 C 
BRANCH   8   9
ATOM      9  C   UNL     1     -93.816 148.208 237.018  1.00  0.00     0.000 C 
BRANCH   9  10
ATOM     10  C   UNL     1     -94.659 148.153 235.736  1.00  0.00     0.006 C 
BRANCH  10  11
ATOM     11  C   UNL     1     -95.438 149.453 235.497  1.00  0.00     0.053 C 
BRANCH  11  12
ATOM     12  C   UNL     1     -96.905 149.201 235.334  1.00  0.00     0.041 C 
ATOM     13  O   UNL     1     -97.458 148.255 235.954  1.00  0.00    -0.550 OA
ATOM     14  O   UNL     1     -97.668 150.031 234.523  1.00  0.00    -0.550 OA
ENDBRANCH  11  12
ENDBRANCH  10  11
ENDBRANCH   9  10
ENDBRANCH   8   9
ENDBRANCH   1   8
TORSDOF 9
ENDMDL
MODEL 4
REMARK VINA RESULT:    -3.243      0.206      1.232
REMARK INTER + INTRA:          -5.878
REMARK INTER:                  -5.010
REMARK INTRA:                  -0.868
REMARK UNBOUND:                -0.929
REMARK SMILES O=C([O-])CCCCCCCCC(=O)[O-]
REMARK SMILES IDX 7 1 6 2 5 3 4 4 2 5 1 6 3 7 8 8 9 9 10 10 11 11 12 12 13 13
REMARK SMILES IDX 14 14
REMARK H PARENT
REMARK Flexibility Score: inf
ROOT
ATOM      1  C   UNL     1     -94.578 148.902 238.153  1.00  0.00     0.000 C 
ENDROOT
BRANCH   1   2
ATOM      2  C   UNL     1     -93.760 148.171 237.083  1.00  0.00     0.000 C 
BRANCH   2   3
ATOM      3  C   UNL     1     -94.528 148.098 235.756  1.00  0.00     0.006 C 
BRANCH   3   4
ATOM      4  C   UNL     1     -95.289 149.396 235.453  1.00  0.00     0.053 C 
BRANCH   4   5
ATOM      5  C   UNL     1     -96.735 149.136 235.164  1.00  0.00     0.041 C 
ATOM      6  O   UNL     1     -97.304 149.713 234.200  1.00  0.00    -0.550 OA
ATOM      7  O   UNL     1     -97.465 148.280 235.979  1.00  0.00    -0.550 OA
ENDBRANCH   4   5
ENDBRANCH   3   4
ENDBRANCH   2   3
ENDBRANCH   1   2
BRANCH   1   8
ATOM      8  C   UNL     1     -95.435 147.919 238.960  1.00  0.00     0.000 C 
BRANCH   8   9
ATOM      9  C   UNL     1     -96.760 148.564 239.386  1.00  0.00     0.000 C 
BRANCH   9  10
ATOM     10  C   UNL     1     -96.731 150.082 239.161  1.00  0.00     0.006 C 
BRANCH  10  11
ATOM     11  C   UNL     1     -98.140 150.675 239.020  1.00  0.00     0.053 C 
BRANCH  11  12
ATOM     12  C   UNL     1     -99.040 150.244 240.136  1.00  0.00     0.041 C 
ATOM     13  O   UNL     1    -100.084 149.586 239.890  1.00  0.00    -0.550 OA
ATOM     14  O   UNL     1     -98.709 150.541 241.452  1.00  0.00    -0.550 OA
ENDBRANCH  11  12
ENDBRANCH  10  11
ENDBRANCH   9  10
ENDBRANCH   8   9
ENDBRANCH   1   8
TORSDOF 9
ENDMDL
MODEL 5
REMARK VINA RESULT:    -3.218      1.755      2.516
REMARK INTER + INTRA:          -5.840
REMARK INTER:                  -5.399
REMARK INTRA:                  -0.440
REMARK UNBOUND:                -0.929
REMARK SMILES O=C([O-])CCCCCCCCC(=O)[O-]
REMARK SMILES IDX 7 1 6 2 5 3 4 4 2 5 1 6 3 7 8 8 9 9 10 10 11 11 12 12 13 13
REMARK SMILES IDX 14 14
REMARK H PARENT
REMARK Flexibility Score: inf
ROOT
ATOM      1  C   UNL     1     -96.310 149.034 238.308  1.00  0.00     0.000 C 
ENDROOT
BRANCH   1   2
ATOM      2  C   UNL     1     -94.855 148.604 238.529  1.00  0.00     0.000 C 
BRANCH   2   3
ATOM      3  C   UNL     1     -94.070 148.619 237.210  1.00  0.00     0.006 C 
BRANCH   3   4
ATOM      4  C   UNL     1     -94.936 149.059 236.023  1.00  0.00     0.053 C 
BRANCH   4   5
ATOM      5  C   UNL     1     -94.685 148.215 234.810  1.00  0.00     0.041 C 
ATOM      6  O   UNL     1     -95.172 148.543 233.696  1.00  0.00    -0.550 OA
ATOM      7  O   UNL     1     -93.938 147.049 234.917  1.00  0.00    -0.550 OA
ENDBRANCH   4   5
ENDBRANCH   3   4
ENDBRANCH   2   3
ENDBRANCH   1   2
BRANCH   1   8
ATOM      8  C   UNL     1     -96.639 150.300 239.107  1.00  0.00     0.000 C 
BRANCH   8   9
ATOM      9  C   UNL     1     -98.116 150.682 238.953  1.00  0.00     0.000 C 
BRANCH   9  10
ATOM     10  C   UNL     1     -98.988 149.930 239.968  1.00  0.00     0.006 C 
BRANCH  10  11
ATOM     11  C   UNL     1     -98.385 149.951 241.379  1.00  0.00     0.053 C 
BRANCH  11  12
ATOM     12  C   UNL     1     -99.239 150.723 242.338  1.00  0.00     0.041 C 
ATOM     13  O   UNL     1     -98.721 151.279 243.341  1.00  0.00    -0.550 OA
ATOM     14  O   UNL     1    -100.601 150.856 242.105  1.00  0.00    -0.550 OA
ENDBRANCH  11  12
ENDBRANCH  10  11
ENDBRANCH   9  10
ENDBRANCH   8   9
ENDBRANCH   1   8
TORSDOF 9
ENDMDL
MODEL 6
REMARK VINA RESULT:    -3.213      0.115      4.872
REMARK INTER + INTRA:          -5.833
REMARK INTER:                  -4.934
REMARK INTRA:                  -0.899
REMARK UNBOUND:                -0.929
REMARK SMILES O=C([O-])CCCCCCCCC(=O)[O-]
REMARK SMILES IDX 7 1 6 2 5 3 4 4 2 5 1 6 3 7 8 8 9 9 10 10 11 11 12 12 13 13
REMARK SMILES IDX 14 14
REMARK H PARENT
REMARK Flexibility Score: inf
ROOT
ATOM      1  C   UNL     1     -95.454 147.957 238.975  1.00  0.00     0.000 C 
ENDROOT
BRANCH   1   2
ATOM      2  C   UNL     1     -96.807 148.562 239.368  1.00  0.00     0.000 C 
BRANCH   2   3
ATOM      3  C   UNL     1     -96.816 150.081 239.147  1.00  0.00     0.006 C 
BRANCH   3   4
ATOM      4  C   UNL     1     -98.236 150.662 239.163  1.00  0.00     0.053 C 
BRANCH   4   5
ATOM      5  C   UNL     1     -99.010 150.202 240.361  1.00  0.00     0.041 C 
ATOM      6  O   UNL     1     -98.646 150.538 241.519  1.00  0.00    -0.550 OA
ATOM      7  O   UNL     1    -100.115 149.377 240.200  1.00  0.00    -0.550 OA
ENDBRANCH   4   5
ENDBRANCH   3   4
ENDBRANCH   2   3
ENDBRANCH   1   2
BRANCH   1   8
ATOM      8  C   UNL     1     -94.580 148.985 238.248  1.00  0.00     0.000 C 
BRANCH   8   9
ATOM      9  C   UNL     1     -93.831 148.341 237.075  1.00  0.00     0.000 C 
BRANCH   9  10
ATOM     10  C   UNL     1     -94.756 148.160 235.864  1.00  0.00     0.006 C 
BRANCH  10  11
ATOM     11  C   UNL     1     -95.468 149.463 235.477  1.00  0.00     0.053 C 
BRANCH  11  12
ATOM     12  C   UNL     1     -96.930 149.248 235.232  1.00  0.00     0.041 C 
ATOM     13  O   UNL     1     -97.514 149.864 234.303  1.00  0.00    -0.550 OA
ATOM     14  O   UNL     1     -97.639 148.341 236.010  1.00  0.00    -0.550 OA
ENDBRANCH  11  12
ENDBRANCH  10  11
ENDBRANCH   9  10
ENDBRANCH   8   9
ENDBRANCH   1   8
TORSDOF 9
ENDMDL
MODEL 7
REMARK VINA RESULT:    -3.211      3.259      4.734
REMARK INTER + INTRA:          -5.829
REMARK INTER:                  -5.399
REMARK INTRA:                  -0.430
REMARK UNBOUND:                -0.929
REMARK SMILES O=C([O-])CCCCCCCCC(=O)[O-]
REMARK SMILES IDX 7 1 6 2 5 3 4 4 2 5 1 6 3 7 8 8 9 9 10 10 11 11 12 12 13 13
REMARK SMILES IDX 14 14
REMARK H PARENT
REMARK Flexibility Score: inf
ROOT
ATOM      1  C   UNL     1     -97.889 148.866 240.518  1.00  0.00     0.000 C 
ENDROOT
BRANCH   1   2
ATOM      2  C   UNL     1     -97.802 150.139 239.668  1.00  0.00     0.000 C 
BRANCH   2   3
ATOM      3  C   UNL     1     -96.423 150.267 239.006  1.00  0.00     0.006 C 
BRANCH   3   4
ATOM      4  C   UNL     1     -96.211 149.226 237.899  1.00  0.00     0.053 C 
BRANCH   4   5
ATOM      5  C   UNL     1     -94.913 148.496 238.065  1.00  0.00     0.041 C 
ATOM      6  O   UNL     1     -93.924 148.788 237.342  1.00  0.00    -0.550 OA
ATOM      7  O   UNL     1     -94.805 147.472 238.996  1.00  0.00    -0.550 OA
ENDBRANCH   4   5
ENDBRANCH   3   4
ENDBRANCH   2   3
ENDBRANCH   1   2
BRANCH   1   8
ATOM      8  C   UNL     1     -98.547 149.151 241.873  1.00  0.00     0.000 C 
BRANCH   8   9
ATOM      9  C   UNL     1     -98.928 150.631 242.001  1.00  0.00     0.000 C 
BRANCH   9  10
ATOM     10  C   UNL     1     -99.465 150.942 243.405  1.00  0.00     0.006 C 
BRANCH  10  11
ATOM     11  C   UNL     1     -98.573 151.934 244.162  1.00  0.00     0.053 C 
BRANCH  11  12
ATOM     12  C   UNL     1     -99.349 153.117 244.654  1.00  0.00     0.041 C 
ATOM     13  O   UNL     1    -100.083 153.766 243.864  1.00  0.00    -0.550 OA
ATOM     14  O   UNL     1     -99.287 153.483 245.992  1.00  0.00    -0.550 OA
ENDBRANCH  11  12
ENDBRANCH  10  11
ENDBRANCH   9  10
ENDBRANCH   8   9
ENDBRANCH   1   8
TORSDOF 9
ENDMDL
MODEL 8
REMARK VINA RESULT:    -3.188      1.363      4.898
REMARK INTER + INTRA:          -5.794
REMARK INTER:                  -4.982
REMARK INTRA:                  -0.812
REMARK UNBOUND:                -0.929
REMARK SMILES O=C([O-])CCCCCCCCC(=O)[O-]
REMARK SMILES IDX 7 1 6 2 5 3 4 4 2 5 1 6 3 7 8 8 9 9 10 10 11 11 12 12 13 13
REMARK SMILES IDX 14 14
REMARK H PARENT
REMARK Flexibility Score: inf
ROOT
ATOM      1  C   UNL     1     -94.251 148.735 237.742  1.00  0.00     0.000 C 
ENDROOT
BRANCH   1   2
ATOM      2  C   UNL     1     -94.982 147.862 238.768  1.00  0.00     0.000 C 
BRANCH   2   3
ATOM      3  C   UNL     1     -96.387 148.410 239.055  1.00  0.00     0.006 C 
BRANCH   3   4
ATOM      4  C   UNL     1     -96.455 149.937 238.921  1.00  0.00     0.053 C 
BRANCH   4   5
ATOM      5  C   UNL     1     -97.796 150.470 239.323  1.00  0.00     0.041 C 
ATOM      6  O   UNL     1     -98.196 150.351 240.511  1.00  0.00    -0.550 OA
ATOM      7  O   UNL     1     -98.616 151.073 238.379  1.00  0.00    -0.550 OA
ENDBRANCH   4   5
ENDBRANCH   3   4
ENDBRANCH   2   3
ENDBRANCH   1   2
BRANCH   1   8
ATOM      8  C   UNL     1     -93.764 147.898 236.553  1.00  0.00     0.000 C 
BRANCH   8   9
ATOM      9  C   UNL     1     -94.726 148.017 235.364  1.00  0.00     0.000 C 
BRANCH   9  10
ATOM     10  C   UNL     1     -95.392 149.400 235.332  1.00  0.00     0.006 C 
BRANCH  10  11
ATOM     11  C   UNL     1     -96.884 149.317 234.980  1.00  0.00     0.053 C 
BRANCH  11  12
ATOM     12  C   UNL     1     -97.202 150.067 233.724  1.00  0.00     0.041 C 
ATOM     13  O   UNL     1     -96.691 149.714 232.629  1.00  0.00    -0.550 OA
ATOM     14  O   UNL     1     -98.090 151.135 233.756  1.00  0.00    -0.550 OA
ENDBRANCH  11  12
ENDBRANCH  10  11
ENDBRANCH   9  10
ENDBRANCH   8   9
ENDBRANCH   1   8
TORSDOF 9
ENDMDL
MODEL 9
REMARK VINA RESULT:    -3.159     13.093     14.722
REMARK INTER + INTRA:          -5.750
REMARK INTER:                  -5.217
REMARK INTRA:                  -0.533
REMARK UNBOUND:                -0.929
REMARK SMILES O=C([O-])CCCCCCCCC(=O)[O-]
REMARK SMILES IDX 7 1 6 2 5 3 4 4 2 5 1 6 3 7 8 8 9 9 10 10 11 11 12 12 13 13
REMARK SMILES IDX 14 14
REMARK H PARENT
REMARK Flexibility Score: inf
ROOT
ATOM      1  C   UNL     1     -91.024 161.977 231.712  1.00  0.00     0.000 C 
ENDROOT
BRANCH   1   2
ATOM      2  C   UNL     1     -91.334 161.630 233.173  1.00  0.00     0.000 C 
BRANCH   2   3
ATOM      3  C   UNL     1     -90.875 162.752 234.115  1.00  0.00     0.006 C 
BRANCH   3   4
ATOM      4  C   UNL     1     -90.951 162.339 235.591  1.00  0.00     0.053 C 
BRANCH   4   5
ATOM      5  C   UNL     1     -91.807 163.278 236.386  1.00  0.00     0.041 C 
ATOM      6  O   UNL     1     -91.995 164.457 235.987  1.00  0.00    -0.550 OA
ATOM      7  O   UNL     1     -92.371 162.859 237.584  1.00  0.00    -0.550 OA
ENDBRANCH   4   5
ENDBRANCH   3   4
ENDBRANCH   2   3
ENDBRANCH   1   2
BRANCH   1   8
ATOM      8  C   UNL     1     -91.590 160.916 230.762  1.00  0.00     0.000 C 
BRANCH   8   9
ATOM      9  C   UNL     1     -92.249 159.771 231.542  1.00  0.00     0.000 C 
BRANCH   9  10
ATOM     10  C   UNL     1     -93.493 159.250 230.808  1.00  0.00     0.006 C 
BRANCH  10  11
ATOM     11  C   UNL     1     -94.791 159.584 231.555  1.00  0.00     0.053 C 
BRANCH  11  12
ATOM     12  C   UNL     1     -95.275 160.966 231.240  1.00  0.00     0.041 C 
ATOM     13  O   UNL     1     -95.483 161.307 230.047  1.00  0.00    -0.550 OA
ATOM     14  O   UNL     1     -95.527 161.866 232.267  1.00  0.00    -0.550 OA
ENDBRANCH  11  12
ENDBRANCH  10  11
ENDBRANCH   9  10
ENDBRANCH   8   9
ENDBRANCH   1   8
TORSDOF 9
ENDMDL
