MODEL 1
REMARK VINA RESULT:    -7.072      0.000      0.000
REMARK INTER + INTRA:          -8.630
REMARK INTER:                  -8.312
REMARK INTRA:                  -0.318
REMARK UNBOUND:                -0.318
REMARK SMILES O=c1cc(-c2ccc(O)c(O)c2)oc2cc(O)cc(O)c12
REMARK SMILES IDX 4 1 3 2 2 3 1 4 21 5 19 6 18 7 16 8 15 9 14 10 13 11 5 12
REMARK SMILES IDX 6 13 7 14 8 15 12 16 10 17 9 18 11 20 20 22 17 24
REMARK H PARENT 9 19 11 21 20 23 17 25
REMARK Flexibility Score: inf
ROOT
ATOM      1  C   UNL     1      10.925  -7.124  -9.173  1.00  0.00     0.138 A 
ATOM      2  C   UNL     1      10.204  -8.325  -9.211  1.00  0.00     0.100 A 
ATOM      3  C   UNL     1       9.180  -8.544  -8.289  1.00  0.00     0.197 A 
ATOM      4  O   UNL     1       8.589  -9.655  -8.312  1.00  0.00    -0.289 OA
ATOM      5  C   UNL     1       8.853  -7.539  -7.347  1.00  0.00     0.107 A 
ATOM      6  C   UNL     1       7.807  -7.636  -6.381  1.00  0.00     0.134 A 
ATOM      7  C   UNL     1       7.643  -6.615  -5.436  1.00  0.00     0.093 A 
ATOM      8  C   UNL     1       8.446  -5.477  -5.458  1.00  0.00     0.123 A 
ATOM      9  C   UNL     1       9.440  -5.347  -6.429  1.00  0.00     0.094 A 
ATOM     10  C   UNL     1       9.652  -6.364  -7.363  1.00  0.00     0.146 A 
ATOM     11  O   UNL     1      10.621  -6.209  -8.260  1.00  0.00    -0.456 OA
ENDROOT
BRANCH   1  12
ATOM     12  C   UNL     1      12.024  -6.838 -10.132  1.00  0.00     0.021 A 
ATOM     13  C   UNL     1      12.390  -7.755 -11.134  1.00  0.00     0.016 A 
ATOM     14  C   UNL     1      13.434  -7.463 -12.016  1.00  0.00     0.051 A 
ATOM     15  C   UNL     1      14.133  -6.257 -11.910  1.00  0.00     0.157 A 
ATOM     16  C   UNL     1      12.740  -5.632 -10.022  1.00  0.00     0.062 A 
ATOM     17  C   UNL     1      13.787  -5.337 -10.908  1.00  0.00     0.158 A 
BRANCH  15  18
ATOM     18  O   UNL     1      15.169  -5.993 -12.806  1.00  0.00    -0.504 OA
ATOM     19  H   UNL     1      15.957  -5.406 -12.559  1.00  0.00     0.293 HD
ENDBRANCH  15  18
BRANCH  17  20
ATOM     20  O   UNL     1      14.482  -4.135 -10.793  1.00  0.00    -0.504 OA
ATOM     21  H   UNL     1      15.179  -3.856 -11.474  1.00  0.00     0.293 HD
ENDBRANCH  17  20
ENDBRANCH   1  12
BRANCH   6  22
ATOM     22  O   UNL     1       6.894  -8.693  -6.319  1.00  0.00    -0.507 OA
ATOM     23  H   UNL     1       7.071  -9.589  -5.889  1.00  0.00     0.293 HD
ENDBRANCH   6  22
BRANCH   8  24
ATOM     24  O   UNL     1       8.243  -4.474  -4.513  1.00  0.00    -0.508 OA
ATOM     25  H   UNL     1       8.859  -3.671  -4.450  1.00  0.00     0.293 HD
ENDBRANCH   8  24
TORSDOF 5
ENDMDL
MODEL 2
REMARK VINA RESULT:    -6.901      0.619      1.497
REMARK INTER + INTRA:          -8.429
REMARK INTER:                  -8.135
REMARK INTRA:                  -0.294
REMARK UNBOUND:                -0.318
REMARK SMILES O=c1cc(-c2ccc(O)c(O)c2)oc2cc(O)cc(O)c12
REMARK SMILES IDX 4 1 3 2 2 3 1 4 21 5 19 6 18 7 16 8 15 9 14 10 13 11 5 12
REMARK SMILES IDX 6 13 7 14 8 15 12 16 10 17 9 18 11 20 20 22 17 24
REMARK H PARENT 9 19 11 21 20 23 17 25
REMARK Flexibility Score: inf
ROOT
ATOM      1  C   UNL     1      10.943  -7.094  -9.166  1.00  0.00     0.138 A 
ATOM      2  C   UNL     1      10.238  -8.304  -9.215  1.00  0.00     0.100 A 
ATOM      3  C   UNL     1       9.206  -8.538  -8.305  1.00  0.00     0.197 A 
ATOM      4  O   UNL     1       8.629  -9.656  -8.338  1.00  0.00    -0.289 OA
ATOM      5  C   UNL     1       8.857  -7.540  -7.364  1.00  0.00     0.107 A 
ATOM      6  C   UNL     1       7.801  -7.653  -6.410  1.00  0.00     0.134 A 
ATOM      7  C   UNL     1       7.614  -6.638  -5.464  1.00  0.00     0.093 A 
ATOM      8  C   UNL     1       8.403  -5.489  -5.473  1.00  0.00     0.123 A 
ATOM      9  C   UNL     1       9.406  -5.345  -6.433  1.00  0.00     0.094 A 
ATOM     10  C   UNL     1       9.641  -6.355  -7.368  1.00  0.00     0.146 A 
ATOM     11  O   UNL     1      10.618  -6.186  -8.253  1.00  0.00    -0.456 OA
ENDROOT
BRANCH   1  12
ATOM     12  C   UNL     1      12.049  -6.791 -10.112  1.00  0.00     0.021 A 
ATOM     13  C   UNL     1      12.824  -5.623  -9.995  1.00  0.00     0.016 A 
ATOM     14  C   UNL     1      13.851  -5.360 -10.905  1.00  0.00     0.051 A 
ATOM     15  C   UNL     1      14.117  -6.251 -11.949  1.00  0.00     0.157 A 
ATOM     16  C   UNL     1      12.313  -7.677 -11.172  1.00  0.00     0.062 A 
ATOM     17  C   UNL     1      13.344  -7.414 -12.085  1.00  0.00     0.158 A 
BRANCH  15  18
ATOM     18  O   UNL     1      15.150  -5.961 -12.841  1.00  0.00    -0.504 OA
ATOM     19  H   UNL     1      15.367  -5.013 -13.123  1.00  0.00     0.293 HD
ENDBRANCH  15  18
BRANCH  17  20
ATOM     20  O   UNL     1      13.601  -8.305 -13.126  1.00  0.00    -0.504 OA
ATOM     21  H   UNL     1      13.864  -9.268 -12.950  1.00  0.00     0.293 HD
ENDBRANCH  17  20
ENDBRANCH   1  12
BRANCH   6  22
ATOM     22  O   UNL     1       6.900  -8.721  -6.361  1.00  0.00    -0.507 OA
ATOM     23  H   UNL     1       6.379  -9.005  -5.545  1.00  0.00     0.293 HD
ENDBRANCH   6  22
BRANCH   8  24
ATOM     24  O   UNL     1       8.178  -4.492  -4.527  1.00  0.00    -0.508 OA
ATOM     25  H   UNL     1       8.151  -4.698  -3.535  1.00  0.00     0.293 HD
ENDBRANCH   8  24
TORSDOF 5
ENDMDL
MODEL 3
REMARK VINA RESULT:    -6.640      1.963      6.613
REMARK INTER + INTRA:          -8.122
REMARK INTER:                  -7.806
REMARK INTRA:                  -0.316
REMARK UNBOUND:                -0.318
REMARK SMILES O=c1cc(-c2ccc(O)c(O)c2)oc2cc(O)cc(O)c12
REMARK SMILES IDX 4 1 3 2 2 3 1 4 21 5 19 6 18 7 16 8 15 9 14 10 13 11 5 12
REMARK SMILES IDX 6 13 7 14 8 15 12 16 10 17 9 18 11 20 20 22 17 24
REMARK H PARENT 9 19 11 21 20 23 17 25
REMARK Flexibility Score: inf
ROOT
ATOM      1  C   UNL     1       9.780  -7.311  -9.294  1.00  0.00     0.138 A 
ATOM      2  C   UNL     1       9.015  -8.251  -9.998  1.00  0.00     0.100 A 
ATOM      3  C   UNL     1       9.538  -8.844 -11.148  1.00  0.00     0.197 A 
ATOM      4  O   UNL     1       8.806  -9.642 -11.788  1.00  0.00    -0.289 OA
ATOM      5  C   UNL     1      10.849  -8.519 -11.574  1.00  0.00     0.107 A 
ATOM      6  C   UNL     1      11.500  -9.086 -12.711  1.00  0.00     0.134 A 
ATOM      7  C   UNL     1      12.761  -8.613 -13.091  1.00  0.00     0.093 A 
ATOM      8  C   UNL     1      13.421  -7.638 -12.345  1.00  0.00     0.123 A 
ATOM      9  C   UNL     1      12.815  -7.112 -11.202  1.00  0.00     0.094 A 
ATOM     10  C   UNL     1      11.543  -7.538 -10.816  1.00  0.00     0.146 A 
ATOM     11  O   UNL     1      10.994  -6.999  -9.732  1.00  0.00    -0.456 OA
ENDROOT
BRANCH   1  12
ATOM     12  C   UNL     1       9.273  -6.650  -8.064  1.00  0.00     0.021 A 
ATOM     13  C   UNL     1       7.919  -6.721  -7.689  1.00  0.00     0.016 A 
ATOM     14  C   UNL     1       7.469  -6.081  -6.531  1.00  0.00     0.051 A 
ATOM     15  C   UNL     1       8.359  -5.357  -5.732  1.00  0.00     0.157 A 
ATOM     16  C   UNL     1      10.160  -5.908  -7.263  1.00  0.00     0.062 A 
ATOM     17  C   UNL     1       9.710  -5.267  -6.100  1.00  0.00     0.158 A 
BRANCH  15  18
ATOM     18  O   UNL     1       7.880  -4.730  -4.581  1.00  0.00    -0.504 OA
ATOM     19  H   UNL     1       8.306  -4.875  -3.673  1.00  0.00     0.293 HD
ENDBRANCH  15  18
BRANCH  17  20
ATOM     20  O   UNL     1      10.602  -4.542  -5.311  1.00  0.00    -0.504 OA
ATOM     21  H   UNL     1      10.753  -4.768  -4.335  1.00  0.00     0.293 HD
ENDBRANCH  17  20
ENDBRANCH   1  12
BRANCH   6  22
ATOM     22  O   UNL     1      10.967 -10.123 -13.483  1.00  0.00    -0.507 OA
ATOM     23  H   UNL     1      11.389 -11.031 -13.607  1.00  0.00     0.293 HD
ENDBRANCH   6  22
BRANCH   8  24
ATOM     24  O   UNL     1      14.682  -7.203 -12.743  1.00  0.00    -0.508 OA
ATOM     25  H   UNL     1      15.238  -6.584 -12.163  1.00  0.00     0.293 HD
ENDBRANCH   8  24
TORSDOF 5
ENDMDL
MODEL 4
REMARK VINA RESULT:    -6.209      8.602     12.484
REMARK INTER + INTRA:          -7.616
REMARK INTER:                  -7.351
REMARK INTRA:                  -0.265
REMARK UNBOUND:                -0.318
REMARK SMILES O=c1cc(-c2ccc(O)c(O)c2)oc2cc(O)cc(O)c12
REMARK SMILES IDX 4 1 3 2 2 3 1 4 21 5 19 6 18 7 16 8 15 9 14 10 13 11 5 12
REMARK SMILES IDX 6 13 7 14 8 15 12 16 10 17 9 18 11 20 20 22 17 24
REMARK H PARENT 9 19 11 21 20 23 17 25
REMARK Flexibility Score: inf
ROOT
ATOM      1  C   UNL     1      18.461  -1.140 -16.750  1.00  0.00     0.138 A 
ATOM      2  C   UNL     1      17.780  -0.320 -15.841  1.00  0.00     0.100 A 
ATOM      3  C   UNL     1      17.069  -0.898 -14.789  1.00  0.00     0.197 A 
ATOM      4  O   UNL     1      16.422  -0.137 -14.022  1.00  0.00    -0.289 OA
ATOM      5  C   UNL     1      17.069  -2.304 -14.626  1.00  0.00     0.107 A 
ATOM      6  C   UNL     1      16.408  -3.004 -13.572  1.00  0.00     0.134 A 
ATOM      7  C   UNL     1      16.398  -4.404 -13.573  1.00  0.00     0.093 A 
ATOM      8  C   UNL     1      17.072  -5.130 -14.553  1.00  0.00     0.123 A 
ATOM      9  C   UNL     1      17.764  -4.456 -15.561  1.00  0.00     0.094 A 
ATOM     10  C   UNL     1      17.764  -3.061 -15.608  1.00  0.00     0.146 A 
ATOM     11  O   UNL     1      18.420  -2.459 -16.595  1.00  0.00    -0.456 OA
ENDROOT
BRANCH   1  12
ATOM     12  C   UNL     1      19.235  -0.579 -17.887  1.00  0.00     0.021 A 
ATOM     13  C   UNL     1      18.867  -0.817 -19.224  1.00  0.00     0.016 A 
ATOM     14  C   UNL     1      19.620  -0.284 -20.273  1.00  0.00     0.051 A 
ATOM     15  C   UNL     1      20.755   0.489 -20.008  1.00  0.00     0.157 A 
ATOM     16  C   UNL     1      20.385   0.188 -17.627  1.00  0.00     0.062 A 
ATOM     17  C   UNL     1      21.141   0.725 -18.679  1.00  0.00     0.158 A 
BRANCH  15  18
ATOM     18  O   UNL     1      21.485   1.009 -21.076  1.00  0.00    -0.504 OA
ATOM     19  H   UNL     1      21.627   2.005 -21.197  1.00  0.00     0.293 HD
ENDBRANCH  15  18
BRANCH  17  20
ATOM     20  O   UNL     1      22.273   1.491 -18.408  1.00  0.00    -0.504 OA
ATOM     21  H   UNL     1      22.813   1.360 -17.560  1.00  0.00     0.293 HD
ENDBRANCH  17  20
ENDBRANCH   1  12
BRANCH   6  22
ATOM     22  O   UNL     1      15.771  -2.378 -12.496  1.00  0.00    -0.507 OA
ATOM     23  H   UNL     1      15.602  -2.800 -11.595  1.00  0.00     0.293 HD
ENDBRANCH   6  22
BRANCH   8  24
ATOM     24  O   UNL     1      17.054  -6.522 -14.513  1.00  0.00    -0.508 OA
ATOM     25  H   UNL     1      16.197  -7.046 -14.649  1.00  0.00     0.293 HD
ENDBRANCH   8  24
TORSDOF 5
ENDMDL
MODEL 5
REMARK VINA RESULT:    -6.126      1.480      6.948
REMARK INTER + INTRA:          -7.518
REMARK INTER:                  -7.211
REMARK INTRA:                  -0.307
REMARK UNBOUND:                -0.318
REMARK SMILES O=c1cc(-c2ccc(O)c(O)c2)oc2cc(O)cc(O)c12
REMARK SMILES IDX 4 1 3 2 2 3 1 4 21 5 19 6 18 7 16 8 15 9 14 10 13 11 5 12
REMARK SMILES IDX 6 13 7 14 8 15 12 16 10 17 9 18 11 20 20 22 17 24
REMARK H PARENT 9 19 11 21 20 23 17 25
REMARK Flexibility Score: inf
ROOT
ATOM      1  C   UNL     1      11.436  -7.021  -9.720  1.00  0.00     0.138 A 
ATOM      2  C   UNL     1      11.465  -7.934 -10.783  1.00  0.00     0.100 A 
ATOM      3  C   UNL     1      12.464  -7.834 -11.752  1.00  0.00     0.197 A 
ATOM      4  O   UNL     1      12.429  -8.634 -12.723  1.00  0.00    -0.289 OA
ATOM      5  C   UNL     1      13.460  -6.834 -11.637  1.00  0.00     0.107 A 
ATOM      6  C   UNL     1      14.546  -6.657 -12.546  1.00  0.00     0.134 A 
ATOM      7  C   UNL     1      15.413  -5.570 -12.381  1.00  0.00     0.093 A 
ATOM      8  C   UNL     1      15.270  -4.689 -11.311  1.00  0.00     0.123 A 
ATOM      9  C   UNL     1      14.242  -4.881 -10.388  1.00  0.00     0.094 A 
ATOM     10  C   UNL     1      13.340  -5.936 -10.543  1.00  0.00     0.146 A 
ATOM     11  O   UNL     1      12.363  -6.072  -9.651  1.00  0.00    -0.456 OA
ENDROOT
BRANCH   1  12
ATOM     12  C   UNL     1      10.398  -7.083  -8.660  1.00  0.00     0.021 A 
ATOM     13  C   UNL     1       9.770  -8.292  -8.308  1.00  0.00     0.016 A 
ATOM     14  C   UNL     1       8.789  -8.318  -7.312  1.00  0.00     0.051 A 
ATOM     15  C   UNL     1       8.414  -7.142  -6.658  1.00  0.00     0.157 A 
ATOM     16  C   UNL     1      10.006  -5.900  -8.007  1.00  0.00     0.062 A 
ATOM     17  C   UNL     1       9.022  -5.926  -7.007  1.00  0.00     0.158 A 
BRANCH  15  18
ATOM     18  O   UNL     1       7.433  -7.200  -5.668  1.00  0.00    -0.504 OA
ATOM     19  H   UNL     1       7.192  -6.396  -5.101  1.00  0.00     0.293 HD
ENDBRANCH  15  18
BRANCH  17  20
ATOM     20  O   UNL     1       8.650  -4.748  -6.362  1.00  0.00    -0.504 OA
ATOM     21  H   UNL     1       8.071  -4.757  -5.530  1.00  0.00     0.293 HD
ENDBRANCH  17  20
ENDBRANCH   1  12
BRANCH   6  22
ATOM     22  O   UNL     1      14.830  -7.525 -13.605  1.00  0.00    -0.507 OA
ATOM     23  H   UNL     1      15.531  -8.251 -13.589  1.00  0.00     0.293 HD
ENDBRANCH   6  22
BRANCH   8  24
ATOM     24  O   UNL     1      16.162  -3.628 -11.170  1.00  0.00    -0.508 OA
ATOM     25  H   UNL     1      16.343  -3.204 -10.268  1.00  0.00     0.293 HD
ENDBRANCH   8  24
TORSDOF 5
ENDMDL
MODEL 6
REMARK VINA RESULT:    -6.086      2.317      3.024
REMARK INTER + INTRA:          -7.472
REMARK INTER:                  -7.199
REMARK INTRA:                  -0.273
REMARK UNBOUND:                -0.318
REMARK SMILES O=c1cc(-c2ccc(O)c(O)c2)oc2cc(O)cc(O)c12
REMARK SMILES IDX 4 1 3 2 2 3 1 4 21 5 19 6 18 7 16 8 15 9 14 10 13 11 5 12
REMARK SMILES IDX 6 13 7 14 8 15 12 16 10 17 9 18 11 20 20 22 17 24
REMARK H PARENT 9 19 11 21 20 23 17 25
REMARK Flexibility Score: inf
ROOT
ATOM      1  C   UNL     1      10.465  -7.266 -10.402  1.00  0.00     0.138 A 
ATOM      2  C   UNL     1       9.753  -6.273 -11.087  1.00  0.00     0.100 A 
ATOM      3  C   UNL     1       8.724  -5.588 -10.437  1.00  0.00     0.197 A 
ATOM      4  O   UNL     1       8.068  -4.741 -11.097  1.00  0.00    -0.289 OA
ATOM      5  C   UNL     1       8.432  -5.877  -9.083  1.00  0.00     0.107 A 
ATOM      6  C   UNL     1       7.429  -5.220  -8.307  1.00  0.00     0.134 A 
ATOM      7  C   UNL     1       7.165  -5.662  -7.005  1.00  0.00     0.093 A 
ATOM      8  C   UNL     1       7.904  -6.693  -6.429  1.00  0.00     0.123 A 
ATOM      9  C   UNL     1       8.921  -7.310  -7.160  1.00  0.00     0.094 A 
ATOM     10  C   UNL     1       9.186  -6.916  -8.473  1.00  0.00     0.146 A 
ATOM     11  O   UNL     1      10.150  -7.541  -9.140  1.00  0.00    -0.456 OA
ENDROOT
BRANCH   1  12
ATOM     12  C   UNL     1      11.570  -8.024 -11.043  1.00  0.00     0.021 A 
ATOM     13  C   UNL     1      11.648  -9.427 -10.967  1.00  0.00     0.016 A 
ATOM     14  C   UNL     1      12.705 -10.112 -11.572  1.00  0.00     0.051 A 
ATOM     15  C   UNL     1      13.703  -9.412 -12.256  1.00  0.00     0.157 A 
ATOM     16  C   UNL     1      12.584  -7.324 -11.722  1.00  0.00     0.062 A 
ATOM     17  C   UNL     1      13.644  -8.012 -12.331  1.00  0.00     0.158 A 
BRANCH  15  18
ATOM     18  O   UNL     1      14.744 -10.124 -12.852  1.00  0.00    -0.504 OA
ATOM     19  H   UNL     1      15.705  -9.806 -12.812  1.00  0.00     0.293 HD
ENDBRANCH  15  18
BRANCH  17  20
ATOM     20  O   UNL     1      14.638  -7.306 -13.007  1.00  0.00    -0.504 OA
ATOM     21  H   UNL     1      14.414  -6.547 -13.640  1.00  0.00     0.293 HD
ENDBRANCH  17  20
ENDBRANCH   1  12
BRANCH   6  22
ATOM     22  O   UNL     1       6.685  -4.125  -8.756  1.00  0.00    -0.507 OA
ATOM     23  H   UNL     1       5.797  -4.182  -9.232  1.00  0.00     0.293 HD
ENDBRANCH   6  22
BRANCH   8  24
ATOM     24  O   UNL     1       7.624  -7.094  -5.125  1.00  0.00    -0.508 OA
ATOM     25  H   UNL     1       8.342  -7.484  -4.524  1.00  0.00     0.293 HD
ENDBRANCH   8  24
TORSDOF 5
ENDMDL
MODEL 7
REMARK VINA RESULT:    -5.971      2.346      3.916
REMARK INTER + INTRA:          -7.336
REMARK INTER:                  -7.051
REMARK INTRA:                  -0.285
REMARK UNBOUND:                -0.318
REMARK SMILES O=c1cc(-c2ccc(O)c(O)c2)oc2cc(O)cc(O)c12
REMARK SMILES IDX 4 1 3 2 2 3 1 4 21 5 19 6 18 7 16 8 15 9 14 10 13 11 5 12
REMARK SMILES IDX 6 13 7 14 8 15 12 16 10 17 9 18 11 20 20 22 17 24
REMARK H PARENT 9 19 11 21 20 23 17 25
REMARK Flexibility Score: inf
ROOT
ATOM      1  C   UNL     1      12.189  -6.269 -10.635  1.00  0.00     0.138 A 
ATOM      2  C   UNL     1      11.820  -6.166  -9.287  1.00  0.00     0.100 A 
ATOM      3  C   UNL     1      10.528  -6.523  -8.897  1.00  0.00     0.197 A 
ATOM      4  O   UNL     1      10.210  -6.366  -7.690  1.00  0.00    -0.289 OA
ATOM      5  C   UNL     1       9.613  -7.019  -9.857  1.00  0.00     0.107 A 
ATOM      6  C   UNL     1       8.281  -7.445  -9.570  1.00  0.00     0.134 A 
ATOM      7  C   UNL     1       7.437  -7.824 -10.621  1.00  0.00     0.093 A 
ATOM      8  C   UNL     1       7.891  -7.849 -11.938  1.00  0.00     0.123 A 
ATOM      9  C   UNL     1       9.207  -7.482 -12.225  1.00  0.00     0.094 A 
ATOM     10  C   UNL     1      10.063  -7.066 -11.204  1.00  0.00     0.146 A 
ATOM     11  O   UNL     1      11.303  -6.707 -11.523  1.00  0.00    -0.456 OA
ENDROOT
BRANCH   1  12
ATOM     12  C   UNL     1      13.551  -5.906 -11.106  1.00  0.00     0.021 A 
ATOM     13  C   UNL     1      14.144  -6.537 -12.215  1.00  0.00     0.016 A 
ATOM     14  C   UNL     1      15.431  -6.181 -12.628  1.00  0.00     0.051 A 
ATOM     15  C   UNL     1      16.148  -5.198 -11.941  1.00  0.00     0.157 A 
ATOM     16  C   UNL     1      14.284  -4.927 -10.410  1.00  0.00     0.062 A 
ATOM     17  C   UNL     1      15.574  -4.569 -10.826  1.00  0.00     0.158 A 
BRANCH  15  18
ATOM     18  O   UNL     1      17.430  -4.864 -12.379  1.00  0.00    -0.504 OA
ATOM     19  H   UNL     1      18.263  -5.176 -11.894  1.00  0.00     0.293 HD
ENDBRANCH  15  18
BRANCH  17  20
ATOM     20  O   UNL     1      16.286  -3.591 -10.133  1.00  0.00    -0.504 OA
ATOM     21  H   UNL     1      15.852  -2.722  -9.844  1.00  0.00     0.293 HD
ENDBRANCH  17  20
ENDBRANCH   1  12
BRANCH   6  22
ATOM     22  O   UNL     1       7.749  -7.536  -8.281  1.00  0.00    -0.507 OA
ATOM     23  H   UNL     1       6.943  -7.029  -7.948  1.00  0.00     0.293 HD
ENDBRANCH   6  22
BRANCH   8  24
ATOM     24  O   UNL     1       7.027  -8.247 -12.956  1.00  0.00    -0.508 OA
ATOM     25  H   UNL     1       6.908  -9.224 -13.198  1.00  0.00     0.293 HD
ENDBRANCH   8  24
TORSDOF 5
ENDMDL
MODEL 8
REMARK VINA RESULT:    -5.868      7.755     11.757
REMARK INTER + INTRA:          -7.216
REMARK INTER:                  -6.935
REMARK INTRA:                  -0.281
REMARK UNBOUND:                -0.318
REMARK SMILES O=c1cc(-c2ccc(O)c(O)c2)oc2cc(O)cc(O)c12
REMARK SMILES IDX 4 1 3 2 2 3 1 4 21 5 19 6 18 7 16 8 15 9 14 10 13 11 5 12
REMARK SMILES IDX 6 13 7 14 8 15 12 16 10 17 9 18 11 20 20 22 17 24
REMARK H PARENT 9 19 11 21 20 23 17 25
REMARK Flexibility Score: inf
ROOT
ATOM      1  C   UNL     1      18.000  -0.739 -15.830  1.00  0.00     0.138 A 
ATOM      2  C   UNL     1      17.499   0.201 -14.919  1.00  0.00     0.100 A 
ATOM      3  C   UNL     1      16.685  -0.222 -13.867  1.00  0.00     0.197 A 
ATOM      4  O   UNL     1      16.206   0.652 -13.100  1.00  0.00    -0.289 OA
ATOM      5  C   UNL     1      16.402  -1.600 -13.707  1.00  0.00     0.107 A 
ATOM      6  C   UNL     1      15.613  -2.153 -12.653  1.00  0.00     0.134 A 
ATOM      7  C   UNL     1      15.320  -3.522 -12.657  1.00  0.00     0.093 A 
ATOM      8  C   UNL     1      15.833  -4.368 -13.638  1.00  0.00     0.123 A 
ATOM      9  C   UNL     1      16.647  -3.847 -14.645  1.00  0.00     0.094 A 
ATOM     10  C   UNL     1      16.930  -2.480 -14.690  1.00  0.00     0.146 A 
ATOM     11  O   UNL     1      17.694  -2.022 -15.677  1.00  0.00    -0.456 OA
ENDROOT
BRANCH   1  12
ATOM     12  C   UNL     1      18.872  -0.343 -16.966  1.00  0.00     0.021 A 
ATOM     13  C   UNL     1      20.077   0.357 -16.766  1.00  0.00     0.016 A 
ATOM     14  C   UNL     1      20.872   0.724 -17.855  1.00  0.00     0.051 A 
ATOM     15  C   UNL     1      20.478   0.407 -19.158  1.00  0.00     0.157 A 
ATOM     16  C   UNL     1      18.475  -0.648 -18.280  1.00  0.00     0.062 A 
ATOM     17  C   UNL     1      19.273  -0.280 -19.373  1.00  0.00     0.158 A 
BRANCH  15  18
ATOM     18  O   UNL     1      21.294   0.785 -20.224  1.00  0.00    -0.504 OA
ATOM     19  H   UNL     1      20.933   0.896 -21.164  1.00  0.00     0.293 HD
ENDBRANCH  15  18
BRANCH  17  20
ATOM     20  O   UNL     1      18.872  -0.596 -20.670  1.00  0.00    -0.504 OA
ATOM     21  H   UNL     1      18.319   0.045 -21.227  1.00  0.00     0.293 HD
ENDBRANCH  17  20
ENDBRANCH   1  12
BRANCH   6  22
ATOM     22  O   UNL     1      15.115  -1.413 -11.577  1.00  0.00    -0.507 OA
ATOM     23  H   UNL     1      14.429  -1.742 -10.914  1.00  0.00     0.293 HD
ENDBRANCH   6  22
BRANCH   8  24
ATOM     24  O   UNL     1      15.534  -5.728 -13.600  1.00  0.00    -0.508 OA
ATOM     25  H   UNL     1      16.242  -6.432 -13.774  1.00  0.00     0.293 HD
ENDBRANCH   8  24
TORSDOF 5
ENDMDL
MODEL 9
REMARK VINA RESULT:    -4.340      2.225      2.942
REMARK INTER + INTRA:          -5.419
REMARK INTER:                  -5.144
REMARK INTRA:                  -0.275
REMARK UNBOUND:                -0.318
REMARK SMILES O=c1cc(-c2ccc(O)c(O)c2)oc2cc(O)cc(O)c12
REMARK SMILES IDX 4 1 3 2 2 3 1 4 21 5 19 6 18 7 16 8 15 9 14 10 13 11 5 12
REMARK SMILES IDX 6 13 7 14 8 15 12 16 10 17 9 18 11 20 20 22 17 24
REMARK H PARENT 9 19 11 21 20 23 17 25
REMARK Flexibility Score: inf
ROOT
ATOM      1  C   UNL     1       9.762  -8.500  -9.702  1.00  0.00     0.138 A 
ATOM      2  C   UNL     1       8.838  -9.455  -9.259  1.00  0.00     0.100 A 
ATOM      3  C   UNL     1       8.113  -9.224  -8.089  1.00  0.00     0.197 A 
ATOM      4  O   UNL     1       7.332 -10.125  -7.687  1.00  0.00    -0.289 OA
ATOM      5  C   UNL     1       8.290  -8.012  -7.379  1.00  0.00     0.107 A 
ATOM      6  C   UNL     1       7.583  -7.651  -6.193  1.00  0.00     0.134 A 
ATOM      7  C   UNL     1       7.916  -6.467  -5.524  1.00  0.00     0.093 A 
ATOM      8  C   UNL     1       8.887  -5.603  -6.027  1.00  0.00     0.123 A 
ATOM      9  C   UNL     1       9.550  -5.920  -7.213  1.00  0.00     0.094 A 
ATOM     10  C   UNL     1       9.265  -7.111  -7.885  1.00  0.00     0.146 A 
ATOM     11  O   UNL     1       9.933  -7.384  -9.002  1.00  0.00    -0.456 OA
ENDROOT
BRANCH   1  12
ATOM     12  C   UNL     1      10.558  -8.693 -10.942  1.00  0.00     0.021 A 
ATOM     13  C   UNL     1      11.938  -8.423 -10.985  1.00  0.00     0.016 A 
ATOM     14  C   UNL     1      12.659  -8.606 -12.169  1.00  0.00     0.051 A 
ATOM     15  C   UNL     1      12.017  -9.053 -13.327  1.00  0.00     0.157 A 
ATOM     16  C   UNL     1       9.915  -9.130 -12.114  1.00  0.00     0.062 A 
ATOM     17  C   UNL     1      10.638  -9.315 -13.302  1.00  0.00     0.158 A 
BRANCH  15  18
ATOM     18  O   UNL     1      12.764  -9.227 -14.492  1.00  0.00    -0.504 OA
ATOM     19  H   UNL     1      13.777  -9.252 -14.483  1.00  0.00     0.293 HD
ENDBRANCH  15  18
BRANCH  17  20
ATOM     20  O   UNL     1       9.990  -9.756 -14.454  1.00  0.00    -0.504 OA
ATOM     21  H   UNL     1      10.471 -10.306 -15.157  1.00  0.00     0.293 HD
ENDBRANCH  17  20
ENDBRANCH   1  12
BRANCH   6  22
ATOM     22  O   UNL     1       6.538  -8.401  -5.645  1.00  0.00    -0.507 OA
ATOM     23  H   UNL     1       5.743  -8.019  -5.156  1.00  0.00     0.293 HD
ENDBRANCH   6  22
BRANCH   8  24
ATOM     24  O   UNL     1       9.180  -4.425  -5.343  1.00  0.00    -0.508 OA
ATOM     25  H   UNL     1       8.512  -3.998  -4.712  1.00  0.00     0.293 HD
ENDBRANCH   8  24
TORSDOF 5
ENDMDL
