MODEL 1
REMARK VINA RESULT:    -3.906      0.000      0.000
REMARK INTER + INTRA:          -4.637
REMARK INTER:                  -4.591
REMARK INTRA:                  -0.046
REMARK UNBOUND:                -0.046
REMARK SMILES CCCCC(=O)[O-]
REMARK SMILES IDX 4 1 5 2 6 3 7 4 3 5 2 6 1 7
REMARK H PARENT
REMARK Flexibility Score: inf
ROOT
ATOM      1  C   UNL     1      19.161   0.401 -16.591  1.00  0.00     0.053 C 
ENDROOT
BRANCH   1   2
ATOM      2  C   UNL     1      17.945   1.073 -16.031  1.00  0.00     0.041 C 
ATOM      3  O   UNL     1      17.534   0.785 -14.876  1.00  0.00    -0.550 OA
ATOM      4  O   UNL     1      17.281   2.040 -16.775  1.00  0.00    -0.550 OA
ENDBRANCH   1   2
BRANCH   1   5
ATOM      5  C   UNL     1      19.719  -0.690 -15.660  1.00  0.00     0.006 C 
BRANCH   5   6
ATOM      6  C   UNL     1      20.359  -1.877 -16.402  1.00  0.00    -0.003 C 
ATOM      7  C   UNL     1      19.671  -2.201 -17.726  1.00  0.00     0.004 C 
ENDBRANCH   5   6
ENDBRANCH   1   5
TORSDOF 3
ENDMDL
MODEL 2
REMARK VINA RESULT:    -3.855      0.217      1.242
REMARK INTER + INTRA:          -4.577
REMARK INTER:                  -4.547
REMARK INTRA:                  -0.030
REMARK UNBOUND:                -0.046
REMARK SMILES CCCCC(=O)[O-]
REMARK SMILES IDX 4 1 5 2 6 3 7 4 3 5 2 6 1 7
REMARK H PARENT
REMARK Flexibility Score: inf
ROOT
ATOM      1  C   UNL     1      19.129   0.452 -16.754  1.00  0.00     0.053 C 
ENDROOT
BRANCH   1   2
ATOM      2  C   UNL     1      17.932   1.117 -16.148  1.00  0.00     0.041 C 
ATOM      3  O   UNL     1      17.253   1.940 -16.818  1.00  0.00    -0.550 OA
ATOM      4  O   UNL     1      17.546   0.806 -14.850  1.00  0.00    -0.550 OA
ENDBRANCH   1   2
BRANCH   1   5
ATOM      5  C   UNL     1      19.630  -0.742 -15.924  1.00  0.00     0.006 C 
BRANCH   5   6
ATOM      6  C   UNL     1      20.451  -1.764 -16.731  1.00  0.00    -0.003 C 
ATOM      7  C   UNL     1      19.686  -2.350 -17.915  1.00  0.00     0.004 C 
ENDBRANCH   5   6
ENDBRANCH   1   5
TORSDOF 3
ENDMDL
MODEL 3
REMARK VINA RESULT:    -3.773      1.144      1.489
REMARK INTER + INTRA:          -4.481
REMARK INTER:                  -4.457
REMARK INTRA:                  -0.024
REMARK UNBOUND:                -0.046
REMARK SMILES CCCCC(=O)[O-]
REMARK SMILES IDX 4 1 5 2 6 3 7 4 3 5 2 6 1 7
REMARK H PARENT
REMARK Flexibility Score: inf
ROOT
ATOM      1  C   UNL     1      19.547  -0.008 -16.382  1.00  0.00     0.053 C 
ENDROOT
BRANCH   1   2
ATOM      2  C   UNL     1      18.891   0.578 -15.170  1.00  0.00     0.041 C 
ATOM      3  O   UNL     1      19.580   0.901 -14.167  1.00  0.00    -0.550 OA
ATOM      4  O   UNL     1      17.519   0.796 -15.159  1.00  0.00    -0.550 OA
ENDBRANCH   1   2
BRANCH   1   5
ATOM      5  C   UNL     1      19.911  -1.492 -16.201  1.00  0.00     0.006 C 
BRANCH   5   6
ATOM      6  C   UNL     1      19.769  -2.331 -17.484  1.00  0.00    -0.003 C 
ATOM      7  C   UNL     1      20.107  -1.552 -18.753  1.00  0.00     0.004 C 
ENDBRANCH   5   6
ENDBRANCH   1   5
TORSDOF 3
ENDMDL
MODEL 4
REMARK VINA RESULT:    -3.755      7.973      8.849
REMARK INTER + INTRA:          -4.459
REMARK INTER:                  -4.352
REMARK INTRA:                  -0.107
REMARK UNBOUND:                -0.046
REMARK SMILES CCCCC(=O)[O-]
REMARK SMILES IDX 4 1 5 2 6 3 7 4 3 5 2 6 1 7
REMARK H PARENT
REMARK Flexibility Score: inf
ROOT
ATOM      1  C   UNL     1      17.906  -0.569 -23.273  1.00  0.00     0.053 C 
ENDROOT
BRANCH   1   2
ATOM      2  C   UNL     1      17.770  -1.606 -24.345  1.00  0.00     0.041 C 
ATOM      3  O   UNL     1      17.082  -2.642 -24.144  1.00  0.00    -0.550 OA
ATOM      4  O   UNL     1      18.378  -1.416 -25.579  1.00  0.00    -0.550 OA
ENDBRANCH   1   2
BRANCH   1   5
ATOM      5  C   UNL     1      16.675   0.348 -23.173  1.00  0.00     0.006 C 
BRANCH   5   6
ATOM      6  C   UNL     1      16.756   1.603 -24.062  1.00  0.00    -0.003 C 
ATOM      7  C   UNL     1      15.935   1.487 -25.344  1.00  0.00     0.004 C 
ENDBRANCH   5   6
ENDBRANCH   1   5
TORSDOF 3
ENDMDL
MODEL 5
REMARK VINA RESULT:    -3.631      1.546      2.107
REMARK INTER + INTRA:          -4.314
REMARK INTER:                  -4.225
REMARK INTRA:                  -0.090
REMARK UNBOUND:                -0.046
REMARK SMILES CCCCC(=O)[O-]
REMARK SMILES IDX 4 1 5 2 6 3 7 4 3 5 2 6 1 7
REMARK H PARENT
REMARK Flexibility Score: inf
ROOT
ATOM      1  C   UNL     1      19.405  -0.310 -16.183  1.00  0.00     0.053 C 
ENDROOT
BRANCH   1   2
ATOM      2  C   UNL     1      18.771   0.574 -15.153  1.00  0.00     0.041 C 
ATOM      3  O   UNL     1      17.535   0.816 -15.197  1.00  0.00    -0.550 OA
ATOM      4  O   UNL     1      19.538   1.109 -14.126  1.00  0.00    -0.550 OA
ENDBRANCH   1   2
BRANCH   1   5
ATOM      5  C   UNL     1      20.131  -1.516 -15.563  1.00  0.00     0.006 C 
BRANCH   5   6
ATOM      6  C   UNL     1      21.650  -1.319 -15.409  1.00  0.00    -0.003 C 
ATOM      7  C   UNL     1      22.236  -0.339 -16.423  1.00  0.00     0.004 C 
ENDBRANCH   5   6
ENDBRANCH   1   5
TORSDOF 3
ENDMDL
MODEL 6
REMARK VINA RESULT:    -3.549      8.552      9.511
REMARK INTER + INTRA:          -4.218
REMARK INTER:                  -4.112
REMARK INTRA:                  -0.106
REMARK UNBOUND:                -0.046
REMARK SMILES CCCCC(=O)[O-]
REMARK SMILES IDX 4 1 5 2 6 3 7 4 3 5 2 6 1 7
REMARK H PARENT
REMARK Flexibility Score: inf
ROOT
ATOM      1  C   UNL     1      18.016  -0.390 -25.179  1.00  0.00     0.053 C 
ENDROOT
BRANCH   1   2
ATOM      2  C   UNL     1      17.161  -1.091 -24.168  1.00  0.00     0.041 C 
ATOM      3  O   UNL     1      17.049  -2.346 -24.191  1.00  0.00    -0.550 OA
ATOM      4  O   UNL     1      16.511  -0.362 -23.181  1.00  0.00    -0.550 OA
ENDBRANCH   1   2
BRANCH   1   5
ATOM      5  C   UNL     1      17.206   0.146 -26.372  1.00  0.00     0.006 C 
BRANCH   5   6
ATOM      6  C   UNL     1      17.069   1.680 -26.395  1.00  0.00    -0.003 C 
ATOM      7  C   UNL     1      15.836   2.185 -25.650  1.00  0.00     0.004 C 
ENDBRANCH   5   6
ENDBRANCH   1   5
TORSDOF 3
ENDMDL
MODEL 7
REMARK VINA RESULT:    -3.546     16.422     17.819
REMARK INTER + INTRA:          -4.214
REMARK INTER:                  -4.127
REMARK INTRA:                  -0.087
REMARK UNBOUND:                -0.046
REMARK SMILES CCCCC(=O)[O-]
REMARK SMILES IDX 4 1 5 2 6 3 7 4 3 5 2 6 1 7
REMARK H PARENT
REMARK Flexibility Score: inf
ROOT
ATOM      1  C   UNL     1      26.521 -13.321 -25.120  1.00  0.00     0.053 C 
ENDROOT
BRANCH   1   2
ATOM      2  C   UNL     1      25.399 -14.311 -25.058  1.00  0.00     0.041 C 
ATOM      3  O   UNL     1      25.641 -15.546 -25.009  1.00  0.00    -0.550 OA
ATOM      4  O   UNL     1      24.082 -13.869 -25.025  1.00  0.00    -0.550 OA
ENDBRANCH   1   2
BRANCH   1   5
ATOM      5  C   UNL     1      26.845 -12.880 -26.558  1.00  0.00     0.006 C 
BRANCH   5   6
ATOM      6  C   UNL     1      26.558 -11.392 -26.834  1.00  0.00    -0.003 C 
ATOM      7  C   UNL     1      26.233 -10.598 -25.571  1.00  0.00     0.004 C 
ENDBRANCH   5   6
ENDBRANCH   1   5
TORSDOF 3
ENDMDL
MODEL 8
REMARK VINA RESULT:    -3.486      9.245     10.073
REMARK INTER + INTRA:          -4.144
REMARK INTER:                  -4.029
REMARK INTRA:                  -0.115
REMARK UNBOUND:                -0.046
REMARK SMILES CCCCC(=O)[O-]
REMARK SMILES IDX 4 1 5 2 6 3 7 4 3 5 2 6 1 7
REMARK H PARENT
REMARK Flexibility Score: inf
ROOT
ATOM      1  C   UNL     1      16.949   1.793 -26.514  1.00  0.00     0.053 C 
ENDROOT
BRANCH   1   2
ATOM      2  C   UNL     1      17.810   0.584 -26.717  1.00  0.00     0.041 C 
ATOM      3  O   UNL     1      19.046   0.636 -26.479  1.00  0.00    -0.550 OA
ATOM      4  O   UNL     1      17.242  -0.611 -27.141  1.00  0.00    -0.550 OA
ENDBRANCH   1   2
BRANCH   1   5
ATOM      5  C   UNL     1      16.038   1.674 -25.280  1.00  0.00     0.006 C 
BRANCH   5   6
ATOM      6  C   UNL     1      16.797   1.670 -23.941  1.00  0.00    -0.003 C 
ATOM      7  C   UNL     1      16.637   0.367 -23.162  1.00  0.00     0.004 C 
ENDBRANCH   5   6
ENDBRANCH   1   5
TORSDOF 3
ENDMDL
MODEL 9
REMARK VINA RESULT:    -3.438      7.614      8.527
REMARK INTER + INTRA:          -4.087
REMARK INTER:                  -4.026
REMARK INTRA:                  -0.061
REMARK UNBOUND:                -0.046
REMARK SMILES CCCCC(=O)[O-]
REMARK SMILES IDX 4 1 5 2 6 3 7 4 3 5 2 6 1 7
REMARK H PARENT
REMARK Flexibility Score: inf
ROOT
ATOM      1  C   UNL     1      16.410   0.158 -23.551  1.00  0.00     0.053 C 
ENDROOT
BRANCH   1   2
ATOM      2  C   UNL     1      16.731  -0.867 -24.596  1.00  0.00     0.041 C 
ATOM      3  O   UNL     1      16.685  -0.566 -25.818  1.00  0.00    -0.550 OA
ATOM      4  O   UNL     1      17.110  -2.149 -24.219  1.00  0.00    -0.550 OA
ENDBRANCH   1   2
BRANCH   1   5
ATOM      5  C   UNL     1      16.860   1.574 -23.950  1.00  0.00     0.006 C 
BRANCH   5   6
ATOM      6  C   UNL     1      17.917   2.182 -23.011  1.00  0.00    -0.003 C 
ATOM      7  C   UNL     1      18.336   1.238 -21.885  1.00  0.00     0.004 C 
ENDBRANCH   5   6
ENDBRANCH   1   5
TORSDOF 3
ENDMDL
