MODEL 1
REMARK VINA RESULT:    -2.974      0.000      0.000
REMARK INTER + INTRA:          -6.181
REMARK INTER:                  -5.235
REMARK INTRA:                  -0.946
REMARK UNBOUND:                -0.946
REMARK SMILES CCCCCCCCCCCCCCC(=O)[O-]
REMARK SMILES IDX 9 1 10 2 11 3 12 4 13 5 14 6 15 7 16 8 17 9 8 10 7 11 6 12
REMARK SMILES IDX 5 13 4 14 3 15 2 16 1 17
REMARK H PARENT
REMARK Flexibility Score: inf
ROOT
ATOM      1  C   UNL     1     -21.389   1.952   7.217  1.00  0.00     0.000 C 
ENDROOT
BRANCH   1   2
ATOM      2  C   UNL     1     -21.957   2.326   8.595  1.00  0.00     0.000 C 
BRANCH   2   3
ATOM      3  C   UNL     1     -21.732   1.223   9.644  1.00  0.00     0.000 C 
BRANCH   3   4
ATOM      4  C   UNL     1     -22.551   1.450  10.924  1.00  0.00     0.000 C 
BRANCH   4   5
ATOM      5  C   UNL     1     -21.674   1.495  12.185  1.00  0.00     0.006 C 
BRANCH   5   6
ATOM      6  C   UNL     1     -22.253   0.602  13.286  1.00  0.00     0.053 C 
BRANCH   6   7
ATOM      7  C   UNL     1     -21.304  -0.508  13.614  1.00  0.00     0.041 C 
ATOM      8  O   UNL     1     -20.634  -0.474  14.680  1.00  0.00    -0.550 OA
ATOM      9  O   UNL     1     -21.123  -1.554  12.720  1.00  0.00    -0.550 OA
ENDBRANCH   6   7
ENDBRANCH   5   6
ENDBRANCH   4   5
ENDBRANCH   3   4
ENDBRANCH   2   3
ENDBRANCH   1   2
BRANCH   1  10
ATOM     10  C   UNL     1     -20.628   0.615   7.235  1.00  0.00     0.000 C 
BRANCH  10  11
ATOM     11  C   UNL     1     -21.356  -0.490   6.454  1.00  0.00    -0.000 C 
BRANCH  11  12
ATOM     12  C   UNL     1     -21.021  -1.897   6.970  1.00  0.00    -0.000 C 
BRANCH  12  13
ATOM     13  C   UNL     1     -20.658  -1.864   8.462  1.00  0.00    -0.000 C 
BRANCH  13  14
ATOM     14  C   UNL     1     -20.053  -3.200   8.944  1.00  0.00    -0.000 C 
BRANCH  14  15
ATOM     15  C   UNL     1     -19.901  -4.245   7.825  1.00  0.00    -0.000 C 
BRANCH  15  16
ATOM     16  C   UNL     1     -20.106  -5.684   8.319  1.00  0.00    -0.003 C 
ATOM     17  C   UNL     1     -21.590  -6.027   8.411  1.00  0.00     0.004 C 
ENDBRANCH  15  16
ENDBRANCH  14  15
ENDBRANCH  13  14
ENDBRANCH  12  13
ENDBRANCH  11  12
ENDBRANCH  10  11
ENDBRANCH   1  10
TORSDOF 13
ENDMDL
MODEL 2
REMARK VINA RESULT:    -2.967      1.821      5.483
REMARK INTER + INTRA:          -6.167
REMARK INTER:                  -5.239
REMARK INTRA:                  -0.928
REMARK UNBOUND:                -0.946
REMARK SMILES CCCCCCCCCCCCCCC(=O)[O-]
REMARK SMILES IDX 9 1 10 2 11 3 12 4 13 5 14 6 15 7 16 8 17 9 8 10 7 11 6 12
REMARK SMILES IDX 5 13 4 14 3 15 2 16 1 17
REMARK H PARENT
REMARK Flexibility Score: inf
ROOT
ATOM      1  C   UNL     1     -21.366  -1.623   6.908  1.00  0.00     0.000 C 
ENDROOT
BRANCH   1   2
ATOM      2  C   UNL     1     -20.524  -2.252   8.028  1.00  0.00     0.000 C 
BRANCH   2   3
ATOM      3  C   UNL     1     -20.647  -1.488   9.358  1.00  0.00     0.000 C 
BRANCH   3   4
ATOM      4  C   UNL     1     -20.886  -2.421  10.555  1.00  0.00     0.000 C 
BRANCH   4   5
ATOM      5  C   UNL     1     -20.433  -1.802  11.886  1.00  0.00     0.006 C 
BRANCH   5   6
ATOM      6  C   UNL     1     -21.622  -1.605  12.831  1.00  0.00     0.053 C 
BRANCH   6   7
ATOM      7  C   UNL     1     -21.494  -0.312  13.573  1.00  0.00     0.041 C 
ATOM      8  O   UNL     1     -20.998  -0.293  14.730  1.00  0.00    -0.550 OA
ATOM      9  O   UNL     1     -21.968   0.864  13.008  1.00  0.00    -0.550 OA
ENDBRANCH   6   7
ENDBRANCH   5   6
ENDBRANCH   4   5
ENDBRANCH   3   4
ENDBRANCH   2   3
ENDBRANCH   1   2
BRANCH   1  10
ATOM     10  C   UNL     1     -20.696  -0.383   6.290  1.00  0.00     0.000 C 
BRANCH  10  11
ATOM     11  C   UNL     1     -21.595   0.862   6.342  1.00  0.00    -0.000 C 
BRANCH  11  12
ATOM     12  C   UNL     1     -21.106   1.901   7.361  1.00  0.00    -0.000 C 
BRANCH  12  13
ATOM     13  C   UNL     1     -21.808   1.719   8.715  1.00  0.00    -0.000 C 
BRANCH  13  14
ATOM     14  C   UNL     1     -22.414   3.038   9.239  1.00  0.00    -0.000 C 
BRANCH  14  15
ATOM     15  C   UNL     1     -22.480   4.150   8.177  1.00  0.00    -0.000 C 
BRANCH  15  16
ATOM     16  C   UNL     1     -22.259   5.551   8.763  1.00  0.00    -0.003 C 
ATOM     17  C   UNL     1     -20.894   5.656   9.437  1.00  0.00     0.004 C 
ENDBRANCH  15  16
ENDBRANCH  14  15
ENDBRANCH  13  14
ENDBRANCH  12  13
ENDBRANCH  11  12
ENDBRANCH  10  11
ENDBRANCH   1  10
TORSDOF 13
ENDMDL
MODEL 3
REMARK VINA RESULT:    -2.433      1.522      2.112
REMARK INTER + INTRA:          -5.229
REMARK INTER:                  -3.948
REMARK INTRA:                  -1.281
REMARK UNBOUND:                -0.946
REMARK SMILES CCCCCCCCCCCCCCC(=O)[O-]
REMARK SMILES IDX 9 1 10 2 11 3 12 4 13 5 14 6 15 7 16 8 17 9 8 10 7 11 6 12
REMARK SMILES IDX 5 13 4 14 3 15 2 16 1 17
REMARK H PARENT
REMARK Flexibility Score: inf
ROOT
ATOM      1  C   UNL     1     -21.105   1.452   8.083  1.00  0.00     0.000 C 
ENDROOT
BRANCH   1   2
ATOM      2  C   UNL     1     -22.174   2.469   8.513  1.00  0.00     0.000 C 
BRANCH   2   3
ATOM      3  C   UNL     1     -22.791   2.131   9.881  1.00  0.00     0.000 C 
BRANCH   3   4
ATOM      4  C   UNL     1     -21.771   1.521  10.855  1.00  0.00     0.000 C 
BRANCH   4   5
ATOM      5  C   UNL     1     -22.395   1.149  12.208  1.00  0.00     0.006 C 
BRANCH   5   6
ATOM      6  C   UNL     1     -21.354   1.216  13.329  1.00  0.00     0.053 C 
BRANCH   6   7
ATOM      7  C   UNL     1     -21.445   0.004  14.203  1.00  0.00     0.041 C 
ATOM      8  O   UNL     1     -20.409  -0.467  14.741  1.00  0.00    -0.550 OA
ATOM      9  O   UNL     1     -22.665  -0.634  14.382  1.00  0.00    -0.550 OA
ENDBRANCH   6   7
ENDBRANCH   5   6
ENDBRANCH   4   5
ENDBRANCH   3   4
ENDBRANCH   2   3
ENDBRANCH   1   2
BRANCH   1  10
ATOM     10  C   UNL     1     -20.999   1.318   6.554  1.00  0.00     0.000 C 
BRANCH  10  11
ATOM     11  C   UNL     1     -20.766  -0.132   6.101  1.00  0.00    -0.000 C 
BRANCH  11  12
ATOM     12  C   UNL     1     -21.542  -1.148   6.951  1.00  0.00    -0.000 C 
BRANCH  12  13
ATOM     13  C   UNL     1     -20.750  -2.455   7.108  1.00  0.00    -0.000 C 
BRANCH  13  14
ATOM     14  C   UNL     1     -20.353  -2.723   8.575  1.00  0.00    -0.000 C 
BRANCH  14  15
ATOM     15  C   UNL     1     -20.786  -1.609   9.543  1.00  0.00    -0.000 C 
BRANCH  15  16
ATOM     16  C   UNL     1     -20.192  -1.773  10.949  1.00  0.00    -0.003 C 
ATOM     17  C   UNL     1     -21.201  -2.407  11.902  1.00  0.00     0.004 C 
ENDBRANCH  15  16
ENDBRANCH  14  15
ENDBRANCH  13  14
ENDBRANCH  12  13
ENDBRANCH  11  12
ENDBRANCH  10  11
ENDBRANCH   1  10
TORSDOF 13
ENDMDL
MODEL 4
REMARK VINA RESULT:    -2.407      2.647      4.809
REMARK INTER + INTRA:          -5.182
REMARK INTER:                  -3.885
REMARK INTRA:                  -1.296
REMARK UNBOUND:                -0.946
REMARK SMILES CCCCCCCCCCCCCCC(=O)[O-]
REMARK SMILES IDX 9 1 10 2 11 3 12 4 13 5 14 6 15 7 16 8 17 9 8 10 7 11 6 12
REMARK SMILES IDX 5 13 4 14 3 15 2 16 1 17
REMARK H PARENT
REMARK Flexibility Score: inf
ROOT
ATOM      1  C   UNL     1     -22.286   0.570  12.930  1.00  0.00     0.000 C 
ENDROOT
BRANCH   1   2
ATOM      2  C   UNL     1     -21.676   1.544  11.909  1.00  0.00     0.000 C 
BRANCH   2   3
ATOM      3  C   UNL     1     -22.388   1.491  10.546  1.00  0.00     0.000 C 
BRANCH   3   4
ATOM      4  C   UNL     1     -21.502   0.897   9.440  1.00  0.00     0.000 C 
BRANCH   4   5
ATOM      5  C   UNL     1     -21.736   1.561   8.075  1.00  0.00     0.006 C 
BRANCH   5   6
ATOM      6  C   UNL     1     -20.645   1.162   7.077  1.00  0.00     0.053 C 
BRANCH   6   7
ATOM      7  C   UNL     1     -21.000  -0.124   6.399  1.00  0.00     0.041 C 
ATOM      8  O   UNL     1     -22.156  -0.607   6.523  1.00  0.00    -0.550 OA
ATOM      9  O   UNL     1     -20.039  -0.814   5.671  1.00  0.00    -0.550 OA
ENDBRANCH   6   7
ENDBRANCH   5   6
ENDBRANCH   4   5
ENDBRANCH   3   4
ENDBRANCH   2   3
ENDBRANCH   1   2
BRANCH   1  10
ATOM     10  C   UNL     1     -21.266  -0.459  13.446  1.00  0.00     0.000 C 
BRANCH  10  11
ATOM     11  C   UNL     1     -21.375  -1.813  12.725  1.00  0.00    -0.000 C 
BRANCH  11  12
ATOM     12  C   UNL     1     -20.354  -1.960  11.589  1.00  0.00    -0.000 C 
BRANCH  12  13
ATOM     13  C   UNL     1     -21.033  -2.432  10.294  1.00  0.00    -0.000 C 
BRANCH  13  14
ATOM     14  C   UNL     1     -20.061  -2.444   9.096  1.00  0.00    -0.000 C 
BRANCH  14  15
ATOM     15  C   UNL     1     -20.478  -3.411   7.974  1.00  0.00    -0.000 C 
BRANCH  15  16
ATOM     16  C   UNL     1     -19.772  -4.771   8.064  1.00  0.00    -0.003 C 
ATOM     17  C   UNL     1     -20.783  -5.909   8.177  1.00  0.00     0.004 C 
ENDBRANCH  15  16
ENDBRANCH  14  15
ENDBRANCH  13  14
ENDBRANCH  12  13
ENDBRANCH  11  12
ENDBRANCH  10  11
ENDBRANCH   1  10
TORSDOF 13
ENDMDL
MODEL 5
REMARK VINA RESULT:    -2.384      3.184      7.055
REMARK INTER + INTRA:          -5.142
REMARK INTER:                  -4.215
REMARK INTRA:                  -0.928
REMARK UNBOUND:                -0.946
REMARK SMILES CCCCCCCCCCCCCCC(=O)[O-]
REMARK SMILES IDX 9 1 10 2 11 3 12 4 13 5 14 6 15 7 16 8 17 9 8 10 7 11 6 12
REMARK SMILES IDX 5 13 4 14 3 15 2 16 1 17
REMARK H PARENT
REMARK Flexibility Score: inf
ROOT
ATOM      1  C   UNL     1     -21.737  -1.433  12.838  1.00  0.00     0.000 C 
ENDROOT
BRANCH   1   2
ATOM      2  C   UNL     1     -20.627  -1.898  11.883  1.00  0.00     0.000 C 
BRANCH   2   3
ATOM      3  C   UNL     1     -20.901  -1.497  10.423  1.00  0.00     0.000 C 
BRANCH   3   4
ATOM      4  C   UNL     1     -20.314  -2.499   9.415  1.00  0.00     0.000 C 
BRANCH   4   5
ATOM      5  C   UNL     1     -20.609  -2.112   7.958  1.00  0.00     0.006 C 
BRANCH   5   6
ATOM      6  C   UNL     1     -21.158  -0.685   7.870  1.00  0.00     0.053 C 
BRANCH   6   7
ATOM      7  C   UNL     1     -20.969  -0.135   6.492  1.00  0.00     0.041 C 
ATOM      8  O   UNL     1     -20.121  -0.648   5.716  1.00  0.00    -0.550 OA
ATOM      9  O   UNL     1     -21.694   0.977   6.082  1.00  0.00    -0.550 OA
ENDBRANCH   6   7
ENDBRANCH   5   6
ENDBRANCH   4   5
ENDBRANCH   3   4
ENDBRANCH   2   3
ENDBRANCH   1   2
BRANCH   1  10
ATOM     10  C   UNL     1     -21.250  -0.368  13.836  1.00  0.00     0.000 C 
BRANCH  10  11
ATOM     11  C   UNL     1     -21.392   1.062  13.290  1.00  0.00    -0.000 C 
BRANCH  11  12
ATOM     12  C   UNL     1     -22.314   1.137  12.065  1.00  0.00    -0.000 C 
BRANCH  12  13
ATOM     13  C   UNL     1     -21.625   1.866  10.901  1.00  0.00    -0.000 C 
BRANCH  13  14
ATOM     14  C   UNL     1     -22.626   2.290   9.805  1.00  0.00    -0.000 C 
BRANCH  14  15
ATOM     15  C   UNL     1     -21.988   3.119   8.676  1.00  0.00    -0.000 C 
BRANCH  15  16
ATOM     16  C   UNL     1     -22.658   4.486   8.487  1.00  0.00    -0.003 C 
ATOM     17  C   UNL     1     -21.705   5.621   8.850  1.00  0.00     0.004 C 
ENDBRANCH  15  16
ENDBRANCH  14  15
ENDBRANCH  13  14
ENDBRANCH  12  13
ENDBRANCH  11  12
ENDBRANCH  10  11
ENDBRANCH   1  10
TORSDOF 13
ENDMDL
MODEL 6
REMARK VINA RESULT:    -2.221      3.134      5.394
REMARK INTER + INTRA:          -4.856
REMARK INTER:                  -3.765
REMARK INTRA:                  -1.091
REMARK UNBOUND:                -0.946
REMARK SMILES CCCCCCCCCCCCCCC(=O)[O-]
REMARK SMILES IDX 9 1 10 2 11 3 12 4 13 5 14 6 15 7 16 8 17 9 8 10 7 11 6 12
REMARK SMILES IDX 5 13 4 14 3 15 2 16 1 17
REMARK H PARENT
REMARK Flexibility Score: inf
ROOT
ATOM      1  C   UNL     1     -21.598  -0.723   7.130  1.00  0.00     0.000 C 
ENDROOT
BRANCH   1   2
ATOM      2  C   UNL     1     -20.919   0.507   6.508  1.00  0.00     0.000 C 
BRANCH   2   3
ATOM      3  C   UNL     1     -21.195   1.796   7.303  1.00  0.00     0.000 C 
BRANCH   3   4
ATOM      4  C   UNL     1     -21.736   1.516   8.714  1.00  0.00     0.000 C 
BRANCH   4   5
ATOM      5  C   UNL     1     -22.188   2.793   9.437  1.00  0.00     0.006 C 
BRANCH   5   6
ATOM      6  C   UNL     1     -22.685   3.841   8.438  1.00  0.00     0.053 C 
BRANCH   6   7
ATOM      7  C   UNL     1     -22.105   5.184   8.755  1.00  0.00     0.041 C 
ATOM      8  O   UNL     1     -22.459   6.197   8.096  1.00  0.00    -0.550 OA
ATOM      9  O   UNL     1     -21.137   5.308   9.742  1.00  0.00    -0.550 OA
ENDBRANCH   6   7
ENDBRANCH   5   6
ENDBRANCH   4   5
ENDBRANCH   3   4
ENDBRANCH   2   3
ENDBRANCH   1   2
BRANCH   1  10
ATOM     10  C   UNL     1     -20.706  -1.976   7.084  1.00  0.00     0.000 C 
BRANCH  10  11
ATOM     11  C   UNL     1     -20.303  -2.466   8.484  1.00  0.00    -0.000 C 
BRANCH  11  12
ATOM     12  C   UNL     1     -20.923  -1.621   9.607  1.00  0.00    -0.000 C 
BRANCH  12  13
ATOM     13  C   UNL     1     -20.237  -1.904  10.952  1.00  0.00    -0.000 C 
BRANCH  13  14
ATOM     14  C   UNL     1     -21.249  -1.999  12.113  1.00  0.00    -0.000 C 
BRANCH  14  15
ATOM     15  C   UNL     1     -20.929  -1.056  13.286  1.00  0.00    -0.000 C 
BRANCH  15  16
ATOM     16  C   UNL     1     -22.010   0.012  13.506  1.00  0.00    -0.003 C 
ATOM     17  C   UNL     1     -21.647   1.316  12.801  1.00  0.00     0.004 C 
ENDBRANCH  15  16
ENDBRANCH  14  15
ENDBRANCH  13  14
ENDBRANCH  12  13
ENDBRANCH  11  12
ENDBRANCH  10  11
ENDBRANCH   1  10
TORSDOF 13
ENDMDL
MODEL 7
REMARK VINA RESULT:    -2.170      2.437      5.700
REMARK INTER + INTRA:          -4.765
REMARK INTER:                  -3.653
REMARK INTRA:                  -1.111
REMARK UNBOUND:                -0.946
REMARK SMILES CCCCCCCCCCCCCCC(=O)[O-]
REMARK SMILES IDX 9 1 10 2 11 3 12 4 13 5 14 6 15 7 16 8 17 9 8 10 7 11 6 12
REMARK SMILES IDX 5 13 4 14 3 15 2 16 1 17
REMARK H PARENT
REMARK Flexibility Score: inf
ROOT
ATOM      1  C   UNL     1     -20.744   0.799   7.588  1.00  0.00     0.000 C 
ENDROOT
BRANCH   1   2
ATOM      2  C   UNL     1     -21.111  -0.236   6.512  1.00  0.00     0.000 C 
BRANCH   2   3
ATOM      3  C   UNL     1     -21.055  -1.680   7.041  1.00  0.00     0.000 C 
BRANCH   3   4
ATOM      4  C   UNL     1     -20.687  -1.749   8.532  1.00  0.00     0.000 C 
BRANCH   4   5
ATOM      5  C   UNL     1     -20.308  -3.168   8.981  1.00  0.00     0.006 C 
BRANCH   5   6
ATOM      6  C   UNL     1     -20.028  -4.068   7.775  1.00  0.00     0.053 C 
BRANCH   6   7
ATOM      7  C   UNL     1     -20.326  -5.497   8.105  1.00  0.00     0.041 C 
ATOM      8  O   UNL     1     -19.586  -6.416   7.665  1.00  0.00    -0.550 OA
ATOM      9  O   UNL     1     -21.449  -5.816   8.857  1.00  0.00    -0.550 OA
ENDBRANCH   6   7
ENDBRANCH   5   6
ENDBRANCH   4   5
ENDBRANCH   3   4
ENDBRANCH   2   3
ENDBRANCH   1   2
BRANCH   1  10
ATOM     10  C   UNL     1     -21.728   1.981   7.629  1.00  0.00     0.000 C 
BRANCH  10  11
ATOM     11  C   UNL     1     -22.156   2.344   9.060  1.00  0.00    -0.000 C 
BRANCH  11  12
ATOM     12  C   UNL     1     -21.640   1.342  10.103  1.00  0.00    -0.000 C 
BRANCH  12  13
ATOM     13  C   UNL     1     -22.445   1.442  11.408  1.00  0.00    -0.000 C 
BRANCH  13  14
ATOM     14  C   UNL     1     -21.560   1.232  12.655  1.00  0.00    -0.000 C 
BRANCH  14  15
ATOM     15  C   UNL     1     -22.067   0.120  13.589  1.00  0.00    -0.000 C 
BRANCH  15  16
ATOM     16  C   UNL     1     -21.143  -1.105  13.618  1.00  0.00    -0.003 C 
ATOM     17  C   UNL     1     -21.154  -1.834  12.277  1.00  0.00     0.004 C 
ENDBRANCH  15  16
ENDBRANCH  14  15
ENDBRANCH  13  14
ENDBRANCH  12  13
ENDBRANCH  11  12
ENDBRANCH  10  11
ENDBRANCH   1  10
TORSDOF 13
ENDMDL
MODEL 8
REMARK VINA RESULT:    -2.055      1.530      4.626
REMARK INTER + INTRA:          -4.564
REMARK INTER:                  -3.142
REMARK INTRA:                  -1.422
REMARK UNBOUND:                -0.946
REMARK SMILES CCCCCCCCCCCCCCC(=O)[O-]
REMARK SMILES IDX 9 1 10 2 11 3 12 4 13 5 14 6 15 7 16 8 17 9 8 10 7 11 6 12
REMARK SMILES IDX 5 13 4 14 3 15 2 16 1 17
REMARK H PARENT
REMARK Flexibility Score: inf
ROOT
ATOM      1  C   UNL     1     -20.305  -2.724   7.549  1.00  0.00     0.000 C 
ENDROOT
BRANCH   1   2
ATOM      2  C   UNL     1     -20.276  -2.864   9.079  1.00  0.00     0.000 C 
BRANCH   2   3
ATOM      3  C   UNL     1     -20.640  -1.552   9.797  1.00  0.00     0.000 C 
BRANCH   3   4
ATOM      4  C   UNL     1     -20.390  -1.619  11.312  1.00  0.00     0.000 C 
BRANCH   4   5
ATOM      5  C   UNL     1     -21.561  -2.254  12.076  1.00  0.00     0.006 C 
BRANCH   5   6
ATOM      6  C   UNL     1     -21.331  -2.183  13.589  1.00  0.00     0.053 C 
BRANCH   6   7
ATOM      7  C   UNL     1     -21.649  -0.815  14.104  1.00  0.00     0.041 C 
ATOM      8  O   UNL     1     -22.821  -0.362  14.017  1.00  0.00    -0.550 OA
ATOM      9  O   UNL     1     -20.642  -0.020  14.635  1.00  0.00    -0.550 OA
ENDBRANCH   6   7
ENDBRANCH   5   6
ENDBRANCH   4   5
ENDBRANCH   3   4
ENDBRANCH   2   3
ENDBRANCH   1   2
BRANCH   1  10
ATOM     10  C   UNL     1     -21.316  -1.668   7.071  1.00  0.00     0.000 C 
BRANCH  10  11
ATOM     11  C   UNL     1     -20.689  -0.636   6.122  1.00  0.00    -0.000 C 
BRANCH  11  12
ATOM     12  C   UNL     1     -21.304   0.762   6.279  1.00  0.00    -0.000 C 
BRANCH  12  13
ATOM     13  C   UNL     1     -21.138   1.279   7.716  1.00  0.00    -0.000 C 
BRANCH  13  14
ATOM     14  C   UNL     1     -21.809   2.654   7.922  1.00  0.00    -0.000 C 
BRANCH  14  15
ATOM     15  C   UNL     1     -22.540   2.785   9.270  1.00  0.00    -0.000 C 
BRANCH  15  16
ATOM     16  C   UNL     1     -22.455   1.512  10.123  1.00  0.00    -0.003 C 
ATOM     17  C   UNL     1     -21.808   1.798  11.475  1.00  0.00     0.004 C 
ENDBRANCH  15  16
ENDBRANCH  14  15
ENDBRANCH  13  14
ENDBRANCH  12  13
ENDBRANCH  11  12
ENDBRANCH  10  11
ENDBRANCH   1  10
TORSDOF 13
ENDMDL
MODEL 9
REMARK VINA RESULT:    -1.902      2.584      6.031
REMARK INTER + INTRA:          -4.293
REMARK INTER:                  -3.073
REMARK INTRA:                  -1.220
REMARK UNBOUND:                -0.946
REMARK SMILES CCCCCCCCCCCCCCC(=O)[O-]
REMARK SMILES IDX 9 1 10 2 11 3 12 4 13 5 14 6 15 7 16 8 17 9 8 10 7 11 6 12
REMARK SMILES IDX 5 13 4 14 3 15 2 16 1 17
REMARK H PARENT
REMARK Flexibility Score: inf
ROOT
ATOM      1  C   UNL     1     -22.045  -0.992  13.052  1.00  0.00     0.000 C 
ENDROOT
BRANCH   1   2
ATOM      2  C   UNL     1     -21.204  -2.165  12.524  1.00  0.00     0.000 C 
BRANCH   2   3
ATOM      3  C   UNL     1     -20.343  -1.773  11.310  1.00  0.00     0.000 C 
BRANCH   3   4
ATOM      4  C   UNL     1     -20.884  -2.349   9.992  1.00  0.00     0.000 C 
BRANCH   4   5
ATOM      5  C   UNL     1     -19.807  -3.092   9.186  1.00  0.00     0.006 C 
BRANCH   5   6
ATOM      6  C   UNL     1     -20.421  -3.804   7.978  1.00  0.00     0.053 C 
BRANCH   6   7
ATOM      7  C   UNL     1     -20.356  -5.288   8.153  1.00  0.00     0.041 C 
ATOM      8  O   UNL     1     -19.383  -5.939   7.688  1.00  0.00    -0.550 OA
ATOM      9  O   UNL     1     -21.393  -5.960   8.787  1.00  0.00    -0.550 OA
ENDBRANCH   6   7
ENDBRANCH   5   6
ENDBRANCH   4   5
ENDBRANCH   3   4
ENDBRANCH   2   3
ENDBRANCH   1   2
BRANCH   1  10
ATOM     10  C   UNL     1     -21.195   0.255  13.353  1.00  0.00     0.000 C 
BRANCH  10  11
ATOM     11  C   UNL     1     -21.659   1.491  12.566  1.00  0.00    -0.000 C 
BRANCH  11  12
ATOM     12  C   UNL     1     -22.446   1.124  11.300  1.00  0.00    -0.000 C 
BRANCH  12  13
ATOM     13  C   UNL     1     -21.876   1.844  10.069  1.00  0.00    -0.000 C 
BRANCH  13  14
ATOM     14  C   UNL     1     -21.497   0.859   8.942  1.00  0.00    -0.000 C 
BRANCH  14  15
ATOM     15  C   UNL     1     -21.334   1.531   7.567  1.00  0.00    -0.000 C 
BRANCH  15  16
ATOM     16  C   UNL     1     -20.882   0.553   6.473  1.00  0.00    -0.003 C 
ATOM     17  C   UNL     1     -21.500  -0.827   6.681  1.00  0.00     0.004 C 
ENDBRANCH  15  16
ENDBRANCH  14  15
ENDBRANCH  13  14
ENDBRANCH  12  13
ENDBRANCH  11  12
ENDBRANCH  10  11
ENDBRANCH   1  10
TORSDOF 13
ENDMDL
