MODEL 1
REMARK VINA RESULT:    -3.930      0.000      0.000
REMARK INTER + INTRA:          -6.511
REMARK INTER:                  -5.998
REMARK INTRA:                  -0.513
REMARK UNBOUND:                -0.513
REMARK SMILES O=C([O-])CCCCCCCCC(=O)[O-]
REMARK SMILES IDX 7 1 6 2 5 3 4 4 2 5 1 6 3 7 8 8 9 9 10 10 11 11 12 12 13 13
REMARK SMILES IDX 14 14
REMARK H PARENT
REMARK Flexibility Score: inf
ROOT
ATOM      1  C   UNL     1      26.803 -13.920  -1.499  1.00  0.00     0.000 C 
ENDROOT
BRANCH   1   2
ATOM      2  C   UNL     1      25.737 -13.278  -0.594  1.00  0.00     0.000 C 
BRANCH   2   3
ATOM      3  C   UNL     1      24.307 -13.507  -1.112  1.00  0.00     0.006 C 
BRANCH   3   4
ATOM      4  C   UNL     1      24.273 -13.941  -2.584  1.00  0.00     0.053 C 
BRANCH   4   5
ATOM      5  C   UNL     1      23.638 -15.289  -2.714  1.00  0.00     0.041 C 
ATOM      6  O   UNL     1      24.016 -16.084  -3.614  1.00  0.00    -0.550 OA
ATOM      7  O   UNL     1      22.662 -15.687  -1.810  1.00  0.00    -0.550 OA
ENDBRANCH   4   5
ENDBRANCH   3   4
ENDBRANCH   2   3
ENDBRANCH   1   2
BRANCH   1   8
ATOM      8  C   UNL     1      28.100 -14.250  -0.740  1.00  0.00     0.000 C 
BRANCH   8   9
ATOM      9  C   UNL     1      27.852 -14.550   0.749  1.00  0.00     0.000 C 
BRANCH   9  10
ATOM     10  C   UNL     1      28.688 -13.654   1.677  1.00  0.00     0.006 C 
BRANCH  10  11
ATOM     11  C   UNL     1      29.690 -12.779   0.913  1.00  0.00     0.053 C 
BRANCH  11  12
ATOM     12  C   UNL     1      30.038 -11.563   1.713  1.00  0.00     0.041 C 
ATOM     13  O   UNL     1      29.632 -11.448   2.900  1.00  0.00    -0.550 OA
ATOM     14  O   UNL     1      30.768 -10.533   1.132  1.00  0.00    -0.550 OA
ENDBRANCH  11  12
ENDBRANCH  10  11
ENDBRANCH   9  10
ENDBRANCH   8   9
ENDBRANCH   1   8
TORSDOF 9
ENDMDL
MODEL 2
REMARK VINA RESULT:    -3.892      2.318      6.452
REMARK INTER + INTRA:          -6.453
REMARK INTER:                  -5.848
REMARK INTRA:                  -0.605
REMARK UNBOUND:                -0.513
REMARK SMILES O=C([O-])CCCCCCCCC(=O)[O-]
REMARK SMILES IDX 7 1 6 2 5 3 4 4 2 5 1 6 3 7 8 8 9 9 10 10 11 11 12 12 13 13
REMARK SMILES IDX 14 14
REMARK H PARENT
REMARK Flexibility Score: inf
ROOT
ATOM      1  C   UNL     1      25.195 -13.222  -0.645  1.00  0.00     0.000 C 
ENDROOT
BRANCH   1   2
ATOM      2  C   UNL     1      26.688 -13.526  -0.868  1.00  0.00     0.000 C 
BRANCH   2   3
ATOM      3  C   UNL     1      27.449 -13.745   0.449  1.00  0.00     0.006 C 
BRANCH   3   4
ATOM      4  C   UNL     1      28.145 -15.111   0.511  1.00  0.00     0.053 C 
BRANCH   4   5
ATOM      5  C   UNL     1      29.628 -14.945   0.401  1.00  0.00     0.041 C 
ATOM      6  O   UNL     1      30.113 -13.889  -0.085  1.00  0.00    -0.550 OA
ATOM      7  O   UNL     1      30.476 -15.936   0.877  1.00  0.00    -0.550 OA
ENDBRANCH   4   5
ENDBRANCH   3   4
ENDBRANCH   2   3
ENDBRANCH   1   2
BRANCH   1   8
ATOM      8  C   UNL     1      24.345 -13.485  -1.899  1.00  0.00     0.000 C 
BRANCH   8   9
ATOM      9  C   UNL     1      23.641 -14.853  -1.859  1.00  0.00     0.000 C 
BRANCH   9  10
ATOM     10  C   UNL     1      23.704 -15.588  -3.208  1.00  0.00     0.006 C 
BRANCH  10  11
ATOM     11  C   UNL     1      25.025 -15.349  -3.952  1.00  0.00     0.053 C 
BRANCH  11  12
ATOM     12  C   UNL     1      26.016 -16.417  -3.613  1.00  0.00     0.041 C 
ATOM     13  O   UNL     1      25.654 -17.623  -3.556  1.00  0.00    -0.550 OA
ATOM     14  O   UNL     1      27.328 -16.078  -3.310  1.00  0.00    -0.550 OA
ENDBRANCH  11  12
ENDBRANCH  10  11
ENDBRANCH   9  10
ENDBRANCH   8   9
ENDBRANCH   1   8
TORSDOF 9
ENDMDL
MODEL 3
REMARK VINA RESULT:    -3.865      3.160      6.372
REMARK INTER + INTRA:          -6.412
REMARK INTER:                  -5.784
REMARK INTRA:                  -0.628
REMARK UNBOUND:                -0.513
REMARK SMILES O=C([O-])CCCCCCCCC(=O)[O-]
REMARK SMILES IDX 7 1 6 2 5 3 4 4 2 5 1 6 3 7 8 8 9 9 10 10 11 11 12 12 13 13
REMARK SMILES IDX 14 14
REMARK H PARENT
REMARK Flexibility Score: inf
ROOT
ATOM      1  C   UNL     1      26.937 -13.497  -0.591  1.00  0.00     0.000 C 
ENDROOT
BRANCH   1   2
ATOM      2  C   UNL     1      27.620 -13.953   0.711  1.00  0.00     0.000 C 
BRANCH   2   3
ATOM      3  C   UNL     1      28.624 -15.095   0.481  1.00  0.00     0.006 C 
BRANCH   3   4
ATOM      4  C   UNL     1      29.163 -15.130  -0.955  1.00  0.00     0.053 C 
BRANCH   4   5
ATOM      5  C   UNL     1      29.040 -16.508  -1.523  1.00  0.00     0.041 C 
ATOM      6  O   UNL     1      28.059 -16.808  -2.254  1.00  0.00    -0.550 OA
ATOM      7  O   UNL     1      30.033 -17.449  -1.286  1.00  0.00    -0.550 OA
ENDBRANCH   4   5
ENDBRANCH   3   4
ENDBRANCH   2   3
ENDBRANCH   1   2
BRANCH   1   8
ATOM      8  C   UNL     1      25.463 -13.111  -0.381  1.00  0.00     0.000 C 
BRANCH   8   9
ATOM      9  C   UNL     1      24.553 -13.618  -1.513  1.00  0.00     0.000 C 
BRANCH   9  10
ATOM     10  C   UNL     1      25.329 -14.389  -2.593  1.00  0.00     0.006 C 
BRANCH  10  11
ATOM     11  C   UNL     1      24.419 -14.942  -3.698  1.00  0.00     0.053 C 
BRANCH  11  12
ATOM     12  C   UNL     1      24.208 -16.412  -3.511  1.00  0.00     0.041 C 
ATOM     13  O   UNL     1      23.134 -16.840  -3.011  1.00  0.00    -0.550 OA
ATOM     14  O   UNL     1      25.216 -17.308  -3.844  1.00  0.00    -0.550 OA
ENDBRANCH  11  12
ENDBRANCH  10  11
ENDBRANCH   9  10
ENDBRANCH   8   9
ENDBRANCH   1   8
TORSDOF 9
ENDMDL
MODEL 4
REMARK VINA RESULT:    -3.839      2.664      3.385
REMARK INTER + INTRA:          -6.372
REMARK INTER:                  -5.842
REMARK INTRA:                  -0.530
REMARK UNBOUND:                -0.513
REMARK SMILES O=C([O-])CCCCCCCCC(=O)[O-]
REMARK SMILES IDX 7 1 6 2 5 3 4 4 2 5 1 6 3 7 8 8 9 9 10 10 11 11 12 12 13 13
REMARK SMILES IDX 14 14
REMARK H PARENT
REMARK Flexibility Score: inf
ROOT
ATOM      1  C   UNL     1      25.448 -13.137  -0.365  1.00  0.00     0.000 C 
ENDROOT
BRANCH   1   2
ATOM      2  C   UNL     1      24.483 -13.538  -1.495  1.00  0.00     0.000 C 
BRANCH   2   3
ATOM      3  C   UNL     1      25.189 -14.292  -2.634  1.00  0.00     0.006 C 
BRANCH   3   4
ATOM      4  C   UNL     1      24.204 -14.923  -3.627  1.00  0.00     0.053 C 
BRANCH   4   5
ATOM      5  C   UNL     1      24.089 -16.395  -3.383  1.00  0.00     0.041 C 
ATOM      6  O   UNL     1      23.061 -16.867  -2.830  1.00  0.00    -0.550 OA
ATOM      7  O   UNL     1      25.096 -17.250  -3.810  1.00  0.00    -0.550 OA
ENDBRANCH   4   5
ENDBRANCH   3   4
ENDBRANCH   2   3
ENDBRANCH   1   2
BRANCH   1   8
ATOM      8  C   UNL     1      26.911 -13.489  -0.686  1.00  0.00     0.000 C 
BRANCH   8   9
ATOM      9  C   UNL     1      27.760 -13.691   0.582  1.00  0.00     0.000 C 
BRANCH   9  10
ATOM     10  C   UNL     1      28.228 -15.146   0.751  1.00  0.00     0.006 C 
BRANCH  10  11
ATOM     11  C   UNL     1      28.592 -15.812  -0.583  1.00  0.00     0.053 C 
BRANCH  11  12
ATOM     12  C   UNL     1      29.981 -16.365  -0.528  1.00  0.00     0.041 C 
ATOM     13  O   UNL     1      30.592 -16.652  -1.592  1.00  0.00    -0.550 OA
ATOM     14  O   UNL     1      30.584 -16.611   0.699  1.00  0.00    -0.550 OA
ENDBRANCH  11  12
ENDBRANCH  10  11
ENDBRANCH   9  10
ENDBRANCH   8   9
ENDBRANCH   1   8
TORSDOF 9
ENDMDL
MODEL 5
REMARK VINA RESULT:    -3.835      1.353      6.980
REMARK INTER + INTRA:          -6.366
REMARK INTER:                  -5.816
REMARK INTRA:                  -0.550
REMARK UNBOUND:                -0.513
REMARK SMILES O=C([O-])CCCCCCCCC(=O)[O-]
REMARK SMILES IDX 7 1 6 2 5 3 4 4 2 5 1 6 3 7 8 8 9 9 10 10 11 11 12 12 13 13
REMARK SMILES IDX 14 14
REMARK H PARENT
REMARK Flexibility Score: inf
ROOT
ATOM      1  C   UNL     1      26.204 -13.651  -0.366  1.00  0.00     0.000 C 
ENDROOT
BRANCH   1   2
ATOM      2  C   UNL     1      27.414 -13.776  -1.309  1.00  0.00     0.000 C 
BRANCH   2   3
ATOM      3  C   UNL     1      28.716 -14.102  -0.558  1.00  0.00     0.006 C 
BRANCH   3   4
ATOM      4  C   UNL     1      29.257 -12.905   0.236  1.00  0.00     0.053 C 
BRANCH   4   5
ATOM      5  C   UNL     1      29.163 -13.170   1.706  1.00  0.00     0.041 C 
ATOM      6  O   UNL     1      28.793 -14.299   2.124  1.00  0.00    -0.550 OA
ATOM      7  O   UNL     1      29.529 -12.186   2.614  1.00  0.00    -0.550 OA
ENDBRANCH   4   5
ENDBRANCH   3   4
ENDBRANCH   2   3
ENDBRANCH   1   2
BRANCH   1   8
ATOM      8  C   UNL     1      24.959 -13.092  -1.075  1.00  0.00     0.000 C 
BRANCH   8   9
ATOM      9  C   UNL     1      24.058 -14.201  -1.647  1.00  0.00     0.000 C 
BRANCH   9  10
ATOM     10  C   UNL     1      23.920 -14.117  -3.176  1.00  0.00     0.006 C 
BRANCH  10  11
ATOM     11  C   UNL     1      24.918 -15.020  -3.912  1.00  0.00     0.053 C 
BRANCH  11  12
ATOM     12  C   UNL     1      24.525 -16.457  -3.771  1.00  0.00     0.041 C 
ATOM     13  O   UNL     1      25.403 -17.338  -3.574  1.00  0.00    -0.550 OA
ATOM     14  O   UNL     1      23.194 -16.830  -3.906  1.00  0.00    -0.550 OA
ENDBRANCH  11  12
ENDBRANCH  10  11
ENDBRANCH   9  10
ENDBRANCH   8   9
ENDBRANCH   1   8
TORSDOF 9
ENDMDL
MODEL 6
REMARK VINA RESULT:    -3.776      0.760      1.650
REMARK INTER + INTRA:          -6.275
REMARK INTER:                  -5.861
REMARK INTRA:                  -0.414
REMARK UNBOUND:                -0.513
REMARK SMILES O=C([O-])CCCCCCCCC(=O)[O-]
REMARK SMILES IDX 7 1 6 2 5 3 4 4 2 5 1 6 3 7 8 8 9 9 10 10 11 11 12 12 13 13
REMARK SMILES IDX 14 14
REMARK H PARENT
REMARK Flexibility Score: inf
ROOT
ATOM      1  C   UNL     1      25.806 -13.341  -0.370  1.00  0.00     0.000 C 
ENDROOT
BRANCH   1   2
ATOM      2  C   UNL     1      24.464 -13.479  -1.111  1.00  0.00     0.000 C 
BRANCH   2   3
ATOM      3  C   UNL     1      24.626 -14.079  -2.518  1.00  0.00     0.006 C 
BRANCH   3   4
ATOM      4  C   UNL     1      23.325 -14.695  -3.052  1.00  0.00     0.053 C 
BRANCH   4   5
ATOM      5  C   UNL     1      23.421 -16.188  -3.056  1.00  0.00     0.041 C 
ATOM      6  O   UNL     1      22.922 -16.858  -2.113  1.00  0.00    -0.550 OA
ATOM      7  O   UNL     1      24.017 -16.844  -4.125  1.00  0.00    -0.550 OA
ENDBRANCH   4   5
ENDBRANCH   3   4
ENDBRANCH   2   3
ENDBRANCH   1   2
BRANCH   1   8
ATOM      8  C   UNL     1      26.996 -13.836  -1.209  1.00  0.00     0.000 C 
BRANCH   8   9
ATOM      9  C   UNL     1      28.236 -14.145  -0.349  1.00  0.00     0.000 C 
BRANCH   9  10
ATOM     10  C   UNL     1      28.052 -13.731   1.120  1.00  0.00     0.006 C 
BRANCH  10  11
ATOM     11  C   UNL     1      29.386 -13.560   1.859  1.00  0.00     0.053 C 
BRANCH  11  12
ATOM     12  C   UNL     1      29.844 -12.138   1.786  1.00  0.00     0.041 C 
ATOM     13  O   UNL     1      30.530 -11.742   0.806  1.00  0.00    -0.550 OA
ATOM     14  O   UNL     1      29.557 -11.260   2.824  1.00  0.00    -0.550 OA
ENDBRANCH  11  12
ENDBRANCH  10  11
ENDBRANCH   9  10
ENDBRANCH   8   9
ENDBRANCH   1   8
TORSDOF 9
ENDMDL
MODEL 7
REMARK VINA RESULT:    -3.775      0.593      7.113
REMARK INTER + INTRA:          -6.274
REMARK INTER:                  -5.827
REMARK INTRA:                  -0.447
REMARK UNBOUND:                -0.513
REMARK SMILES O=C([O-])CCCCCCCCC(=O)[O-]
REMARK SMILES IDX 7 1 6 2 5 3 4 4 2 5 1 6 3 7 8 8 9 9 10 10 11 11 12 12 13 13
REMARK SMILES IDX 14 14
REMARK H PARENT
REMARK Flexibility Score: inf
ROOT
ATOM      1  C   UNL     1      27.683 -14.495  -0.107  1.00  0.00     0.000 C 
ENDROOT
BRANCH   1   2
ATOM      2  C   UNL     1      27.936 -13.547   1.079  1.00  0.00     0.000 C 
BRANCH   2   3
ATOM      3  C   UNL     1      29.405 -13.546   1.531  1.00  0.00     0.006 C 
BRANCH   3   4
ATOM      4  C   UNL     1      30.302 -12.686   0.629  1.00  0.00     0.053 C 
BRANCH   4   5
ATOM      5  C   UNL     1      30.343 -11.277   1.129  1.00  0.00     0.041 C 
ATOM      6  O   UNL     1      30.643 -10.336   0.348  1.00  0.00    -0.550 OA
ATOM      7  O   UNL     1      30.004 -10.996   2.446  1.00  0.00    -0.550 OA
ENDBRANCH   4   5
ENDBRANCH   3   4
ENDBRANCH   2   3
ENDBRANCH   1   2
BRANCH   1   8
ATOM      8  C   UNL     1      26.763 -13.876  -1.172  1.00  0.00     0.000 C 
BRANCH   8   9
ATOM      9  C   UNL     1      25.522 -13.202  -0.560  1.00  0.00     0.000 C 
BRANCH   9  10
ATOM     10  C   UNL     1      24.229 -13.554  -1.314  1.00  0.00     0.006 C 
BRANCH  10  11
ATOM     11  C   UNL     1      24.493 -14.289  -2.635  1.00  0.00     0.053 C 
BRANCH  11  12
ATOM     12  C   UNL     1      23.619 -15.498  -2.744  1.00  0.00     0.041 C 
ATOM     13  O   UNL     1      22.739 -15.724  -1.871  1.00  0.00    -0.550 OA
ATOM     14  O   UNL     1      23.807 -16.402  -3.781  1.00  0.00    -0.550 OA
ENDBRANCH  11  12
ENDBRANCH  10  11
ENDBRANCH   9  10
ENDBRANCH   8   9
ENDBRANCH   1   8
TORSDOF 9
ENDMDL
MODEL 8
REMARK VINA RESULT:    -3.754      2.987      5.706
REMARK INTER + INTRA:          -6.242
REMARK INTER:                  -5.478
REMARK INTRA:                  -0.764
REMARK UNBOUND:                -0.513
REMARK SMILES O=C([O-])CCCCCCCCC(=O)[O-]
REMARK SMILES IDX 7 1 6 2 5 3 4 4 2 5 1 6 3 7 8 8 9 9 10 10 11 11 12 12 13 13
REMARK SMILES IDX 14 14
REMARK H PARENT
REMARK Flexibility Score: inf
ROOT
ATOM      1  C   UNL     1      28.553 -14.333   0.863  1.00  0.00     0.000 C 
ENDROOT
BRANCH   1   2
ATOM      2  C   UNL     1      28.765 -15.774   0.365  1.00  0.00     0.000 C 
BRANCH   2   3
ATOM      3  C   UNL     1      29.399 -15.827  -1.035  1.00  0.00     0.006 C 
BRANCH   3   4
ATOM      4  C   UNL     1      28.683 -16.808  -1.973  1.00  0.00     0.053 C 
BRANCH   4   5
ATOM      5  C   UNL     1      27.839 -16.064  -2.959  1.00  0.00     0.041 C 
ATOM      6  O   UNL     1      28.245 -14.976  -3.448  1.00  0.00    -0.550 OA
ATOM      7  O   UNL     1      26.625 -16.594  -3.376  1.00  0.00    -0.550 OA
ENDBRANCH   4   5
ENDBRANCH   3   4
ENDBRANCH   2   3
ENDBRANCH   1   2
BRANCH   1   8
ATOM      8  C   UNL     1      27.836 -13.451  -0.173  1.00  0.00     0.000 C 
BRANCH   8   9
ATOM      9  C   UNL     1      26.303 -13.559  -0.080  1.00  0.00     0.000 C 
BRANCH   9  10
ATOM     10  C   UNL     1      25.630 -13.583  -1.462  1.00  0.00     0.006 C 
BRANCH  10  11
ATOM     11  C   UNL     1      24.103 -13.704  -1.376  1.00  0.00     0.053 C 
BRANCH  11  12
ATOM     12  C   UNL     1      23.604 -14.718  -2.357  1.00  0.00     0.041 C 
ATOM     13  O   UNL     1      23.881 -14.605  -3.581  1.00  0.00    -0.550 OA
ATOM     14  O   UNL     1      22.791 -15.760  -1.929  1.00  0.00    -0.550 OA
ENDBRANCH  11  12
ENDBRANCH  10  11
ENDBRANCH   9  10
ENDBRANCH   8   9
ENDBRANCH   1   8
TORSDOF 9
ENDMDL
MODEL 9
REMARK VINA RESULT:    -3.677      2.842      3.491
REMARK INTER + INTRA:          -6.124
REMARK INTER:                  -5.600
REMARK INTRA:                  -0.524
REMARK UNBOUND:                -0.513
REMARK SMILES O=C([O-])CCCCCCCCC(=O)[O-]
REMARK SMILES IDX 7 1 6 2 5 3 4 4 2 5 1 6 3 7 8 8 9 9 10 10 11 11 12 12 13 13
REMARK SMILES IDX 14 14
REMARK H PARENT
REMARK Flexibility Score: inf
ROOT
ATOM      1  C   UNL     1      26.958 -13.758   0.106  1.00  0.00     0.000 C 
ENDROOT
BRANCH   1   2
ATOM      2  C   UNL     1      26.263 -13.734  -1.267  1.00  0.00     0.000 C 
BRANCH   2   3
ATOM      3  C   UNL     1      24.750 -13.485  -1.157  1.00  0.00     0.006 C 
BRANCH   3   4
ATOM      4  C   UNL     1      24.028 -13.620  -2.505  1.00  0.00     0.053 C 
BRANCH   4   5
ATOM      5  C   UNL     1      23.543 -15.023  -2.696  1.00  0.00     0.041 C 
ATOM      6  O   UNL     1      23.889 -15.680  -3.713  1.00  0.00    -0.550 OA
ATOM      7  O   UNL     1      22.748 -15.622  -1.728  1.00  0.00    -0.550 OA
ENDBRANCH   4   5
ENDBRANCH   3   4
ENDBRANCH   2   3
ENDBRANCH   1   2
BRANCH   1   8
ATOM      8  C   UNL     1      28.449 -13.389   0.019  1.00  0.00     0.000 C 
BRANCH   8   9
ATOM      9  C   UNL     1      29.318 -14.208   0.990  1.00  0.00     0.000 C 
BRANCH   9  10
ATOM     10  C   UNL     1      30.418 -15.002   0.268  1.00  0.00     0.006 C 
BRANCH  10  11
ATOM     11  C   UNL     1      30.057 -16.482   0.082  1.00  0.00     0.053 C 
BRANCH  11  12
ATOM     12  C   UNL     1      29.620 -16.739  -1.326  1.00  0.00     0.041 C 
ATOM     13  O   UNL     1      28.440 -16.479  -1.682  1.00  0.00    -0.550 OA
ATOM     14  O   UNL     1      30.502 -17.313  -2.234  1.00  0.00    -0.550 OA
ENDBRANCH  11  12
ENDBRANCH  10  11
ENDBRANCH   9  10
ENDBRANCH   8   9
ENDBRANCH   1   8
TORSDOF 9
ENDMDL
