MODEL 1
REMARK VINA RESULT:    -4.067      0.000      0.000
REMARK INTER + INTRA:          -4.515
REMARK INTER:                  -5.019
REMARK INTRA:                   0.504
REMARK UNBOUND:                 0.504
REMARK SMILES C=C1[C@@H]2CC[C@H]3[C@H]2C(C)(C)CCC[C@@]13C
REMARK SMILES IDX 14 1 6 2 7 3 3 4 2 5 1 6 4 7 5 8 15 9 8 10 9 11 10 12 11 13
REMARK SMILES IDX 13 15 12 16
REMARK H PARENT
REMARK Flexibility Score: 80.00
ROOT
ATOM      1  C   UNL     1       1.528  14.897  13.424  1.00  0.00    -0.008 C 
ATOM      2  C   UNL     1       0.600  14.676  14.610  1.00  0.00     0.003 C 
ATOM      3  C   UNL     1       1.543  15.127  15.741  1.00  0.00     0.006 C 
ATOM      4  C   UNL     1       2.534  13.998  15.517  1.00  0.00     0.019 C 
ATOM      5  C   UNL     1       2.799  14.267  14.018  1.00  0.00    -0.068 C 
ATOM      6  C   UNL     1       3.954  14.056  13.382  1.00  0.00     0.009 C 
ATOM      7  C   UNL     1       1.671  12.747  15.612  1.00  0.00     0.008 C 
ATOM      8  C   UNL     1       0.353  13.192  14.974  1.00  0.00     0.005 C 
ATOM      9  C   UNL     1       1.082  14.144  12.152  1.00  0.00     0.016 C 
ENDROOT
BRANCH   3  10
ATOM     10  C   UNL     1       0.886  16.246  16.580  1.00  0.00    -0.032 C 
ATOM     11  C   UNL     1      -0.398  15.739  17.272  1.00  0.00     0.011 C 
ATOM     12  C   UNL     1       1.840  16.763  17.694  1.00  0.00     0.011 C 
BRANCH  10  13
ATOM     13  C   UNL     1       0.550  17.417  15.547  1.00  0.00     0.007 CG0
ATOM     14  G   UNL     1       1.510  17.561  14.288  1.00  0.00     0.000 G0
ENDBRANCH  10  13
ENDBRANCH   3  10
BRANCH   1  15
ATOM     15  C   UNL     1       1.546  16.469  13.138  1.00  0.00     0.011 C 
BRANCH  15  16
ATOM     16  C   UNL     1       1.505  17.575  14.290  1.00  0.00     0.001 CG0
ATOM     17  G   UNL     1       0.549  17.413  15.550  1.00  0.00     0.000 G0
ENDBRANCH  15  16
ENDBRANCH   1  15
TORSDOF 0
ENDMDL
MODEL 2
REMARK VINA RESULT:    -3.873      1.692      2.323
REMARK INTER + INTRA:          -4.275
REMARK INTER:                  -4.778
REMARK INTRA:                   0.504
REMARK UNBOUND:                 0.504
REMARK SMILES C=C1[C@@H]2CC[C@H]3[C@H]2C(C)(C)CCC[C@@]13C
REMARK SMILES IDX 14 1 6 2 7 3 3 4 2 5 1 6 4 7 5 8 15 9 8 10 9 11 10 12 11 13
REMARK SMILES IDX 13 15 12 16
REMARK H PARENT
REMARK Flexibility Score: 80.00
ROOT
ATOM      1  C   UNL     1       1.272  14.949  14.588  1.00  0.00    -0.008 C 
ATOM      2  C   UNL     1       0.160  14.116  15.208  1.00  0.00     0.003 C 
ATOM      3  C   UNL     1       0.962  13.449  16.341  1.00  0.00     0.006 C 
ATOM      4  C   UNL     1       1.861  12.669  15.398  1.00  0.00     0.019 C 
ATOM      5  C   UNL     1       2.373  13.876  14.577  1.00  0.00    -0.068 C 
ATOM      6  C   UNL     1       3.585  13.984  14.026  1.00  0.00     0.009 C 
ATOM      7  C   UNL     1       0.878  11.904  14.523  1.00  0.00     0.008 C 
ATOM      8  C   UNL     1      -0.281  12.893  14.368  1.00  0.00     0.005 C 
ATOM      9  C   UNL     1       0.951  15.425  13.155  1.00  0.00     0.016 C 
ENDROOT
BRANCH   3  10
ATOM     10  C   UNL     1       0.298  13.725  17.709  1.00  0.00    -0.032 C 
ATOM     11  C   UNL     1      -1.119  13.111  17.771  1.00  0.00     0.011 C 
ATOM     12  C   UNL     1       1.118  13.112  18.879  1.00  0.00     0.011 C 
BRANCH  10  13
ATOM     13  C   UNL     1       0.235  15.315  17.845  1.00  0.00     0.007 CG0
ATOM     14  G   UNL     1       1.386  16.142  17.124  1.00  0.00     0.000 G0
ENDBRANCH  10  13
ENDBRANCH   3  10
BRANCH   1  15
ATOM     15  C   UNL     1       1.485  16.216  15.538  1.00  0.00     0.011 C 
BRANCH  15  16
ATOM     16  C   UNL     1       1.378  16.151  17.131  1.00  0.00     0.001 CG0
ATOM     17  G   UNL     1       0.227  15.318  17.844  1.00  0.00     0.000 G0
ENDBRANCH  15  16
ENDBRANCH   1  15
TORSDOF 0
ENDMDL
MODEL 3
REMARK VINA RESULT:    -3.794      1.719      4.260
REMARK INTER + INTRA:          -4.177
REMARK INTER:                  -4.696
REMARK INTRA:                   0.518
REMARK UNBOUND:                 0.504
REMARK SMILES C=C1[C@@H]2CC[C@H]3[C@H]2C(C)(C)CCC[C@@]13C
REMARK SMILES IDX 14 1 6 2 7 3 3 4 2 5 1 6 4 7 5 8 15 9 8 10 9 11 10 12 11 13
REMARK SMILES IDX 13 15 12 16
REMARK H PARENT
REMARK Flexibility Score: 80.00
ROOT
ATOM      1  C   UNL     1       0.869  15.724  16.494  1.00  0.00    -0.008 C 
ATOM      2  C   UNL     1       0.069  15.844  15.205  1.00  0.00     0.003 C 
ATOM      3  C   UNL     1       1.116  16.570  14.339  1.00  0.00     0.006 C 
ATOM      4  C   UNL     1       1.107  17.830  15.186  1.00  0.00     0.019 C 
ATOM      5  C   UNL     1       1.429  17.155  16.540  1.00  0.00    -0.068 C 
ATOM      6  C   UNL     1       2.134  17.702  17.533  1.00  0.00     0.009 C 
ATOM      7  C   UNL     1      -0.363  18.228  15.212  1.00  0.00     0.008 C 
ATOM      8  C   UNL     1      -1.082  16.878  15.247  1.00  0.00     0.005 C 
ATOM      9  C   UNL     1      -0.009  15.435  17.731  1.00  0.00     0.016 C 
ENDROOT
BRANCH   3  10
ATOM     10  C   UNL     1       1.390  15.776  13.042  1.00  0.00    -0.032 C 
ATOM     11  C   UNL     1       0.127  15.706  12.156  1.00  0.00     0.011 C 
ATOM     12  C   UNL     1       2.514  16.435  12.193  1.00  0.00     0.011 C 
BRANCH  10  13
ATOM     13  C   UNL     1       1.833  14.317  13.516  1.00  0.00     0.007 CG0
ATOM     14  G   UNL     1       2.629  14.219  14.889  1.00  0.00     0.000 G0
ENDBRANCH  10  13
ENDBRANCH   3  10
BRANCH   1  15
ATOM     15  C   UNL     1       1.908  14.529  16.284  1.00  0.00     0.011 C 
BRANCH  15  16
ATOM     16  C   UNL     1       2.626  14.220  14.890  1.00  0.00     0.001 CG0
ATOM     17  G   UNL     1       1.830  14.314  13.517  1.00  0.00     0.000 G0
ENDBRANCH  15  16
ENDBRANCH   1  15
TORSDOF 0
ENDMDL
MODEL 4
REMARK VINA RESULT:    -3.621      1.003      3.704
REMARK INTER + INTRA:          -3.964
REMARK INTER:                  -4.479
REMARK INTRA:                   0.515
REMARK UNBOUND:                 0.504
REMARK SMILES C=C1[C@@H]2CC[C@H]3[C@H]2C(C)(C)CCC[C@@]13C
REMARK SMILES IDX 14 1 6 2 7 3 3 4 2 5 1 6 4 7 5 8 15 9 8 10 9 11 10 12 11 13
REMARK SMILES IDX 13 15 12 16
REMARK H PARENT
REMARK Flexibility Score: 80.00
ROOT
ATOM      1  C   UNL     1       1.133  16.216  16.527  1.00  0.00    -0.008 C 
ATOM      2  C   UNL     1       1.875  15.365  15.507  1.00  0.00     0.003 C 
ATOM      3  C   UNL     1       0.709  15.072  14.544  1.00  0.00     0.006 C 
ATOM      4  C   UNL     1      -0.076  14.264  15.562  1.00  0.00     0.019 C 
ATOM      5  C   UNL     1      -0.125  15.343  16.669  1.00  0.00    -0.068 C 
ATOM      6  C   UNL     1      -1.124  15.521  17.537  1.00  0.00     0.009 C 
ATOM      7  C   UNL     1       0.915  13.197  16.007  1.00  0.00     0.008 C 
ATOM      8  C   UNL     1       2.250  13.945  15.995  1.00  0.00     0.005 C 
ATOM      9  C   UNL     1       1.875  16.337  17.875  1.00  0.00     0.016 C 
ENDROOT
BRANCH   3  10
ATOM     10  C   UNL     1       1.070  15.513  13.107  1.00  0.00    -0.032 C 
ATOM     11  C   UNL     1       2.260  14.696  12.558  1.00  0.00     0.011 C 
ATOM     12  C   UNL     1      -0.122  15.309  12.129  1.00  0.00     0.011 C 
BRANCH  10  13
ATOM     13  C   UNL     1       1.444  17.062  13.214  1.00  0.00     0.007 CG0
ATOM     14  G   UNL     1       0.680  17.910  14.320  1.00  0.00     0.000 G0
ENDBRANCH  10  13
ENDBRANCH   3  10
BRANCH   1  15
ATOM     15  C   UNL     1       0.958  17.666  15.879  1.00  0.00     0.011 C 
BRANCH  15  16
ATOM     16  C   UNL     1       0.680  17.909  14.325  1.00  0.00     0.001 CG0
ATOM     17  G   UNL     1       1.446  17.071  13.212  1.00  0.00     0.000 G0
ENDBRANCH  15  16
ENDBRANCH   1  15
TORSDOF 0
ENDMDL
MODEL 5
REMARK VINA RESULT:    -3.536      1.443      3.321
REMARK INTER + INTRA:          -3.860
REMARK INTER:                  -4.394
REMARK INTRA:                   0.534
REMARK UNBOUND:                 0.504
REMARK SMILES C=C1[C@@H]2CC[C@H]3[C@H]2C(C)(C)CCC[C@@]13C
REMARK SMILES IDX 14 1 6 2 7 3 3 4 2 5 1 6 4 7 5 8 15 9 8 10 9 11 10 12 11 13
REMARK SMILES IDX 13 15 12 16
REMARK H PARENT
REMARK Flexibility Score: 80.00
ROOT
ATOM      1  C   UNL     1       1.260  14.020  15.936  1.00  0.00    -0.008 C 
ATOM      2  C   UNL     1       0.115  14.824  15.336  1.00  0.00     0.003 C 
ATOM      3  C   UNL     1       0.739  16.230  15.419  1.00  0.00     0.006 C 
ATOM      4  C   UNL     1       0.772  16.248  16.937  1.00  0.00     0.019 C 
ATOM      5  C   UNL     1       1.573  14.939  17.129  1.00  0.00    -0.068 C 
ATOM      6  C   UNL     1       2.436  14.694  18.118  1.00  0.00     0.009 C 
ATOM      7  C   UNL     1      -0.672  15.962  17.326  1.00  0.00     0.008 C 
ATOM      8  C   UNL     1      -1.125  14.971  16.250  1.00  0.00     0.005 C 
ATOM      9  C   UNL     1       0.832  12.617  16.419  1.00  0.00     0.016 C 
ENDROOT
BRANCH   3  10
ATOM     10  C   UNL     1       0.753  16.898  14.026  1.00  0.00    -0.032 C 
ATOM     11  C   UNL     1      -0.683  17.175  13.529  1.00  0.00     0.011 C 
ATOM     12  C   UNL     1       1.504  18.260  14.051  1.00  0.00     0.011 C 
BRANCH  10  13
ATOM     13  C   UNL     1       1.500  15.868  13.061  1.00  0.00     0.007 CG0
ATOM     14  G   UNL     1       2.673  15.007  13.702  1.00  0.00     0.000 G0
ENDBRANCH  10  13
ENDBRANCH   3  10
BRANCH   1  15
ATOM     15  C   UNL     1       2.373  13.880  14.799  1.00  0.00     0.011 C 
BRANCH  15  16
ATOM     16  C   UNL     1       2.671  15.013  13.713  1.00  0.00     0.001 CG0
ATOM     17  G   UNL     1       1.492  15.862  13.066  1.00  0.00     0.000 G0
ENDBRANCH  15  16
ENDBRANCH   1  15
TORSDOF 0
ENDMDL
MODEL 6
REMARK VINA RESULT:    -3.464      1.885      3.566
REMARK INTER + INTRA:          -3.771
REMARK INTER:                  -4.275
REMARK INTRA:                   0.505
REMARK UNBOUND:                 0.504
REMARK SMILES C=C1[C@@H]2CC[C@H]3[C@H]2C(C)(C)CCC[C@@]13C
REMARK SMILES IDX 14 1 6 2 7 3 3 4 2 5 1 6 4 7 5 8 15 9 8 10 9 11 10 12 11 13
REMARK SMILES IDX 13 15 12 16
REMARK H PARENT
REMARK Flexibility Score: 80.00
ROOT
ATOM      1  C   UNL     1       1.397  16.361  13.631  1.00  0.00    -0.008 C 
ATOM      2  C   UNL     1       1.465  16.500  15.145  1.00  0.00     0.003 C 
ATOM      3  C   UNL     1       0.509  15.357  15.535  1.00  0.00     0.006 C 
ATOM      4  C   UNL     1      -0.710  16.014  14.912  1.00  0.00     0.019 C 
ATOM      5  C   UNL     1      -0.125  16.200  13.492  1.00  0.00    -0.068 C 
ATOM      6  C   UNL     1      -0.820  16.151  12.352  1.00  0.00     0.009 C 
ATOM      7  C   UNL     1      -0.751  17.385  15.573  1.00  0.00     0.008 C 
ATOM      8  C   UNL     1       0.732  17.737  15.718  1.00  0.00     0.005 C 
ATOM      9  C   UNL     1       1.890  17.618  12.881  1.00  0.00     0.016 C 
ENDROOT
BRANCH   3  10
ATOM     10  C   UNL     1       1.211  14.367  16.491  1.00  0.00    -0.032 C 
ATOM     11  C   UNL     1       1.631  15.066  17.802  1.00  0.00     0.011 C 
ATOM     12  C   UNL     1       0.278  13.183  16.876  1.00  0.00     0.011 C 
BRANCH  10  13
ATOM     13  C   UNL     1       2.489  13.833  15.696  1.00  0.00     0.007 CG0
ATOM     14  G   UNL     1       2.372  13.766  14.112  1.00  0.00     0.000 G0
ENDBRANCH  10  13
ENDBRANCH   3  10
BRANCH   1  15
ATOM     15  C   UNL     1       2.312  15.111  13.241  1.00  0.00     0.011 C 
BRANCH  15  16
ATOM     16  C   UNL     1       2.387  13.769  14.105  1.00  0.00     0.001 CG0
ATOM     17  G   UNL     1       2.492  13.819  15.691  1.00  0.00     0.000 G0
ENDBRANCH  15  16
ENDBRANCH   1  15
TORSDOF 0
ENDMDL
MODEL 7
REMARK VINA RESULT:    -3.445      1.674      3.014
REMARK INTER + INTRA:          -3.747
REMARK INTER:                  -4.256
REMARK INTRA:                   0.509
REMARK UNBOUND:                 0.504
REMARK SMILES C=C1[C@@H]2CC[C@H]3[C@H]2C(C)(C)CCC[C@@]13C
REMARK SMILES IDX 14 1 6 2 7 3 3 4 2 5 1 6 4 7 5 8 15 9 8 10 9 11 10 12 11 13
REMARK SMILES IDX 13 15 12 16
REMARK H PARENT
REMARK Flexibility Score: 80.00
ROOT
ATOM      1  C   UNL     1       0.296  14.020  15.398  1.00  0.00    -0.008 C 
ATOM      2  C   UNL     1      -0.294  15.291  15.991  1.00  0.00     0.003 C 
ATOM      3  C   UNL     1       0.620  16.324  15.304  1.00  0.00     0.006 C 
ATOM      4  C   UNL     1       1.878  15.845  16.007  1.00  0.00     0.019 C 
ATOM      5  C   UNL     1       1.784  14.361  15.581  1.00  0.00    -0.068 C 
ATOM      6  C   UNL     1       2.821  13.553  15.344  1.00  0.00     0.009 C 
ATOM      7  C   UNL     1       1.510  15.921  17.482  1.00  0.00     0.008 C 
ATOM      8  C   UNL     1       0.032  15.523  17.486  1.00  0.00     0.005 C 
ATOM      9  C   UNL     1      -0.079  12.748  16.189  1.00  0.00     0.016 C 
ENDROOT
BRANCH   3  10
ATOM     10  C   UNL     1      -0.223  17.361  14.529  1.00  0.00    -0.032 C 
ATOM     11  C   UNL     1      -1.119  18.175  15.488  1.00  0.00     0.011 C 
ATOM     12  C   UNL     1       0.675  18.374  13.765  1.00  0.00     0.011 C 
BRANCH  10  13
ATOM     13  C   UNL     1      -1.109  16.516  13.503  1.00  0.00     0.007 CG0
ATOM     14  G   UNL     1      -0.474  15.167  12.950  1.00  0.00     0.000 G0
ENDBRANCH  10  13
ENDBRANCH   3  10
BRANCH   1  15
ATOM     15  C   UNL     1      -0.258  13.906  13.904  1.00  0.00     0.011 C 
BRANCH  15  16
ATOM     16  C   UNL     1      -0.471  15.165  12.945  1.00  0.00     0.001 CG0
ATOM     17  G   UNL     1      -1.111  16.515  13.490  1.00  0.00     0.000 G0
ENDBRANCH  15  16
ENDBRANCH   1  15
TORSDOF 0
ENDMDL
MODEL 8
REMARK VINA RESULT:    -3.317      1.390      3.003
REMARK INTER + INTRA:          -3.589
REMARK INTER:                  -4.096
REMARK INTRA:                   0.507
REMARK UNBOUND:                 0.504
REMARK SMILES C=C1[C@@H]2CC[C@H]3[C@H]2C(C)(C)CCC[C@@]13C
REMARK SMILES IDX 14 1 6 2 7 3 3 4 2 5 1 6 4 7 5 8 15 9 8 10 9 11 10 12 11 13
REMARK SMILES IDX 13 15 12 16
REMARK H PARENT
REMARK Flexibility Score: 80.00
ROOT
ATOM      1  C   UNL     1       0.294  17.286  14.194  1.00  0.00    -0.008 C 
ATOM      2  C   UNL     1      -0.357  15.930  14.424  1.00  0.00     0.003 C 
ATOM      3  C   UNL     1       0.914  15.083  14.618  1.00  0.00     0.006 C 
ATOM      4  C   UNL     1       1.407  15.294  13.198  1.00  0.00     0.019 C 
ATOM      5  C   UNL     1       1.393  16.841  13.216  1.00  0.00    -0.068 C 
ATOM      6  C   UNL     1       2.239  17.634  12.554  1.00  0.00     0.009 C 
ATOM      7  C   UNL     1       0.233  14.836  12.344  1.00  0.00     0.008 C 
ATOM      8  C   UNL     1      -0.980  15.285  13.162  1.00  0.00     0.005 C 
ATOM      9  C   UNL     1      -0.652  18.311  13.531  1.00  0.00     0.016 C 
ENDROOT
BRANCH   3  10
ATOM     10  C   UNL     1       0.865  14.335  15.969  1.00  0.00    -0.032 C 
ATOM     11  C   UNL     1      -0.329  13.357  16.019  1.00  0.00     0.011 C 
ATOM     12  C   UNL     1       2.155  13.500  16.210  1.00  0.00     0.011 C 
BRANCH  10  13
ATOM     13  C   UNL     1       0.718  15.469  17.084  1.00  0.00     0.007 CG0
ATOM     14  G   UNL     1       1.365  16.884  16.757  1.00  0.00     0.000 G0
ENDBRANCH  10  13
ENDBRANCH   3  10
BRANCH   1  15
ATOM     15  C   UNL     1       0.753  17.828  15.626  1.00  0.00     0.011 C 
BRANCH  15  16
ATOM     16  C   UNL     1       1.360  16.891  16.769  1.00  0.00     0.001 CG0
ATOM     17  G   UNL     1       0.726  15.469  17.089  1.00  0.00     0.000 G0
ENDBRANCH  15  16
ENDBRANCH   1  15
TORSDOF 0
ENDMDL
MODEL 9
REMARK VINA RESULT:    -3.132      1.202      3.335
REMARK INTER + INTRA:          -3.360
REMARK INTER:                  -3.864
REMARK INTRA:                   0.503
REMARK UNBOUND:                 0.504
REMARK SMILES C=C1[C@@H]2CC[C@H]3[C@H]2C(C)(C)CCC[C@@]13C
REMARK SMILES IDX 14 1 6 2 7 3 3 4 2 5 1 6 4 7 5 8 15 9 8 10 9 11 10 12 11 13
REMARK SMILES IDX 13 15 12 16
REMARK H PARENT
REMARK Flexibility Score: 80.00
ROOT
ATOM      1  C   UNL     1       0.942  13.986  15.319  1.00  0.00    -0.008 C 
ATOM      2  C   UNL     1       1.563  15.071  14.452  1.00  0.00     0.003 C 
ATOM      3  C   UNL     1       0.280  15.828  14.059  1.00  0.00     0.006 C 
ATOM      4  C   UNL     1      -0.298  14.667  13.269  1.00  0.00     0.019 C 
ATOM      5  C   UNL     1      -0.232  13.613  14.399  1.00  0.00    -0.068 C 
ATOM      6  C   UNL     1      -1.094  12.608  14.576  1.00  0.00     0.009 C 
ATOM      7  C   UNL     1       0.804  14.336  12.271  1.00  0.00     0.008 C 
ATOM      8  C   UNL     1       2.081  14.588  13.076  1.00  0.00     0.005 C 
ATOM      9  C   UNL     1       1.875  12.775  15.540  1.00  0.00     0.016 C 
ENDROOT
BRANCH   3  10
ATOM     10  C   UNL     1       0.393  17.320  14.444  1.00  0.00    -0.032 C 
ATOM     11  C   UNL     1       1.544  18.006  13.675  1.00  0.00     0.011 C 
ATOM     12  C   UNL     1      -0.912  18.099  14.112  1.00  0.00     0.011 C 
BRANCH  10  13
ATOM     13  C   UNL     1       0.669  17.340  16.016  1.00  0.00     0.007 CG0
ATOM     14  G   UNL     1       0.058  16.143  16.867  1.00  0.00     0.000 G0
ENDBRANCH  10  13
ENDBRANCH   3  10
BRANCH   1  15
ATOM     15  C   UNL     1       0.595  14.659  16.726  1.00  0.00     0.011 C 
BRANCH  15  16
ATOM     16  C   UNL     1       0.060  16.157  16.877  1.00  0.00     0.001 CG0
ATOM     17  G   UNL     1       0.675  17.341  16.013  1.00  0.00     0.000 G0
ENDBRANCH  15  16
ENDBRANCH   1  15
TORSDOF 0
ENDMDL
