MODEL 1
REMARK VINA RESULT:    -2.785      0.000      0.000
REMARK INTER + INTRA:          -2.785
REMARK INTER:                  -2.785
REMARK INTRA:                   0.000
REMARK UNBOUND:                 0.000
REMARK SMILES CC(=O)[O-]
REMARK SMILES IDX 1 1 2 2 3 3 4 4
REMARK H PARENT
REMARK Flexibility Score: inf
ROOT
ATOM      1  C   UNL     1      -9.117 -42.540 -22.325  1.00  0.00     0.063 C 
ATOM      2  C   UNL     1      -7.745 -42.880 -22.799  1.00  0.00     0.038 C 
ATOM      3  O   UNL     1      -7.097 -42.058 -23.499  1.00  0.00    -0.550 OA
ATOM      4  O   UNL     1      -7.199 -44.125 -22.514  1.00  0.00    -0.550 OA
ENDROOT
TORSDOF 0
ENDMDL
MODEL 2
REMARK VINA RESULT:    -2.762      1.448      2.037
REMARK INTER + INTRA:          -2.762
REMARK INTER:                  -2.762
REMARK INTRA:                   0.000
REMARK UNBOUND:                 0.000
REMARK SMILES CC(=O)[O-]
REMARK SMILES IDX 1 1 2 2 3 3 4 4
REMARK H PARENT
REMARK Flexibility Score: inf
ROOT
ATOM      1  C   UNL     1      -7.023 -42.092 -23.527  1.00  0.00     0.063 C 
ATOM      2  C   UNL     1      -7.706 -43.145 -22.721  1.00  0.00     0.038 C 
ATOM      3  O   UNL     1      -7.140 -44.251 -22.518  1.00  0.00    -0.550 OA
ATOM      4  O   UNL     1      -8.990 -42.928 -22.237  1.00  0.00    -0.550 OA
ENDROOT
TORSDOF 0
ENDMDL
MODEL 3
REMARK VINA RESULT:    -2.672      1.649      2.070
REMARK INTER + INTRA:          -2.672
REMARK INTER:                  -2.672
REMARK INTRA:                   0.000
REMARK UNBOUND:                 0.000
REMARK SMILES CC(=O)[O-]
REMARK SMILES IDX 1 1 2 2 3 3 4 4
REMARK H PARENT
REMARK Flexibility Score: inf
ROOT
ATOM      1  C   UNL     1      -6.740 -44.483 -22.997  1.00  0.00     0.063 C 
ATOM      2  C   UNL     1      -7.463 -43.270 -22.517  1.00  0.00     0.038 C 
ATOM      3  O   UNL     1      -6.879 -42.443 -21.769  1.00  0.00    -0.550 OA
ATOM      4  O   UNL     1      -8.797 -43.078 -22.850  1.00  0.00    -0.550 OA
ENDROOT
TORSDOF 0
ENDMDL
MODEL 4
REMARK VINA RESULT:    -2.511      6.586      7.303
REMARK INTER + INTRA:          -2.511
REMARK INTER:                  -2.511
REMARK INTRA:                   0.000
REMARK UNBOUND:                 0.000
REMARK SMILES CC(=O)[O-]
REMARK SMILES IDX 1 1 2 2 3 3 4 4
REMARK H PARENT
REMARK Flexibility Score: inf
ROOT
ATOM      1  C   UNL     1      -5.453 -48.991 -27.414  1.00  0.00     0.063 C 
ATOM      2  C   UNL     1      -5.913 -48.747 -26.017  1.00  0.00     0.038 C 
ATOM      3  O   UNL     1      -6.032 -49.709 -25.214  1.00  0.00    -0.550 OA
ATOM      4  O   UNL     1      -6.261 -47.465 -25.612  1.00  0.00    -0.550 OA
ENDROOT
TORSDOF 0
ENDMDL
MODEL 5
REMARK VINA RESULT:    -2.255     21.121     21.246
REMARK INTER + INTRA:          -2.255
REMARK INTER:                  -2.255
REMARK INTRA:                   0.000
REMARK UNBOUND:                 0.000
REMARK SMILES CC(=O)[O-]
REMARK SMILES IDX 1 1 2 2 3 3 4 4
REMARK H PARENT
REMARK Flexibility Score: inf
ROOT
ATOM      1  C   UNL     1       8.883 -50.852 -32.960  1.00  0.00     0.063 C 
ATOM      2  C   UNL     1       8.275 -50.445 -34.260  1.00  0.00     0.038 C 
ATOM      3  O   UNL     1       7.403 -51.171 -34.804  1.00  0.00    -0.550 OA
ATOM      4  O   UNL     1       8.709 -49.291 -34.900  1.00  0.00    -0.550 OA
ENDROOT
TORSDOF 0
ENDMDL
MODEL 6
REMARK VINA RESULT:    -2.227     21.018     21.253
REMARK INTER + INTRA:          -2.227
REMARK INTER:                  -2.227
REMARK INTRA:                   0.000
REMARK UNBOUND:                 0.000
REMARK SMILES CC(=O)[O-]
REMARK SMILES IDX 1 1 2 2 3 3 4 4
REMARK H PARENT
REMARK Flexibility Score: inf
ROOT
ATOM      1  C   UNL     1       8.056 -50.408 -34.287  1.00  0.00     0.063 C 
ATOM      2  C   UNL     1       8.859 -50.927 -33.142  1.00  0.00     0.038 C 
ATOM      3  O   UNL     1       8.478 -51.951 -32.516  1.00  0.00    -0.550 OA
ATOM      4  O   UNL     1      10.000 -50.251 -32.729  1.00  0.00    -0.550 OA
ENDROOT
TORSDOF 0
ENDMDL
MODEL 7
REMARK VINA RESULT:    -2.221     20.950     21.137
REMARK INTER + INTRA:          -2.221
REMARK INTER:                  -2.221
REMARK INTRA:                   0.000
REMARK UNBOUND:                 0.000
REMARK SMILES CC(=O)[O-]
REMARK SMILES IDX 1 1 2 2 3 3 4 4
REMARK H PARENT
REMARK Flexibility Score: inf
ROOT
ATOM      1  C   UNL     1       7.826 -50.421 -34.300  1.00  0.00     0.063 C 
ATOM      2  C   UNL     1       8.716 -50.932 -33.218  1.00  0.00     0.038 C 
ATOM      3  O   UNL     1       9.780 -50.321 -32.935  1.00  0.00    -0.550 OA
ATOM      4  O   UNL     1       8.402 -52.113 -32.557  1.00  0.00    -0.550 OA
ENDROOT
TORSDOF 0
ENDMDL
MODEL 8
REMARK VINA RESULT:    -2.126     19.618     20.018
REMARK INTER + INTRA:          -2.126
REMARK INTER:                  -2.126
REMARK INTRA:                   0.000
REMARK UNBOUND:                 0.000
REMARK SMILES CC(=O)[O-]
REMARK SMILES IDX 1 1 2 2 3 3 4 4
REMARK H PARENT
REMARK Flexibility Score: inf
ROOT
ATOM      1  C   UNL     1       8.817 -53.455 -27.487  1.00  0.00     0.063 C 
ATOM      2  C   UNL     1       7.767 -53.909 -28.443  1.00  0.00     0.038 C 
ATOM      3  O   UNL     1       6.704 -54.429 -28.013  1.00  0.00    -0.550 OA
ATOM      4  O   UNL     1       7.981 -53.809 -29.811  1.00  0.00    -0.550 OA
ENDROOT
TORSDOF 0
ENDMDL
MODEL 9
REMARK VINA RESULT:    -2.115     19.808     20.008
REMARK INTER + INTRA:          -2.115
REMARK INTER:                  -2.115
REMARK INTRA:                   0.000
REMARK UNBOUND:                 0.000
REMARK SMILES CC(=O)[O-]
REMARK SMILES IDX 1 1 2 2 3 3 4 4
REMARK H PARENT
REMARK Flexibility Score: inf
ROOT
ATOM      1  C   UNL     1       6.621 -54.662 -28.117  1.00  0.00     0.063 C 
ATOM      2  C   UNL     1       7.834 -53.930 -28.582  1.00  0.00     0.038 C 
ATOM      3  O   UNL     1       8.042 -53.769 -29.813  1.00  0.00    -0.550 OA
ATOM      4  O   UNL     1       8.765 -53.469 -27.660  1.00  0.00    -0.550 OA
ENDROOT
TORSDOF 0
ENDMDL
