MODEL 1
REMARK VINA RESULT:    14.304      0.000      0.000
REMARK INTER + INTRA:          34.123
REMARK INTER:                  36.045
REMARK INTRA:                  -1.922
REMARK UNBOUND:                -1.922
REMARK SMILES CCCCCCCCCCCCCCCCCCCCCCCCCCCC(=O)[O-]
REMARK SMILES IDX 15 1 16 2 17 3 18 4 19 5 20 6 21 7 22 8 23 9 24 10 25 11
REMARK SMILES IDX 26 12 27 13 28 14 29 15 30 16 14 17 13 18 12 19 11 20 10 21
REMARK SMILES IDX 9 22 8 23 7 24 6 25 5 26 4 27 3 28 2 29 1 30
REMARK H PARENT
REMARK Flexibility Score: inf
ROOT
ATOM      1  C   UNL     1       7.987  43.704  12.041  1.00  0.00     0.000 C 
ENDROOT
BRANCH   1   2
ATOM      2  C   UNL     1       7.998  42.189  12.319  1.00  0.00     0.000 C 
BRANCH   2   3
ATOM      3  C   UNL     1       7.302  41.818  13.640  1.00  0.00     0.000 C 
BRANCH   3   4
ATOM      4  C   UNL     1       5.976  42.574  13.853  1.00  0.00     0.000 C 
BRANCH   4   5
ATOM      5  C   UNL     1       5.144  42.113  15.064  1.00  0.00     0.000 C 
BRANCH   5   6
ATOM      6  C   UNL     1       5.971  41.339  16.104  1.00  0.00     0.000 C 
BRANCH   6   7
ATOM      7  C   UNL     1       5.088  40.525  17.065  1.00  0.00     0.000 C 
BRANCH   7   8
ATOM      8  C   UNL     1       5.873  39.988  18.275  1.00  0.00     0.000 C 
BRANCH   8   9
ATOM      9  C   UNL     1       5.300  40.468  19.621  1.00  0.00     0.000 C 
BRANCH   9  10
ATOM     10  C   UNL     1       5.539  41.955  19.937  1.00  0.00     0.000 C 
BRANCH  10  11
ATOM     11  C   UNL     1       5.412  42.276  21.434  1.00  0.00     0.000 C 
BRANCH  11  12
ATOM     12  C   UNL     1       4.005  42.783  21.770  1.00  0.00     0.006 C 
BRANCH  12  13
ATOM     13  C   UNL     1       3.586  43.908  20.818  1.00  0.00     0.053 C 
BRANCH  13  14
ATOM     14  C   UNL     1       2.179  43.706  20.352  1.00  0.00     0.041 C 
ATOM     15  O   UNL     1       1.571  42.636  20.616  1.00  0.00    -0.550 OA
ATOM     16  O   UNL     1       1.550  44.686  19.595  1.00  0.00    -0.550 OA
ENDBRANCH  13  14
ENDBRANCH  12  13
ENDBRANCH  11  12
ENDBRANCH  10  11
ENDBRANCH   9  10
ENDBRANCH   8   9
ENDBRANCH   7   8
ENDBRANCH   6   7
ENDBRANCH   5   6
ENDBRANCH   4   5
ENDBRANCH   3   4
ENDBRANCH   2   3
ENDBRANCH   1   2
BRANCH   1  17
ATOM     17  C   UNL     1       7.596  44.105  10.604  1.00  0.00     0.000 C 
BRANCH  17  18
ATOM     18  C   UNL     1       6.661  43.117   9.877  1.00  0.00     0.000 C 
BRANCH  18  19
ATOM     19  C   UNL     1       5.172  43.507   9.876  1.00  0.00     0.000 C 
BRANCH  19  20
ATOM     20  C   UNL     1       4.244  42.316  10.173  1.00  0.00     0.000 C 
BRANCH  20  21
ATOM     21  C   UNL     1       2.768  42.731  10.283  1.00  0.00     0.000 C 
BRANCH  21  22
ATOM     22  C   UNL     1       2.579  44.255  10.330  1.00  0.00    -0.000 C 
BRANCH  22  23
ATOM     23  C   UNL     1       2.494  44.750  11.780  1.00  0.00    -0.000 C 
BRANCH  23  24
ATOM     24  C   UNL     1       1.747  43.775  12.708  1.00  0.00    -0.000 C 
BRANCH  24  25
ATOM     25  C   UNL     1       0.213  43.811  12.591  1.00  0.00    -0.000 C 
BRANCH  25  26
ATOM     26  C   UNL     1      -0.434  44.876  13.489  1.00  0.00    -0.000 C 
BRANCH  26  27
ATOM     27  C   UNL     1      -0.388  44.454  14.966  1.00  0.00    -0.000 C 
BRANCH  27  28
ATOM     28  C   UNL     1      -1.259  43.213  15.249  1.00  0.00    -0.000 C 
BRANCH  28  29
ATOM     29  C   UNL     1      -2.355  42.973  14.195  1.00  0.00    -0.003 C 
ATOM     30  C   UNL     1      -3.434  42.001  14.664  1.00  0.00     0.004 C 
ENDBRANCH  28  29
ENDBRANCH  27  28
ENDBRANCH  26  27
ENDBRANCH  25  26
ENDBRANCH  24  25
ENDBRANCH  23  24
ENDBRANCH  22  23
ENDBRANCH  21  22
ENDBRANCH  20  21
ENDBRANCH  19  20
ENDBRANCH  18  19
ENDBRANCH  17  18
ENDBRANCH   1  17
TORSDOF 26
ENDMDL
MODEL 2
REMARK VINA RESULT:    14.897      1.040      1.832
REMARK INTER + INTRA:          35.618
REMARK INTER:                  37.115
REMARK INTRA:                  -1.497
REMARK UNBOUND:                -1.922
REMARK SMILES CCCCCCCCCCCCCCCCCCCCCCCCCCCC(=O)[O-]
REMARK SMILES IDX 15 1 16 2 17 3 18 4 19 5 20 6 21 7 22 8 23 9 24 10 25 11
REMARK SMILES IDX 26 12 27 13 28 14 29 15 30 16 14 17 13 18 12 19 11 20 10 21
REMARK SMILES IDX 9 22 8 23 7 24 6 25 5 26 4 27 3 28 2 29 1 30
REMARK H PARENT
REMARK Flexibility Score: inf
ROOT
ATOM      1  C   UNL     1       6.017  43.022  13.854  1.00  0.00     0.000 C 
ENDROOT
BRANCH   1   2
ATOM      2  C   UNL     1       7.220  42.094  13.602  1.00  0.00     0.000 C 
BRANCH   2   3
ATOM      3  C   UNL     1       7.337  40.970  14.646  1.00  0.00     0.000 C 
BRANCH   3   4
ATOM      4  C   UNL     1       6.457  41.209  15.888  1.00  0.00     0.000 C 
BRANCH   4   5
ATOM      5  C   UNL     1       6.557  40.130  16.982  1.00  0.00     0.000 C 
BRANCH   5   6
ATOM      6  C   UNL     1       5.315  40.075  17.889  1.00  0.00     0.000 C 
BRANCH   6   7
ATOM      7  C   UNL     1       5.681  39.884  19.371  1.00  0.00     0.000 C 
BRANCH   7   8
ATOM      8  C   UNL     1       6.297  41.149  19.994  1.00  0.00     0.000 C 
BRANCH   8   9
ATOM      9  C   UNL     1       5.265  42.269  20.218  1.00  0.00     0.000 C 
BRANCH   9  10
ATOM     10  C   UNL     1       5.199  42.816  21.655  1.00  0.00     0.000 C 
BRANCH  10  11
ATOM     11  C   UNL     1       3.886  43.555  21.953  1.00  0.00     0.000 C 
BRANCH  11  12
ATOM     12  C   UNL     1       3.538  44.534  20.826  1.00  0.00     0.006 C 
BRANCH  12  13
ATOM     13  C   UNL     1       2.506  43.927  19.870  1.00  0.00     0.053 C 
BRANCH  13  14
ATOM     14  C   UNL     1       1.619  42.965  20.596  1.00  0.00     0.041 C 
ATOM     15  O   UNL     1       1.948  41.756  20.703  1.00  0.00    -0.550 OA
ATOM     16  O   UNL     1       0.409  43.399  21.124  1.00  0.00    -0.550 OA
ENDBRANCH  13  14
ENDBRANCH  12  13
ENDBRANCH  11  12
ENDBRANCH  10  11
ENDBRANCH   9  10
ENDBRANCH   8   9
ENDBRANCH   7   8
ENDBRANCH   6   7
ENDBRANCH   5   6
ENDBRANCH   4   5
ENDBRANCH   3   4
ENDBRANCH   2   3
ENDBRANCH   1   2
BRANCH   1  17
ATOM     17  C   UNL     1       5.827  44.146  12.817  1.00  0.00     0.000 C 
BRANCH  17  18
ATOM     18  C   UNL     1       6.967  44.294  11.790  1.00  0.00     0.000 C 
BRANCH  18  19
ATOM     19  C   UNL     1       6.583  43.964  10.335  1.00  0.00     0.000 C 
BRANCH  19  20
ATOM     20  C   UNL     1       5.768  42.664  10.215  1.00  0.00     0.000 C 
BRANCH  20  21
ATOM     21  C   UNL     1       4.284  42.924   9.907  1.00  0.00     0.000 C 
BRANCH  21  22
ATOM     22  C   UNL     1       3.935  44.419   9.879  1.00  0.00    -0.000 C 
BRANCH  22  23
ATOM     23  C   UNL     1       2.804  44.734  10.869  1.00  0.00    -0.000 C 
BRANCH  23  24
ATOM     24  C   UNL     1       2.513  43.576  11.841  1.00  0.00    -0.000 C 
BRANCH  24  25
ATOM     25  C   UNL     1       1.021  43.305  12.102  1.00  0.00    -0.000 C 
BRANCH  25  26
ATOM     26  C   UNL     1       0.309  44.476  12.795  1.00  0.00    -0.000 C 
BRANCH  26  27
ATOM     27  C   UNL     1      -0.249  44.052  14.162  1.00  0.00    -0.000 C 
BRANCH  27  28
ATOM     28  C   UNL     1      -1.732  44.437  14.337  1.00  0.00    -0.000 C 
BRANCH  28  29
ATOM     29  C   UNL     1      -2.593  43.319  14.952  1.00  0.00    -0.003 C 
ATOM     30  C   UNL     1      -2.548  42.019  14.152  1.00  0.00     0.004 C 
ENDBRANCH  28  29
ENDBRANCH  27  28
ENDBRANCH  26  27
ENDBRANCH  25  26
ENDBRANCH  24  25
ENDBRANCH  23  24
ENDBRANCH  22  23
ENDBRANCH  21  22
ENDBRANCH  20  21
ENDBRANCH  19  20
ENDBRANCH  18  19
ENDBRANCH  17  18
ENDBRANCH   1  17
TORSDOF 26
ENDMDL
MODEL 3
REMARK VINA RESULT:    15.079      2.584      4.259
REMARK INTER + INTRA:          36.077
REMARK INTER:                  37.703
REMARK INTRA:                  -1.626
REMARK UNBOUND:                -1.922
REMARK SMILES CCCCCCCCCCCCCCCCCCCCCCCCCCCC(=O)[O-]
REMARK SMILES IDX 15 1 16 2 17 3 18 4 19 5 20 6 21 7 22 8 23 9 24 10 25 11
REMARK SMILES IDX 26 12 27 13 28 14 29 15 30 16 14 17 13 18 12 19 11 20 10 21
REMARK SMILES IDX 9 22 8 23 7 24 6 25 5 26 4 27 3 28 2 29 1 30
REMARK H PARENT
REMARK Flexibility Score: inf
ROOT
ATOM      1  C   UNL     1       5.305  41.543  16.023  1.00  0.00     0.000 C 
ENDROOT
BRANCH   1   2
ATOM      2  C   UNL     1       6.428  40.648  16.580  1.00  0.00     0.000 C 
BRANCH   2   3
ATOM      3  C   UNL     1       6.157  40.174  18.019  1.00  0.00     0.000 C 
BRANCH   3   4
ATOM      4  C   UNL     1       4.729  40.497  18.499  1.00  0.00     0.000 C 
BRANCH   4   5
ATOM      5  C   UNL     1       4.478  40.284  20.003  1.00  0.00     0.000 C 
BRANCH   5   6
ATOM      6  C   UNL     1       2.998  40.023  20.335  1.00  0.00     0.000 C 
BRANCH   6   7
ATOM      7  C   UNL     1       2.353  41.197  21.093  1.00  0.00     0.000 C 
BRANCH   7   8
ATOM      8  C   UNL     1       2.209  42.454  20.218  1.00  0.00     0.000 C 
BRANCH   8   9
ATOM      9  C   UNL     1       2.809  43.711  20.874  1.00  0.00     0.000 C 
BRANCH   9  10
ATOM     10  C   UNL     1       4.338  43.690  21.045  1.00  0.00     0.000 C 
BRANCH  10  11
ATOM     11  C   UNL     1       4.805  44.389  22.330  1.00  0.00     0.000 C 
BRANCH  11  12
ATOM     12  C   UNL     1       6.074  43.730  22.884  1.00  0.00     0.006 C 
BRANCH  12  13
ATOM     13  C   UNL     1       6.005  43.605  24.410  1.00  0.00     0.053 C 
BRANCH  13  14
ATOM     14  C   UNL     1       7.363  43.338  24.977  1.00  0.00     0.041 C 
ATOM     15  O   UNL     1       7.585  42.281  25.622  1.00  0.00    -0.550 OA
ATOM     16  O   UNL     1       8.377  44.276  24.823  1.00  0.00    -0.550 OA
ENDBRANCH  13  14
ENDBRANCH  12  13
ENDBRANCH  11  12
ENDBRANCH  10  11
ENDBRANCH   9  10
ENDBRANCH   8   9
ENDBRANCH   7   8
ENDBRANCH   6   7
ENDBRANCH   5   6
ENDBRANCH   4   5
ENDBRANCH   3   4
ENDBRANCH   2   3
ENDBRANCH   1   2
BRANCH   1  17
ATOM     17  C   UNL     1       5.400  41.854  14.517  1.00  0.00     0.000 C 
BRANCH  17  18
ATOM     18  C   UNL     1       6.284  43.064  14.150  1.00  0.00     0.000 C 
BRANCH  18  19
ATOM     19  C   UNL     1       5.687  44.012  13.093  1.00  0.00     0.000 C 
BRANCH  19  20
ATOM     20  C   UNL     1       6.426  43.942  11.745  1.00  0.00     0.000 C 
BRANCH  20  21
ATOM     21  C   UNL     1       5.479  43.662  10.567  1.00  0.00     0.000 C 
BRANCH  21  22
ATOM     22  C   UNL     1       4.040  44.128  10.835  1.00  0.00    -0.000 C 
BRANCH  22  23
ATOM     23  C   UNL     1       3.103  42.926  11.021  1.00  0.00    -0.000 C 
BRANCH  23  24
ATOM     24  C   UNL     1       1.768  43.080  10.269  1.00  0.00    -0.000 C 
BRANCH  24  25
ATOM     25  C   UNL     1       0.564  43.455  11.151  1.00  0.00    -0.000 C 
BRANCH  25  26
ATOM     26  C   UNL     1       0.913  43.528  12.645  1.00  0.00    -0.000 C 
BRANCH  26  27
ATOM     27  C   UNL     1       0.245  44.743  13.308  1.00  0.00    -0.000 C 
BRANCH  27  28
ATOM     28  C   UNL     1      -0.993  44.352  14.140  1.00  0.00    -0.000 C 
BRANCH  28  29
ATOM     29  C   UNL     1      -1.576  42.976  13.772  1.00  0.00    -0.003 C 
ATOM     30  C   UNL     1      -2.552  42.440  14.816  1.00  0.00     0.004 C 
ENDBRANCH  28  29
ENDBRANCH  27  28
ENDBRANCH  26  27
ENDBRANCH  25  26
ENDBRANCH  24  25
ENDBRANCH  23  24
ENDBRANCH  22  23
ENDBRANCH  21  22
ENDBRANCH  20  21
ENDBRANCH  19  20
ENDBRANCH  18  19
ENDBRANCH  17  18
ENDBRANCH   1  17
TORSDOF 26
ENDMDL
MODEL 4
REMARK VINA RESULT:    15.497      1.923      7.920
REMARK INTER + INTRA:          37.130
REMARK INTER:                  38.694
REMARK INTRA:                  -1.564
REMARK UNBOUND:                -1.922
REMARK SMILES CCCCCCCCCCCCCCCCCCCCCCCCCCCC(=O)[O-]
REMARK SMILES IDX 15 1 16 2 17 3 18 4 19 5 20 6 21 7 22 8 23 9 24 10 25 11
REMARK SMILES IDX 26 12 27 13 28 14 29 15 30 16 14 17 13 18 12 19 11 20 10 21
REMARK SMILES IDX 9 22 8 23 7 24 6 25 5 26 4 27 3 28 2 29 1 30
REMARK H PARENT
REMARK Flexibility Score: inf
ROOT
ATOM      1  C   UNL     1       6.860  42.034  14.116  1.00  0.00     0.000 C 
ENDROOT
BRANCH   1   2
ATOM      2  C   UNL     1       5.867  43.083  13.583  1.00  0.00     0.000 C 
BRANCH   2   3
ATOM      3  C   UNL     1       6.564  44.287  12.925  1.00  0.00     0.000 C 
BRANCH   3   4
ATOM      4  C   UNL     1       7.132  43.963  11.530  1.00  0.00     0.000 C 
BRANCH   4   5
ATOM      5  C   UNL     1       6.694  44.917  10.404  1.00  0.00     0.000 C 
BRANCH   5   6
ATOM      6  C   UNL     1       5.280  44.619   9.878  1.00  0.00     0.000 C 
BRANCH   6   7
ATOM      7  C   UNL     1       4.831  43.181  10.189  1.00  0.00     0.000 C 
BRANCH   7   8
ATOM      8  C   UNL     1       3.304  43.009  10.105  1.00  0.00     0.000 C 
BRANCH   8   9
ATOM      9  C   UNL     1       2.534  44.227  10.646  1.00  0.00     0.000 C 
BRANCH   9  10
ATOM     10  C   UNL     1       2.431  44.305  12.179  1.00  0.00     0.000 C 
BRANCH  10  11
ATOM     11  C   UNL     1       1.233  43.524  12.739  1.00  0.00     0.000 C 
BRANCH  11  12
ATOM     12  C   UNL     1      -0.023  44.402  12.782  1.00  0.00     0.006 C 
BRANCH  12  13
ATOM     13  C   UNL     1      -0.406  44.739  14.227  1.00  0.00     0.053 C 
BRANCH  13  14
ATOM     14  C   UNL     1      -1.472  43.813  14.719  1.00  0.00     0.041 C 
ATOM     15  O   UNL     1      -2.673  44.187  14.750  1.00  0.00    -0.550 OA
ATOM     16  O   UNL     1      -1.135  42.545  15.177  1.00  0.00    -0.550 OA
ENDBRANCH  13  14
ENDBRANCH  12  13
ENDBRANCH  11  12
ENDBRANCH  10  11
ENDBRANCH   9  10
ENDBRANCH   8   9
ENDBRANCH   7   8
ENDBRANCH   6   7
ENDBRANCH   5   6
ENDBRANCH   4   5
ENDBRANCH   3   4
ENDBRANCH   2   3
ENDBRANCH   1   2
BRANCH   1  17
ATOM     17  C   UNL     1       6.255  40.978  15.063  1.00  0.00     0.000 C 
BRANCH  17  18
ATOM     18  C   UNL     1       5.060  41.462  15.909  1.00  0.00     0.000 C 
BRANCH  18  19
ATOM     19  C   UNL     1       4.810  40.664  17.202  1.00  0.00     0.000 C 
BRANCH  19  20
ATOM     20  C   UNL     1       6.086  40.479  18.044  1.00  0.00     0.000 C 
BRANCH  20  21
ATOM     21  C   UNL     1       5.791  39.933  19.450  1.00  0.00     0.000 C 
BRANCH  21  22
ATOM     22  C   UNL     1       4.871  40.854  20.266  1.00  0.00    -0.000 C 
BRANCH  22  23
ATOM     23  C   UNL     1       3.441  40.298  20.308  1.00  0.00    -0.000 C 
BRANCH  23  24
ATOM     24  C   UNL     1       2.413  41.314  20.839  1.00  0.00    -0.000 C 
BRANCH  24  25
ATOM     25  C   UNL     1       2.017  42.419  19.843  1.00  0.00    -0.000 C 
BRANCH  25  26
ATOM     26  C   UNL     1       1.440  43.667  20.527  1.00  0.00    -0.000 C 
BRANCH  26  27
ATOM     27  C   UNL     1       2.561  44.623  20.963  1.00  0.00    -0.000 C 
BRANCH  27  28
ATOM     28  C   UNL     1       3.941  43.936  20.995  1.00  0.00    -0.000 C 
BRANCH  28  29
ATOM     29  C   UNL     1       4.526  43.787  22.410  1.00  0.00    -0.003 C 
ATOM     30  C   UNL     1       4.880  45.125  23.055  1.00  0.00     0.004 C 
ENDBRANCH  28  29
ENDBRANCH  27  28
ENDBRANCH  26  27
ENDBRANCH  25  26
ENDBRANCH  24  25
ENDBRANCH  23  24
ENDBRANCH  22  23
ENDBRANCH  21  22
ENDBRANCH  20  21
ENDBRANCH  19  20
ENDBRANCH  18  19
ENDBRANCH  17  18
ENDBRANCH   1  17
TORSDOF 26
ENDMDL
MODEL 5
REMARK VINA RESULT:    16.171      1.557      2.090
REMARK INTER + INTRA:          38.828
REMARK INTER:                  40.068
REMARK INTRA:                  -1.240
REMARK UNBOUND:                -1.922
REMARK SMILES CCCCCCCCCCCCCCCCCCCCCCCCCCCC(=O)[O-]
REMARK SMILES IDX 15 1 16 2 17 3 18 4 19 5 20 6 21 7 22 8 23 9 24 10 25 11
REMARK SMILES IDX 26 12 27 13 28 14 29 15 30 16 14 17 13 18 12 19 11 20 10 21
REMARK SMILES IDX 9 22 8 23 7 24 6 25 5 26 4 27 3 28 2 29 1 30
REMARK H PARENT
REMARK Flexibility Score: inf
ROOT
ATOM      1  C   UNL     1       5.954  43.189  13.495  1.00  0.00     0.000 C 
ENDROOT
BRANCH   1   2
ATOM      2  C   UNL     1       7.069  42.315  12.890  1.00  0.00     0.000 C 
BRANCH   2   3
ATOM      3  C   UNL     1       7.507  41.173  13.824  1.00  0.00     0.000 C 
BRANCH   3   4
ATOM      4  C   UNL     1       7.071  41.391  15.285  1.00  0.00     0.000 C 
BRANCH   4   5
ATOM      5  C   UNL     1       7.053  40.125  16.162  1.00  0.00     0.000 C 
BRANCH   5   6
ATOM      6  C   UNL     1       6.697  40.415  17.631  1.00  0.00     0.000 C 
BRANCH   6   7
ATOM      7  C   UNL     1       5.178  40.493  17.860  1.00  0.00     0.000 C 
BRANCH   7   8
ATOM      8  C   UNL     1       4.724  39.678  19.084  1.00  0.00     0.000 C 
BRANCH   8   9
ATOM      9  C   UNL     1       4.273  40.565  20.259  1.00  0.00     0.000 C 
BRANCH   9  10
ATOM     10  C   UNL     1       2.828  40.332  20.733  1.00  0.00     0.000 C 
BRANCH  10  11
ATOM     11  C   UNL     1       1.898  41.514  20.421  1.00  0.00     0.000 C 
BRANCH  11  12
ATOM     12  C   UNL     1       2.668  42.839  20.444  1.00  0.00     0.006 C 
BRANCH  12  13
ATOM     13  C   UNL     1       3.314  43.074  21.813  1.00  0.00     0.053 C 
BRANCH  13  14
ATOM     14  C   UNL     1       4.582  43.855  21.669  1.00  0.00     0.041 C 
ATOM     15  O   UNL     1       4.548  45.110  21.588  1.00  0.00    -0.550 OA
ATOM     16  O   UNL     1       5.801  43.193  21.589  1.00  0.00    -0.550 OA
ENDBRANCH  13  14
ENDBRANCH  12  13
ENDBRANCH  11  12
ENDBRANCH  10  11
ENDBRANCH   9  10
ENDBRANCH   8   9
ENDBRANCH   7   8
ENDBRANCH   6   7
ENDBRANCH   5   6
ENDBRANCH   4   5
ENDBRANCH   3   4
ENDBRANCH   2   3
ENDBRANCH   1   2
BRANCH   1  17
ATOM     17  C   UNL     1       5.548  44.413  12.651  1.00  0.00     0.000 C 
BRANCH  17  18
ATOM     18  C   UNL     1       6.442  44.692  11.425  1.00  0.00     0.000 C 
BRANCH  18  19
ATOM     19  C   UNL     1       5.779  44.428  10.060  1.00  0.00     0.000 C 
BRANCH  19  20
ATOM     20  C   UNL     1       5.291  42.977   9.907  1.00  0.00     0.000 C 
BRANCH  20  21
ATOM     21  C   UNL     1       3.777  42.836  10.139  1.00  0.00     0.000 C 
BRANCH  21  22
ATOM     22  C   UNL     1       3.017  44.154   9.930  1.00  0.00    -0.000 C 
BRANCH  22  23
ATOM     23  C   UNL     1       2.382  44.632  11.244  1.00  0.00    -0.000 C 
BRANCH  23  24
ATOM     24  C   UNL     1       1.970  43.474  12.171  1.00  0.00    -0.000 C 
BRANCH  24  25
ATOM     25  C   UNL     1       0.520  43.536  12.684  1.00  0.00    -0.000 C 
BRANCH  25  26
ATOM     26  C   UNL     1       0.114  44.935  13.171  1.00  0.00    -0.000 C 
BRANCH  26  27
ATOM     27  C   UNL     1      -0.924  44.845  14.300  1.00  0.00    -0.000 C 
BRANCH  27  28
ATOM     28  C   UNL     1      -0.807  43.534  15.102  1.00  0.00    -0.000 C 
BRANCH  28  29
ATOM     29  C   UNL     1      -1.992  42.574  14.895  1.00  0.00    -0.003 C 
ATOM     30  C   UNL     1      -2.292  42.302  13.423  1.00  0.00     0.004 C 
ENDBRANCH  28  29
ENDBRANCH  27  28
ENDBRANCH  26  27
ENDBRANCH  25  26
ENDBRANCH  24  25
ENDBRANCH  23  24
ENDBRANCH  22  23
ENDBRANCH  21  22
ENDBRANCH  20  21
ENDBRANCH  19  20
ENDBRANCH  18  19
ENDBRANCH  17  18
ENDBRANCH   1  17
TORSDOF 26
ENDMDL
MODEL 6
REMARK VINA RESULT:    16.223      3.879      8.909
REMARK INTER + INTRA:          38.960
REMARK INTER:                  39.991
REMARK INTRA:                  -1.031
REMARK UNBOUND:                -1.922
REMARK SMILES CCCCCCCCCCCCCCCCCCCCCCCCCCCC(=O)[O-]
REMARK SMILES IDX 15 1 16 2 17 3 18 4 19 5 20 6 21 7 22 8 23 9 24 10 25 11
REMARK SMILES IDX 26 12 27 13 28 14 29 15 30 16 14 17 13 18 12 19 11 20 10 21
REMARK SMILES IDX 9 22 8 23 7 24 6 25 5 26 4 27 3 28 2 29 1 30
REMARK H PARENT
REMARK Flexibility Score: inf
ROOT
ATOM      1  C   UNL     1      -1.317  44.164  13.982  1.00  0.00     0.000 C 
ENDROOT
BRANCH   1   2
ATOM      2  C   UNL     1      -0.083  43.396  13.471  1.00  0.00     0.000 C 
BRANCH   2   3
ATOM      3  C   UNL     1       0.223  43.673  11.989  1.00  0.00     0.000 C 
BRANCH   3   4
ATOM      4  C   UNL     1       1.648  43.256  11.581  1.00  0.00     0.000 C 
BRANCH   4   5
ATOM      5  C   UNL     1       2.709  44.369  11.668  1.00  0.00     0.000 C 
BRANCH   5   6
ATOM      6  C   UNL     1       3.627  44.424  10.434  1.00  0.00     0.000 C 
BRANCH   6   7
ATOM      7  C   UNL     1       5.072  44.809  10.797  1.00  0.00     0.000 C 
BRANCH   7   8
ATOM      8  C   UNL     1       6.108  44.138   9.879  1.00  0.00     0.000 C 
BRANCH   8   9
ATOM      9  C   UNL     1       6.070  42.601   9.957  1.00  0.00     0.000 C 
BRANCH   9  10
ATOM     10  C   UNL     1       7.340  41.946  10.530  1.00  0.00     0.000 C 
BRANCH  10  11
ATOM     11  C   UNL     1       8.331  42.968  11.106  1.00  0.00     0.000 C 
BRANCH  11  12
ATOM     12  C   UNL     1       7.862  43.479  12.473  1.00  0.00     0.006 C 
BRANCH  12  13
ATOM     13  C   UNL     1       7.205  42.356  13.282  1.00  0.00     0.053 C 
BRANCH  13  14
ATOM     14  C   UNL     1       5.951  42.843  13.937  1.00  0.00     0.041 C 
ATOM     15  O   UNL     1       5.395  42.156  14.832  1.00  0.00    -0.550 OA
ATOM     16  O   UNL     1       5.376  44.042  13.532  1.00  0.00    -0.550 OA
ENDBRANCH  13  14
ENDBRANCH  12  13
ENDBRANCH  11  12
ENDBRANCH  10  11
ENDBRANCH   9  10
ENDBRANCH   8   9
ENDBRANCH   7   8
ENDBRANCH   6   7
ENDBRANCH   5   6
ENDBRANCH   4   5
ENDBRANCH   3   4
ENDBRANCH   2   3
ENDBRANCH   1   2
BRANCH   1  17
ATOM     17  C   UNL     1      -2.227  43.377  14.946  1.00  0.00     0.000 C 
BRANCH  17  18
ATOM     18  C   UNL     1      -2.081  41.843  14.884  1.00  0.00     0.000 C 
BRANCH  18  19
ATOM     19  C   UNL     1      -3.317  41.090  14.359  1.00  0.00     0.000 C 
BRANCH  19  20
ATOM     20  C   UNL     1      -4.365  40.830  15.455  1.00  0.00     0.000 C 
BRANCH  20  21
ATOM     21  C   UNL     1      -5.543  39.978  14.955  1.00  0.00     0.000 C 
BRANCH  21  22
ATOM     22  C   UNL     1      -5.885  38.819  15.903  1.00  0.00    -0.000 C 
BRANCH  22  23
ATOM     23  C   UNL     1      -5.096  37.556  15.527  1.00  0.00    -0.000 C 
BRANCH  23  24
ATOM     24  C   UNL     1      -4.285  36.979  16.701  1.00  0.00    -0.000 C 
BRANCH  24  25
ATOM     25  C   UNL     1      -3.862  35.509  16.539  1.00  0.00    -0.000 C 
BRANCH  25  26
ATOM     26  C   UNL     1      -2.419  35.244  16.995  1.00  0.00    -0.000 C 
BRANCH  26  27
ATOM     27  C   UNL     1      -1.429  36.148  16.244  1.00  0.00    -0.000 C 
BRANCH  27  28
ATOM     28  C   UNL     1      -0.186  36.488  17.091  1.00  0.00    -0.000 C 
BRANCH  28  29
ATOM     29  C   UNL     1      -0.132  37.957  17.548  1.00  0.00    -0.003 C 
ATOM     30  C   UNL     1      -0.375  38.129  19.045  1.00  0.00     0.004 C 
ENDBRANCH  28  29
ENDBRANCH  27  28
ENDBRANCH  26  27
ENDBRANCH  25  26
ENDBRANCH  24  25
ENDBRANCH  23  24
ENDBRANCH  22  23
ENDBRANCH  21  22
ENDBRANCH  20  21
ENDBRANCH  19  20
ENDBRANCH  18  19
ENDBRANCH  17  18
ENDBRANCH   1  17
TORSDOF 26
ENDMDL
MODEL 7
REMARK VINA RESULT:    16.791      5.601     10.273
REMARK INTER + INTRA:          40.391
REMARK INTER:                  40.140
REMARK INTRA:                   0.250
REMARK UNBOUND:                -1.922
REMARK SMILES CCCCCCCCCCCCCCCCCCCCCCCCCCCC(=O)[O-]
REMARK SMILES IDX 15 1 16 2 17 3 18 4 19 5 20 6 21 7 22 8 23 9 24 10 25 11
REMARK SMILES IDX 26 12 27 13 28 14 29 15 30 16 14 17 13 18 12 19 11 20 10 21
REMARK SMILES IDX 9 22 8 23 7 24 6 25 5 26 4 27 3 28 2 29 1 30
REMARK H PARENT
REMARK Flexibility Score: inf
ROOT
ATOM      1  C   UNL     1      -1.923  43.744  14.385  1.00  0.00     0.000 C 
ENDROOT
BRANCH   1   2
ATOM      2  C   UNL     1      -0.699  44.657  14.586  1.00  0.00     0.000 C 
BRANCH   2   3
ATOM      3  C   UNL     1       0.100  44.878  13.290  1.00  0.00     0.000 C 
BRANCH   3   4
ATOM      4  C   UNL     1       0.803  43.601  12.792  1.00  0.00     0.000 C 
BRANCH   4   5
ATOM      5  C   UNL     1       0.414  43.145  11.374  1.00  0.00     0.000 C 
BRANCH   5   6
ATOM      6  C   UNL     1       1.630  42.886  10.469  1.00  0.00     0.000 C 
BRANCH   6   7
ATOM      7  C   UNL     1       2.939  43.415  11.082  1.00  0.00     0.000 C 
BRANCH   7   8
ATOM      8  C   UNL     1       3.272  44.844  10.618  1.00  0.00     0.000 C 
BRANCH   8   9
ATOM      9  C   UNL     1       4.623  44.935   9.885  1.00  0.00     0.000 C 
BRANCH   9  10
ATOM     10  C   UNL     1       5.799  44.244  10.598  1.00  0.00     0.000 C 
BRANCH  10  11
ATOM     11  C   UNL     1       5.941  44.671  12.067  1.00  0.00     0.000 C 
BRANCH  11  12
ATOM     12  C   UNL     1       5.684  43.491  13.010  1.00  0.00     0.006 C 
BRANCH  12  13
ATOM     13  C   UNL     1       6.934  42.614  13.144  1.00  0.00     0.053 C 
BRANCH  13  14
ATOM     14  C   UNL     1       7.689  42.573  11.854  1.00  0.00     0.041 C 
ATOM     15  O   UNL     1       7.339  41.783  10.939  1.00  0.00    -0.550 OA
ATOM     16  O   UNL     1       8.803  43.383  11.674  1.00  0.00    -0.550 OA
ENDBRANCH  13  14
ENDBRANCH  12  13
ENDBRANCH  11  12
ENDBRANCH  10  11
ENDBRANCH   9  10
ENDBRANCH   8   9
ENDBRANCH   7   8
ENDBRANCH   6   7
ENDBRANCH   5   6
ENDBRANCH   4   5
ENDBRANCH   3   4
ENDBRANCH   2   3
ENDBRANCH   1   2
BRANCH   1  17
ATOM     17  C   UNL     1      -2.063  42.599  15.408  1.00  0.00     0.000 C 
BRANCH  17  18
ATOM     18  C   UNL     1      -1.224  41.341  15.105  1.00  0.00     0.000 C 
BRANCH  18  19
ATOM     19  C   UNL     1      -1.158  40.309  16.246  1.00  0.00     0.000 C 
BRANCH  19  20
ATOM     20  C   UNL     1      -0.599  38.950  15.789  1.00  0.00     0.000 C 
BRANCH  20  21
ATOM     21  C   UNL     1       0.047  38.160  16.939  1.00  0.00     0.000 C 
BRANCH  21  22
ATOM     22  C   UNL     1      -0.922  37.168  17.599  1.00  0.00    -0.000 C 
BRANCH  22  23
ATOM     23  C   UNL     1      -0.925  35.828  16.850  1.00  0.00    -0.000 C 
BRANCH  23  24
ATOM     24  C   UNL     1      -0.344  34.670  17.682  1.00  0.00    -0.000 C 
BRANCH  24  25
ATOM     25  C   UNL     1       0.975  34.083  17.148  1.00  0.00    -0.000 C 
BRANCH  25  26
ATOM     26  C   UNL     1       1.570  33.007  18.068  1.00  0.00    -0.000 C 
BRANCH  26  27
ATOM     27  C   UNL     1       2.386  31.985  17.263  1.00  0.00    -0.000 C 
BRANCH  27  28
ATOM     28  C   UNL     1       3.798  31.770  17.846  1.00  0.00    -0.000 C 
BRANCH  28  29
ATOM     29  C   UNL     1       4.004  30.380  18.473  1.00  0.00    -0.003 C 
ATOM     30  C   UNL     1       5.428  29.853  18.309  1.00  0.00     0.004 C 
ENDBRANCH  28  29
ENDBRANCH  27  28
ENDBRANCH  26  27
ENDBRANCH  25  26
ENDBRANCH  24  25
ENDBRANCH  23  24
ENDBRANCH  22  23
ENDBRANCH  21  22
ENDBRANCH  20  21
ENDBRANCH  19  20
ENDBRANCH  18  19
ENDBRANCH  17  18
ENDBRANCH   1  17
TORSDOF 26
ENDMDL
MODEL 8
REMARK VINA RESULT:    16.814      2.629      3.663
REMARK INTER + INTRA:          40.449
REMARK INTER:                  40.791
REMARK INTRA:                  -0.342
REMARK UNBOUND:                -1.922
REMARK SMILES CCCCCCCCCCCCCCCCCCCCCCCCCCCC(=O)[O-]
REMARK SMILES IDX 15 1 16 2 17 3 18 4 19 5 20 6 21 7 22 8 23 9 24 10 25 11
REMARK SMILES IDX 26 12 27 13 28 14 29 15 30 16 14 17 13 18 12 19 11 20 10 21
REMARK SMILES IDX 9 22 8 23 7 24 6 25 5 26 4 27 3 28 2 29 1 30
REMARK H PARENT
REMARK Flexibility Score: inf
ROOT
ATOM      1  C   UNL     1       6.735  41.948  13.872  1.00  0.00     0.000 C 
ENDROOT
BRANCH   1   2
ATOM      2  C   UNL     1       5.688  42.295  14.947  1.00  0.00     0.000 C 
BRANCH   2   3
ATOM      3  C   UNL     1       5.410  41.127  15.910  1.00  0.00     0.000 C 
BRANCH   3   4
ATOM      4  C   UNL     1       6.546  40.901  16.925  1.00  0.00     0.000 C 
BRANCH   4   5
ATOM      5  C   UNL     1       6.223  39.918  18.066  1.00  0.00     0.000 C 
BRANCH   5   6
ATOM      6  C   UNL     1       4.757  39.992  18.527  1.00  0.00     0.000 C 
BRANCH   6   7
ATOM      7  C   UNL     1       4.607  40.689  19.891  1.00  0.00     0.000 C 
BRANCH   7   8
ATOM      8  C   UNL     1       3.950  42.075  19.775  1.00  0.00     0.000 C 
BRANCH   8   9
ATOM      9  C   UNL     1       2.571  42.142  20.456  1.00  0.00     0.000 C 
BRANCH   9  10
ATOM     10  C   UNL     1       2.116  40.838  21.135  1.00  0.00     0.000 C 
BRANCH  10  11
ATOM     11  C   UNL     1       2.075  39.644  20.170  1.00  0.00     0.000 C 
BRANCH  11  12
ATOM     12  C   UNL     1       0.647  39.384  19.677  1.00  0.00     0.006 C 
BRANCH  12  13
ATOM     13  C   UNL     1       0.411  37.887  19.448  1.00  0.00     0.053 C 
BRANCH  13  14
ATOM     14  C   UNL     1       0.312  37.589  17.985  1.00  0.00     0.041 C 
ATOM     15  O   UNL     1      -0.495  36.719  17.568  1.00  0.00    -0.550 OA
ATOM     16  O   UNL     1       1.140  38.247  17.084  1.00  0.00    -0.550 OA
ENDBRANCH  13  14
ENDBRANCH  12  13
ENDBRANCH  11  12
ENDBRANCH  10  11
ENDBRANCH   9  10
ENDBRANCH   8   9
ENDBRANCH   7   8
ENDBRANCH   6   7
ENDBRANCH   5   6
ENDBRANCH   4   5
ENDBRANCH   3   4
ENDBRANCH   2   3
ENDBRANCH   1   2
BRANCH   1  17
ATOM     17  C   UNL     1       7.048  43.077  12.871  1.00  0.00     0.000 C 
BRANCH  17  18
ATOM     18  C   UNL     1       7.708  42.624  11.553  1.00  0.00     0.000 C 
BRANCH  18  19
ATOM     19  C   UNL     1       7.885  43.731  10.497  1.00  0.00     0.000 C 
BRANCH  19  20
ATOM     20  C   UNL     1       6.610  44.568  10.292  1.00  0.00     0.000 C 
BRANCH  20  21
ATOM     21  C   UNL     1       5.348  43.699  10.171  1.00  0.00     0.000 C 
BRANCH  21  22
ATOM     22  C   UNL     1       4.129  44.317  10.872  1.00  0.00    -0.000 C 
BRANCH  22  23
ATOM     23  C   UNL     1       2.823  43.774  10.276  1.00  0.00    -0.000 C 
BRANCH  23  24
ATOM     24  C   UNL     1       1.965  43.007  11.299  1.00  0.00    -0.000 C 
BRANCH  24  25
ATOM     25  C   UNL     1       0.675  43.725  11.735  1.00  0.00    -0.000 C 
BRANCH  25  26
ATOM     26  C   UNL     1       0.426  43.648  13.248  1.00  0.00    -0.000 C 
BRANCH  26  27
ATOM     27  C   UNL     1      -0.366  44.870  13.739  1.00  0.00    -0.000 C 
BRANCH  27  28
ATOM     28  C   UNL     1      -1.501  44.484  14.709  1.00  0.00    -0.000 C 
BRANCH  28  29
ATOM     29  C   UNL     1      -2.357  43.303  14.220  1.00  0.00    -0.003 C 
ATOM     30  C   UNL     1      -2.097  42.013  14.994  1.00  0.00     0.004 C 
ENDBRANCH  28  29
ENDBRANCH  27  28
ENDBRANCH  26  27
ENDBRANCH  25  26
ENDBRANCH  24  25
ENDBRANCH  23  24
ENDBRANCH  22  23
ENDBRANCH  21  22
ENDBRANCH  20  21
ENDBRANCH  19  20
ENDBRANCH  18  19
ENDBRANCH  17  18
ENDBRANCH   1  17
TORSDOF 26
ENDMDL
MODEL 9
REMARK VINA RESULT:    16.957      2.679      4.171
REMARK INTER + INTRA:          40.810
REMARK INTER:                  41.651
REMARK INTRA:                  -0.841
REMARK UNBOUND:                -1.922
REMARK SMILES CCCCCCCCCCCCCCCCCCCCCCCCCCCC(=O)[O-]
REMARK SMILES IDX 15 1 16 2 17 3 18 4 19 5 20 6 21 7 22 8 23 9 24 10 25 11
REMARK SMILES IDX 26 12 27 13 28 14 29 15 30 16 14 17 13 18 12 19 11 20 10 21
REMARK SMILES IDX 9 22 8 23 7 24 6 25 5 26 4 27 3 28 2 29 1 30
REMARK H PARENT
REMARK Flexibility Score: inf
ROOT
ATOM      1  C   UNL     1       6.190  42.112  13.714  1.00  0.00     0.000 C 
ENDROOT
BRANCH   1   2
ATOM      2  C   UNL     1       6.405  42.325  15.224  1.00  0.00     0.000 C 
BRANCH   2   3
ATOM      3  C   UNL     1       5.363  41.590  16.085  1.00  0.00     0.000 C 
BRANCH   3   4
ATOM      4  C   UNL     1       5.991  40.834  17.272  1.00  0.00     0.000 C 
BRANCH   4   5
ATOM      5  C   UNL     1       5.181  40.878  18.582  1.00  0.00     0.000 C 
BRANCH   5   6
ATOM      6  C   UNL     1       4.253  39.663  18.757  1.00  0.00     0.000 C 
BRANCH   6   7
ATOM      7  C   UNL     1       3.908  39.400  20.233  1.00  0.00     0.000 C 
BRANCH   7   8
ATOM      8  C   UNL     1       2.784  40.316  20.747  1.00  0.00     0.000 C 
BRANCH   8   9
ATOM      9  C   UNL     1       3.099  41.811  20.564  1.00  0.00     0.000 C 
BRANCH   9  10
ATOM     10  C   UNL     1       4.458  42.265  21.128  1.00  0.00     0.000 C 
BRANCH  10  11
ATOM     11  C   UNL     1       4.423  43.692  21.695  1.00  0.00     0.000 C 
BRANCH  11  12
ATOM     12  C   UNL     1       5.767  44.063  22.332  1.00  0.00     0.006 C 
BRANCH  12  13
ATOM     13  C   UNL     1       5.636  44.190  23.854  1.00  0.00     0.053 C 
BRANCH  13  14
ATOM     14  C   UNL     1       6.745  43.459  24.540  1.00  0.00     0.041 C 
ATOM     15  O   UNL     1       6.651  42.224  24.759  1.00  0.00    -0.550 OA
ATOM     16  O   UNL     1       7.871  44.151  24.971  1.00  0.00    -0.550 OA
ENDBRANCH  13  14
ENDBRANCH  12  13
ENDBRANCH  11  12
ENDBRANCH  10  11
ENDBRANCH   9  10
ENDBRANCH   8   9
ENDBRANCH   7   8
ENDBRANCH   6   7
ENDBRANCH   5   6
ENDBRANCH   4   5
ENDBRANCH   3   4
ENDBRANCH   2   3
ENDBRANCH   1   2
BRANCH   1  17
ATOM     17  C   UNL     1       7.438  41.659  12.931  1.00  0.00     0.000 C 
BRANCH  17  18
ATOM     18  C   UNL     1       7.363  41.856  11.403  1.00  0.00     0.000 C 
BRANCH  18  19
ATOM     19  C   UNL     1       8.440  42.784  10.811  1.00  0.00     0.000 C 
BRANCH  19  20
ATOM     20  C   UNL     1       8.586  44.102  11.593  1.00  0.00     0.000 C 
BRANCH  20  21
ATOM     21  C   UNL     1       7.495  45.124  11.233  1.00  0.00     0.000 C 
BRANCH  21  22
ATOM     22  C   UNL     1       6.836  44.840   9.876  1.00  0.00    -0.000 C 
BRANCH  22  23
ATOM     23  C   UNL     1       5.328  45.124   9.932  1.00  0.00    -0.000 C 
BRANCH  23  24
ATOM     24  C   UNL     1       4.474  43.844   9.990  1.00  0.00    -0.000 C 
BRANCH  24  25
ATOM     25  C   UNL     1       3.822  43.559  11.355  1.00  0.00    -0.000 C 
BRANCH  25  26
ATOM     26  C   UNL     1       2.291  43.668  11.324  1.00  0.00    -0.000 C 
BRANCH  26  27
ATOM     27  C   UNL     1       1.682  42.608  10.392  1.00  0.00    -0.000 C 
BRANCH  27  28
ATOM     28  C   UNL     1       0.140  42.614  10.426  1.00  0.00    -0.000 C 
BRANCH  28  29
ATOM     29  C   UNL     1      -0.477  41.233  10.709  1.00  0.00    -0.003 C 
ATOM     30  C   UNL     1      -1.744  41.305  11.559  1.00  0.00     0.004 C 
ENDBRANCH  28  29
ENDBRANCH  27  28
ENDBRANCH  26  27
ENDBRANCH  25  26
ENDBRANCH  24  25
ENDBRANCH  23  24
ENDBRANCH  22  23
ENDBRANCH  21  22
ENDBRANCH  20  21
ENDBRANCH  19  20
ENDBRANCH  18  19
ENDBRANCH  17  18
ENDBRANCH   1  17
TORSDOF 26
ENDMDL
