MODEL 1
REMARK VINA RESULT:    -2.768      0.000      0.000
REMARK INTER + INTRA:          -3.687
REMARK INTER:                  -3.577
REMARK INTRA:                  -0.110
REMARK UNBOUND:                -0.110
REMARK SMILES CCCCCCC(=O)[O-]
REMARK SMILES IDX 5 1 6 2 7 3 8 4 9 5 4 6 3 7 2 8 1 9
REMARK H PARENT
REMARK Flexibility Score: inf
ROOT
ATOM      1  C   UNL     1       4.094 -51.717  10.922  1.00  0.00     0.006 C 
ENDROOT
BRANCH   1   2
ATOM      2  C   UNL     1       2.571 -51.593  11.068  1.00  0.00     0.053 C 
BRANCH   2   3
ATOM      3  C   UNL     1       1.996 -50.610  10.097  1.00  0.00     0.041 C 
ATOM      4  O   UNL     1       0.883 -50.067  10.330  1.00  0.00    -0.550 OA
ATOM      5  O   UNL     1       2.671 -50.315   8.921  1.00  0.00    -0.550 OA
ENDBRANCH   2   3
ENDBRANCH   1   2
BRANCH   1   6
ATOM      6  C   UNL     1       4.534 -53.164  10.634  1.00  0.00     0.000 C 
BRANCH   6   7
ATOM      7  C   UNL     1       5.962 -53.457  11.119  1.00  0.00    -0.000 C 
BRANCH   7   8
ATOM      8  C   UNL     1       7.023 -53.158  10.049  1.00  0.00    -0.003 C 
ATOM      9  C   UNL     1       8.346 -53.844  10.381  1.00  0.00     0.004 C 
ENDBRANCH   7   8
ENDBRANCH   6   7
ENDBRANCH   1   6
TORSDOF 5
ENDMDL
MODEL 2
REMARK VINA RESULT:    -2.681      2.807      5.512
REMARK INTER + INTRA:          -3.575
REMARK INTER:                  -3.432
REMARK INTRA:                  -0.142
REMARK UNBOUND:                -0.110
REMARK SMILES CCCCCCC(=O)[O-]
REMARK SMILES IDX 5 1 6 2 7 3 8 4 9 5 4 6 3 7 2 8 1 9
REMARK H PARENT
REMARK Flexibility Score: inf
ROOT
ATOM      1  C   UNL     1       2.942 -51.177  10.262  1.00  0.00     0.006 C 
ENDROOT
BRANCH   1   2
ATOM      2  C   UNL     1       4.060 -51.796  11.111  1.00  0.00     0.053 C 
BRANCH   2   3
ATOM      3  C   UNL     1       4.471 -53.142  10.598  1.00  0.00     0.041 C 
ATOM      4  O   UNL     1       3.918 -54.183  11.039  1.00  0.00    -0.550 OA
ATOM      5  O   UNL     1       5.486 -53.248   9.657  1.00  0.00    -0.550 OA
ENDBRANCH   2   3
ENDBRANCH   1   2
BRANCH   1   6
ATOM      6  C   UNL     1       2.311 -49.948  10.941  1.00  0.00     0.000 C 
BRANCH   6   7
ATOM      7  C   UNL     1       0.792 -50.087  11.125  1.00  0.00    -0.000 C 
BRANCH   7   8
ATOM      8  C   UNL     1       0.086 -50.593   9.857  1.00  0.00    -0.003 C 
ATOM      9  C   UNL     1      -0.856 -49.533   9.294  1.00  0.00     0.004 C 
ENDBRANCH   7   8
ENDBRANCH   6   7
ENDBRANCH   1   6
TORSDOF 5
ENDMDL
MODEL 3
REMARK VINA RESULT:    -2.385      2.943      5.721
REMARK INTER + INTRA:          -3.192
REMARK INTER:                  -3.047
REMARK INTRA:                  -0.145
REMARK UNBOUND:                -0.110
REMARK SMILES CCCCCCC(=O)[O-]
REMARK SMILES IDX 5 1 6 2 7 3 8 4 9 5 4 6 3 7 2 8 1 9
REMARK H PARENT
REMARK Flexibility Score: inf
ROOT
ATOM      1  C   UNL     1       1.552 -49.982  11.007  1.00  0.00     0.006 C 
ENDROOT
BRANCH   1   2
ATOM      2  C   UNL     1       3.035 -50.361  11.118  1.00  0.00     0.053 C 
BRANCH   2   3
ATOM      3  C   UNL     1       3.448 -51.323  10.047  1.00  0.00     0.041 C 
ATOM      4  O   UNL     1       4.006 -52.409  10.353  1.00  0.00    -0.550 OA
ATOM      5  O   UNL     1       3.244 -51.007   8.711  1.00  0.00    -0.550 OA
ENDBRANCH   2   3
ENDBRANCH   1   2
BRANCH   1   6
ATOM      6  C   UNL     1       0.630 -51.212  11.098  1.00  0.00     0.000 C 
BRANCH   6   7
ATOM      7  C   UNL     1      -0.843 -50.868  10.832  1.00  0.00    -0.000 C 
BRANCH   7   8
ATOM      8  C   UNL     1      -1.044 -49.398  10.430  1.00  0.00    -0.003 C 
ATOM      9  C   UNL     1      -1.125 -49.250   8.913  1.00  0.00     0.004 C 
ENDBRANCH   7   8
ENDBRANCH   6   7
ENDBRANCH   1   6
TORSDOF 5
ENDMDL
MODEL 4
REMARK VINA RESULT:    -2.234      2.376      3.435
REMARK INTER + INTRA:          -2.996
REMARK INTER:                  -2.766
REMARK INTRA:                  -0.230
REMARK UNBOUND:                -0.110
REMARK SMILES CCCCCCC(=O)[O-]
REMARK SMILES IDX 5 1 6 2 7 3 8 4 9 5 4 6 3 7 2 8 1 9
REMARK H PARENT
REMARK Flexibility Score: inf
ROOT
ATOM      1  C   UNL     1       1.813 -50.151   9.438  1.00  0.00     0.006 C 
ENDROOT
BRANCH   1   2
ATOM      2  C   UNL     1       0.377 -50.649   9.646  1.00  0.00     0.053 C 
BRANCH   2   3
ATOM      3  C   UNL     1      -0.595 -49.516   9.769  1.00  0.00     0.041 C 
ATOM      4  O   UNL     1      -1.121 -49.020   8.738  1.00  0.00    -0.550 OA
ATOM      5  O   UNL     1      -0.896 -48.989  11.017  1.00  0.00    -0.550 OA
ENDBRANCH   2   3
ENDBRANCH   1   2
BRANCH   1   6
ATOM      6  C   UNL     1       2.758 -50.618  10.561  1.00  0.00     0.000 C 
BRANCH   6   7
ATOM      7  C   UNL     1       2.371 -51.994  11.125  1.00  0.00    -0.000 C 
BRANCH   7   8
ATOM      8  C   UNL     1       3.532 -53.000  11.078  1.00  0.00    -0.003 C 
ATOM      9  C   UNL     1       4.546 -52.618  10.003  1.00  0.00     0.004 C 
ENDBRANCH   7   8
ENDBRANCH   6   7
ENDBRANCH   1   6
TORSDOF 5
ENDMDL
MODEL 5
REMARK VINA RESULT:    -2.178      1.729      2.409
REMARK INTER + INTRA:          -2.924
REMARK INTER:                  -2.808
REMARK INTRA:                  -0.116
REMARK UNBOUND:                -0.110
REMARK SMILES CCCCCCC(=O)[O-]
REMARK SMILES IDX 5 1 6 2 7 3 8 4 9 5 4 6 3 7 2 8 1 9
REMARK H PARENT
REMARK Flexibility Score: inf
ROOT
ATOM      1  C   UNL     1       2.223 -51.025  10.071  1.00  0.00     0.006 C 
ENDROOT
BRANCH   1   2
ATOM      2  C   UNL     1       0.991 -50.261  10.575  1.00  0.00     0.053 C 
BRANCH   2   3
ATOM      3  C   UNL     1      -0.134 -50.302   9.589  1.00  0.00     0.041 C 
ATOM      4  O   UNL     1      -0.815 -49.267   9.362  1.00  0.00    -0.550 OA
ATOM      5  O   UNL     1      -0.452 -51.489   8.943  1.00  0.00    -0.550 OA
ENDBRANCH   2   3
ENDBRANCH   1   2
BRANCH   1   6
ATOM      6  C   UNL     1       3.351 -51.063  11.117  1.00  0.00     0.000 C 
BRANCH   6   7
ATOM      7  C   UNL     1       4.106 -52.402  11.125  1.00  0.00    -0.000 C 
BRANCH   7   8
ATOM      8  C   UNL     1       4.619 -52.800   9.732  1.00  0.00    -0.003 C 
ATOM      9  C   UNL     1       6.029 -53.380   9.812  1.00  0.00     0.004 C 
ENDBRANCH   7   8
ENDBRANCH   6   7
ENDBRANCH   1   6
TORSDOF 5
ENDMDL
MODEL 6
REMARK VINA RESULT:    -1.259      2.279      3.035
REMARK INTER + INTRA:          -1.737
REMARK INTER:                  -1.613
REMARK INTRA:                  -0.124
REMARK UNBOUND:                -0.110
REMARK SMILES CCCCCCC(=O)[O-]
REMARK SMILES IDX 5 1 6 2 7 3 8 4 9 5 4 6 3 7 2 8 1 9
REMARK H PARENT
REMARK Flexibility Score: inf
ROOT
ATOM      1  C   UNL     1       4.489 -52.908  10.533  1.00  0.00     0.006 C 
ENDROOT
BRANCH   1   2
ATOM      2  C   UNL     1       3.349 -52.065  11.122  1.00  0.00     0.053 C 
BRANCH   2   3
ATOM      3  C   UNL     1       2.994 -50.910  10.237  1.00  0.00     0.041 C 
ATOM      4  O   UNL     1       2.549 -49.844  10.737  1.00  0.00    -0.550 OA
ATOM      5  O   UNL     1       3.126 -51.022   8.860  1.00  0.00    -0.550 OA
ENDBRANCH   2   3
ENDBRANCH   1   2
BRANCH   1   6
ATOM      6  C   UNL     1       4.479 -54.352  11.066  1.00  0.00     0.000 C 
BRANCH   6   7
ATOM      7  C   UNL     1       3.547 -55.273  10.262  1.00  0.00    -0.000 C 
BRANCH   7   8
ATOM      8  C   UNL     1       2.921 -56.379  11.124  1.00  0.00    -0.003 C 
ATOM      9  C   UNL     1       3.787 -57.636  11.120  1.00  0.00     0.004 C 
ENDBRANCH   7   8
ENDBRANCH   6   7
ENDBRANCH   1   6
TORSDOF 5
ENDMDL
