MODEL 1
REMARK VINA RESULT:    -4.567      0.000      0.000
REMARK INTER + INTRA:          -9.345
REMARK INTER:                  -8.038
REMARK INTRA:                  -1.308
REMARK UNBOUND:                -1.308
REMARK SMILES CCCCCCC=CCCCCCCCC(=O)[O-]
REMARK SMILES IDX 10 1 11 2 12 3 13 4 14 5 15 6 16 7 17 8 18 9 9 10 8 11 7 12
REMARK SMILES IDX 6 13 5 14 4 15 3 16 2 17 1 18
REMARK H PARENT
REMARK Flexibility Score: inf
ROOT
ATOM      1  C   UNL     1      68.933 -37.515   9.807  1.00  0.00     0.004 C 
ENDROOT
BRANCH   1   2
ATOM      2  C   UNL     1      69.739 -38.772   9.443  1.00  0.00     0.000 C 
BRANCH   2   3
ATOM      3  C   UNL     1      70.592 -39.283  10.615  1.00  0.00     0.000 C 
BRANCH   3   4
ATOM      4  C   UNL     1      71.052 -38.125  11.508  1.00  0.00     0.000 C 
BRANCH   4   5
ATOM      5  C   UNL     1      72.559 -38.217  11.794  1.00  0.00     0.006 C 
BRANCH   5   6
ATOM      6  C   UNL     1      73.385 -37.354  10.832  1.00  0.00     0.053 C 
BRANCH   6   7
ATOM      7  C   UNL     1      74.852 -37.450  11.124  1.00  0.00     0.041 C 
ATOM      8  O   UNL     1      75.681 -36.848  10.393  1.00  0.00    -0.550 OA
ATOM      9  O   UNL     1      75.299 -38.180  12.218  1.00  0.00    -0.550 OA
ENDBRANCH   6   7
ENDBRANCH   5   6
ENDBRANCH   4   5
ENDBRANCH   3   4
ENDBRANCH   2   3
ENDBRANCH   1   2
BRANCH   1  10
ATOM     10  C   UNL     1      68.125 -36.967   8.624  1.00  0.00     0.027 C 
BRANCH  10  11
ATOM     11  C   UNL     1      69.018 -36.213   7.678  1.00  0.00    -0.031 C 
ATOM     12  C   UNL     1      68.816 -34.915   7.411  1.00  0.00    -0.031 C 
BRANCH  12  13
ATOM     13  C   UNL     1      69.707 -34.157   6.468  1.00  0.00     0.027 C 
BRANCH  13  14
ATOM     14  C   UNL     1      70.414 -33.001   7.189  1.00  0.00     0.004 C 
BRANCH  14  15
ATOM     15  C   UNL     1      71.948 -33.132   7.181  1.00  0.00     0.000 C 
BRANCH  15  16
ATOM     16  C   UNL     1      72.527 -33.963   6.021  1.00  0.00    -0.000 C 
BRANCH  16  17
ATOM     17  C   UNL     1      73.177 -35.293   6.436  1.00  0.00    -0.003 C 
ATOM     18  C   UNL     1      72.785 -35.731   7.845  1.00  0.00     0.004 C 
ENDBRANCH  16  17
ENDBRANCH  15  16
ENDBRANCH  14  15
ENDBRANCH  13  14
ENDBRANCH  12  13
ENDBRANCH  10  11
ENDBRANCH   1  10
TORSDOF 13
ENDMDL
MODEL 2
REMARK VINA RESULT:    -4.483      2.926      5.590
REMARK INTER + INTRA:          -9.198
REMARK INTER:                  -7.609
REMARK INTRA:                  -1.589
REMARK UNBOUND:                -1.308
REMARK SMILES CCCCCCC=CCCCCCCCC(=O)[O-]
REMARK SMILES IDX 10 1 11 2 12 3 13 4 14 5 15 6 16 7 17 8 18 9 9 10 8 11 7 12
REMARK SMILES IDX 6 13 5 14 4 15 3 16 2 17 1 18
REMARK H PARENT
REMARK Flexibility Score: inf
ROOT
ATOM      1  C   UNL     1      70.612 -38.701  10.306  1.00  0.00     0.004 C 
ENDROOT
BRANCH   1   2
ATOM      2  C   UNL     1      69.742 -37.775   9.442  1.00  0.00     0.000 C 
BRANCH   2   3
ATOM      3  C   UNL     1      70.576 -36.890   8.503  1.00  0.00     0.000 C 
BRANCH   3   4
ATOM      4  C   UNL     1      70.196 -37.131   7.037  1.00  0.00     0.000 C 
BRANCH   4   5
ATOM      5  C   UNL     1      69.395 -35.947   6.474  1.00  0.00     0.006 C 
BRANCH   5   6
ATOM      6  C   UNL     1      69.601 -34.667   7.294  1.00  0.00     0.053 C 
BRANCH   6   7
ATOM      7  C   UNL     1      70.275 -33.598   6.489  1.00  0.00     0.041 C 
ATOM      8  O   UNL     1      70.359 -33.709   5.238  1.00  0.00    -0.550 OA
ATOM      9  O   UNL     1      70.784 -32.468   7.117  1.00  0.00    -0.550 OA
ENDBRANCH   6   7
ENDBRANCH   5   6
ENDBRANCH   4   5
ENDBRANCH   3   4
ENDBRANCH   2   3
ENDBRANCH   1   2
BRANCH   1  10
ATOM     10  C   UNL     1      70.980 -38.076  11.657  1.00  0.00     0.027 C 
BRANCH  10  11
ATOM     11  C   UNL     1      72.471 -38.078  11.852  1.00  0.00    -0.031 C 
ATOM     12  C   UNL     1      73.292 -37.502  10.962  1.00  0.00    -0.031 C 
BRANCH  12  13
ATOM     13  C   UNL     1      74.783 -37.500  11.153  1.00  0.00     0.027 C 
BRANCH  13  14
ATOM     14  C   UNL     1      75.497 -36.969   9.902  1.00  0.00     0.004 C 
BRANCH  14  15
ATOM     15  C   UNL     1      74.545 -36.743   8.714  1.00  0.00     0.000 C 
BRANCH  15  16
ATOM     16  C   UNL     1      75.112 -37.135   7.338  1.00  0.00    -0.000 C 
BRANCH  16  17
ATOM     17  C   UNL     1      74.116 -37.032   6.172  1.00  0.00    -0.003 C 
ATOM     18  C   UNL     1      73.417 -35.675   6.107  1.00  0.00     0.004 C 
ENDBRANCH  16  17
ENDBRANCH  15  16
ENDBRANCH  14  15
ENDBRANCH  13  14
ENDBRANCH  12  13
ENDBRANCH  10  11
ENDBRANCH   1  10
TORSDOF 13
ENDMDL
MODEL 3
REMARK VINA RESULT:    -4.454      1.186      2.385
REMARK INTER + INTRA:          -9.146
REMARK INTER:                  -7.547
REMARK INTRA:                  -1.599
REMARK UNBOUND:                -1.308
REMARK SMILES CCCCCCC=CCCCCCCCC(=O)[O-]
REMARK SMILES IDX 10 1 11 2 12 3 13 4 14 5 15 6 16 7 17 8 18 9 9 10 8 11 7 12
REMARK SMILES IDX 6 13 5 14 4 15 3 16 2 17 1 18
REMARK H PARENT
REMARK Flexibility Score: inf
ROOT
ATOM      1  C   UNL     1      69.623 -36.922   8.606  1.00  0.00     0.004 C 
ENDROOT
BRANCH   1   2
ATOM      2  C   UNL     1      69.844 -38.189   9.448  1.00  0.00     0.000 C 
BRANCH   2   3
ATOM      3  C   UNL     1      70.097 -37.873  10.930  1.00  0.00     0.000 C 
BRANCH   3   4
ATOM      4  C   UNL     1      71.487 -38.353  11.366  1.00  0.00     0.000 C 
BRANCH   4   5
ATOM      5  C   UNL     1      72.585 -37.428  10.819  1.00  0.00     0.006 C 
BRANCH   5   6
ATOM      6  C   UNL     1      73.987 -37.871  11.257  1.00  0.00     0.053 C 
BRANCH   6   7
ATOM      7  C   UNL     1      75.057 -37.136  10.510  1.00  0.00     0.041 C 
ATOM      8  O   UNL     1      76.072 -36.708  11.120  1.00  0.00    -0.550 OA
ATOM      9  O   UNL     1      74.948 -36.949   9.138  1.00  0.00    -0.550 OA
ENDBRANCH   6   7
ENDBRANCH   5   6
ENDBRANCH   4   5
ENDBRANCH   3   4
ENDBRANCH   2   3
ENDBRANCH   1   2
BRANCH   1  10
ATOM     10  C   UNL     1      69.416 -37.230   7.118  1.00  0.00     0.027 C 
BRANCH  10  11
ATOM     11  C   UNL     1      70.603 -36.776   6.314  1.00  0.00    -0.031 C 
ATOM     12  C   UNL     1      71.834 -36.741   6.845  1.00  0.00    -0.031 C 
BRANCH  12  13
ATOM     13  C   UNL     1      73.023 -36.289   6.045  1.00  0.00     0.027 C 
BRANCH  13  14
ATOM     14  C   UNL     1      73.362 -34.822   6.344  1.00  0.00     0.004 C 
BRANCH  14  15
ATOM     15  C   UNL     1      73.069 -33.881   5.161  1.00  0.00     0.000 C 
BRANCH  15  16
ATOM     16  C   UNL     1      71.818 -32.998   5.322  1.00  0.00    -0.000 C 
BRANCH  16  17
ATOM     17  C   UNL     1      71.306 -32.854   6.764  1.00  0.00    -0.003 C 
ATOM     18  C   UNL     1      69.863 -33.327   6.932  1.00  0.00     0.004 C 
ENDBRANCH  16  17
ENDBRANCH  15  16
ENDBRANCH  14  15
ENDBRANCH  13  14
ENDBRANCH  12  13
ENDBRANCH  10  11
ENDBRANCH   1  10
TORSDOF 13
ENDMDL
MODEL 4
REMARK VINA RESULT:    -4.440      1.657      5.108
REMARK INTER + INTRA:          -9.122
REMARK INTER:                  -7.598
REMARK INTRA:                  -1.524
REMARK UNBOUND:                -1.308
REMARK SMILES CCCCCCC=CCCCCCCCC(=O)[O-]
REMARK SMILES IDX 10 1 11 2 12 3 13 4 14 5 15 6 16 7 17 8 18 9 9 10 8 11 7 12
REMARK SMILES IDX 6 13 5 14 4 15 3 16 2 17 1 18
REMARK H PARENT
REMARK Flexibility Score: inf
ROOT
ATOM      1  C   UNL     1      69.148 -35.987   6.649  1.00  0.00     0.004 C 
ENDROOT
BRANCH   1   2
ATOM      2  C   UNL     1      69.689 -34.750   7.382  1.00  0.00     0.000 C 
BRANCH   2   3
ATOM      3  C   UNL     1      70.736 -33.987   6.555  1.00  0.00     0.000 C 
BRANCH   3   4
ATOM      4  C   UNL     1      72.139 -34.157   7.150  1.00  0.00     0.000 C 
BRANCH   4   5
ATOM      5  C   UNL     1      72.801 -35.445   6.639  1.00  0.00     0.006 C 
BRANCH   5   6
ATOM      6  C   UNL     1      73.593 -36.165   7.738  1.00  0.00     0.053 C 
BRANCH   6   7
ATOM      7  C   UNL     1      74.798 -36.862   7.184  1.00  0.00     0.041 C 
ATOM      8  O   UNL     1      74.679 -37.641   6.201  1.00  0.00    -0.550 OA
ATOM      9  O   UNL     1      76.053 -36.630   7.732  1.00  0.00    -0.550 OA
ENDBRANCH   6   7
ENDBRANCH   5   6
ENDBRANCH   4   5
ENDBRANCH   3   4
ENDBRANCH   2   3
ENDBRANCH   1   2
BRANCH   1  10
ATOM     10  C   UNL     1      69.742 -37.297   7.180  1.00  0.00     0.027 C 
BRANCH  10  11
ATOM     11  C   UNL     1      69.542 -37.404   8.666  1.00  0.00    -0.031 C 
ATOM     12  C   UNL     1      70.541 -37.768   9.482  1.00  0.00    -0.031 C 
BRANCH  12  13
ATOM     13  C   UNL     1      70.346 -37.874  10.968  1.00  0.00     0.027 C 
BRANCH  13  14
ATOM     14  C   UNL     1      71.680 -38.137  11.681  1.00  0.00     0.004 C 
BRANCH  14  15
ATOM     15  C   UNL     1      72.852 -37.341  11.081  1.00  0.00     0.000 C 
BRANCH  15  16
ATOM     16  C   UNL     1      74.244 -37.964  11.294  1.00  0.00    -0.000 C 
BRANCH  16  17
ATOM     17  C   UNL     1      75.386 -36.954  11.481  1.00  0.00    -0.003 C 
ATOM     18  C   UNL     1      76.748 -37.623  11.660  1.00  0.00     0.004 C 
ENDBRANCH  16  17
ENDBRANCH  15  16
ENDBRANCH  14  15
ENDBRANCH  13  14
ENDBRANCH  12  13
ENDBRANCH  10  11
ENDBRANCH   1  10
TORSDOF 13
ENDMDL
MODEL 5
REMARK VINA RESULT:    -4.423      1.210      4.317
REMARK INTER + INTRA:          -9.092
REMARK INTER:                  -7.491
REMARK INTRA:                  -1.601
REMARK UNBOUND:                -1.308
REMARK SMILES CCCCCCC=CCCCCCCCC(=O)[O-]
REMARK SMILES IDX 10 1 11 2 12 3 13 4 14 5 15 6 16 7 17 8 18 9 9 10 8 11 7 12
REMARK SMILES IDX 6 13 5 14 4 15 3 16 2 17 1 18
REMARK H PARENT
REMARK Flexibility Score: inf
ROOT
ATOM      1  C   UNL     1      73.710 -34.474   5.314  1.00  0.00     0.004 C 
ENDROOT
BRANCH   1   2
ATOM      2  C   UNL     1      73.204 -35.924   5.341  1.00  0.00     0.000 C 
BRANCH   2   3
ATOM      3  C   UNL     1      73.766 -36.722   6.529  1.00  0.00     0.000 C 
BRANCH   3   4
ATOM      4  C   UNL     1      73.524 -35.985   7.851  1.00  0.00     0.000 C 
BRANCH   4   5
ATOM      5  C   UNL     1      73.864 -36.881   9.051  1.00  0.00     0.006 C 
BRANCH   5   6
ATOM      6  C   UNL     1      75.311 -36.693   9.524  1.00  0.00     0.053 C 
BRANCH   6   7
ATOM      7  C   UNL     1      75.522 -37.258  10.896  1.00  0.00     0.041 C 
ATOM      8  O   UNL     1      76.640 -37.137  11.462  1.00  0.00    -0.550 OA
ATOM      9  O   UNL     1      74.478 -37.890  11.559  1.00  0.00    -0.550 OA
ENDBRANCH   6   7
ENDBRANCH   5   6
ENDBRANCH   4   5
ENDBRANCH   3   4
ENDBRANCH   2   3
ENDBRANCH   1   2
BRANCH   1  10
ATOM     10  C   UNL     1      72.574 -33.454   5.161  1.00  0.00     0.027 C 
BRANCH  10  11
ATOM     11  C   UNL     1      71.271 -34.041   5.628  1.00  0.00    -0.031 C 
ATOM     12  C   UNL     1      70.631 -33.556   6.701  1.00  0.00    -0.031 C 
BRANCH  12  13
ATOM     13  C   UNL     1      69.327 -34.139   7.171  1.00  0.00     0.027 C 
BRANCH  13  14
ATOM     14  C   UNL     1      69.296 -35.659   6.960  1.00  0.00     0.004 C 
BRANCH  14  15
ATOM     15  C   UNL     1      69.002 -36.441   8.252  1.00  0.00     0.000 C 
BRANCH  15  16
ATOM     16  C   UNL     1      70.239 -37.022   8.962  1.00  0.00    -0.000 C 
BRANCH  16  17
ATOM     17  C   UNL     1      69.944 -38.160   9.953  1.00  0.00    -0.003 C 
ATOM     18  C   UNL     1      70.923 -38.194  11.125  1.00  0.00     0.004 C 
ENDBRANCH  16  17
ENDBRANCH  15  16
ENDBRANCH  14  15
ENDBRANCH  13  14
ENDBRANCH  12  13
ENDBRANCH  10  11
ENDBRANCH   1  10
TORSDOF 13
ENDMDL
MODEL 6
REMARK VINA RESULT:    -4.387      3.031      4.593
REMARK INTER + INTRA:          -9.029
REMARK INTER:                  -7.157
REMARK INTRA:                  -1.872
REMARK UNBOUND:                -1.308
REMARK SMILES CCCCCCC=CCCCCCCCC(=O)[O-]
REMARK SMILES IDX 10 1 11 2 12 3 13 4 14 5 15 6 16 7 17 8 18 9 9 10 8 11 7 12
REMARK SMILES IDX 6 13 5 14 4 15 3 16 2 17 1 18
REMARK H PARENT
REMARK Flexibility Score: inf
ROOT
ATOM      1  C   UNL     1      72.440 -36.418   9.335  1.00  0.00     0.004 C 
ENDROOT
BRANCH   1   2
ATOM      2  C   UNL     1      72.956 -37.378  10.418  1.00  0.00     0.000 C 
BRANCH   2   3
ATOM      3  C   UNL     1      71.900 -37.673  11.494  1.00  0.00     0.000 C 
BRANCH   3   4
ATOM      4  C   UNL     1      71.274 -39.057  11.287  1.00  0.00     0.000 C 
BRANCH   4   5
ATOM      5  C   UNL     1      70.128 -38.996  10.267  1.00  0.00     0.006 C 
BRANCH   5   6
ATOM      6  C   UNL     1      69.202 -37.796  10.507  1.00  0.00     0.053 C 
BRANCH   6   7
ATOM      7  C   UNL     1      67.802 -38.079  10.054  1.00  0.00     0.041 C 
ATOM      8  O   UNL     1      67.563 -39.085   9.334  1.00  0.00    -0.550 OA
ATOM      9  O   UNL     1      66.760 -37.251  10.449  1.00  0.00    -0.550 OA
ENDBRANCH   6   7
ENDBRANCH   5   6
ENDBRANCH   4   5
ENDBRANCH   3   4
ENDBRANCH   2   3
ENDBRANCH   1   2
BRANCH   1  10
ATOM     10  C   UNL     1      73.408 -36.284   8.153  1.00  0.00     0.027 C 
BRANCH  10  11
ATOM     11  C   UNL     1      72.869 -35.316   7.136  1.00  0.00    -0.031 C 
ATOM     12  C   UNL     1      72.166 -34.235   7.504  1.00  0.00    -0.031 C 
BRANCH  12  13
ATOM     13  C   UNL     1      71.627 -33.264   6.492  1.00  0.00     0.027 C 
BRANCH  13  14
ATOM     14  C   UNL     1      70.123 -33.477   6.272  1.00  0.00     0.004 C 
BRANCH  14  15
ATOM     15  C   UNL     1      69.419 -34.108   7.485  1.00  0.00     0.000 C 
BRANCH  15  16
ATOM     16  C   UNL     1      68.621 -35.391   7.185  1.00  0.00    -0.000 C 
BRANCH  16  17
ATOM     17  C   UNL     1      69.471 -36.662   7.025  1.00  0.00    -0.003 C 
ATOM     18  C   UNL     1      69.754 -37.007   5.564  1.00  0.00     0.004 C 
ENDBRANCH  16  17
ENDBRANCH  15  16
ENDBRANCH  14  15
ENDBRANCH  13  14
ENDBRANCH  12  13
ENDBRANCH  10  11
ENDBRANCH   1  10
TORSDOF 13
ENDMDL
MODEL 7
REMARK VINA RESULT:    -4.337      1.790      4.431
REMARK INTER + INTRA:          -8.942
REMARK INTER:                  -7.623
REMARK INTRA:                  -1.319
REMARK UNBOUND:                -1.308
REMARK SMILES CCCCCCC=CCCCCCCCC(=O)[O-]
REMARK SMILES IDX 10 1 11 2 12 3 13 4 14 5 15 6 16 7 17 8 18 9 9 10 8 11 7 12
REMARK SMILES IDX 6 13 5 14 4 15 3 16 2 17 1 18
REMARK H PARENT
REMARK Flexibility Score: inf
ROOT
ATOM      1  C   UNL     1      69.789 -33.463   6.672  1.00  0.00     0.004 C 
ENDROOT
BRANCH   1   2
ATOM      2  C   UNL     1      69.906 -34.991   6.559  1.00  0.00     0.000 C 
BRANCH   2   3
ATOM      3  C   UNL     1      69.494 -35.710   7.853  1.00  0.00     0.000 C 
BRANCH   3   4
ATOM      4  C   UNL     1      70.633 -36.589   8.381  1.00  0.00     0.000 C 
BRANCH   4   5
ATOM      5  C   UNL     1      70.093 -37.917   8.934  1.00  0.00     0.006 C 
BRANCH   5   6
ATOM      6  C   UNL     1      69.882 -37.870  10.452  1.00  0.00     0.053 C 
BRANCH   6   7
ATOM      7  C   UNL     1      71.009 -38.529  11.188  1.00  0.00     0.041 C 
ATOM      8  O   UNL     1      70.959 -39.760  11.446  1.00  0.00    -0.550 OA
ATOM      9  O   UNL     1      72.125 -37.791  11.562  1.00  0.00    -0.550 OA
ENDBRANCH   6   7
ENDBRANCH   5   6
ENDBRANCH   4   5
ENDBRANCH   3   4
ENDBRANCH   2   3
ENDBRANCH   1   2
BRANCH   1  10
ATOM     10  C   UNL     1      71.133 -32.788   6.974  1.00  0.00     0.027 C 
BRANCH  10  11
ATOM     11  C   UNL     1      72.262 -33.769   6.823  1.00  0.00    -0.031 C 
ATOM     12  C   UNL     1      72.983 -33.838   5.695  1.00  0.00    -0.031 C 
BRANCH  12  13
ATOM     13  C   UNL     1      74.114 -34.816   5.541  1.00  0.00     0.027 C 
BRANCH  13  14
ATOM     14  C   UNL     1      73.720 -36.200   6.076  1.00  0.00     0.004 C 
BRANCH  14  15
ATOM     15  C   UNL     1      74.733 -36.769   7.085  1.00  0.00     0.000 C 
BRANCH  15  16
ATOM     16  C   UNL     1      74.416 -36.479   8.564  1.00  0.00    -0.000 C 
BRANCH  16  17
ATOM     17  C   UNL     1      75.027 -37.473   9.565  1.00  0.00    -0.003 C 
ATOM     18  C   UNL     1      75.678 -36.784  10.763  1.00  0.00     0.004 C 
ENDBRANCH  16  17
ENDBRANCH  15  16
ENDBRANCH  14  15
ENDBRANCH  13  14
ENDBRANCH  12  13
ENDBRANCH  10  11
ENDBRANCH   1  10
TORSDOF 13
ENDMDL
MODEL 8
REMARK VINA RESULT:    -4.275      3.210      5.706
REMARK INTER + INTRA:          -8.831
REMARK INTER:                  -7.400
REMARK INTRA:                  -1.431
REMARK UNBOUND:                -1.308
REMARK SMILES CCCCCCC=CCCCCCCCC(=O)[O-]
REMARK SMILES IDX 10 1 11 2 12 3 13 4 14 5 15 6 16 7 17 8 18 9 9 10 8 11 7 12
REMARK SMILES IDX 6 13 5 14 4 15 3 16 2 17 1 18
REMARK H PARENT
REMARK Flexibility Score: inf
ROOT
ATOM      1  C   UNL     1      69.917 -33.411   6.395  1.00  0.00     0.004 C 
ENDROOT
BRANCH   1   2
ATOM      2  C   UNL     1      69.121 -34.144   7.486  1.00  0.00     0.000 C 
BRANCH   2   3
ATOM      3  C   UNL     1      69.024 -35.656   7.227  1.00  0.00     0.000 C 
BRANCH   3   4
ATOM      4  C   UNL     1      69.917 -36.439   8.196  1.00  0.00     0.000 C 
BRANCH   4   5
ATOM      5  C   UNL     1      69.095 -37.452   9.007  1.00  0.00     0.006 C 
BRANCH   5   6
ATOM      6  C   UNL     1      67.614 -37.060   9.094  1.00  0.00     0.053 C 
BRANCH   6   7
ATOM      7  C   UNL     1      66.834 -38.030   9.928  1.00  0.00     0.041 C 
ATOM      8  O   UNL     1      66.773 -39.242   9.594  1.00  0.00    -0.550 OA
ATOM      9  O   UNL     1      66.198 -37.601  11.086  1.00  0.00    -0.550 OA
ENDBRANCH   6   7
ENDBRANCH   5   6
ENDBRANCH   4   5
ENDBRANCH   3   4
ENDBRANCH   2   3
ENDBRANCH   1   2
BRANCH   1  10
ATOM     10  C   UNL     1      71.228 -32.813   6.920  1.00  0.00     0.027 C 
BRANCH  10  11
ATOM     11  C   UNL     1      72.232 -33.899   7.191  1.00  0.00    -0.031 C 
ATOM     12  C   UNL     1      72.825 -34.568   6.192  1.00  0.00    -0.031 C 
BRANCH  12  13
ATOM     13  C   UNL     1      73.830 -35.653   6.459  1.00  0.00     0.027 C 
BRANCH  13  14
ATOM     14  C   UNL     1      73.459 -36.450   7.717  1.00  0.00     0.004 C 
BRANCH  14  15
ATOM     15  C   UNL     1      74.650 -36.668   8.667  1.00  0.00     0.000 C 
BRANCH  15  16
ATOM     16  C   UNL     1      74.293 -37.285  10.032  1.00  0.00    -0.000 C 
BRANCH  16  17
ATOM     17  C   UNL     1      72.806 -37.206  10.411  1.00  0.00    -0.003 C 
ATOM     18  C   UNL     1      72.466 -38.023  11.656  1.00  0.00     0.004 C 
ENDBRANCH  16  17
ENDBRANCH  15  16
ENDBRANCH  14  15
ENDBRANCH  13  14
ENDBRANCH  12  13
ENDBRANCH  10  11
ENDBRANCH   1  10
TORSDOF 13
ENDMDL
MODEL 9
REMARK VINA RESULT:    -4.251      9.343     10.986
REMARK INTER + INTRA:          -8.790
REMARK INTER:                  -7.610
REMARK INTRA:                  -1.180
REMARK UNBOUND:                -1.308
REMARK SMILES CCCCCCC=CCCCCCCCC(=O)[O-]
REMARK SMILES IDX 10 1 11 2 12 3 13 4 14 5 15 6 16 7 17 8 18 9 9 10 8 11 7 12
REMARK SMILES IDX 6 13 5 14 4 15 3 16 2 17 1 18
REMARK H PARENT
REMARK Flexibility Score: inf
ROOT
ATOM      1  C   UNL     1      63.373 -34.566  14.779  1.00  0.00     0.004 C 
ENDROOT
BRANCH   1   2
ATOM      2  C   UNL     1      64.735 -35.266  14.653  1.00  0.00     0.000 C 
BRANCH   2   3
ATOM      3  C   UNL     1      64.785 -36.244  13.468  1.00  0.00     0.000 C 
BRANCH   3   4
ATOM      4  C   UNL     1      66.092 -36.090  12.682  1.00  0.00     0.000 C 
BRANCH   4   5
ATOM      5  C   UNL     1      65.839 -36.187  11.170  1.00  0.00     0.006 C 
BRANCH   5   6
ATOM      6  C   UNL     1      64.989 -35.021  10.648  1.00  0.00     0.053 C 
BRANCH   6   7
ATOM      7  C   UNL     1      63.757 -35.506   9.946  1.00  0.00     0.041 C 
ATOM      8  O   UNL     1      62.703 -35.723  10.599  1.00  0.00    -0.550 OA
ATOM      9  O   UNL     1      63.766 -35.689   8.569  1.00  0.00    -0.550 OA
ENDBRANCH   6   7
ENDBRANCH   5   6
ENDBRANCH   4   5
ENDBRANCH   3   4
ENDBRANCH   2   3
ENDBRANCH   1   2
BRANCH   1  10
ATOM     10  C   UNL     1      62.989 -33.787  13.515  1.00  0.00     0.027 C 
BRANCH  10  11
ATOM     11  C   UNL     1      62.398 -32.453  13.876  1.00  0.00    -0.031 C 
ATOM     12  C   UNL     1      61.997 -32.181  15.126  1.00  0.00    -0.031 C 
BRANCH  12  13
ATOM     13  C   UNL     1      61.408 -30.848  15.492  1.00  0.00     0.027 C 
BRANCH  13  14
ATOM     14  C   UNL     1      62.323 -30.089  16.463  1.00  0.00     0.004 C 
BRANCH  14  15
ATOM     15  C   UNL     1      62.848 -28.763  15.885  1.00  0.00     0.000 C 
BRANCH  15  16
ATOM     16  C   UNL     1      63.302 -28.824  14.415  1.00  0.00    -0.000 C 
BRANCH  16  17
ATOM     17  C   UNL     1      62.443 -28.006  13.437  1.00  0.00    -0.003 C 
ATOM     18  C   UNL     1      62.744 -26.509  13.491  1.00  0.00     0.004 C 
ENDBRANCH  16  17
ENDBRANCH  15  16
ENDBRANCH  14  15
ENDBRANCH  13  14
ENDBRANCH  12  13
ENDBRANCH  10  11
ENDBRANCH   1  10
TORSDOF 13
ENDMDL
