MODEL 1
REMARK VINA RESULT:    -4.403      0.000      0.000
REMARK INTER + INTRA:          -7.621
REMARK INTER:                  -6.719
REMARK INTRA:                  -0.902
REMARK UNBOUND:                -0.902
REMARK SMILES O=C([O-])CCCCCCCCC(=O)[O-]
REMARK SMILES IDX 7 1 6 2 5 3 4 4 2 5 1 6 3 7 8 8 9 9 10 10 11 11 12 12 13 13
REMARK SMILES IDX 14 14
REMARK H PARENT
REMARK Flexibility Score: inf
ROOT
ATOM      1  C   UNL     1      21.029  17.955  47.863  1.00  0.00     0.000 C 
ENDROOT
BRANCH   1   2
ATOM      2  C   UNL     1      20.532  16.628  47.263  1.00  0.00     0.000 C 
BRANCH   2   3
ATOM      3  C   UNL     1      19.202  16.778  46.506  1.00  0.00     0.006 C 
BRANCH   3   4
ATOM      4  C   UNL     1      18.033  17.101  47.448  1.00  0.00     0.053 C 
BRANCH   4   5
ATOM      5  C   UNL     1      16.727  17.139  46.718  1.00  0.00     0.041 C 
ATOM      6  O   UNL     1      16.428  18.132  46.004  1.00  0.00    -0.550 OA
ATOM      7  O   UNL     1      15.854  16.060  46.794  1.00  0.00    -0.550 OA
ENDBRANCH   4   5
ENDBRANCH   3   4
ENDBRANCH   2   3
ENDBRANCH   1   2
BRANCH   1   8
ATOM      8  C   UNL     1      21.072  19.139  46.875  1.00  0.00     0.000 C 
BRANCH   8   9
ATOM      9  C   UNL     1      20.252  20.375  47.296  1.00  0.00     0.000 C 
BRANCH   9  10
ATOM     10  C   UNL     1      18.998  20.643  46.444  1.00  0.00     0.006 C 
BRANCH  10  11
ATOM     11  C   UNL     1      19.201  20.302  44.963  1.00  0.00     0.053 C 
BRANCH  11  12
ATOM     12  C   UNL     1      18.252  21.085  44.112  1.00  0.00     0.041 C 
ATOM     13  O   UNL     1      18.585  21.433  42.948  1.00  0.00    -0.550 OA
ATOM     14  O   UNL     1      16.983  21.389  44.585  1.00  0.00    -0.550 OA
ENDBRANCH  11  12
ENDBRANCH  10  11
ENDBRANCH   9  10
ENDBRANCH   8   9
ENDBRANCH   1   8
TORSDOF 9
ENDMDL
MODEL 2
REMARK VINA RESULT:    -4.375      0.243      4.341
REMARK INTER + INTRA:          -7.579
REMARK INTER:                  -6.672
REMARK INTRA:                  -0.907
REMARK UNBOUND:                -0.902
REMARK SMILES O=C([O-])CCCCCCCCC(=O)[O-]
REMARK SMILES IDX 7 1 6 2 5 3 4 4 2 5 1 6 3 7 8 8 9 9 10 10 11 11 12 12 13 13
REMARK SMILES IDX 14 14
REMARK H PARENT
REMARK Flexibility Score: inf
ROOT
ATOM      1  C   UNL     1      21.064  19.059  46.873  1.00  0.00     0.000 C 
ENDROOT
BRANCH   1   2
ATOM      2  C   UNL     1      20.269  20.284  47.359  1.00  0.00     0.000 C 
BRANCH   2   3
ATOM      3  C   UNL     1      19.056  20.599  46.467  1.00  0.00     0.006 C 
BRANCH   3   4
ATOM      4  C   UNL     1      19.349  20.348  44.982  1.00  0.00     0.053 C 
BRANCH   4   5
ATOM      5  C   UNL     1      18.382  21.069  44.096  1.00  0.00     0.041 C 
ATOM      6  O   UNL     1      18.494  20.997  42.843  1.00  0.00    -0.550 OA
ATOM      7  O   UNL     1      17.332  21.791  44.651  1.00  0.00    -0.550 OA
ENDBRANCH   4   5
ENDBRANCH   3   4
ENDBRANCH   2   3
ENDBRANCH   1   2
BRANCH   1   8
ATOM      8  C   UNL     1      21.047  17.852  47.833  1.00  0.00     0.000 C 
BRANCH   8   9
ATOM      9  C   UNL     1      20.410  16.569  47.262  1.00  0.00     0.000 C 
BRANCH   9  10
ATOM     10  C   UNL     1      19.114  16.788  46.462  1.00  0.00     0.006 C 
BRANCH  10  11
ATOM     11  C   UNL     1      17.907  17.100  47.355  1.00  0.00     0.053 C 
BRANCH  11  12
ATOM     12  C   UNL     1      16.664  17.219  46.532  1.00  0.00     0.041 C 
ATOM     13  O   UNL     1      16.487  18.223  45.793  1.00  0.00    -0.550 OA
ATOM     14  O   UNL     1      15.723  16.198  46.542  1.00  0.00    -0.550 OA
ENDBRANCH  11  12
ENDBRANCH  10  11
ENDBRANCH   9  10
ENDBRANCH   8   9
ENDBRANCH   1   8
TORSDOF 9
ENDMDL
MODEL 3
REMARK VINA RESULT:    -4.356      1.285      2.121
REMARK INTER + INTRA:          -7.550
REMARK INTER:                  -6.569
REMARK INTRA:                  -0.980
REMARK UNBOUND:                -0.902
REMARK SMILES O=C([O-])CCCCCCCCC(=O)[O-]
REMARK SMILES IDX 7 1 6 2 5 3 4 4 2 5 1 6 3 7 8 8 9 9 10 10 11 11 12 12 13 13
REMARK SMILES IDX 14 14
REMARK H PARENT
REMARK Flexibility Score: inf
ROOT
ATOM      1  C   UNL     1      20.609  16.649  47.514  1.00  0.00     0.000 C 
ENDROOT
BRANCH   1   2
ATOM      2  C   UNL     1      19.388  16.717  46.581  1.00  0.00     0.000 C 
BRANCH   2   3
ATOM      3  C   UNL     1      18.067  16.922  47.341  1.00  0.00     0.006 C 
BRANCH   3   4
ATOM      4  C   UNL     1      17.159  17.953  46.657  1.00  0.00     0.053 C 
BRANCH   4   5
ATOM      5  C   UNL     1      16.926  17.619  45.217  1.00  0.00     0.041 C 
ATOM      6  O   UNL     1      16.275  16.587  44.903  1.00  0.00    -0.550 OA
ATOM      7  O   UNL     1      17.394  18.465  44.219  1.00  0.00    -0.550 OA
ENDBRANCH   4   5
ENDBRANCH   3   4
ENDBRANCH   2   3
ENDBRANCH   1   2
BRANCH   1   8
ATOM      8  C   UNL     1      21.169  18.018  47.952  1.00  0.00     0.000 C 
BRANCH   8   9
ATOM      9  C   UNL     1      21.092  19.129  46.885  1.00  0.00     0.000 C 
BRANCH   9  10
ATOM     10  C   UNL     1      20.099  20.262  47.198  1.00  0.00     0.006 C 
BRANCH  10  11
ATOM     11  C   UNL     1      19.469  20.867  45.938  1.00  0.00     0.053 C 
BRANCH  11  12
ATOM     12  C   UNL     1      18.131  21.456  46.253  1.00  0.00     0.041 C 
ATOM     13  O   UNL     1      17.862  21.825  47.427  1.00  0.00    -0.550 OA
ATOM     14  O   UNL     1      17.199  21.646  45.242  1.00  0.00    -0.550 OA
ENDBRANCH  11  12
ENDBRANCH  10  11
ENDBRANCH   9  10
ENDBRANCH   8   9
ENDBRANCH   1   8
TORSDOF 9
ENDMDL
MODEL 4
REMARK VINA RESULT:    -4.300      2.039      3.541
REMARK INTER + INTRA:          -7.463
REMARK INTER:                  -6.388
REMARK INTRA:                  -1.075
REMARK UNBOUND:                -0.902
REMARK SMILES O=C([O-])CCCCCCCCC(=O)[O-]
REMARK SMILES IDX 7 1 6 2 5 3 4 4 2 5 1 6 3 7 8 8 9 9 10 10 11 11 12 12 13 13
REMARK SMILES IDX 14 14
REMARK H PARENT
REMARK Flexibility Score: inf
ROOT
ATOM      1  C   UNL     1      20.069  16.195  46.879  1.00  0.00     0.000 C 
ENDROOT
BRANCH   1   2
ATOM      2  C   UNL     1      20.312  17.237  47.984  1.00  0.00     0.000 C 
BRANCH   2   3
ATOM      3  C   UNL     1      21.238  18.379  47.534  1.00  0.00     0.006 C 
BRANCH   3   4
ATOM      4  C   UNL     1      20.467  19.510  46.841  1.00  0.00     0.053 C 
BRANCH   4   5
ATOM      5  C   UNL     1      19.674  20.321  47.818  1.00  0.00     0.041 C 
ATOM      6  O   UNL     1      20.141  20.572  48.961  1.00  0.00    -0.550 OA
ATOM      7  O   UNL     1      18.434  20.832  47.456  1.00  0.00    -0.550 OA
ENDBRANCH   4   5
ENDBRANCH   3   4
ENDBRANCH   2   3
ENDBRANCH   1   2
BRANCH   1   8
ATOM      8  C   UNL     1      18.591  16.000  46.483  1.00  0.00     0.000 C 
BRANCH   8   9
ATOM      9  C   UNL     1      17.589  16.913  47.218  1.00  0.00     0.000 C 
BRANCH   9  10
ATOM     10  C   UNL     1      16.899  17.966  46.333  1.00  0.00     0.006 C 
BRANCH  10  11
ATOM     11  C   UNL     1      17.562  18.115  44.958  1.00  0.00     0.053 C 
BRANCH  11  12
ATOM     12  C   UNL     1      17.301  19.476  44.397  1.00  0.00     0.041 C 
ATOM     13  O   UNL     1      16.119  19.886  44.252  1.00  0.00    -0.550 OA
ATOM     14  O   UNL     1      18.363  20.313  44.080  1.00  0.00    -0.550 OA
ENDBRANCH  11  12
ENDBRANCH  10  11
ENDBRANCH   9  10
ENDBRANCH   8   9
ENDBRANCH   1   8
TORSDOF 9
ENDMDL
MODEL 5
REMARK VINA RESULT:    -4.267      1.757      2.770
REMARK INTER + INTRA:          -7.413
REMARK INTER:                  -6.452
REMARK INTRA:                  -0.961
REMARK UNBOUND:                -0.902
REMARK SMILES O=C([O-])CCCCCCCCC(=O)[O-]
REMARK SMILES IDX 7 1 6 2 5 3 4 4 2 5 1 6 3 7 8 8 9 9 10 10 11 11 12 12 13 13
REMARK SMILES IDX 14 14
REMARK H PARENT
REMARK Flexibility Score: inf
ROOT
ATOM      1  C   UNL     1      19.189  16.777  46.471  1.00  0.00     0.000 C 
ENDROOT
BRANCH   1   2
ATOM      2  C   UNL     1      17.891  17.007  47.263  1.00  0.00     0.000 C 
BRANCH   2   3
ATOM      3  C   UNL     1      16.952  18.021  46.588  1.00  0.00     0.006 C 
BRANCH   3   4
ATOM      4  C   UNL     1      16.537  17.576  45.179  1.00  0.00     0.053 C 
BRANCH   4   5
ATOM      5  C   UNL     1      16.785  18.647  44.163  1.00  0.00     0.041 C 
ATOM      6  O   UNL     1      16.218  19.766  44.269  1.00  0.00    -0.550 OA
ATOM      7  O   UNL     1      17.674  18.424  43.118  1.00  0.00    -0.550 OA
ENDBRANCH   4   5
ENDBRANCH   3   4
ENDBRANCH   2   3
ENDBRANCH   1   2
BRANCH   1   8
ATOM      8  C   UNL     1      20.460  16.633  47.334  1.00  0.00     0.000 C 
BRANCH   8   9
ATOM      9  C   UNL     1      21.096  17.961  47.791  1.00  0.00     0.000 C 
BRANCH   9  10
ATOM     10  C   UNL     1      21.030  19.101  46.760  1.00  0.00     0.006 C 
BRANCH  10  11
ATOM     11  C   UNL     1      20.195  20.293  47.243  1.00  0.00     0.053 C 
BRANCH  11  12
ATOM     12  C   UNL     1      19.298  20.781  46.150  1.00  0.00     0.041 C 
ATOM     13  O   UNL     1      19.562  20.514  44.947  1.00  0.00    -0.550 OA
ATOM     14  O   UNL     1      18.144  21.488  46.460  1.00  0.00    -0.550 OA
ENDBRANCH  11  12
ENDBRANCH  10  11
ENDBRANCH   9  10
ENDBRANCH   8   9
ENDBRANCH   1   8
TORSDOF 9
ENDMDL
MODEL 6
REMARK VINA RESULT:    -4.256      1.556      3.714
REMARK INTER + INTRA:          -7.396
REMARK INTER:                  -6.376
REMARK INTRA:                  -1.020
REMARK UNBOUND:                -0.902
REMARK SMILES O=C([O-])CCCCCCCCC(=O)[O-]
REMARK SMILES IDX 7 1 6 2 5 3 4 4 2 5 1 6 3 7 8 8 9 9 10 10 11 11 12 12 13 13
REMARK SMILES IDX 14 14
REMARK H PARENT
REMARK Flexibility Score: inf
ROOT
ATOM      1  C   UNL     1      20.452  16.684  47.220  1.00  0.00     0.000 C 
ENDROOT
BRANCH   1   2
ATOM      2  C   UNL     1      20.604  18.077  47.856  1.00  0.00     0.000 C 
BRANCH   2   3
ATOM      3  C   UNL     1      20.797  19.191  46.813  1.00  0.00     0.006 C 
BRANCH   3   4
ATOM      4  C   UNL     1      19.997  20.454  47.159  1.00  0.00     0.053 C 
BRANCH   4   5
ATOM      5  C   UNL     1      19.259  20.986  45.971  1.00  0.00     0.041 C 
ATOM      6  O   UNL     1      19.516  20.552  44.817  1.00  0.00    -0.550 OA
ATOM      7  O   UNL     1      18.259  21.936  46.139  1.00  0.00    -0.550 OA
ENDBRANCH   4   5
ENDBRANCH   3   4
ENDBRANCH   2   3
ENDBRANCH   1   2
BRANCH   1   8
ATOM      8  C   UNL     1      19.099  16.433  46.522  1.00  0.00     0.000 C 
BRANCH   8   9
ATOM      9  C   UNL     1      17.862  16.951  47.283  1.00  0.00     0.000 C 
BRANCH   9  10
ATOM     10  C   UNL     1      17.078  18.064  46.566  1.00  0.00     0.006 C 
BRANCH  10  11
ATOM     11  C   UNL     1      17.195  17.985  45.039  1.00  0.00     0.053 C 
BRANCH  11  12
ATOM     12  C   UNL     1      16.094  18.762  44.389  1.00  0.00     0.041 C 
ATOM     13  O   UNL     1      15.025  18.187  44.053  1.00  0.00    -0.550 OA
ATOM     14  O   UNL     1      16.227  20.131  44.201  1.00  0.00    -0.550 OA
ENDBRANCH  11  12
ENDBRANCH  10  11
ENDBRANCH   9  10
ENDBRANCH   8   9
ENDBRANCH   1   8
TORSDOF 9
ENDMDL
MODEL 7
REMARK VINA RESULT:    -4.240      1.647      4.703
REMARK INTER + INTRA:          -7.372
REMARK INTER:                  -6.655
REMARK INTRA:                  -0.717
REMARK UNBOUND:                -0.902
REMARK SMILES O=C([O-])CCCCCCCCC(=O)[O-]
REMARK SMILES IDX 7 1 6 2 5 3 4 4 2 5 1 6 3 7 8 8 9 9 10 10 11 11 12 12 13 13
REMARK SMILES IDX 14 14
REMARK H PARENT
REMARK Flexibility Score: inf
ROOT
ATOM      1  C   UNL     1      19.851  20.542  47.674  1.00  0.00     0.000 C 
ENDROOT
BRANCH   1   2
ATOM      2  C   UNL     1      18.389  20.870  47.323  1.00  0.00     0.000 C 
BRANCH   2   3
ATOM      3  C   UNL     1      18.228  21.429  45.900  1.00  0.00     0.006 C 
BRANCH   3   4
ATOM      4  C   UNL     1      19.179  20.754  44.902  1.00  0.00     0.053 C 
BRANCH   4   5
ATOM      5  C   UNL     1      18.485  20.406  43.622  1.00  0.00     0.041 C 
ATOM      6  O   UNL     1      17.991  19.258  43.460  1.00  0.00    -0.550 OA
ATOM      7  O   UNL     1      18.350  21.359  42.621  1.00  0.00    -0.550 OA
ENDBRANCH   4   5
ENDBRANCH   3   4
ENDBRANCH   2   3
ENDBRANCH   1   2
BRANCH   1   8
ATOM      8  C   UNL     1      20.051  19.839  49.032  1.00  0.00     0.000 C 
BRANCH   8   9
ATOM      9  C   UNL     1      20.816  18.502  48.971  1.00  0.00     0.000 C 
BRANCH   9  10
ATOM     10  C   UNL     1      21.075  17.965  47.553  1.00  0.00     0.006 C 
BRANCH  10  11
ATOM     11  C   UNL     1      20.695  16.487  47.397  1.00  0.00     0.053 C 
BRANCH  11  12
ATOM     12  C   UNL     1      19.427  16.352  46.616  1.00  0.00     0.041 C 
ATOM     13  O   UNL     1      18.979  15.211  46.327  1.00  0.00    -0.550 OA
ATOM     14  O   UNL     1      18.713  17.484  46.249  1.00  0.00    -0.550 OA
ENDBRANCH  11  12
ENDBRANCH  10  11
ENDBRANCH   9  10
ENDBRANCH   8   9
ENDBRANCH   1   8
TORSDOF 9
ENDMDL
MODEL 8
REMARK VINA RESULT:    -4.153      3.430      4.171
REMARK INTER + INTRA:          -7.239
REMARK INTER:                  -6.649
REMARK INTRA:                  -0.590
REMARK UNBOUND:                -0.902
REMARK SMILES O=C([O-])CCCCCCCCC(=O)[O-]
REMARK SMILES IDX 7 1 6 2 5 3 4 4 2 5 1 6 3 7 8 8 9 9 10 10 11 11 12 12 13 13
REMARK SMILES IDX 14 14
REMARK H PARENT
REMARK Flexibility Score: inf
ROOT
ATOM      1  C   UNL     1      20.525  17.871  47.899  1.00  0.00     0.000 C 
ENDROOT
BRANCH   1   2
ATOM      2  C   UNL     1      20.436  16.499  47.208  1.00  0.00     0.000 C 
BRANCH   2   3
ATOM      3  C   UNL     1      21.399  15.463  47.812  1.00  0.00     0.006 C 
BRANCH   3   4
ATOM      4  C   UNL     1      22.674  16.113  48.367  1.00  0.00     0.053 C 
BRANCH   4   5
ATOM      5  C   UNL     1      22.992  15.622  49.745  1.00  0.00     0.041 C 
ATOM      6  O   UNL     1      24.181  15.629  50.162  1.00  0.00    -0.550 OA
ATOM      7  O   UNL     1      21.973  15.190  50.585  1.00  0.00    -0.550 OA
ENDBRANCH   4   5
ENDBRANCH   3   4
ENDBRANCH   2   3
ENDBRANCH   1   2
BRANCH   1   8
ATOM      8  C   UNL     1      20.984  19.028  46.989  1.00  0.00     0.000 C 
BRANCH   8   9
ATOM      9  C   UNL     1      20.246  20.365  47.205  1.00  0.00     0.000 C 
BRANCH   9  10
ATOM     10  C   UNL     1      19.324  20.791  46.049  1.00  0.00     0.006 C 
BRANCH  10  11
ATOM     11  C   UNL     1      19.411  19.851  44.840  1.00  0.00     0.053 C 
BRANCH  11  12
ATOM     12  C   UNL     1      18.123  19.113  44.657  1.00  0.00     0.041 C 
ATOM     13  O   UNL     1      18.023  17.911  45.020  1.00  0.00    -0.550 OA
ATOM     14  O   UNL     1      17.016  19.767  44.133  1.00  0.00    -0.550 OA
ENDBRANCH  11  12
ENDBRANCH  10  11
ENDBRANCH   9  10
ENDBRANCH   8   9
ENDBRANCH   1   8
TORSDOF 9
ENDMDL
MODEL 9
REMARK VINA RESULT:    -4.115      2.998      5.456
REMARK INTER + INTRA:          -7.181
REMARK INTER:                  -6.352
REMARK INTRA:                  -0.830
REMARK UNBOUND:                -0.902
REMARK SMILES O=C([O-])CCCCCCCCC(=O)[O-]
REMARK SMILES IDX 7 1 6 2 5 3 4 4 2 5 1 6 3 7 8 8 9 9 10 10 11 11 12 12 13 13
REMARK SMILES IDX 14 14
REMARK H PARENT
REMARK Flexibility Score: inf
ROOT
ATOM      1  C   UNL     1      19.407  19.161  47.737  1.00  0.00     0.000 C 
ENDROOT
BRANCH   1   2
ATOM      2  C   UNL     1      20.252  19.610  46.532  1.00  0.00     0.000 C 
BRANCH   2   3
ATOM      3  C   UNL     1      19.477  20.525  45.568  1.00  0.00     0.006 C 
BRANCH   3   4
ATOM      4  C   UNL     1      19.082  19.800  44.275  1.00  0.00     0.053 C 
BRANCH   4   5
ATOM      5  C   UNL     1      17.709  19.211  44.367  1.00  0.00     0.041 C 
ATOM      6  O   UNL     1      17.561  17.969  44.520  1.00  0.00    -0.550 OA
ATOM      7  O   UNL     1      16.591  20.035  44.322  1.00  0.00    -0.550 OA
ENDBRANCH   4   5
ENDBRANCH   3   4
ENDBRANCH   2   3
ENDBRANCH   1   2
BRANCH   1   8
ATOM      8  C   UNL     1      19.094  17.652  47.784  1.00  0.00     0.000 C 
BRANCH   8   9
ATOM      9  C   UNL     1      19.960  16.773  46.858  1.00  0.00     0.000 C 
BRANCH   9  10
ATOM     10  C   UNL     1      20.950  15.845  47.584  1.00  0.00     0.006 C 
BRANCH  10  11
ATOM     11  C   UNL     1      21.990  16.611  48.409  1.00  0.00     0.053 C 
BRANCH  11  12
ATOM     12  C   UNL     1      21.796  16.349  49.869  1.00  0.00     0.041 C 
ATOM     13  O   UNL     1      21.334  17.249  50.618  1.00  0.00    -0.550 OA
ATOM     14  O   UNL     1      22.079  15.095  50.393  1.00  0.00    -0.550 OA
ENDBRANCH  11  12
ENDBRANCH  10  11
ENDBRANCH   9  10
ENDBRANCH   8   9
ENDBRANCH   1   8
TORSDOF 9
ENDMDL
