MODEL 1
REMARK VINA RESULT:    -5.841      0.000      0.000
REMARK INTER + INTRA:          -7.344
REMARK INTER:                  -7.036
REMARK INTRA:                  -0.308
REMARK UNBOUND:                -0.308
REMARK SMILES O=c1c(O)c(-c2ccc(O)c(O)c2)oc2cc(O)cc(O)c12
REMARK SMILES IDX 5 1 3 2 2 3 1 4 22 5 20 6 19 7 17 8 16 9 15 10 14 11 6 12
REMARK SMILES IDX 7 13 8 14 9 15 13 16 11 17 10 18 12 20 4 22 21 24 18 26
REMARK H PARENT 10 19 12 21 4 23 21 25 18 27
REMARK Flexibility Score: inf
ROOT
ATOM      1  C   UNL     1      -9.253   8.288  16.807  1.00  0.00     0.180 A 
ATOM      2  C   UNL     1     -10.598   8.571  17.111  1.00  0.00     0.208 A 
ATOM      3  C   UNL     1     -10.897   9.241  18.309  1.00  0.00     0.238 A 
ATOM      4  O   UNL     1     -12.097   9.509  18.587  1.00  0.00    -0.285 OA
ATOM      5  C   UNL     1      -9.852   9.597  19.186  1.00  0.00     0.111 A 
ATOM      6  C   UNL     1     -10.067  10.270  20.413  1.00  0.00     0.134 A 
ATOM      7  C   UNL     1      -8.975  10.581  21.237  1.00  0.00     0.093 A 
ATOM      8  C   UNL     1      -7.675  10.233  20.857  1.00  0.00     0.123 A 
ATOM      9  C   UNL     1      -7.457   9.571  19.648  1.00  0.00     0.094 A 
ATOM     10  C   UNL     1      -8.532   9.252  18.813  1.00  0.00     0.146 A 
ATOM     11  O   UNL     1      -8.295   8.626  17.666  1.00  0.00    -0.452 OA
ENDROOT
BRANCH   1  12
ATOM     12  C   UNL     1      -8.857   7.602  15.555  1.00  0.00     0.025 A 
ATOM     13  C   UNL     1      -8.894   6.200  15.496  1.00  0.00     0.016 A 
ATOM     14  C   UNL     1      -8.506   5.530  14.332  1.00  0.00     0.051 A 
ATOM     15  C   UNL     1      -8.060   6.249  13.219  1.00  0.00     0.157 A 
ATOM     16  C   UNL     1      -8.389   8.322  14.442  1.00  0.00     0.062 A 
ATOM     17  C   UNL     1      -7.997   7.652  13.274  1.00  0.00     0.158 A 
BRANCH  15  18
ATOM     18  O   UNL     1      -7.681   5.554  12.071  1.00  0.00    -0.504 OA
ATOM     19  H   UNL     1      -8.225   4.782  11.705  1.00  0.00     0.293 HD
ENDBRANCH  15  18
BRANCH  17  20
ATOM     20  O   UNL     1      -7.539   8.373  12.172  1.00  0.00    -0.504 OA
ATOM     21  H   UNL     1      -8.178   8.862  11.555  1.00  0.00     0.293 HD
ENDBRANCH  17  20
ENDBRANCH   1  12
BRANCH   2  22
ATOM     22  O   UNL     1     -11.619   8.163  16.248  1.00  0.00    -0.502 OA
ATOM     23  H   UNL     1     -11.824   7.187  16.074  1.00  0.00     0.293 HD
ENDBRANCH   2  22
BRANCH   6  24
ATOM     24  O   UNL     1     -11.353  10.629  20.819  1.00  0.00    -0.507 OA
ATOM     25  H   UNL     1     -12.083   9.938  20.953  1.00  0.00     0.293 HD
ENDBRANCH   6  24
BRANCH   8  26
ATOM     26  O   UNL     1      -6.590  10.542  21.676  1.00  0.00    -0.508 OA
ATOM     27  H   UNL     1      -5.718  10.029  21.616  1.00  0.00     0.293 HD
ENDBRANCH   8  26
TORSDOF 6
ENDMDL
MODEL 2
REMARK VINA RESULT:    -5.687      3.808      8.170
REMARK INTER + INTRA:          -7.158
REMARK INTER:                  -7.346
REMARK INTRA:                   0.188
REMARK UNBOUND:                -0.308
REMARK SMILES O=c1c(O)c(-c2ccc(O)c(O)c2)oc2cc(O)cc(O)c12
REMARK SMILES IDX 5 1 3 2 2 3 1 4 22 5 20 6 19 7 17 8 16 9 15 10 14 11 6 12
REMARK SMILES IDX 7 13 8 14 9 15 13 16 11 17 10 18 12 20 4 22 21 24 18 26
REMARK H PARENT 10 19 12 21 4 23 21 25 18 27
REMARK Flexibility Score: inf
ROOT
ATOM      1  C   UNL     1      -5.449  10.456  17.159  1.00  0.00     0.180 A 
ATOM      2  C   UNL     1      -4.075  10.754  17.223  1.00  0.00     0.208 A 
ATOM      3  C   UNL     1      -3.340  10.827  16.029  1.00  0.00     0.238 A 
ATOM      4  O   UNL     1      -2.110  11.104  16.073  1.00  0.00    -0.285 OA
ATOM      5  C   UNL     1      -3.984  10.581  14.799  1.00  0.00     0.111 A 
ATOM      6  C   UNL     1      -3.316  10.630  13.552  1.00  0.00     0.134 A 
ATOM      7  C   UNL     1      -4.025  10.364  12.371  1.00  0.00     0.093 A 
ATOM      8  C   UNL     1      -5.387  10.049  12.415  1.00  0.00     0.123 A 
ATOM      9  C   UNL     1      -6.051  10.000  13.642  1.00  0.00     0.094 A 
ATOM     10  C   UNL     1      -5.362  10.264  14.829  1.00  0.00     0.146 A 
ATOM     11  O   UNL     1      -6.020  10.215  15.982  1.00  0.00    -0.452 OA
ENDROOT
BRANCH   1  12
ATOM     12  C   UNL     1      -6.295  10.381  18.373  1.00  0.00     0.025 A 
ATOM     13  C   UNL     1      -7.597  10.907  18.340  1.00  0.00     0.016 A 
ATOM     14  C   UNL     1      -8.405  10.865  19.479  1.00  0.00     0.051 A 
ATOM     15  C   UNL     1      -7.922  10.315  20.670  1.00  0.00     0.157 A 
ATOM     16  C   UNL     1      -5.803   9.847  19.577  1.00  0.00     0.062 A 
ATOM     17  C   UNL     1      -6.612   9.806  20.721  1.00  0.00     0.158 A 
BRANCH  15  18
ATOM     18  O   UNL     1      -8.752  10.285  21.790  1.00  0.00    -0.504 OA
ATOM     19  H   UNL     1      -9.281   9.461  22.046  1.00  0.00     0.293 HD
ENDBRANCH  15  18
BRANCH  17  20
ATOM     20  O   UNL     1      -6.119   9.269  21.910  1.00  0.00    -0.504 OA
ATOM     21  H   UNL     1      -6.363   9.662  22.812  1.00  0.00     0.293 HD
ENDBRANCH  17  20
ENDBRANCH   1  12
BRANCH   2  22
ATOM     22  O   UNL     1      -3.450  10.944  18.459  1.00  0.00    -0.502 OA
ATOM     23  H   UNL     1      -3.968  10.991  19.327  1.00  0.00     0.293 HD
ENDBRANCH   2  22
BRANCH   6  24
ATOM     24  O   UNL     1      -1.957  10.940  13.477  1.00  0.00    -0.507 OA
ATOM     25  H   UNL     1      -1.585  11.803  13.858  1.00  0.00     0.293 HD
ENDBRANCH   6  24
BRANCH   8  26
ATOM     26  O   UNL     1      -6.092   9.783  11.242  1.00  0.00    -0.508 OA
ATOM     27  H   UNL     1      -6.231   8.836  10.911  1.00  0.00     0.293 HD
ENDBRANCH   8  26
TORSDOF 6
ENDMDL
MODEL 3
REMARK VINA RESULT:    -5.561      2.825      8.527
REMARK INTER + INTRA:          -7.006
REMARK INTER:                  -7.062
REMARK INTRA:                   0.056
REMARK UNBOUND:                -0.308
REMARK SMILES O=c1c(O)c(-c2ccc(O)c(O)c2)oc2cc(O)cc(O)c12
REMARK SMILES IDX 5 1 3 2 2 3 1 4 22 5 20 6 19 7 17 8 16 9 15 10 14 11 6 12
REMARK SMILES IDX 7 13 8 14 9 15 13 16 11 17 10 18 12 20 4 22 21 24 18 26
REMARK H PARENT 10 19 12 21 4 23 21 25 18 27
REMARK Flexibility Score: inf
ROOT
ATOM      1  C   UNL     1      -9.585   7.123  13.474  1.00  0.00     0.180 A 
ATOM      2  C   UNL     1      -8.233   7.127  13.083  1.00  0.00     0.208 A 
ATOM      3  C   UNL     1      -7.904   6.744  11.773  1.00  0.00     0.238 A 
ATOM      4  O   UNL     1      -6.697   6.754  11.408  1.00  0.00    -0.285 OA
ATOM      5  C   UNL     1      -8.926   6.347  10.887  1.00  0.00     0.111 A 
ATOM      6  C   UNL     1      -8.680   5.944   9.552  1.00  0.00     0.134 A 
ATOM      7  C   UNL     1      -9.751   5.553   8.734  1.00  0.00     0.093 A 
ATOM      8  C   UNL     1     -11.061   5.558   9.225  1.00  0.00     0.123 A 
ATOM      9  C   UNL     1     -11.308   5.956  10.540  1.00  0.00     0.094 A 
ATOM     10  C   UNL     1     -10.256   6.350  11.371  1.00  0.00     0.146 A 
ATOM     11  O   UNL     1     -10.521   6.728  12.615  1.00  0.00    -0.452 OA
ENDROOT
BRANCH   1  12
ATOM     12  C   UNL     1     -10.013   7.532  14.832  1.00  0.00     0.025 A 
ATOM     13  C   UNL     1     -11.054   8.464  14.977  1.00  0.00     0.016 A 
ATOM     14  C   UNL     1     -11.460   8.879  16.248  1.00  0.00     0.051 A 
ATOM     15  C   UNL     1     -10.823   8.385  17.390  1.00  0.00     0.157 A 
ATOM     16  C   UNL     1      -9.360   7.052  15.981  1.00  0.00     0.062 A 
ATOM     17  C   UNL     1      -9.764   7.470  17.257  1.00  0.00     0.158 A 
BRANCH  15  18
ATOM     18  O   UNL     1     -11.251   8.816  18.645  1.00  0.00    -0.504 OA
ATOM     19  H   UNL     1     -11.927   9.561  18.757  1.00  0.00     0.293 HD
ENDBRANCH  15  18
BRANCH  17  20
ATOM     20  O   UNL     1      -9.116   6.984  18.392  1.00  0.00    -0.504 OA
ATOM     21  H   UNL     1      -8.114   7.077  18.512  1.00  0.00     0.293 HD
ENDBRANCH  17  20
ENDBRANCH   1  12
BRANCH   2  22
ATOM     22  O   UNL     1      -7.235   7.477  13.996  1.00  0.00    -0.502 OA
ATOM     23  H   UNL     1      -6.656   8.300  13.880  1.00  0.00     0.293 HD
ENDBRANCH   2  22
BRANCH   6  24
ATOM     24  O   UNL     1      -7.384   5.927   9.034  1.00  0.00    -0.507 OA
ATOM     25  H   UNL     1      -6.572   6.054   9.628  1.00  0.00     0.293 HD
ENDBRANCH   6  24
BRANCH   8  26
ATOM     26  O   UNL     1     -12.124   5.170   8.413  1.00  0.00    -0.508 OA
ATOM     27  H   UNL     1     -12.919   5.778   8.253  1.00  0.00     0.293 HD
ENDBRANCH   8  26
TORSDOF 6
ENDMDL
MODEL 4
REMARK VINA RESULT:    -5.551      2.195      6.803
REMARK INTER + INTRA:          -6.995
REMARK INTER:                  -6.701
REMARK INTRA:                  -0.293
REMARK UNBOUND:                -0.308
REMARK SMILES O=c1c(O)c(-c2ccc(O)c(O)c2)oc2cc(O)cc(O)c12
REMARK SMILES IDX 5 1 3 2 2 3 1 4 22 5 20 6 19 7 17 8 16 9 15 10 14 11 6 12
REMARK SMILES IDX 7 13 8 14 9 15 13 16 11 17 10 18 12 20 4 22 21 24 18 26
REMARK H PARENT 10 19 12 21 4 23 21 25 18 27
REMARK Flexibility Score: inf
ROOT
ATOM      1  C   UNL     1      -9.162   8.678  17.165  1.00  0.00     0.180 A 
ATOM      2  C   UNL     1      -9.432   7.307  16.990  1.00  0.00     0.208 A 
ATOM      3  C   UNL     1      -9.990   6.875  15.776  1.00  0.00     0.238 A 
ATOM      4  O   UNL     1     -10.226   5.649  15.603  1.00  0.00    -0.285 OA
ATOM      5  C   UNL     1     -10.287   7.819  14.771  1.00  0.00     0.111 A 
ATOM      6  C   UNL     1     -10.853   7.468  13.522  1.00  0.00     0.134 A 
ATOM      7  C   UNL     1     -11.128   8.467  12.577  1.00  0.00     0.093 A 
ATOM      8  C   UNL     1     -10.847   9.809  12.857  1.00  0.00     0.123 A 
ATOM      9  C   UNL     1     -10.288  10.160  14.086  1.00  0.00     0.094 A 
ATOM     10  C   UNL     1     -10.005   9.179  15.041  1.00  0.00     0.146 A 
ATOM     11  O   UNL     1      -9.469   9.541  16.200  1.00  0.00    -0.452 OA
ENDROOT
BRANCH   1  12
ATOM     12  C   UNL     1      -8.556   9.207  18.409  1.00  0.00     0.025 A 
ATOM     13  C   UNL     1      -7.173   9.445  18.455  1.00  0.00     0.016 A 
ATOM     14  C   UNL     1      -6.577   9.925  19.624  1.00  0.00     0.051 A 
ATOM     15  C   UNL     1      -7.348  10.158  20.767  1.00  0.00     0.157 A 
ATOM     16  C   UNL     1      -9.327   9.423  19.564  1.00  0.00     0.062 A 
ATOM     17  C   UNL     1      -8.730   9.903  20.739  1.00  0.00     0.158 A 
BRANCH  15  18
ATOM     18  O   UNL     1      -6.726  10.640  21.919  1.00  0.00    -0.504 OA
ATOM     19  H   UNL     1      -5.719  10.660  22.018  1.00  0.00     0.293 HD
ENDBRANCH  15  18
BRANCH  17  20
ATOM     20  O   UNL     1      -9.502  10.120  21.880  1.00  0.00    -0.504 OA
ATOM     21  H   UNL     1     -10.514  10.167  21.835  1.00  0.00     0.293 HD
ENDBRANCH  17  20
ENDBRANCH   1  12
BRANCH   2  22
ATOM     22  O   UNL     1      -9.175   6.399  18.020  1.00  0.00    -0.502 OA
ATOM     23  H   UNL     1      -9.332   6.626  18.994  1.00  0.00     0.293 HD
ENDBRANCH   2  22
BRANCH   6  24
ATOM     24  O   UNL     1     -11.145   6.138  13.214  1.00  0.00    -0.507 OA
ATOM     25  H   UNL     1     -12.099   5.798  13.172  1.00  0.00     0.293 HD
ENDBRANCH   6  24
BRANCH   8  26
ATOM     26  O   UNL     1     -11.121  10.802  11.918  1.00  0.00    -0.508 OA
ATOM     27  H   UNL     1     -10.379  11.282  11.423  1.00  0.00     0.293 HD
ENDBRANCH   8  26
TORSDOF 6
ENDMDL
MODEL 5
REMARK VINA RESULT:    -5.519      1.552      3.343
REMARK INTER + INTRA:          -6.956
REMARK INTER:                  -6.755
REMARK INTRA:                  -0.201
REMARK UNBOUND:                -0.308
REMARK SMILES O=c1c(O)c(-c2ccc(O)c(O)c2)oc2cc(O)cc(O)c12
REMARK SMILES IDX 5 1 3 2 2 3 1 4 22 5 20 6 19 7 17 8 16 9 15 10 14 11 6 12
REMARK SMILES IDX 7 13 8 14 9 15 13 16 11 17 10 18 12 20 4 22 21 24 18 26
REMARK H PARENT 10 19 12 21 4 23 21 25 18 27
REMARK Flexibility Score: inf
ROOT
ATOM      1  C   UNL     1      -8.243   9.299  17.142  1.00  0.00     0.180 A 
ATOM      2  C   UNL     1      -6.996   9.609  17.717  1.00  0.00     0.208 A 
ATOM      3  C   UNL     1      -6.943   9.958  19.076  1.00  0.00     0.238 A 
ATOM      4  O   UNL     1      -5.831  10.227  19.605  1.00  0.00    -0.285 OA
ATOM      5  C   UNL     1      -8.135  10.011  19.828  1.00  0.00     0.111 A 
ATOM      6  C   UNL     1      -8.171  10.357  21.200  1.00  0.00     0.134 A 
ATOM      7  C   UNL     1      -9.398  10.397  21.877  1.00  0.00     0.093 A 
ATOM      8  C   UNL     1     -10.590  10.098  21.208  1.00  0.00     0.123 A 
ATOM      9  C   UNL     1     -10.560   9.755  19.855  1.00  0.00     0.094 A 
ATOM     10  C   UNL     1      -9.347   9.709  19.163  1.00  0.00     0.146 A 
ATOM     11  O   UNL     1      -9.348   9.374  17.878  1.00  0.00    -0.452 OA
ENDROOT
BRANCH   1  12
ATOM     12  C   UNL     1      -8.377   8.903  15.721  1.00  0.00     0.025 A 
ATOM     13  C   UNL     1      -8.170   9.862  14.716  1.00  0.00     0.016 A 
ATOM     14  C   UNL     1      -8.310   9.516  13.369  1.00  0.00     0.051 A 
ATOM     15  C   UNL     1      -8.676   8.216  13.007  1.00  0.00     0.157 A 
ATOM     16  C   UNL     1      -8.765   7.602  15.356  1.00  0.00     0.062 A 
ATOM     17  C   UNL     1      -8.908   7.254  14.005  1.00  0.00     0.158 A 
BRANCH  15  18
ATOM     18  O   UNL     1      -8.807   7.900  11.655  1.00  0.00    -0.504 OA
ATOM     19  H   UNL     1      -8.269   8.369  10.938  1.00  0.00     0.293 HD
ENDBRANCH  15  18
BRANCH  17  20
ATOM     20  O   UNL     1      -9.287   5.960  13.651  1.00  0.00    -0.504 OA
ATOM     21  H   UNL     1      -8.663   5.345  13.142  1.00  0.00     0.293 HD
ENDBRANCH  17  20
ENDBRANCH   1  12
BRANCH   2  22
ATOM     22  O   UNL     1      -5.836   9.597  16.938  1.00  0.00    -0.502 OA
ATOM     23  H   UNL     1      -5.631  10.320  16.260  1.00  0.00     0.293 HD
ENDBRANCH   2  22
BRANCH   6  24
ATOM     24  O   UNL     1      -6.998  10.662  21.894  1.00  0.00    -0.507 OA
ATOM     25  H   UNL     1      -6.794  11.604  22.208  1.00  0.00     0.293 HD
ENDBRANCH   6  24
BRANCH   8  26
ATOM     26  O   UNL     1     -11.810  10.138  21.880  1.00  0.00    -0.508 OA
ATOM     27  H   UNL     1     -12.003  10.837  22.587  1.00  0.00     0.293 HD
ENDBRANCH   8  26
TORSDOF 6
ENDMDL
MODEL 6
REMARK VINA RESULT:    -5.356      2.326      2.760
REMARK INTER + INTRA:          -6.759
REMARK INTER:                  -6.432
REMARK INTRA:                  -0.327
REMARK UNBOUND:                -0.308
REMARK SMILES O=c1c(O)c(-c2ccc(O)c(O)c2)oc2cc(O)cc(O)c12
REMARK SMILES IDX 5 1 3 2 2 3 1 4 22 5 20 6 19 7 17 8 16 9 15 10 14 11 6 12
REMARK SMILES IDX 7 13 8 14 9 15 13 16 11 17 10 18 12 20 4 22 21 24 18 26
REMARK H PARENT 10 19 12 21 4 23 21 25 18 27
REMARK Flexibility Score: inf
ROOT
ATOM      1  C   UNL     1      -9.173   8.783  16.513  1.00  0.00     0.180 A 
ATOM      2  C   UNL     1      -9.873   8.668  17.729  1.00  0.00     0.208 A 
ATOM      3  C   UNL     1      -9.221   9.017  18.923  1.00  0.00     0.238 A 
ATOM      4  O   UNL     1      -9.842   8.928  20.017  1.00  0.00    -0.285 OA
ATOM      5  C   UNL     1      -7.881   9.452  18.882  1.00  0.00     0.111 A 
ATOM      6  C   UNL     1      -7.151   9.819  20.039  1.00  0.00     0.134 A 
ATOM      7  C   UNL     1      -5.817  10.234  19.918  1.00  0.00     0.093 A 
ATOM      8  C   UNL     1      -5.199  10.289  18.664  1.00  0.00     0.123 A 
ATOM      9  C   UNL     1      -5.915   9.930  17.520  1.00  0.00     0.094 A 
ATOM     10  C   UNL     1      -7.246   9.515  17.620  1.00  0.00     0.146 A 
ATOM     11  O   UNL     1      -7.904   9.184  16.515  1.00  0.00    -0.452 OA
ENDROOT
BRANCH   1  12
ATOM     12  C   UNL     1      -9.798   8.453  15.211  1.00  0.00     0.025 A 
ATOM     13  C   UNL     1      -9.717   7.139  14.721  1.00  0.00     0.016 A 
ATOM     14  C   UNL     1     -10.282   6.810  13.486  1.00  0.00     0.051 A 
ATOM     15  C   UNL     1     -10.918   7.787  12.716  1.00  0.00     0.157 A 
ATOM     16  C   UNL     1     -10.420   9.439  14.426  1.00  0.00     0.062 A 
ATOM     17  C   UNL     1     -10.985   9.111  13.185  1.00  0.00     0.158 A 
BRANCH  15  18
ATOM     18  O   UNL     1     -11.474   7.428  11.488  1.00  0.00    -0.504 OA
ATOM     19  H   UNL     1     -11.636   8.105  10.752  1.00  0.00     0.293 HD
ENDBRANCH  15  18
BRANCH  17  20
ATOM     20  O   UNL     1     -11.606  10.093  12.415  1.00  0.00    -0.504 OA
ATOM     21  H   UNL     1     -12.606  10.086  12.252  1.00  0.00     0.293 HD
ENDBRANCH  17  20
ENDBRANCH   1  12
BRANCH   2  22
ATOM     22  O   UNL     1     -11.184   8.186  17.746  1.00  0.00    -0.502 OA
ATOM     23  H   UNL     1     -11.984   8.792  17.880  1.00  0.00     0.293 HD
ENDBRANCH   2  22
BRANCH   6  24
ATOM     24  O   UNL     1      -7.740   9.773  21.304  1.00  0.00    -0.507 OA
ATOM     25  H   UNL     1      -8.298  10.541  21.660  1.00  0.00     0.293 HD
ENDBRANCH   6  24
BRANCH   8  26
ATOM     26  O   UNL     1      -3.874  10.700  18.543  1.00  0.00    -0.508 OA
ATOM     27  H   UNL     1      -3.254  10.295  17.851  1.00  0.00     0.293 HD
ENDBRANCH   8  26
TORSDOF 6
ENDMDL
MODEL 7
REMARK VINA RESULT:    -5.258      1.702      6.762
REMARK INTER + INTRA:          -6.642
REMARK INTER:                  -6.441
REMARK INTRA:                  -0.200
REMARK UNBOUND:                -0.308
REMARK SMILES O=c1c(O)c(-c2ccc(O)c(O)c2)oc2cc(O)cc(O)c12
REMARK SMILES IDX 5 1 3 2 2 3 1 4 22 5 20 6 19 7 17 8 16 9 15 10 14 11 6 12
REMARK SMILES IDX 7 13 8 14 9 15 13 16 11 17 10 18 12 20 4 22 21 24 18 26
REMARK H PARENT 10 19 12 21 4 23 21 25 18 27
REMARK Flexibility Score: inf
ROOT
ATOM      1  C   UNL     1      -9.314   8.855  16.676  1.00  0.00     0.180 A 
ATOM      2  C   UNL     1     -10.559   9.301  16.191  1.00  0.00     0.208 A 
ATOM      3  C   UNL     1     -11.007   8.838  14.944  1.00  0.00     0.238 A 
ATOM      4  O   UNL     1     -12.125   9.221  14.505  1.00  0.00    -0.285 OA
ATOM      5  C   UNL     1     -10.197   7.957  14.197  1.00  0.00     0.111 A 
ATOM      6  C   UNL     1     -10.573   7.447  12.930  1.00  0.00     0.134 A 
ATOM      7  C   UNL     1      -9.708   6.582  12.244  1.00  0.00     0.093 A 
ATOM      8  C   UNL     1      -8.476   6.219  12.799  1.00  0.00     0.123 A 
ATOM      9  C   UNL     1      -8.102   6.718  14.048  1.00  0.00     0.094 A 
ATOM     10  C   UNL     1      -8.950   7.580  14.748  1.00  0.00     0.146 A 
ATOM     11  O   UNL     1      -8.571   8.036  15.936  1.00  0.00    -0.452 OA
ENDROOT
BRANCH   1  12
ATOM     12  C   UNL     1      -8.783   9.284  17.990  1.00  0.00     0.025 A 
ATOM     13  C   UNL     1      -7.589  10.022  18.044  1.00  0.00     0.016 A 
ATOM     14  C   UNL     1      -7.059  10.420  19.274  1.00  0.00     0.051 A 
ATOM     15  C   UNL     1      -7.701  10.072  20.467  1.00  0.00     0.157 A 
ATOM     16  C   UNL     1      -9.415   8.917  19.191  1.00  0.00     0.062 A 
ATOM     17  C   UNL     1      -8.883   9.313  20.426  1.00  0.00     0.158 A 
BRANCH  15  18
ATOM     18  O   UNL     1      -7.149  10.484  21.679  1.00  0.00    -0.504 OA
ATOM     19  H   UNL     1      -6.220  10.883  21.740  1.00  0.00     0.293 HD
ENDBRANCH  15  18
BRANCH  17  20
ATOM     20  O   UNL     1      -9.520   8.951  21.613  1.00  0.00    -0.504 OA
ATOM     21  H   UNL     1      -9.656   7.980  21.867  1.00  0.00     0.293 HD
ENDBRANCH  17  20
ENDBRANCH   1  12
BRANCH   2  22
ATOM     22  O   UNL     1     -11.319  10.212  16.929  1.00  0.00    -0.502 OA
ATOM     23  H   UNL     1     -10.947  11.101  17.242  1.00  0.00     0.293 HD
ENDBRANCH   2  22
BRANCH   6  24
ATOM     24  O   UNL     1     -11.795   7.793  12.350  1.00  0.00    -0.507 OA
ATOM     25  H   UNL     1     -12.580   8.107  12.909  1.00  0.00     0.293 HD
ENDBRANCH   6  24
BRANCH   8  26
ATOM     26  O   UNL     1      -7.616   5.361  12.117  1.00  0.00    -0.508 OA
ATOM     27  H   UNL     1      -7.081   5.673  11.316  1.00  0.00     0.293 HD
ENDBRANCH   8  26
TORSDOF 6
ENDMDL
MODEL 8
REMARK VINA RESULT:    -5.256      4.512      6.520
REMARK INTER + INTRA:          -6.639
REMARK INTER:                  -6.487
REMARK INTRA:                  -0.153
REMARK UNBOUND:                -0.308
REMARK SMILES O=c1c(O)c(-c2ccc(O)c(O)c2)oc2cc(O)cc(O)c12
REMARK SMILES IDX 5 1 3 2 2 3 1 4 22 5 20 6 19 7 17 8 16 9 15 10 14 11 6 12
REMARK SMILES IDX 7 13 8 14 9 15 13 16 11 17 10 18 12 20 4 22 21 24 18 26
REMARK H PARENT 10 19 12 21 4 23 21 25 18 27
REMARK Flexibility Score: inf
ROOT
ATOM      1  C   UNL     1      -8.108   6.955  11.063  1.00  0.00     0.180 A 
ATOM      2  C   UNL     1      -9.363   7.560  10.860  1.00  0.00     0.208 A 
ATOM      3  C   UNL     1     -10.299   7.549  11.907  1.00  0.00     0.238 A 
ATOM      4  O   UNL     1     -11.422   8.097  11.741  1.00  0.00    -0.285 OA
ATOM      5  C   UNL     1      -9.972   6.919  13.126  1.00  0.00     0.111 A 
ATOM      6  C   UNL     1     -10.858   6.861  14.228  1.00  0.00     0.134 A 
ATOM      7  C   UNL     1     -10.463   6.207  15.405  1.00  0.00     0.093 A 
ATOM      8  C   UNL     1      -9.201   5.612  15.499  1.00  0.00     0.123 A 
ATOM      9  C   UNL     1      -8.323   5.668  14.415  1.00  0.00     0.094 A 
ATOM     10  C   UNL     1      -8.698   6.315  13.234  1.00  0.00     0.146 A 
ATOM     11  O   UNL     1      -7.841   6.357  12.221  1.00  0.00    -0.452 OA
ENDROOT
BRANCH   1  12
ATOM     12  C   UNL     1      -7.062   6.942  10.014  1.00  0.00     0.025 A 
ATOM     13  C   UNL     1      -7.286   6.227   8.826  1.00  0.00     0.016 A 
ATOM     14  C   UNL     1      -6.305   6.184   7.831  1.00  0.00     0.051 A 
ATOM     15  C   UNL     1      -5.084   6.839   8.014  1.00  0.00     0.157 A 
ATOM     16  C   UNL     1      -5.825   7.582  10.204  1.00  0.00     0.062 A 
ATOM     17  C   UNL     1      -4.839   7.539   9.208  1.00  0.00     0.158 A 
BRANCH  15  18
ATOM     18  O   UNL     1      -4.125   6.780   7.003  1.00  0.00    -0.504 OA
ATOM     19  H   UNL     1      -4.331   6.401   6.087  1.00  0.00     0.293 HD
ENDBRANCH  15  18
BRANCH  17  20
ATOM     20  O   UNL     1      -3.618   8.182   9.402  1.00  0.00    -0.504 OA
ATOM     21  H   UNL     1      -2.737   7.695   9.282  1.00  0.00     0.293 HD
ENDBRANCH  17  20
ENDBRANCH   1  12
BRANCH   2  22
ATOM     22  O   UNL     1      -9.680   8.133   9.626  1.00  0.00    -0.502 OA
ATOM     23  H   UNL     1     -10.119   7.607   8.880  1.00  0.00     0.293 HD
ENDBRANCH   2  22
BRANCH   6  24
ATOM     24  O   UNL     1     -12.125   7.445  14.164  1.00  0.00    -0.507 OA
ATOM     25  H   UNL     1     -12.667   7.635  14.999  1.00  0.00     0.293 HD
ENDBRANCH   6  24
BRANCH   8  26
ATOM     26  O   UNL     1      -8.809   4.962  16.667  1.00  0.00    -0.508 OA
ATOM     27  H   UNL     1      -9.432   4.333  17.159  1.00  0.00     0.293 HD
ENDBRANCH   8  26
TORSDOF 6
ENDMDL
MODEL 9
REMARK VINA RESULT:    -5.218      3.210      4.891
REMARK INTER + INTRA:          -6.593
REMARK INTER:                  -7.134
REMARK INTRA:                   0.540
REMARK UNBOUND:                -0.308
REMARK SMILES O=c1c(O)c(-c2ccc(O)c(O)c2)oc2cc(O)cc(O)c12
REMARK SMILES IDX 5 1 3 2 2 3 1 4 22 5 20 6 19 7 17 8 16 9 15 10 14 11 6 12
REMARK SMILES IDX 7 13 8 14 9 15 13 16 11 17 10 18 12 20 4 22 21 24 18 26
REMARK H PARENT 10 19 12 21 4 23 21 25 18 27
REMARK Flexibility Score: inf
ROOT
ATOM      1  C   UNL     1      -5.973  10.014  17.247  1.00  0.00     0.180 A 
ATOM      2  C   UNL     1      -5.525  10.138  18.576  1.00  0.00     0.208 A 
ATOM      3  C   UNL     1      -6.445   9.957  19.621  1.00  0.00     0.238 A 
ATOM      4  O   UNL     1      -6.052  10.054  20.816  1.00  0.00    -0.285 OA
ATOM      5  C   UNL     1      -7.794   9.679  19.321  1.00  0.00     0.111 A 
ATOM      6  C   UNL     1      -8.784   9.487  20.315  1.00  0.00     0.134 A 
ATOM      7  C   UNL     1     -10.108   9.223  19.936  1.00  0.00     0.093 A 
ATOM      8  C   UNL     1     -10.461   9.146  18.585  1.00  0.00     0.123 A 
ATOM      9  C   UNL     1      -9.488   9.333  17.601  1.00  0.00     0.094 A 
ATOM     10  C   UNL     1      -8.162   9.597  17.958  1.00  0.00     0.146 A 
ATOM     11  O   UNL     1      -7.257   9.766  17.001  1.00  0.00    -0.452 OA
ENDROOT
BRANCH   1  12
ATOM     12  C   UNL     1      -5.060  10.172  16.091  1.00  0.00     0.025 A 
ATOM     13  C   UNL     1      -3.689  10.376  16.318  1.00  0.00     0.016 A 
ATOM     14  C   UNL     1      -2.812  10.546  15.243  1.00  0.00     0.051 A 
ATOM     15  C   UNL     1      -3.292  10.534  13.930  1.00  0.00     0.157 A 
ATOM     16  C   UNL     1      -5.544  10.180  14.771  1.00  0.00     0.062 A 
ATOM     17  C   UNL     1      -4.666  10.353  13.691  1.00  0.00     0.158 A 
BRANCH  15  18
ATOM     18  O   UNL     1      -2.393  10.705  12.878  1.00  0.00    -0.504 OA
ATOM     19  H   UNL     1      -2.077   9.930  12.309  1.00  0.00     0.293 HD
ENDBRANCH  15  18
BRANCH  17  20
ATOM     20  O   UNL     1      -5.153  10.354  12.385  1.00  0.00    -0.504 OA
ATOM     21  H   UNL     1      -4.706  10.894  11.652  1.00  0.00     0.293 HD
ENDBRANCH  17  20
ENDBRANCH   1  12
BRANCH   2  22
ATOM     22  O   UNL     1      -4.193  10.464  18.845  1.00  0.00    -0.502 OA
ATOM     23  H   UNL     1      -3.442  10.253  18.199  1.00  0.00     0.293 HD
ENDBRANCH   2  22
BRANCH   6  24
ATOM     24  O   UNL     1      -8.463   9.558  21.672  1.00  0.00    -0.507 OA
ATOM     25  H   UNL     1      -7.546   9.298  22.017  1.00  0.00     0.293 HD
ENDBRANCH   6  24
BRANCH   8  26
ATOM     26  O   UNL     1     -11.776   8.885  18.208  1.00  0.00    -0.508 OA
ATOM     27  H   UNL     1     -12.201   7.977  18.360  1.00  0.00     0.293 HD
ENDBRANCH   8  26
TORSDOF 6
ENDMDL
