MODEL 1
REMARK VINA RESULT:    -8.209      0.000      0.000
REMARK INTER + INTRA:         -10.181
REMARK INTER:                  -9.889
REMARK INTRA:                  -0.292
REMARK UNBOUND:                -0.292
REMARK SMILES O=c1c(O)c(-c2ccc(O)c(O)c2)oc2cc(O)cc(O)c12
REMARK SMILES IDX 5 1 3 2 2 3 1 4 22 5 20 6 19 7 17 8 16 9 15 10 14 11 6 12
REMARK SMILES IDX 7 13 8 14 9 15 13 16 11 17 10 18 12 20 4 22 21 24 18 26
REMARK H PARENT 10 19 12 21 4 23 21 25 18 27
REMARK Flexibility Score: inf
ROOT
ATOM      1  C   UNL     1     -12.794  -0.158 -26.530  1.00  0.00     0.180 A 
ATOM      2  C   UNL     1     -13.404  -0.777 -27.635  1.00  0.00     0.208 A 
ATOM      3  C   UNL     1     -14.343  -1.796 -27.411  1.00  0.00     0.238 A 
ATOM      4  O   UNL     1     -14.845  -2.385 -28.404  1.00  0.00    -0.285 OA
ATOM      5  C   UNL     1     -14.672  -2.173 -26.087  1.00  0.00     0.111 A 
ATOM      6  C   UNL     1     -15.638  -3.165 -25.742  1.00  0.00     0.134 A 
ATOM      7  C   UNL     1     -15.787  -3.549 -24.404  1.00  0.00     0.093 A 
ATOM      8  C   UNL     1     -15.052  -2.929 -23.391  1.00  0.00     0.123 A 
ATOM      9  C   UNL     1     -14.150  -1.918 -23.711  1.00  0.00     0.094 A 
ATOM     10  C   UNL     1     -13.952  -1.539 -25.041  1.00  0.00     0.146 A 
ATOM     11  O   UNL     1     -13.074  -0.579 -25.303  1.00  0.00    -0.452 OA
ENDROOT
BRANCH   1  12
ATOM     12  C   UNL     1     -11.813   0.941 -26.685  1.00  0.00     0.025 A 
ATOM     13  C   UNL     1     -12.225   2.251 -26.988  1.00  0.00     0.016 A 
ATOM     14  C   UNL     1     -11.284   3.278 -27.106  1.00  0.00     0.051 A 
ATOM     15  C   UNL     1      -9.922   3.013 -26.910  1.00  0.00     0.157 A 
ATOM     16  C   UNL     1     -10.449   0.687 -26.470  1.00  0.00     0.062 A 
ATOM     17  C   UNL     1      -9.504   1.716 -26.589  1.00  0.00     0.158 A 
BRANCH  15  18
ATOM     18  O   UNL     1      -8.980   4.034 -27.029  1.00  0.00    -0.504 OA
ATOM     19  H   UNL     1      -8.162   4.072 -26.431  1.00  0.00     0.293 HD
ENDBRANCH  15  18
BRANCH  17  20
ATOM     20  O   UNL     1      -8.149   1.457 -26.388  1.00  0.00    -0.504 OA
ATOM     21  H   UNL     1      -7.581   1.020 -27.104  1.00  0.00     0.293 HD
ENDBRANCH  17  20
ENDBRANCH   1  12
BRANCH   2  22
ATOM     22  O   UNL     1     -13.048  -0.405 -28.935  1.00  0.00    -0.502 OA
ATOM     23  H   UNL     1     -13.359   0.462 -29.356  1.00  0.00     0.293 HD
ENDBRANCH   2  22
BRANCH   6  24
ATOM     24  O   UNL     1     -16.488  -3.781 -26.666  1.00  0.00    -0.507 OA
ATOM     25  H   UNL     1     -17.243  -4.406 -26.425  1.00  0.00     0.293 HD
ENDBRANCH   6  24
BRANCH   8  26
ATOM     26  O   UNL     1     -15.219  -3.306 -22.060  1.00  0.00    -0.508 OA
ATOM     27  H   UNL     1     -15.165  -2.630 -21.307  1.00  0.00     0.293 HD
ENDBRANCH   8  26
TORSDOF 6
ENDMDL
MODEL 2
REMARK VINA RESULT:    -8.198      0.671      1.419
REMARK INTER + INTRA:         -10.168
REMARK INTER:                  -9.852
REMARK INTRA:                  -0.316
REMARK UNBOUND:                -0.292
REMARK SMILES O=c1c(O)c(-c2ccc(O)c(O)c2)oc2cc(O)cc(O)c12
REMARK SMILES IDX 5 1 3 2 2 3 1 4 22 5 20 6 19 7 17 8 16 9 15 10 14 11 6 12
REMARK SMILES IDX 7 13 8 14 9 15 13 16 11 17 10 18 12 20 4 22 21 24 18 26
REMARK H PARENT 10 19 12 21 4 23 21 25 18 27
REMARK Flexibility Score: inf
ROOT
ATOM      1  C   UNL     1     -12.744  -0.400 -26.330  1.00  0.00     0.180 A 
ATOM      2  C   UNL     1     -13.472  -0.827 -27.454  1.00  0.00     0.208 A 
ATOM      3  C   UNL     1     -14.552  -1.705 -27.271  1.00  0.00     0.238 A 
ATOM      4  O   UNL     1     -15.167  -2.127 -28.286  1.00  0.00    -0.285 OA
ATOM      5  C   UNL     1     -14.900  -2.132 -25.967  1.00  0.00     0.111 A 
ATOM      6  C   UNL     1     -16.000  -2.990 -25.661  1.00  0.00     0.134 A 
ATOM      7  C   UNL     1     -16.171  -3.453 -24.351  1.00  0.00     0.093 A 
ATOM      8  C   UNL     1     -15.322  -3.037 -23.323  1.00  0.00     0.123 A 
ATOM      9  C   UNL     1     -14.282  -2.153 -23.601  1.00  0.00     0.094 A 
ATOM     10  C   UNL     1     -14.063  -1.703 -24.905  1.00  0.00     0.146 A 
ATOM     11  O   UNL     1     -13.054  -0.870 -25.128  1.00  0.00    -0.452 OA
ENDROOT
BRANCH   1  12
ATOM     12  C   UNL     1     -11.609   0.546 -26.439  1.00  0.00     0.025 A 
ATOM     13  C   UNL     1     -10.285   0.088 -26.554  1.00  0.00     0.016 A 
ATOM     14  C   UNL     1      -9.231   0.997 -26.680  1.00  0.00     0.051 A 
ATOM     15  C   UNL     1      -9.487   2.374 -26.706  1.00  0.00     0.157 A 
ATOM     16  C   UNL     1     -11.861   1.927 -26.487  1.00  0.00     0.062 A 
ATOM     17  C   UNL     1     -10.804   2.840 -26.613  1.00  0.00     0.158 A 
BRANCH  15  18
ATOM     18  O   UNL     1      -8.439   3.285 -26.830  1.00  0.00    -0.504 OA
ATOM     19  H   UNL     1      -8.586   4.214 -27.210  1.00  0.00     0.293 HD
ENDBRANCH  15  18
BRANCH  17  20
ATOM     20  O   UNL     1     -11.057   4.211 -26.647  1.00  0.00    -0.504 OA
ATOM     21  H   UNL     1     -11.424   4.662 -27.476  1.00  0.00     0.293 HD
ENDBRANCH  17  20
ENDBRANCH   1  12
BRANCH   2  22
ATOM     22  O   UNL     1     -13.098  -0.410 -28.734  1.00  0.00    -0.502 OA
ATOM     23  H   UNL     1     -12.136  -0.415 -29.049  1.00  0.00     0.293 HD
ENDBRANCH   2  22
BRANCH   6  24
ATOM     24  O   UNL     1     -16.960  -3.391 -26.595  1.00  0.00    -0.507 OA
ATOM     25  H   UNL     1     -17.662  -4.098 -26.431  1.00  0.00     0.293 HD
ENDBRANCH   6  24
BRANCH   8  26
ATOM     26  O   UNL     1     -15.510  -3.490 -22.019  1.00  0.00    -0.508 OA
ATOM     27  H   UNL     1     -15.207  -4.411 -21.729  1.00  0.00     0.293 HD
ENDBRANCH   8  26
TORSDOF 6
ENDMDL
MODEL 3
REMARK VINA RESULT:    -8.108      2.083      7.393
REMARK INTER + INTRA:         -10.059
REMARK INTER:                  -9.854
REMARK INTRA:                  -0.205
REMARK UNBOUND:                -0.292
REMARK SMILES O=c1c(O)c(-c2ccc(O)c(O)c2)oc2cc(O)cc(O)c12
REMARK SMILES IDX 5 1 3 2 2 3 1 4 22 5 20 6 19 7 17 8 16 9 15 10 14 11 6 12
REMARK SMILES IDX 7 13 8 14 9 15 13 16 11 17 10 18 12 20 4 22 21 24 18 26
REMARK H PARENT 10 19 12 21 4 23 21 25 18 27
REMARK Flexibility Score: inf
ROOT
ATOM      1  C   UNL     1     -12.475   0.279 -27.137  1.00  0.00     0.180 A 
ATOM      2  C   UNL     1     -11.509   0.364 -26.120  1.00  0.00     0.208 A 
ATOM      3  C   UNL     1     -10.484   1.317 -26.234  1.00  0.00     0.238 A 
ATOM      4  O   UNL     1      -9.591   1.353 -25.347  1.00  0.00    -0.285 OA
ATOM      5  C   UNL     1     -10.447   2.183 -27.353  1.00  0.00     0.111 A 
ATOM      6  C   UNL     1      -9.478   3.212 -27.551  1.00  0.00     0.134 A 
ATOM      7  C   UNL     1      -9.460   3.921 -28.759  1.00  0.00     0.093 A 
ATOM      8  C   UNL     1     -10.417   3.683 -29.748  1.00  0.00     0.123 A 
ATOM      9  C   UNL     1     -11.403   2.721 -29.539  1.00  0.00     0.094 A 
ATOM     10  C   UNL     1     -11.425   1.973 -28.360  1.00  0.00     0.146 A 
ATOM     11  O   UNL     1     -12.375   1.059 -28.207  1.00  0.00    -0.452 OA
ENDROOT
BRANCH   1  12
ATOM     12  C   UNL     1     -13.600  -0.683 -27.077  1.00  0.00     0.025 A 
ATOM     13  C   UNL     1     -14.927  -0.248 -26.913  1.00  0.00     0.016 A 
ATOM     14  C   UNL     1     -15.975  -1.172 -26.883  1.00  0.00     0.051 A 
ATOM     15  C   UNL     1     -15.713  -2.541 -27.029  1.00  0.00     0.157 A 
ATOM     16  C   UNL     1     -13.347  -2.055 -27.243  1.00  0.00     0.062 A 
ATOM     17  C   UNL     1     -14.397  -2.983 -27.212  1.00  0.00     0.158 A 
BRANCH  15  18
ATOM     18  O   UNL     1     -16.756  -3.466 -26.997  1.00  0.00    -0.504 OA
ATOM     19  H   UNL     1     -17.725  -3.173 -27.032  1.00  0.00     0.293 HD
ENDBRANCH  15  18
BRANCH  17  20
ATOM     20  O   UNL     1     -14.141  -4.345 -27.364  1.00  0.00    -0.504 OA
ATOM     21  H   UNL     1     -13.204  -4.720 -27.278  1.00  0.00     0.293 HD
ENDBRANCH  17  20
ENDBRANCH   1  12
BRANCH   2  22
ATOM     22  O   UNL     1     -11.551  -0.514 -25.034  1.00  0.00    -0.502 OA
ATOM     23  H   UNL     1     -11.619  -1.518 -25.148  1.00  0.00     0.293 HD
ENDBRANCH   2  22
BRANCH   6  24
ATOM     24  O   UNL     1      -8.536   3.592 -26.590  1.00  0.00    -0.507 OA
ATOM     25  H   UNL     1      -7.721   4.157 -26.777  1.00  0.00     0.293 HD
ENDBRANCH   6  24
BRANCH   8  26
ATOM     26  O   UNL     1     -10.401   4.404 -30.940  1.00  0.00    -0.508 OA
ATOM     27  H   UNL     1      -9.949   4.044 -31.771  1.00  0.00     0.293 HD
ENDBRANCH   8  26
TORSDOF 6
ENDMDL
MODEL 4
REMARK VINA RESULT:    -8.106      1.950      2.994
REMARK INTER + INTRA:         -10.056
REMARK INTER:                  -9.972
REMARK INTRA:                  -0.085
REMARK UNBOUND:                -0.292
REMARK SMILES O=c1c(O)c(-c2ccc(O)c(O)c2)oc2cc(O)cc(O)c12
REMARK SMILES IDX 5 1 3 2 2 3 1 4 22 5 20 6 19 7 17 8 16 9 15 10 14 11 6 12
REMARK SMILES IDX 7 13 8 14 9 15 13 16 11 17 10 18 12 20 4 22 21 24 18 26
REMARK H PARENT 10 19 12 21 4 23 21 25 18 27
REMARK Flexibility Score: inf
ROOT
ATOM      1  C   UNL     1     -12.908   0.121 -27.015  1.00  0.00     0.180 A 
ATOM      2  C   UNL     1     -12.527  -1.040 -26.321  1.00  0.00     0.208 A 
ATOM      3  C   UNL     1     -13.490  -2.031 -26.073  1.00  0.00     0.238 A 
ATOM      4  O   UNL     1     -13.156  -3.044 -25.404  1.00  0.00    -0.285 OA
ATOM      5  C   UNL     1     -14.816  -1.856 -26.534  1.00  0.00     0.111 A 
ATOM      6  C   UNL     1     -15.864  -2.812 -26.373  1.00  0.00     0.134 A 
ATOM      7  C   UNL     1     -17.169  -2.477 -26.753  1.00  0.00     0.093 A 
ATOM      8  C   UNL     1     -17.453  -1.246 -27.348  1.00  0.00     0.123 A 
ATOM      9  C   UNL     1     -16.427  -0.330 -27.564  1.00  0.00     0.094 A 
ATOM     10  C   UNL     1     -15.121  -0.620 -27.162  1.00  0.00     0.146 A 
ATOM     11  O   UNL     1     -14.174   0.286 -27.376  1.00  0.00    -0.452 OA
ENDROOT
BRANCH   1  12
ATOM     12  C   UNL     1     -11.944   1.199 -27.336  1.00  0.00     0.025 A 
ATOM     13  C   UNL     1     -11.225   1.862 -26.327  1.00  0.00     0.016 A 
ATOM     14  C   UNL     1     -10.303   2.860 -26.655  1.00  0.00     0.051 A 
ATOM     15  C   UNL     1     -10.077   3.198 -27.996  1.00  0.00     0.157 A 
ATOM     16  C   UNL     1     -11.697   1.529 -28.679  1.00  0.00     0.062 A 
ATOM     17  C   UNL     1     -10.773   2.529 -29.010  1.00  0.00     0.158 A 
BRANCH  15  18
ATOM     18  O   UNL     1      -9.159   4.194 -28.328  1.00  0.00    -0.504 OA
ATOM     19  H   UNL     1      -9.369   5.176 -28.188  1.00  0.00     0.293 HD
ENDBRANCH  15  18
BRANCH  17  20
ATOM     20  O   UNL     1     -10.541   2.864 -30.343  1.00  0.00    -0.504 OA
ATOM     21  H   UNL     1     -10.267   2.166 -31.024  1.00  0.00     0.293 HD
ENDBRANCH  17  20
ENDBRANCH   1  12
BRANCH   2  22
ATOM     22  O   UNL     1     -11.216  -1.183 -25.855  1.00  0.00    -0.502 OA
ATOM     23  H   UNL     1     -10.962  -1.023 -24.888  1.00  0.00     0.293 HD
ENDBRANCH   2  22
BRANCH   6  24
ATOM     24  O   UNL     1     -15.671  -4.105 -25.874  1.00  0.00    -0.507 OA
ATOM     25  H   UNL     1     -15.367  -4.894 -26.425  1.00  0.00     0.293 HD
ENDBRANCH   6  24
BRANCH   8  26
ATOM     26  O   UNL     1     -18.752  -0.928 -27.739  1.00  0.00    -0.508 OA
ATOM     27  H   UNL     1     -18.966  -0.054 -28.203  1.00  0.00     0.293 HD
ENDBRANCH   8  26
TORSDOF 6
ENDMDL
MODEL 5
REMARK VINA RESULT:    -7.904      1.468      6.830
REMARK INTER + INTRA:          -9.814
REMARK INTER:                  -9.510
REMARK INTRA:                  -0.304
REMARK UNBOUND:                -0.292
REMARK SMILES O=c1c(O)c(-c2ccc(O)c(O)c2)oc2cc(O)cc(O)c12
REMARK SMILES IDX 5 1 3 2 2 3 1 4 22 5 20 6 19 7 17 8 16 9 15 10 14 11 6 12
REMARK SMILES IDX 7 13 8 14 9 15 13 16 11 17 10 18 12 20 4 22 21 24 18 26
REMARK H PARENT 10 19 12 21 4 23 21 25 18 27
REMARK Flexibility Score: inf
ROOT
ATOM      1  C   UNL     1     -13.567  -2.161 -25.605  1.00  0.00     0.180 A 
ATOM      2  C   UNL     1     -14.122  -1.799 -26.844  1.00  0.00     0.208 A 
ATOM      3  C   UNL     1     -13.493  -0.802 -27.607  1.00  0.00     0.238 A 
ATOM      4  O   UNL     1     -14.024  -0.444 -28.691  1.00  0.00    -0.285 OA
ATOM      5  C   UNL     1     -12.309  -0.191 -27.128  1.00  0.00     0.111 A 
ATOM      6  C   UNL     1     -11.566   0.802 -27.835  1.00  0.00     0.134 A 
ATOM      7  C   UNL     1     -10.484   1.431 -27.208  1.00  0.00     0.093 A 
ATOM      8  C   UNL     1     -10.078   1.057 -25.925  1.00  0.00     0.123 A 
ATOM      9  C   UNL     1     -10.760   0.048 -25.250  1.00  0.00     0.094 A 
ATOM     10  C   UNL     1     -11.866  -0.573 -25.835  1.00  0.00     0.146 A 
ATOM     11  O   UNL     1     -12.495  -1.523 -25.153  1.00  0.00    -0.452 OA
ENDROOT
BRANCH   1  12
ATOM     12  C   UNL     1     -14.159  -3.220 -24.756  1.00  0.00     0.025 A 
ATOM     13  C   UNL     1     -13.952  -4.583 -25.035  1.00  0.00     0.016 A 
ATOM     14  C   UNL     1     -14.501  -5.566 -24.207  1.00  0.00     0.051 A 
ATOM     15  C   UNL     1     -15.251  -5.201 -23.082  1.00  0.00     0.157 A 
ATOM     16  C   UNL     1     -14.895  -2.862 -23.614  1.00  0.00     0.062 A 
ATOM     17  C   UNL     1     -15.446  -3.847 -22.783  1.00  0.00     0.158 A 
BRANCH  15  18
ATOM     18  O   UNL     1     -15.801  -6.178 -22.253  1.00  0.00    -0.504 OA
ATOM     19  H   UNL     1     -16.767  -6.132 -21.948  1.00  0.00     0.293 HD
ENDBRANCH  15  18
BRANCH  17  20
ATOM     20  O   UNL     1     -16.188  -3.488 -21.658  1.00  0.00    -0.504 OA
ATOM     21  H   UNL     1     -16.357  -4.143 -20.904  1.00  0.00     0.293 HD
ENDBRANCH  17  20
ENDBRANCH   1  12
BRANCH   2  22
ATOM     22  O   UNL     1     -15.304  -2.400 -27.289  1.00  0.00    -0.502 OA
ATOM     23  H   UNL     1     -16.142  -2.436 -26.722  1.00  0.00     0.293 HD
ENDBRANCH   2  22
BRANCH   6  24
ATOM     24  O   UNL     1     -11.831   1.183 -29.154  1.00  0.00    -0.507 OA
ATOM     25  H   UNL     1     -11.160   1.151 -29.907  1.00  0.00     0.293 HD
ENDBRANCH   6  24
BRANCH   8  26
ATOM     26  O   UNL     1      -8.989   1.678 -25.315  1.00  0.00    -0.508 OA
ATOM     27  H   UNL     1      -8.083   1.228 -25.266  1.00  0.00     0.293 HD
ENDBRANCH   8  26
TORSDOF 6
ENDMDL
MODEL 6
REMARK VINA RESULT:    -7.820      1.584      6.753
REMARK INTER + INTRA:          -9.712
REMARK INTER:                  -9.443
REMARK INTRA:                  -0.270
REMARK UNBOUND:                -0.292
REMARK SMILES O=c1c(O)c(-c2ccc(O)c(O)c2)oc2cc(O)cc(O)c12
REMARK SMILES IDX 5 1 3 2 2 3 1 4 22 5 20 6 19 7 17 8 16 9 15 10 14 11 6 12
REMARK SMILES IDX 7 13 8 14 9 15 13 16 11 17 10 18 12 20 4 22 21 24 18 26
REMARK H PARENT 10 19 12 21 4 23 21 25 18 27
REMARK Flexibility Score: inf
ROOT
ATOM      1  C   UNL     1     -13.593  -1.865 -25.512  1.00  0.00     0.180 A 
ATOM      2  C   UNL     1     -14.184  -1.512 -26.737  1.00  0.00     0.208 A 
ATOM      3  C   UNL     1     -13.538  -0.575 -27.560  1.00  0.00     0.238 A 
ATOM      4  O   UNL     1     -14.099  -0.222 -28.630  1.00  0.00    -0.285 OA
ATOM      5  C   UNL     1     -12.303  -0.016 -27.155  1.00  0.00     0.111 A 
ATOM      6  C   UNL     1     -11.541   0.912 -27.927  1.00  0.00     0.134 A 
ATOM      7  C   UNL     1     -10.399   1.501 -27.370  1.00  0.00     0.093 A 
ATOM      8  C   UNL     1      -9.955   1.145 -26.095  1.00  0.00     0.123 A 
ATOM      9  C   UNL     1     -10.658   0.196 -25.357  1.00  0.00     0.094 A 
ATOM     10  C   UNL     1     -11.822  -0.381 -25.871  1.00  0.00     0.146 A 
ATOM     11  O   UNL     1     -12.468  -1.273 -25.130  1.00  0.00    -0.452 OA
ENDROOT
BRANCH   1  12
ATOM     12  C   UNL     1     -14.201  -2.864 -24.603  1.00  0.00     0.025 A 
ATOM     13  C   UNL     1     -14.911  -2.471 -23.454  1.00  0.00     0.016 A 
ATOM     14  C   UNL     1     -15.496  -3.430 -22.623  1.00  0.00     0.051 A 
ATOM     15  C   UNL     1     -15.393  -4.792 -22.935  1.00  0.00     0.157 A 
ATOM     16  C   UNL     1     -14.119  -4.229 -24.921  1.00  0.00     0.062 A 
ATOM     17  C   UNL     1     -14.705  -5.192 -24.087  1.00  0.00     0.158 A 
BRANCH  15  18
ATOM     18  O   UNL     1     -15.974  -5.752 -22.108  1.00  0.00    -0.504 OA
ATOM     19  H   UNL     1     -16.078  -6.715 -22.406  1.00  0.00     0.293 HD
ENDBRANCH  15  18
BRANCH  17  20
ATOM     20  O   UNL     1     -14.610  -6.548 -24.399  1.00  0.00    -0.504 OA
ATOM     21  H   UNL     1     -14.394  -7.240 -23.691  1.00  0.00     0.293 HD
ENDBRANCH  17  20
ENDBRANCH   1  12
BRANCH   2  22
ATOM     22  O   UNL     1     -15.415  -2.060 -27.108  1.00  0.00    -0.502 OA
ATOM     23  H   UNL     1     -15.995  -2.583 -26.463  1.00  0.00     0.293 HD
ENDBRANCH   2  22
BRANCH   6  24
ATOM     24  O   UNL     1     -11.846   1.267 -29.245  1.00  0.00    -0.507 OA
ATOM     25  H   UNL     1     -11.166   1.367 -29.985  1.00  0.00     0.293 HD
ENDBRANCH   6  24
BRANCH   8  26
ATOM     26  O   UNL     1      -8.807   1.723 -25.555  1.00  0.00    -0.508 OA
ATOM     27  H   UNL     1      -8.739   1.943 -24.569  1.00  0.00     0.293 HD
ENDBRANCH   8  26
TORSDOF 6
ENDMDL
MODEL 7
REMARK VINA RESULT:    -7.612      2.026      7.129
REMARK INTER + INTRA:          -9.462
REMARK INTER:                  -9.206
REMARK INTRA:                  -0.255
REMARK UNBOUND:                -0.292
REMARK SMILES O=c1c(O)c(-c2ccc(O)c(O)c2)oc2cc(O)cc(O)c12
REMARK SMILES IDX 5 1 3 2 2 3 1 4 22 5 20 6 19 7 17 8 16 9 15 10 14 11 6 12
REMARK SMILES IDX 7 13 8 14 9 15 13 16 11 17 10 18 12 20 4 22 21 24 18 26
REMARK H PARENT 10 19 12 21 4 23 21 25 18 27
REMARK Flexibility Score: inf
ROOT
ATOM      1  C   UNL     1     -14.036  -1.007 -26.530  1.00  0.00     0.180 A 
ATOM      2  C   UNL     1     -12.892  -1.640 -26.014  1.00  0.00     0.208 A 
ATOM      3  C   UNL     1     -11.634  -1.055 -26.232  1.00  0.00     0.238 A 
ATOM      4  O   UNL     1     -10.608  -1.653 -25.814  1.00  0.00    -0.285 OA
ATOM      5  C   UNL     1     -11.538   0.161 -26.950  1.00  0.00     0.111 A 
ATOM      6  C   UNL     1     -10.320   0.864 -27.196  1.00  0.00     0.134 A 
ATOM      7  C   UNL     1     -10.327   1.988 -28.030  1.00  0.00     0.093 A 
ATOM      8  C   UNL     1     -11.518   2.474 -28.573  1.00  0.00     0.123 A 
ATOM      9  C   UNL     1     -12.721   1.831 -28.290  1.00  0.00     0.094 A 
ATOM     10  C   UNL     1     -12.741   0.685 -27.491  1.00  0.00     0.146 A 
ATOM     11  O   UNL     1     -13.907   0.096 -27.256  1.00  0.00    -0.452 OA
ENDROOT
BRANCH   1  12
ATOM     12  C   UNL     1     -15.398  -1.550 -26.320  1.00  0.00     0.025 A 
ATOM     13  C   UNL     1     -16.086  -2.219 -27.348  1.00  0.00     0.016 A 
ATOM     14  C   UNL     1     -17.361  -2.743 -27.120  1.00  0.00     0.051 A 
ATOM     15  C   UNL     1     -17.960  -2.618 -25.859  1.00  0.00     0.157 A 
ATOM     16  C   UNL     1     -15.996  -1.446 -25.053  1.00  0.00     0.062 A 
ATOM     17  C   UNL     1     -17.276  -1.971 -24.824  1.00  0.00     0.158 A 
BRANCH  15  18
ATOM     18  O   UNL     1     -19.233  -3.139 -25.628  1.00  0.00    -0.504 OA
ATOM     19  H   UNL     1     -20.035  -2.836 -26.168  1.00  0.00     0.293 HD
ENDBRANCH  15  18
BRANCH  17  20
ATOM     20  O   UNL     1     -17.872  -1.855 -23.569  1.00  0.00    -0.504 OA
ATOM     21  H   UNL     1     -18.113  -2.671 -23.019  1.00  0.00     0.293 HD
ENDBRANCH  17  20
ENDBRANCH   1  12
BRANCH   2  22
ATOM     22  O   UNL     1     -13.007  -2.851 -25.326  1.00  0.00    -0.502 OA
ATOM     23  H   UNL     1     -13.607  -3.602 -25.645  1.00  0.00     0.293 HD
ENDBRANCH   2  22
BRANCH   6  24
ATOM     24  O   UNL     1      -9.090   0.516 -26.628  1.00  0.00    -0.507 OA
ATOM     25  H   UNL     1      -8.902  -0.356 -26.155  1.00  0.00     0.293 HD
ENDBRANCH   6  24
BRANCH   8  26
ATOM     26  O   UNL     1     -11.518   3.605 -29.388  1.00  0.00    -0.508 OA
ATOM     27  H   UNL     1     -12.079   3.650 -30.231  1.00  0.00     0.293 HD
ENDBRANCH   8  26
TORSDOF 6
ENDMDL
MODEL 8
REMARK VINA RESULT:    -7.390      1.953      2.363
REMARK INTER + INTRA:          -9.194
REMARK INTER:                  -9.152
REMARK INTRA:                  -0.043
REMARK UNBOUND:                -0.292
REMARK SMILES O=c1c(O)c(-c2ccc(O)c(O)c2)oc2cc(O)cc(O)c12
REMARK SMILES IDX 5 1 3 2 2 3 1 4 22 5 20 6 19 7 17 8 16 9 15 10 14 11 6 12
REMARK SMILES IDX 7 13 8 14 9 15 13 16 11 17 10 18 12 20 4 22 21 24 18 26
REMARK H PARENT 10 19 12 21 4 23 21 25 18 27
REMARK Flexibility Score: inf
ROOT
ATOM      1  C   UNL     1     -13.397  -1.431 -26.158  1.00  0.00     0.180 A 
ATOM      2  C   UNL     1     -14.559  -0.988 -26.813  1.00  0.00     0.208 A 
ATOM      3  C   UNL     1     -15.697  -1.809 -26.809  1.00  0.00     0.238 A 
ATOM      4  O   UNL     1     -16.718  -1.432 -27.443  1.00  0.00    -0.285 OA
ATOM      5  C   UNL     1     -15.665  -3.055 -26.138  1.00  0.00     0.111 A 
ATOM      6  C   UNL     1     -16.771  -3.951 -26.035  1.00  0.00     0.134 A 
ATOM      7  C   UNL     1     -16.587  -5.214 -25.461  1.00  0.00     0.093 A 
ATOM      8  C   UNL     1     -15.353  -5.589 -24.925  1.00  0.00     0.123 A 
ATOM      9  C   UNL     1     -14.282  -4.699 -24.967  1.00  0.00     0.094 A 
ATOM     10  C   UNL     1     -14.425  -3.445 -25.566  1.00  0.00     0.146 A 
ATOM     11  O   UNL     1     -13.377  -2.632 -25.595  1.00  0.00    -0.452 OA
ENDROOT
BRANCH   1  12
ATOM     12  C   UNL     1     -12.165  -0.610 -26.097  1.00  0.00     0.025 A 
ATOM     13  C   UNL     1     -11.559  -0.112 -27.264  1.00  0.00     0.016 A 
ATOM     14  C   UNL     1     -10.411   0.680 -27.182  1.00  0.00     0.051 A 
ATOM     15  C   UNL     1      -9.861   0.998 -25.933  1.00  0.00     0.157 A 
ATOM     16  C   UNL     1     -11.621  -0.270 -24.847  1.00  0.00     0.062 A 
ATOM     17  C   UNL     1     -10.469   0.524 -24.763  1.00  0.00     0.158 A 
BRANCH  15  18
ATOM     18  O   UNL     1      -8.715   1.787 -25.846  1.00  0.00    -0.504 OA
ATOM     19  H   UNL     1      -8.235   1.928 -24.964  1.00  0.00     0.293 HD
ENDBRANCH  15  18
BRANCH  17  20
ATOM     20  O   UNL     1      -9.923   0.847 -23.522  1.00  0.00    -0.504 OA
ATOM     21  H   UNL     1      -9.449   0.155 -22.955  1.00  0.00     0.293 HD
ENDBRANCH  17  20
ENDBRANCH   1  12
BRANCH   2  22
ATOM     22  O   UNL     1     -14.563   0.236 -27.488  1.00  0.00    -0.502 OA
ATOM     23  H   UNL     1     -14.702   1.119 -27.012  1.00  0.00     0.293 HD
ENDBRANCH   2  22
BRANCH   6  24
ATOM     24  O   UNL     1     -18.069  -3.639 -26.456  1.00  0.00    -0.507 OA
ATOM     25  H   UNL     1     -18.631  -2.892 -26.077  1.00  0.00     0.293 HD
ENDBRANCH   6  24
BRANCH   8  26
ATOM     26  O   UNL     1     -15.183  -6.842 -24.340  1.00  0.00    -0.508 OA
ATOM     27  H   UNL     1     -15.833  -7.196 -23.649  1.00  0.00     0.293 HD
ENDBRANCH   8  26
TORSDOF 6
ENDMDL
MODEL 9
REMARK VINA RESULT:    -7.076      1.981      4.167
REMARK INTER + INTRA:          -8.816
REMARK INTER:                  -8.505
REMARK INTRA:                  -0.310
REMARK UNBOUND:                -0.292
REMARK SMILES O=c1c(O)c(-c2ccc(O)c(O)c2)oc2cc(O)cc(O)c12
REMARK SMILES IDX 5 1 3 2 2 3 1 4 22 5 20 6 19 7 17 8 16 9 15 10 14 11 6 12
REMARK SMILES IDX 7 13 8 14 9 15 13 16 11 17 10 18 12 20 4 22 21 24 18 26
REMARK H PARENT 10 19 12 21 4 23 21 25 18 27
REMARK Flexibility Score: inf
ROOT
ATOM      1  C   UNL     1     -14.073  -2.424 -25.496  1.00  0.00     0.180 A 
ATOM      2  C   UNL     1     -14.419  -2.494 -24.136  1.00  0.00     0.208 A 
ATOM      3  C   UNL     1     -15.397  -3.415 -23.728  1.00  0.00     0.238 A 
ATOM      4  O   UNL     1     -15.741  -3.435 -22.517  1.00  0.00    -0.285 OA
ATOM      5  C   UNL     1     -16.005  -4.265 -24.682  1.00  0.00     0.111 A 
ATOM      6  C   UNL     1     -16.979  -5.263 -24.376  1.00  0.00     0.134 A 
ATOM      7  C   UNL     1     -17.610  -5.956 -25.416  1.00  0.00     0.093 A 
ATOM      8  C   UNL     1     -17.254  -5.734 -26.748  1.00  0.00     0.123 A 
ATOM      9  C   UNL     1     -16.263  -4.805 -27.054  1.00  0.00     0.094 A 
ATOM     10  C   UNL     1     -15.641  -4.072 -26.040  1.00  0.00     0.146 A 
ATOM     11  O   UNL     1     -14.709  -3.188 -26.376  1.00  0.00    -0.452 OA
ENDROOT
BRANCH   1  12
ATOM     12  C   UNL     1     -13.034  -1.497 -25.999  1.00  0.00     0.025 A 
ATOM     13  C   UNL     1     -11.666  -1.800 -25.884  1.00  0.00     0.016 A 
ATOM     14  C   UNL     1     -10.702  -0.921 -26.387  1.00  0.00     0.051 A 
ATOM     15  C   UNL     1     -11.093   0.265 -27.022  1.00  0.00     0.157 A 
ATOM     16  C   UNL     1     -13.419  -0.316 -26.656  1.00  0.00     0.062 A 
ATOM     17  C   UNL     1     -12.453   0.567 -27.160  1.00  0.00     0.158 A 
BRANCH  15  18
ATOM     18  O   UNL     1     -10.135   1.146 -27.524  1.00  0.00    -0.504 OA
ATOM     19  H   UNL     1      -9.170   0.863 -27.651  1.00  0.00     0.293 HD
ENDBRANCH  15  18
BRANCH  17  20
ATOM     20  O   UNL     1     -12.839   1.744 -27.799  1.00  0.00    -0.504 OA
ATOM     21  H   UNL     1     -13.444   2.419 -27.346  1.00  0.00     0.293 HD
ENDBRANCH  17  20
ENDBRANCH   1  12
BRANCH   2  22
ATOM     22  O   UNL     1     -13.821  -1.630 -23.213  1.00  0.00    -0.502 OA
ATOM     23  H   UNL     1     -14.215  -1.455 -22.297  1.00  0.00     0.293 HD
ENDBRANCH   2  22
BRANCH   6  24
ATOM     24  O   UNL     1     -17.340  -5.627 -23.075  1.00  0.00    -0.507 OA
ATOM     25  H   UNL     1     -18.102  -5.217 -22.554  1.00  0.00     0.293 HD
ENDBRANCH   6  24
BRANCH   8  26
ATOM     26  O   UNL     1     -17.875  -6.440 -27.777  1.00  0.00    -0.508 OA
ATOM     27  H   UNL     1     -18.820  -6.225 -28.071  1.00  0.00     0.293 HD
ENDBRANCH   8  26
TORSDOF 6
ENDMDL
