MODEL 1
REMARK VINA RESULT:    -3.699      0.000      0.000
REMARK INTER + INTRA:          -4.788
REMARK INTER:                  -4.565
REMARK INTRA:                  -0.223
REMARK UNBOUND:                -0.223
REMARK SMILES C=CC[C@@H](C)C(=O)CC
REMARK SMILES IDX 4 1 5 2 6 3 7 4 8 5 9 6 3 7 2 8 1 9
REMARK H PARENT
REMARK Flexibility Score: inf
ROOT
ATOM      1  C   UNL     1       0.283  27.236  54.255  1.00  0.00     0.057 C 
ATOM      2  C   UNL     1      -0.915  28.046  54.769  1.00  0.00     0.016 C 
ENDROOT
BRANCH   1   3
ATOM      3  C   UNL     1       1.007  26.545  55.394  1.00  0.00     0.135 C 
ATOM      4  O   UNL     1       2.040  27.024  55.840  1.00  0.00    -0.299 OA
BRANCH   3   5
ATOM      5  C   UNL     1       0.480  25.266  55.990  1.00  0.00     0.072 C 
ATOM      6  C   UNL     1      -0.287  25.547  57.279  1.00  0.00     0.012 C 
ENDBRANCH   3   5
ENDBRANCH   1   3
BRANCH   1   7
ATOM      7  C   UNL     1      -0.115  26.238  53.147  1.00  0.00     0.038 C 
BRANCH   7   8
ATOM      8  C   UNL     1      -1.306  26.685  52.337  1.00  0.00    -0.034 C 
ATOM      9  C   UNL     1      -1.820  25.928  51.363  1.00  0.00     0.004 C 
ENDBRANCH   7   8
ENDBRANCH   1   7
TORSDOF 4
ENDMDL
MODEL 2
REMARK VINA RESULT:    -3.455      1.837      4.036
REMARK INTER + INTRA:          -4.486
REMARK INTER:                  -4.199
REMARK INTRA:                  -0.288
REMARK UNBOUND:                -0.223
REMARK SMILES C=CC[C@@H](C)C(=O)CC
REMARK SMILES IDX 4 1 5 2 6 3 7 4 8 5 9 6 3 7 2 8 1 9
REMARK H PARENT
REMARK Flexibility Score: inf
ROOT
ATOM      1  C   UNL     1       0.227  27.800  54.306  1.00  0.00     0.057 C 
ATOM      2  C   UNL     1       1.726  27.584  54.055  1.00  0.00     0.016 C 
ENDROOT
BRANCH   1   3
ATOM      3  C   UNL     1      -0.580  27.553  53.047  1.00  0.00     0.135 C 
ATOM      4  O   UNL     1      -0.695  28.439  52.212  1.00  0.00    -0.299 OA
BRANCH   3   5
ATOM      5  C   UNL     1      -1.257  26.229  52.803  1.00  0.00     0.072 C 
ATOM      6  C   UNL     1      -1.644  26.083  51.335  1.00  0.00     0.012 C 
ENDBRANCH   3   5
ENDBRANCH   1   3
BRANCH   1   7
ATOM      7  C   UNL     1      -0.297  26.962  55.491  1.00  0.00     0.038 C 
BRANCH   7   8
ATOM      8  C   UNL     1       0.727  26.006  56.049  1.00  0.00    -0.034 C 
ATOM      9  C   UNL     1       0.434  24.727  56.303  1.00  0.00     0.004 C 
ENDBRANCH   7   8
ENDBRANCH   1   7
TORSDOF 4
ENDMDL
MODEL 3
REMARK VINA RESULT:    -3.397      2.256      4.215
REMARK INTER + INTRA:          -4.414
REMARK INTER:                  -3.905
REMARK INTRA:                  -0.509
REMARK UNBOUND:                -0.223
REMARK SMILES C=CC[C@@H](C)C(=O)CC
REMARK SMILES IDX 4 1 5 2 6 3 7 4 8 5 9 6 3 7 2 8 1 9
REMARK H PARENT
REMARK Flexibility Score: inf
ROOT
ATOM      1  C   UNL     1      -0.662  27.102  52.877  1.00  0.00     0.057 C 
ATOM      2  C   UNL     1      -1.477  26.232  51.910  1.00  0.00     0.016 C 
ENDROOT
BRANCH   1   3
ATOM      3  C   UNL     1      -1.544  28.114  53.581  1.00  0.00     0.135 C 
ATOM      4  O   UNL     1      -2.449  27.733  54.310  1.00  0.00    -0.299 OA
BRANCH   3   5
ATOM      5  C   UNL     1      -1.333  29.594  53.394  1.00  0.00     0.072 C 
ATOM      6  C   UNL     1      -0.232  29.858  52.372  1.00  0.00     0.012 C 
ENDBRANCH   3   5
ENDBRANCH   1   3
BRANCH   1   7
ATOM      7  C   UNL     1       0.149  26.258  53.883  1.00  0.00     0.038 C 
BRANCH   7   8
ATOM      8  C   UNL     1       1.210  27.045  54.609  1.00  0.00    -0.034 C 
ATOM      9  C   UNL     1       2.309  27.485  53.990  1.00  0.00     0.004 C 
ENDBRANCH   7   8
ENDBRANCH   1   7
TORSDOF 4
ENDMDL
MODEL 4
REMARK VINA RESULT:    -3.386      2.246      3.623
REMARK INTER + INTRA:          -4.401
REMARK INTER:                  -4.261
REMARK INTRA:                  -0.140
REMARK UNBOUND:                -0.223
REMARK SMILES C=CC[C@@H](C)C(=O)CC
REMARK SMILES IDX 4 1 5 2 6 3 7 4 8 5 9 6 3 7 2 8 1 9
REMARK H PARENT
REMARK Flexibility Score: inf
ROOT
ATOM      1  C   UNL     1       0.279  27.445  54.135  1.00  0.00     0.057 C 
ATOM      2  C   UNL     1       1.796  27.647  54.257  1.00  0.00     0.016 C 
ENDROOT
BRANCH   1   3
ATOM      3  C   UNL     1      -0.408  28.717  53.678  1.00  0.00     0.135 C 
ATOM      4  O   UNL     1      -1.315  29.194  54.345  1.00  0.00    -0.299 OA
BRANCH   3   5
ATOM      5  C   UNL     1       0.002  29.409  52.404  1.00  0.00     0.072 C 
ATOM      6  C   UNL     1      -0.398  30.881  52.437  1.00  0.00     0.012 C 
ENDBRANCH   3   5
ENDBRANCH   1   3
BRANCH   1   7
ATOM      7  C   UNL     1      -0.082  26.248  53.231  1.00  0.00     0.038 C 
BRANCH   7   8
ATOM      8  C   UNL     1      -1.475  26.324  52.662  1.00  0.00    -0.034 C 
ATOM      9  C   UNL     1      -1.737  26.001  51.392  1.00  0.00     0.004 C 
ENDBRANCH   7   8
ENDBRANCH   1   7
TORSDOF 4
ENDMDL
MODEL 5
REMARK VINA RESULT:    -3.361      2.039      3.567
REMARK INTER + INTRA:          -4.370
REMARK INTER:                  -3.963
REMARK INTRA:                  -0.407
REMARK UNBOUND:                -0.223
REMARK SMILES C=CC[C@@H](C)C(=O)CC
REMARK SMILES IDX 4 1 5 2 6 3 7 4 8 5 9 6 3 7 2 8 1 9
REMARK H PARENT
REMARK Flexibility Score: inf
ROOT
ATOM      1  C   UNL     1      -0.519  27.023  52.877  1.00  0.00     0.057 C 
ATOM      2  C   UNL     1      -1.540  26.265  52.017  1.00  0.00     0.016 C 
ENDROOT
BRANCH   1   3
ATOM      3  C   UNL     1      -1.183  28.137  53.662  1.00  0.00     0.135 C 
ATOM      4  O   UNL     1      -0.718  29.268  53.631  1.00  0.00    -0.299 OA
BRANCH   3   5
ATOM      5  C   UNL     1      -2.412  27.878  54.495  1.00  0.00     0.072 C 
ATOM      6  C   UNL     1      -2.086  27.973  55.982  1.00  0.00     0.012 C 
ENDBRANCH   3   5
ENDBRANCH   1   3
BRANCH   1   7
ATOM      7  C   UNL     1       0.287  26.082  53.797  1.00  0.00     0.038 C 
BRANCH   7   8
ATOM      8  C   UNL     1       1.615  26.652  54.225  1.00  0.00    -0.034 C 
ATOM      9  C   UNL     1       1.906  26.875  55.510  1.00  0.00     0.004 C 
ENDBRANCH   7   8
ENDBRANCH   1   7
TORSDOF 4
ENDMDL
MODEL 6
REMARK VINA RESULT:    -3.353      1.378      2.577
REMARK INTER + INTRA:          -4.360
REMARK INTER:                  -3.947
REMARK INTRA:                  -0.413
REMARK UNBOUND:                -0.223
REMARK SMILES C=CC[C@@H](C)C(=O)CC
REMARK SMILES IDX 4 1 5 2 6 3 7 4 8 5 9 6 3 7 2 8 1 9
REMARK H PARENT
REMARK Flexibility Score: inf
ROOT
ATOM      1  C   UNL     1      -0.422  27.011  53.860  1.00  0.00     0.057 C 
ATOM      2  C   UNL     1      -0.887  26.299  52.581  1.00  0.00     0.016 C 
ENDROOT
BRANCH   1   3
ATOM      3  C   UNL     1       0.858  26.397  54.394  1.00  0.00     0.135 C 
ATOM      4  O   UNL     1       1.691  25.953  53.617  1.00  0.00    -0.299 OA
BRANCH   3   5
ATOM      5  C   UNL     1       1.123  26.315  55.874  1.00  0.00     0.072 C 
ATOM      6  C   UNL     1      -0.184  26.338  56.659  1.00  0.00     0.012 C 
ENDBRANCH   3   5
ENDBRANCH   1   3
BRANCH   1   7
ATOM      7  C   UNL     1      -0.283  28.536  53.665  1.00  0.00     0.038 C 
BRANCH   7   8
ATOM      8  C   UNL     1      -1.536  29.301  54.009  1.00  0.00    -0.034 C 
ATOM      9  C   UNL     1      -2.070  29.266  55.233  1.00  0.00     0.004 C 
ENDBRANCH   7   8
ENDBRANCH   1   7
TORSDOF 4
ENDMDL
MODEL 7
REMARK VINA RESULT:    -3.322      2.152      3.123
REMARK INTER + INTRA:          -4.321
REMARK INTER:                  -4.021
REMARK INTRA:                  -0.301
REMARK UNBOUND:                -0.223
REMARK SMILES C=CC[C@@H](C)C(=O)CC
REMARK SMILES IDX 4 1 5 2 6 3 7 4 8 5 9 6 3 7 2 8 1 9
REMARK H PARENT
REMARK Flexibility Score: inf
ROOT
ATOM      1  C   UNL     1      -1.661  27.207  52.488  1.00  0.00     0.057 C 
ATOM      2  C   UNL     1      -1.583  25.954  51.605  1.00  0.00     0.016 C 
ENDROOT
BRANCH   1   3
ATOM      3  C   UNL     1      -0.345  27.461  53.197  1.00  0.00     0.135 C 
ATOM      4  O   UNL     1       0.001  28.606  53.450  1.00  0.00    -0.299 OA
BRANCH   3   5
ATOM      5  C   UNL     1       0.558  26.322  53.593  1.00  0.00     0.072 C 
ATOM      6  C   UNL     1       0.366  25.968  55.064  1.00  0.00     0.012 C 
ENDBRANCH   3   5
ENDBRANCH   1   3
BRANCH   1   7
ATOM      7  C   UNL     1      -2.133  28.449  51.703  1.00  0.00     0.038 C 
BRANCH   7   8
ATOM      8  C   UNL     1      -1.710  28.440  50.255  1.00  0.00    -0.034 C 
ATOM      9  C   UNL     1      -0.866  29.351  49.762  1.00  0.00     0.004 C 
ENDBRANCH   7   8
ENDBRANCH   1   7
TORSDOF 4
ENDMDL
MODEL 8
REMARK VINA RESULT:    -3.265      1.696      2.792
REMARK INTER + INTRA:          -4.251
REMARK INTER:                  -3.858
REMARK INTRA:                  -0.393
REMARK UNBOUND:                -0.223
REMARK SMILES C=CC[C@@H](C)C(=O)CC
REMARK SMILES IDX 4 1 5 2 6 3 7 4 8 5 9 6 3 7 2 8 1 9
REMARK H PARENT
REMARK Flexibility Score: inf
ROOT
ATOM      1  C   UNL     1      -0.558  26.992  54.287  1.00  0.00     0.057 C 
ATOM      2  C   UNL     1       0.574  26.693  55.280  1.00  0.00     0.016 C 
ENDROOT
BRANCH   1   3
ATOM      3  C   UNL     1      -0.732  28.486  54.088  1.00  0.00     0.135 C 
ATOM      4  O   UNL     1       0.038  29.098  53.361  1.00  0.00    -0.299 OA
BRANCH   3   5
ATOM      5  C   UNL     1      -1.838  29.240  54.779  1.00  0.00     0.072 C 
ATOM      6  C   UNL     1      -2.864  28.276  55.365  1.00  0.00     0.012 C 
ENDBRANCH   3   5
ENDBRANCH   1   3
BRANCH   1   7
ATOM      7  C   UNL     1      -0.369  26.258  52.943  1.00  0.00     0.038 C 
BRANCH   7   8
ATOM      8  C   UNL     1      -1.623  26.201  52.108  1.00  0.00    -0.034 C 
ATOM      9  C   UNL     1      -1.817  27.019  51.069  1.00  0.00     0.004 C 
ENDBRANCH   7   8
ENDBRANCH   1   7
TORSDOF 4
ENDMDL
MODEL 9
REMARK VINA RESULT:    -3.232      2.769      4.448
REMARK INTER + INTRA:          -4.210
REMARK INTER:                  -3.735
REMARK INTRA:                  -0.475
REMARK UNBOUND:                -0.223
REMARK SMILES C=CC[C@@H](C)C(=O)CC
REMARK SMILES IDX 4 1 5 2 6 3 7 4 8 5 9 6 3 7 2 8 1 9
REMARK H PARENT
REMARK Flexibility Score: inf
ROOT
ATOM      1  C   UNL     1      -1.214  29.073  53.240  1.00  0.00     0.057 C 
ATOM      2  C   UNL     1      -0.220  29.842  52.358  1.00  0.00     0.016 C 
ENDROOT
BRANCH   1   3
ATOM      3  C   UNL     1      -2.173  28.254  52.398  1.00  0.00     0.135 C 
ATOM      4  O   UNL     1      -3.360  28.212  52.692  1.00  0.00    -0.299 OA
BRANCH   3   5
ATOM      5  C   UNL     1      -1.691  27.477  51.201  1.00  0.00     0.072 C 
ATOM      6  C   UNL     1      -1.659  25.983  51.504  1.00  0.00     0.012 C 
ENDBRANCH   3   5
ENDBRANCH   1   3
BRANCH   1   7
ATOM      7  C   UNL     1      -0.506  28.205  54.302  1.00  0.00     0.038 C 
BRANCH   7   8
ATOM      8  C   UNL     1       0.906  27.831  53.928  1.00  0.00    -0.034 C 
ATOM      9  C   UNL     1       1.344  26.571  53.998  1.00  0.00     0.004 C 
ENDBRANCH   7   8
ENDBRANCH   1   7
TORSDOF 4
ENDMDL
