MODEL 1
REMARK VINA RESULT:    -0.652      0.000      0.000
REMARK INTER + INTRA:           0.479
REMARK INTER:                  -1.129
REMARK INTRA:                   1.608
REMARK UNBOUND:                 1.608
REMARK SMILES OC[C@@H]1O[C@@H](O[C@H]2[C@H](O)[C@@H](O)[C@H](O)O[C@@H]2CO)[C@@H](O)[C@@H](O)[C@@H]1O[C@@H]1O[C@H](CO)[C@H](O)[C@H](O)[C@H]1O
REMARK SMILES IDX 22 1 3 2 4 3 5 4 18 5 20 6 23 7 24 8 26 9 29 10 25 11 31 12
REMARK SMILES IDX 33 13 27 14 28 15 30 17 32 19 34 21 2 23 1 24 21 26 19 28
REMARK SMILES IDX 6 30 7 31 15 32 8 33 14 34 10 35 12 36 16 37 17 38 9 40
REMARK SMILES IDX 11 42 13 44
REMARK H PARENT 28 16 30 18 32 20 34 22 1 25 21 27 19 29 17 39 9 41 11 43
REMARK H PARENT 13 45
REMARK Flexibility Score: inf
ROOT
ATOM      1  C   UNL     1      19.745  28.098  38.425  1.00  0.00     0.184 C 
ATOM      2  C   UNL     1      19.396  27.020  37.351  1.00  0.00     0.178 C 
ATOM      3  O   UNL     1      18.421  27.486  36.430  1.00  0.00    -0.341 OA
ATOM      4  C   UNL     1      18.858  28.577  35.622  1.00  0.00     0.282 C 
ATOM      5  C   UNL     1      19.735  29.605  36.403  1.00  0.00     0.202 C 
ATOM      6  C   UNL     1      19.474  29.529  37.907  1.00  0.00     0.180 C 
ENDROOT
BRANCH   1   7
ATOM      7  O   UNL     1      21.114  27.979  38.809  1.00  0.00    -0.341 OA
BRANCH   7   8
ATOM      8  C   UNL     1      21.341  28.214  40.189  1.00  0.00     0.282 C 
ATOM      9  C   UNL     1      21.434  25.944  41.014  1.00  0.00     0.178 C 
ATOM     10  C   UNL     1      20.127  26.139  41.811  1.00  0.00     0.177 C 
ATOM     11  O   UNL     1      22.125  27.170  40.771  1.00  0.00    -0.341 OA
ATOM     12  C   UNL     1      19.210  27.147  41.125  1.00  0.00     0.179 C 
ATOM     13  C   UNL     1      19.987  28.456  40.892  1.00  0.00     0.202 C 
BRANCH   9  14
ATOM     14  C   UNL     1      21.309  25.067  39.742  1.00  0.00     0.191 C 
BRANCH  14  15
ATOM     15  O   UNL     1      21.484  23.721  40.087  1.00  0.00    -0.394 OA
ATOM     16  H   UNL     1      21.559  23.690  41.077  1.00  0.00     0.210 HD
ENDBRANCH  14  15
ENDBRANCH   9  14
BRANCH  10  17
ATOM     17  O   UNL     1      19.472  24.906  41.997  1.00  0.00    -0.387 OA
ATOM     18  H   UNL     1      20.179  24.211  42.054  1.00  0.00     0.211 HD
ENDBRANCH  10  17
BRANCH  12  19
ATOM     19  O   UNL     1      18.728  26.611  39.919  1.00  0.00    -0.387 OA
ATOM     20  H   UNL     1      18.302  27.352  39.406  1.00  0.00     0.211 HD
ENDBRANCH  12  19
BRANCH  13  21
ATOM     21  O   UNL     1      20.206  29.104  42.124  1.00  0.00    -0.385 OA
ATOM     22  H   UNL     1      20.777  28.490  42.663  1.00  0.00     0.211 HD
ENDBRANCH  13  21
ENDBRANCH   7   8
ENDBRANCH   1   7
BRANCH   2  23
ATOM     23  C   UNL     1      20.603  26.367  36.646  1.00  0.00     0.191 C 
BRANCH  23  24
ATOM     24  O   UNL     1      21.686  27.258  36.610  1.00  0.00    -0.394 OA
ATOM     25  H   UNL     1      21.368  28.126  36.975  1.00  0.00     0.210 HD
ENDBRANCH  23  24
ENDBRANCH   2  23
BRANCH   6  26
ATOM     26  O   UNL     1      18.149  29.901  38.175  1.00  0.00    -0.387 OA
ATOM     27  H   UNL     1      17.653  29.075  38.405  1.00  0.00     0.211 HD
ENDBRANCH   6  26
BRANCH   5  28
ATOM     28  O   UNL     1      19.516  30.919  35.955  1.00  0.00    -0.385 OA
ATOM     29  H   UNL     1      18.553  30.985  35.719  1.00  0.00     0.211 HD
ENDBRANCH   5  28
BRANCH   4  30
ATOM     30  O   UNL     1      17.736  29.266  35.080  1.00  0.00    -0.341 OA
BRANCH  30  31
ATOM     31  C   UNL     1      16.445  28.683  35.304  1.00  0.00     0.184 C 
ATOM     32  C   UNL     1      15.521  28.724  34.054  1.00  0.00     0.178 C 
ATOM     33  C   UNL     1      15.685  29.148  36.584  1.00  0.00     0.180 C 
ATOM     34  O   UNL     1      14.370  27.888  34.175  1.00  0.00    -0.342 OA
ATOM     35  C   UNL     1      14.167  28.868  36.462  1.00  0.00     0.201 C 
ATOM     36  C   UNL     1      13.886  27.691  35.502  1.00  0.00     0.279 C 
BRANCH  32  37
ATOM     37  C   UNL     1      16.262  28.313  32.776  1.00  0.00     0.191 C 
BRANCH  37  38
ATOM     38  O   UNL     1      17.041  27.165  32.991  1.00  0.00    -0.394 OA
ATOM     39  H   UNL     1      17.873  27.461  33.446  1.00  0.00     0.210 HD
ENDBRANCH  37  38
ENDBRANCH  32  37
BRANCH  33  40
ATOM     40  O   UNL     1      16.191  28.469  37.703  1.00  0.00    -0.387 OA
ATOM     41  H   UNL     1      16.299  27.518  37.443  1.00  0.00     0.211 HD
ENDBRANCH  33  40
BRANCH  35  42
ATOM     42  O   UNL     1      13.516  30.023  35.994  1.00  0.00    -0.385 OA
ATOM     43  H   UNL     1      13.139  29.806  35.104  1.00  0.00     0.211 HD
ENDBRANCH  35  42
BRANCH  36  44
ATOM     44  O   UNL     1      14.417  26.505  36.037  1.00  0.00    -0.366 OA
ATOM     45  H   UNL     1      14.653  26.706  36.984  1.00  0.00     0.213 HD
ENDBRANCH  36  44
ENDBRANCH  30  31
ENDBRANCH   4  30
TORSDOF 18
ENDMDL
MODEL 2
REMARK VINA RESULT:    -0.587     18.950     23.285
REMARK INTER + INTRA:           0.592
REMARK INTER:                  -2.452
REMARK INTRA:                   3.044
REMARK UNBOUND:                 1.608
REMARK SMILES OC[C@@H]1O[C@@H](O[C@H]2[C@H](O)[C@@H](O)[C@H](O)O[C@@H]2CO)[C@@H](O)[C@@H](O)[C@@H]1O[C@@H]1O[C@H](CO)[C@H](O)[C@H](O)[C@H]1O
REMARK SMILES IDX 22 1 3 2 4 3 5 4 18 5 20 6 23 7 24 8 26 9 29 10 25 11 31 12
REMARK SMILES IDX 33 13 27 14 28 15 30 17 32 19 34 21 2 23 1 24 21 26 19 28
REMARK SMILES IDX 6 30 7 31 15 32 8 33 14 34 10 35 12 36 16 37 17 38 9 40
REMARK SMILES IDX 11 42 13 44
REMARK H PARENT 28 16 30 18 32 20 34 22 1 25 21 27 19 29 17 39 9 41 11 43
REMARK H PARENT 13 45
REMARK Flexibility Score: inf
ROOT
ATOM      1  C   UNL     1       6.089  13.409  23.885  1.00  0.00     0.184 C 
ATOM      2  C   UNL     1       6.932  14.672  24.248  1.00  0.00     0.178 C 
ATOM      3  O   UNL     1       7.928  14.383  25.217  1.00  0.00    -0.341 OA
ATOM      4  C   UNL     1       8.933  13.476  24.767  1.00  0.00     0.282 C 
ATOM      5  C   UNL     1       8.366  12.326  23.877  1.00  0.00     0.202 C 
ATOM      6  C   UNL     1       6.877  12.104  24.138  1.00  0.00     0.180 C 
ENDROOT
BRANCH   1   7
ATOM      7  O   UNL     1       5.685  13.467  22.517  1.00  0.00    -0.341 OA
BRANCH   7   8
ATOM      8  C   UNL     1       4.473  12.783  22.251  1.00  0.00     0.282 C 
ATOM      9  C   UNL     1       2.864  14.451  22.943  1.00  0.00     0.178 C 
ATOM     10  C   UNL     1       2.402  13.572  24.123  1.00  0.00     0.177 C 
ATOM     11  O   UNL     1       3.436  13.693  21.875  1.00  0.00    -0.341 OA
ATOM     12  C   UNL     1       3.540  12.695  24.635  1.00  0.00     0.179 C 
ATOM     13  C   UNL     1       4.120  11.887  23.459  1.00  0.00     0.202 C 
BRANCH   9  14
ATOM     14  C   UNL     1       3.727  15.679  23.330  1.00  0.00     0.191 C 
BRANCH  14  15
ATOM     15  O   UNL     1       4.298  16.227  22.174  1.00  0.00    -0.394 OA
ATOM     16  H   UNL     1       3.802  15.845  21.404  1.00  0.00     0.210 HD
ENDBRANCH  14  15
ENDBRANCH   9  14
BRANCH  10  17
ATOM     17  O   UNL     1       1.875  14.369  25.157  1.00  0.00    -0.387 OA
ATOM     18  H   UNL     1       2.555  14.389  25.881  1.00  0.00     0.211 HD
ENDBRANCH  10  17
BRANCH  12  19
ATOM     19  O   UNL     1       4.522  13.494  25.246  1.00  0.00    -0.387 OA
ATOM     20  H   UNL     1       5.287  12.903  25.488  1.00  0.00     0.211 HD
ENDBRANCH  12  19
BRANCH  13  21
ATOM     21  O   UNL     1       3.196  10.901  23.059  1.00  0.00    -0.385 OA
ATOM     22  H   UNL     1       3.641  10.379  22.337  1.00  0.00     0.211 HD
ENDBRANCH  13  21
ENDBRANCH   7   8
ENDBRANCH   1   7
BRANCH   2  23
ATOM     23  C   UNL     1       7.493  15.465  23.049  1.00  0.00     0.191 C 
BRANCH  23  24
ATOM     24  O   UNL     1       6.980  16.771  23.048  1.00  0.00    -0.394 OA
ATOM     25  H   UNL     1       6.172  16.772  23.627  1.00  0.00     0.210 HD
ENDBRANCH  23  24
ENDBRANCH   2  23
BRANCH   6  26
ATOM     26  O   UNL     1       6.689  11.670  25.458  1.00  0.00    -0.387 OA
ATOM     27  H   UNL     1       6.426  12.462  25.993  1.00  0.00     0.211 HD
ENDBRANCH   6  26
BRANCH   5  28
ATOM     28  O   UNL     1       9.063  11.123  24.079  1.00  0.00    -0.385 OA
ATOM     29  H   UNL     1       9.165  11.012  25.062  1.00  0.00     0.211 HD
ENDBRANCH   5  28
BRANCH   4  30
ATOM     30  O   UNL     1       9.602  12.893  25.880  1.00  0.00    -0.341 OA
BRANCH  30  31
ATOM     31  C   UNL     1       9.237  13.372  27.182  1.00  0.00     0.184 C 
ATOM     32  C   UNL     1      10.429  13.427  28.179  1.00  0.00     0.178 C 
ATOM     33  C   UNL     1       7.982  12.717  27.837  1.00  0.00     0.180 C 
ATOM     34  O   UNL     1      10.142  14.178  29.360  1.00  0.00    -0.342 OA
ATOM     35  C   UNL     1       7.984  12.924  29.371  1.00  0.00     0.201 C 
ATOM     36  C   UNL     1       8.777  14.189  29.769  1.00  0.00     0.279 C 
BRANCH  32  37
ATOM     37  C   UNL     1      11.687  14.028  27.540  1.00  0.00     0.191 C 
BRANCH  37  38
ATOM     38  O   UNL     1      12.847  13.592  28.200  1.00  0.00    -0.394 OA
ATOM     39  H   UNL     1      12.868  12.602  28.124  1.00  0.00     0.210 HD
ENDBRANCH  37  38
ENDBRANCH  32  37
BRANCH  33  40
ATOM     40  O   UNL     1       6.819  13.286  27.296  1.00  0.00    -0.387 OA
ATOM     41  H   UNL     1       6.658  14.137  27.779  1.00  0.00     0.211 HD
ENDBRANCH  33  40
BRANCH  35  42
ATOM     42  O   UNL     1       8.551  11.798  29.993  1.00  0.00    -0.385 OA
ATOM     43  H   UNL     1       9.145  12.129  30.713  1.00  0.00     0.211 HD
ENDBRANCH  35  42
BRANCH  36  44
ATOM     44  O   UNL     1       8.132  15.331  29.264  1.00  0.00    -0.366 OA
ATOM     45  H   UNL     1       8.481  15.464  28.340  1.00  0.00     0.213 HD
ENDBRANCH  36  44
ENDBRANCH  30  31
ENDBRANCH   4  30
TORSDOF 18
ENDMDL
MODEL 3
REMARK VINA RESULT:    -0.272      2.036      6.835
REMARK INTER + INTRA:           1.138
REMARK INTER:                  -3.642
REMARK INTRA:                   4.779
REMARK UNBOUND:                 1.608
REMARK SMILES OC[C@@H]1O[C@@H](O[C@H]2[C@H](O)[C@@H](O)[C@H](O)O[C@@H]2CO)[C@@H](O)[C@@H](O)[C@@H]1O[C@@H]1O[C@H](CO)[C@H](O)[C@H](O)[C@H]1O
REMARK SMILES IDX 22 1 3 2 4 3 5 4 18 5 20 6 23 7 24 8 26 9 29 10 25 11 31 12
REMARK SMILES IDX 33 13 27 14 28 15 30 17 32 19 34 21 2 23 1 24 21 26 19 28
REMARK SMILES IDX 6 30 7 31 15 32 8 33 14 34 10 35 12 36 16 37 17 38 9 40
REMARK SMILES IDX 11 42 13 44
REMARK H PARENT 28 16 30 18 32 20 34 22 1 25 21 27 19 29 17 39 9 41 11 43
REMARK H PARENT 13 45
REMARK Flexibility Score: inf
ROOT
ATOM      1  C   UNL     1      19.137  29.298  37.918  1.00  0.00     0.184 C 
ATOM      2  C   UNL     1      17.916  28.497  38.472  1.00  0.00     0.178 C 
ATOM      3  O   UNL     1      18.238  27.801  39.667  1.00  0.00    -0.341 OA
ATOM      4  C   UNL     1      18.559  28.651  40.767  1.00  0.00     0.282 C 
ATOM      5  C   UNL     1      19.398  29.900  40.352  1.00  0.00     0.202 C 
ATOM      6  C   UNL     1      20.138  29.661  39.037  1.00  0.00     0.180 C 
ENDROOT
BRANCH   1   7
ATOM      7  O   UNL     1      18.687  30.489  37.272  1.00  0.00    -0.341 OA
BRANCH   7   8
ATOM      8  C   UNL     1      19.626  31.032  36.361  1.00  0.00     0.282 C 
ATOM      9  C   UNL     1      19.155  29.704  34.396  1.00  0.00     0.178 C 
ATOM     10  C   UNL     1      20.535  29.019  34.480  1.00  0.00     0.177 C 
ATOM     11  O   UNL     1      19.133  30.989  35.019  1.00  0.00    -0.341 OA
ATOM     12  C   UNL     1      21.016  28.925  35.925  1.00  0.00     0.179 C 
ATOM     13  C   UNL     1      20.989  30.330  36.556  1.00  0.00     0.202 C 
BRANCH   9  14
ATOM     14  C   UNL     1      17.951  28.819  34.811  1.00  0.00     0.191 C 
BRANCH  14  15
ATOM     15  O   UNL     1      17.683  27.895  33.793  1.00  0.00    -0.394 OA
ATOM     16  H   UNL     1      17.843  28.365  32.933  1.00  0.00     0.210 HD
ENDBRANCH  14  15
ENDBRANCH   9  14
BRANCH  10  17
ATOM     17  O   UNL     1      20.494  27.747  33.878  1.00  0.00    -0.387 OA
ATOM     18  H   UNL     1      20.114  27.871  32.969  1.00  0.00     0.211 HD
ENDBRANCH  10  17
BRANCH  12  19
ATOM     19  O   UNL     1      20.209  28.023  36.639  1.00  0.00    -0.387 OA
ATOM     20  H   UNL     1      19.487  28.547  37.084  1.00  0.00     0.211 HD
ENDBRANCH  12  19
BRANCH  13  21
ATOM     21  O   UNL     1      22.011  31.122  35.996  1.00  0.00    -0.385 OA
ATOM     22  H   UNL     1      22.635  30.491  35.544  1.00  0.00     0.211 HD
ENDBRANCH  13  21
ENDBRANCH   7   8
ENDBRANCH   1   7
BRANCH   2  23
ATOM     23  C   UNL     1      16.598  29.291  38.593  1.00  0.00     0.191 C 
BRANCH  23  24
ATOM     24  O   UNL     1      16.157  29.697  37.325  1.00  0.00    -0.394 OA
ATOM     25  H   UNL     1      16.662  30.518  37.085  1.00  0.00     0.210 HD
ENDBRANCH  23  24
ENDBRANCH   2  23
BRANCH   6  26
ATOM     26  O   UNL     1      21.075  28.631  39.204  1.00  0.00    -0.387 OA
ATOM     27  H   UNL     1      21.230  28.228  38.313  1.00  0.00     0.211 HD
ENDBRANCH   6  26
BRANCH   5  28
ATOM     28  O   UNL     1      20.318  30.261  41.350  1.00  0.00    -0.385 OA
ATOM     29  H   UNL     1      20.738  31.113  41.059  1.00  0.00     0.211 HD
ENDBRANCH   5  28
BRANCH   4  30
ATOM     30  O   UNL     1      19.292  27.925  41.749  1.00  0.00    -0.341 OA
BRANCH  30  31
ATOM     31  C   UNL     1      19.818  26.650  41.357  1.00  0.00     0.184 C 
ATOM     32  C   UNL     1      21.344  26.674  41.061  1.00  0.00     0.178 C 
ATOM     33  C   UNL     1      19.037  25.889  40.241  1.00  0.00     0.180 C 
ATOM     34  O   UNL     1      21.921  25.370  40.971  1.00  0.00    -0.342 OA
ATOM     35  C   UNL     1      19.934  24.825  39.564  1.00  0.00     0.201 C 
ATOM     36  C   UNL     1      21.050  24.339  40.515  1.00  0.00     0.279 C 
BRANCH  32  37
ATOM     37  C   UNL     1      22.125  27.456  42.125  1.00  0.00     0.191 C 
BRANCH  37  38
ATOM     38  O   UNL     1      22.111  28.833  41.851  1.00  0.00    -0.394 OA
ATOM     39  H   UNL     1      23.059  29.129  41.810  1.00  0.00     0.210 HD
ENDBRANCH  37  38
ENDBRANCH  32  37
BRANCH  33  40
ATOM     40  O   UNL     1      17.914  25.261  40.799  1.00  0.00    -0.387 OA
ATOM     41  H   UNL     1      18.147  25.022  41.733  1.00  0.00     0.211 HD
ENDBRANCH  33  40
BRANCH  35  42
ATOM     42  O   UNL     1      20.509  25.369  38.402  1.00  0.00    -0.385 OA
ATOM     43  H   UNL     1      21.409  24.968  38.305  1.00  0.00     0.211 HD
ENDBRANCH  35  42
BRANCH  36  44
ATOM     44  O   UNL     1      20.481  23.669  41.611  1.00  0.00    -0.366 OA
ATOM     45  H   UNL     1      20.330  24.359  42.314  1.00  0.00     0.213 HD
ENDBRANCH  36  44
ENDBRANCH  30  31
ENDBRANCH   4  30
TORSDOF 18
ENDMDL
MODEL 4
REMARK VINA RESULT:    -0.011     19.395     23.760
REMARK INTER + INTRA:           1.588
REMARK INTER:                   1.038
REMARK INTRA:                   0.550
REMARK UNBOUND:                 1.608
REMARK SMILES OC[C@@H]1O[C@@H](O[C@H]2[C@H](O)[C@@H](O)[C@H](O)O[C@@H]2CO)[C@@H](O)[C@@H](O)[C@@H]1O[C@@H]1O[C@H](CO)[C@H](O)[C@H](O)[C@H]1O
REMARK SMILES IDX 22 1 3 2 4 3 5 4 18 5 20 6 23 7 24 8 26 9 29 10 25 11 31 12
REMARK SMILES IDX 33 13 27 14 28 15 30 17 32 19 34 21 2 23 1 24 21 26 19 28
REMARK SMILES IDX 6 30 7 31 15 32 8 33 14 34 10 35 12 36 16 37 17 38 9 40
REMARK SMILES IDX 11 42 13 44
REMARK H PARENT 28 16 30 18 32 20 34 22 1 25 21 27 19 29 17 39 9 41 11 43
REMARK H PARENT 13 45
REMARK Flexibility Score: inf
ROOT
ATOM      1  C   UNL     1       6.088  11.490  23.882  1.00  0.00     0.184 C 
ATOM      2  C   UNL     1       6.582  11.081  25.305  1.00  0.00     0.178 C 
ATOM      3  O   UNL     1       7.983  11.259  25.451  1.00  0.00    -0.341 OA
ATOM      4  C   UNL     1       8.409  12.618  25.368  1.00  0.00     0.282 C 
ATOM      5  C   UNL     1       7.636  13.438  24.290  1.00  0.00     0.202 C 
ATOM      6  C   UNL     1       7.029  12.525  23.225  1.00  0.00     0.180 C 
ENDROOT
BRANCH   1   7
ATOM      7  O   UNL     1       4.767  12.025  23.958  1.00  0.00    -0.341 OA
BRANCH   7   8
ATOM      8  C   UNL     1       4.060  11.976  22.730  1.00  0.00     0.282 C 
ATOM      9  C   UNL     1       3.885  14.334  22.227  1.00  0.00     0.178 C 
ATOM     10  C   UNL     1       2.355  14.301  22.419  1.00  0.00     0.177 C 
ATOM     11  O   UNL     1       4.429  13.061  21.876  1.00  0.00    -0.341 OA
ATOM     12  C   UNL     1       1.951  13.243  23.440  1.00  0.00     0.179 C 
ATOM     13  C   UNL     1       2.545  11.886  23.020  1.00  0.00     0.202 C 
BRANCH   9  14
ATOM     14  C   UNL     1       4.680  15.029  23.363  1.00  0.00     0.191 C 
BRANCH  14  15
ATOM     15  O   UNL     1       5.709  15.798  22.804  1.00  0.00    -0.394 OA
ATOM     16  H   UNL     1       6.561  15.356  23.054  1.00  0.00     0.210 HD
ENDBRANCH  14  15
ENDBRANCH   9  14
BRANCH  10  17
ATOM     17  O   UNL     1       1.875  15.572  22.792  1.00  0.00    -0.387 OA
ATOM     18  H   UNL     1       0.905  15.587  22.578  1.00  0.00     0.211 HD
ENDBRANCH  10  17
BRANCH  12  19
ATOM     19  O   UNL     1       2.387  13.623  24.721  1.00  0.00    -0.387 OA
ATOM     20  H   UNL     1       2.120  14.573  24.863  1.00  0.00     0.211 HD
ENDBRANCH  12  19
BRANCH  13  21
ATOM     21  O   UNL     1       1.876  11.408  21.875  1.00  0.00    -0.385 OA
ATOM     22  H   UNL     1       0.941  11.745  21.940  1.00  0.00     0.211 HD
ENDBRANCH  13  21
ENDBRANCH   7   8
ENDBRANCH   1   7
BRANCH   2  23
ATOM     23  C   UNL     1       5.790  11.684  26.484  1.00  0.00     0.191 C 
BRANCH  23  24
ATOM     24  O   UNL     1       4.549  11.043  26.614  1.00  0.00    -0.394 OA
ATOM     25  H   UNL     1       4.375  10.926  27.585  1.00  0.00     0.210 HD
ENDBRANCH  23  24
ENDBRANCH   2  23
BRANCH   6  26
ATOM     26  O   UNL     1       8.054  11.874  22.523  1.00  0.00    -0.387 OA
ATOM     27  H   UNL     1       7.941  12.097  21.564  1.00  0.00     0.211 HD
ENDBRANCH   6  26
BRANCH   5  28
ATOM     28  O   UNL     1       8.462  14.393  23.673  1.00  0.00    -0.385 OA
ATOM     29  H   UNL     1       7.868  15.117  23.343  1.00  0.00     0.211 HD
ENDBRANCH   5  28
BRANCH   4  30
ATOM     30  O   UNL     1       9.799  12.678  25.066  1.00  0.00    -0.341 OA
BRANCH  30  31
ATOM     31  C   UNL     1      10.687  12.999  26.146  1.00  0.00     0.184 C 
ATOM     32  C   UNL     1      10.032  13.886  27.242  1.00  0.00     0.178 C 
ATOM     33  C   UNL     1      12.097  13.536  25.750  1.00  0.00     0.180 C 
ATOM     34  O   UNL     1      10.799  13.953  28.445  1.00  0.00    -0.342 OA
ATOM     35  C   UNL     1      12.749  14.303  26.926  1.00  0.00     0.201 C 
ATOM     36  C   UNL     1      12.209  13.812  28.288  1.00  0.00     0.279 C 
BRANCH  32  37
ATOM     37  C   UNL     1       8.626  13.400  27.613  1.00  0.00     0.191 C 
BRANCH  37  38
ATOM     38  O   UNL     1       8.303  13.748  28.935  1.00  0.00    -0.394 OA
ATOM     39  H   UNL     1       8.767  13.098  29.526  1.00  0.00     0.210 HD
ENDBRANCH  37  38
ENDBRANCH  32  37
BRANCH  33  40
ATOM     40  O   UNL     1      12.922  12.463  25.384  1.00  0.00    -0.387 OA
ATOM     41  H   UNL     1      12.331  11.739  25.054  1.00  0.00     0.211 HD
ENDBRANCH  33  40
BRANCH  35  42
ATOM     42  O   UNL     1      12.493  15.678  26.786  1.00  0.00    -0.385 OA
ATOM     43  H   UNL     1      12.212  16.016  27.674  1.00  0.00     0.211 HD
ENDBRANCH  35  42
BRANCH  36  44
ATOM     44  O   UNL     1      12.585  12.474  28.493  1.00  0.00    -0.366 OA
ATOM     45  H   UNL     1      13.470  12.498  28.950  1.00  0.00     0.213 HD
ENDBRANCH  36  44
ENDBRANCH  30  31
ENDBRANCH   4  30
TORSDOF 18
ENDMDL
MODEL 5
REMARK VINA RESULT:     0.098      1.551      3.714
REMARK INTER + INTRA:           1.778
REMARK INTER:                  -0.741
REMARK INTRA:                   2.519
REMARK UNBOUND:                 1.608
REMARK SMILES OC[C@@H]1O[C@@H](O[C@H]2[C@H](O)[C@@H](O)[C@H](O)O[C@@H]2CO)[C@@H](O)[C@@H](O)[C@@H]1O[C@@H]1O[C@H](CO)[C@H](O)[C@H](O)[C@H]1O
REMARK SMILES IDX 22 1 3 2 4 3 5 4 18 5 20 6 23 7 24 8 26 9 29 10 25 11 31 12
REMARK SMILES IDX 33 13 27 14 28 15 30 17 32 19 34 21 2 23 1 24 21 26 19 28
REMARK SMILES IDX 6 30 7 31 15 32 8 33 14 34 10 35 12 36 16 37 17 38 9 40
REMARK SMILES IDX 11 42 13 44
REMARK H PARENT 28 16 30 18 32 20 34 22 1 25 21 27 19 29 17 39 9 41 11 43
REMARK H PARENT 13 45
REMARK Flexibility Score: inf
ROOT
ATOM      1  C   UNL     1      21.098  28.287  37.920  1.00  0.00     0.184 C 
ATOM      2  C   UNL     1      20.469  29.457  38.740  1.00  0.00     0.178 C 
ATOM      3  O   UNL     1      19.465  30.140  38.004  1.00  0.00    -0.341 OA
ATOM      4  C   UNL     1      18.322  29.342  37.701  1.00  0.00     0.282 C 
ATOM      5  C   UNL     1      18.683  27.869  37.332  1.00  0.00     0.202 C 
ATOM      6  C   UNL     1      20.126  27.756  36.843  1.00  0.00     0.180 C 
ENDROOT
BRANCH   1   7
ATOM      7  O   UNL     1      21.472  27.223  38.795  1.00  0.00    -0.341 OA
BRANCH   7   8
ATOM      8  C   UNL     1      21.150  25.936  38.297  1.00  0.00     0.282 C 
ATOM      9  C   UNL     1      19.405  25.289  39.841  1.00  0.00     0.178 C 
ATOM     10  C   UNL     1      20.292  24.177  40.438  1.00  0.00     0.177 C 
ATOM     11  O   UNL     1      19.768  25.631  38.502  1.00  0.00    -0.341 OA
ATOM     12  C   UNL     1      21.769  24.549  40.359  1.00  0.00     0.179 C 
ATOM     13  C   UNL     1      22.123  24.899  38.902  1.00  0.00     0.202 C 
BRANCH   9  14
ATOM     14  C   UNL     1      19.209  26.535  40.742  1.00  0.00     0.191 C 
BRANCH  14  15
ATOM     15  O   UNL     1      17.922  27.052  40.543  1.00  0.00    -0.394 OA
ATOM     16  H   UNL     1      17.982  27.673  39.772  1.00  0.00     0.210 HD
ENDBRANCH  14  15
ENDBRANCH   9  14
BRANCH  10  17
ATOM     17  O   UNL     1      19.912  23.900  41.765  1.00  0.00    -0.387 OA
ATOM     18  H   UNL     1      19.659  24.767  42.179  1.00  0.00     0.211 HD
ENDBRANCH  10  17
BRANCH  12  19
ATOM     19  O   UNL     1      22.038  25.622  41.227  1.00  0.00    -0.387 OA
ATOM     20  H   UNL     1      21.513  26.408  40.910  1.00  0.00     0.211 HD
ENDBRANCH  12  19
BRANCH  13  21
ATOM     21  O   UNL     1      22.110  23.729  38.116  1.00  0.00    -0.385 OA
ATOM     22  H   UNL     1      22.713  23.906  37.344  1.00  0.00     0.211 HD
ENDBRANCH  13  21
ENDBRANCH   7   8
ENDBRANCH   1   7
BRANCH   2  23
ATOM     23  C   UNL     1      20.006  29.097  40.167  1.00  0.00     0.191 C 
BRANCH  23  24
ATOM     24  O   UNL     1      19.653  30.259  40.870  1.00  0.00    -0.394 OA
ATOM     25  H   UNL     1      19.361  30.933  40.201  1.00  0.00     0.210 HD
ENDBRANCH  23  24
ENDBRANCH   2  23
BRANCH   6  26
ATOM     26  O   UNL     1      20.278  28.479  35.651  1.00  0.00    -0.387 OA
ATOM     27  H   UNL     1      20.944  29.193  35.823  1.00  0.00     0.211 HD
ENDBRANCH   6  26
BRANCH   5  28
ATOM     28  O   UNL     1      17.814  27.352  36.355  1.00  0.00    -0.385 OA
ATOM     29  H   UNL     1      17.234  26.687  36.811  1.00  0.00     0.211 HD
ENDBRANCH   5  28
BRANCH   4  30
ATOM     30  O   UNL     1      17.600  29.912  36.615  1.00  0.00    -0.341 OA
BRANCH  30  31
ATOM     31  C   UNL     1      16.181  29.701  36.594  1.00  0.00     0.184 C 
ATOM     32  C   UNL     1      15.566  29.489  38.007  1.00  0.00     0.178 C 
ATOM     33  C   UNL     1      15.651  28.640  35.581  1.00  0.00     0.180 C 
ATOM     34  O   UNL     1      14.142  29.583  38.021  1.00  0.00    -0.342 OA
ATOM     35  C   UNL     1      14.242  28.142  35.986  1.00  0.00     0.201 C 
ATOM     36  C   UNL     1      13.485  29.203  36.815  1.00  0.00     0.279 C 
BRANCH  32  37
ATOM     37  C   UNL     1      16.110  30.495  39.029  1.00  0.00     0.191 C 
BRANCH  37  38
ATOM     38  O   UNL     1      16.578  29.842  40.181  1.00  0.00    -0.394 OA
ATOM     39  H   UNL     1      15.788  29.671  40.757  1.00  0.00     0.210 HD
ENDBRANCH  37  38
ENDBRANCH  32  37
BRANCH  33  40
ATOM     40  O   UNL     1      15.590  29.206  34.299  1.00  0.00    -0.387 OA
ATOM     41  H   UNL     1      16.308  28.784  33.760  1.00  0.00     0.211 HD
ENDBRANCH  33  40
BRANCH  35  42
ATOM     42  O   UNL     1      14.364  26.958  36.734  1.00  0.00    -0.385 OA
ATOM     43  H   UNL     1      15.276  26.605  36.578  1.00  0.00     0.211 HD
ENDBRANCH  35  42
BRANCH  36  44
ATOM     44  O   UNL     1      13.239  30.337  36.022  1.00  0.00    -0.366 OA
ATOM     45  H   UNL     1      13.508  31.125  36.569  1.00  0.00     0.213 HD
ENDBRANCH  36  44
ENDBRANCH  30  31
ENDBRANCH   4  30
TORSDOF 18
ENDMDL
MODEL 6
REMARK VINA RESULT:     0.119      1.959      7.381
REMARK INTER + INTRA:           1.813
REMARK INTER:                   1.432
REMARK INTRA:                   0.381
REMARK UNBOUND:                 1.608
REMARK SMILES OC[C@@H]1O[C@@H](O[C@H]2[C@H](O)[C@@H](O)[C@H](O)O[C@@H]2CO)[C@@H](O)[C@@H](O)[C@@H]1O[C@@H]1O[C@H](CO)[C@H](O)[C@H](O)[C@H]1O
REMARK SMILES IDX 22 1 3 2 4 3 5 4 18 5 20 6 23 7 24 8 26 9 29 10 25 11 31 12
REMARK SMILES IDX 33 13 27 14 28 15 30 17 32 19 34 21 2 23 1 24 21 26 19 28
REMARK SMILES IDX 6 30 7 31 15 32 8 33 14 34 10 35 12 36 16 37 17 38 9 40
REMARK SMILES IDX 11 42 13 44
REMARK H PARENT 28 16 30 18 32 20 34 22 1 25 21 27 19 29 17 39 9 41 11 43
REMARK H PARENT 13 45
REMARK Flexibility Score: inf
ROOT
ATOM      1  C   UNL     1      16.914  28.754  37.085  1.00  0.00     0.184 C 
ATOM      2  C   UNL     1      16.102  29.532  38.168  1.00  0.00     0.178 C 
ATOM      3  O   UNL     1      16.939  30.031  39.201  1.00  0.00    -0.341 OA
ATOM      4  C   UNL     1      17.875  31.017  38.766  1.00  0.00     0.282 C 
ATOM      5  C   UNL     1      18.482  30.709  37.362  1.00  0.00     0.202 C 
ATOM      6  C   UNL     1      18.386  29.220  37.029  1.00  0.00     0.180 C 
ENDROOT
BRANCH   1   7
ATOM      7  O   UNL     1      16.308  28.925  35.804  1.00  0.00    -0.341 OA
BRANCH   7   8
ATOM      8  C   UNL     1      15.941  27.706  35.180  1.00  0.00     0.282 C 
ATOM      9  C   UNL     1      17.819  27.389  33.691  1.00  0.00     0.178 C 
ATOM     10  C   UNL     1      16.923  27.597  32.453  1.00  0.00     0.177 C 
ATOM     11  O   UNL     1      17.093  26.933  34.833  1.00  0.00    -0.341 OA
ATOM     12  C   UNL     1      15.764  28.538  32.765  1.00  0.00     0.179 C 
ATOM     13  C   UNL     1      15.000  28.007  33.992  1.00  0.00     0.202 C 
BRANCH   9  14
ATOM     14  C   UNL     1      18.774  28.564  34.022  1.00  0.00     0.191 C 
BRANCH  14  15
ATOM     15  O   UNL     1      19.953  28.059  34.586  1.00  0.00    -0.394 OA
ATOM     16  H   UNL     1      20.397  28.820  35.043  1.00  0.00     0.210 HD
ENDBRANCH  14  15
ENDBRANCH   9  14
BRANCH  10  17
ATOM     17  O   UNL     1      17.682  28.072  31.367  1.00  0.00    -0.387 OA
ATOM     18  H   UNL     1      17.680  29.064  31.427  1.00  0.00     0.211 HD
ENDBRANCH  10  17
BRANCH  12  19
ATOM     19  O   UNL     1      16.250  29.839  32.983  1.00  0.00    -0.387 OA
ATOM     20  H   UNL     1      16.483  30.229  32.095  1.00  0.00     0.211 HD
ENDBRANCH  12  19
BRANCH  13  21
ATOM     21  O   UNL     1      14.295  26.837  33.643  1.00  0.00    -0.385 OA
ATOM     22  H   UNL     1      14.079  26.922  32.675  1.00  0.00     0.211 HD
ENDBRANCH  13  21
ENDBRANCH   7   8
ENDBRANCH   1   7
BRANCH   2  23
ATOM     23  C   UNL     1      15.132  30.606  37.630  1.00  0.00     0.191 C 
BRANCH  23  24
ATOM     24  O   UNL     1      13.832  30.087  37.547  1.00  0.00    -0.394 OA
ATOM     25  H   UNL     1      13.556  29.829  38.466  1.00  0.00     0.210 HD
ENDBRANCH  23  24
ENDBRANCH   2  23
BRANCH   6  26
ATOM     26  O   UNL     1      19.165  28.484  37.933  1.00  0.00    -0.387 OA
ATOM     27  H   UNL     1      19.456  27.660  37.466  1.00  0.00     0.211 HD
ENDBRANCH   6  26
BRANCH   5  28
ATOM     28  O   UNL     1      19.822  31.124  37.274  1.00  0.00    -0.385 OA
ATOM     29  H   UNL     1      20.358  30.475  37.801  1.00  0.00     0.211 HD
ENDBRANCH   5  28
BRANCH   4  30
ATOM     30  O   UNL     1      18.942  31.125  39.702  1.00  0.00    -0.341 OA
BRANCH  30  31
ATOM     31  C   UNL     1      19.543  29.901  40.148  1.00  0.00     0.184 C 
ATOM     32  C   UNL     1      19.087  29.470  41.572  1.00  0.00     0.178 C 
ATOM     33  C   UNL     1      21.091  29.789  39.992  1.00  0.00     0.180 C 
ATOM     34  O   UNL     1      19.436  28.123  41.891  1.00  0.00    -0.342 OA
ATOM     35  C   UNL     1      21.667  28.703  40.932  1.00  0.00     0.201 C 
ATOM     36  C   UNL     1      20.612  27.622  41.259  1.00  0.00     0.279 C 
BRANCH  32  37
ATOM     37  C   UNL     1      17.572  29.615  41.760  1.00  0.00     0.191 C 
BRANCH  37  38
ATOM     38  O   UNL     1      17.209  30.962  41.920  1.00  0.00    -0.394 OA
ATOM     39  H   UNL     1      17.703  31.478  41.229  1.00  0.00     0.210 HD
ENDBRANCH  37  38
ENDBRANCH  32  37
BRANCH  33  40
ATOM     40  O   UNL     1      21.407  29.466  38.665  1.00  0.00    -0.387 OA
ATOM     41  H   UNL     1      22.159  28.821  38.692  1.00  0.00     0.211 HD
ENDBRANCH  33  40
BRANCH  35  42
ATOM     42  O   UNL     1      22.110  29.304  42.124  1.00  0.00    -0.385 OA
ATOM     43  H   UNL     1      21.586  28.907  42.865  1.00  0.00     0.211 HD
ENDBRANCH  35  42
BRANCH  36  44
ATOM     44  O   UNL     1      20.269  26.925  40.088  1.00  0.00    -0.366 OA
ATOM     45  H   UNL     1      21.056  26.993  39.481  1.00  0.00     0.213 HD
ENDBRANCH  36  44
ENDBRANCH  30  31
ENDBRANCH   4  30
TORSDOF 18
ENDMDL
MODEL 7
REMARK VINA RESULT:     0.240      1.575      7.076
REMARK INTER + INTRA:           2.024
REMARK INTER:                  -0.906
REMARK INTRA:                   2.930
REMARK UNBOUND:                 1.608
REMARK SMILES OC[C@@H]1O[C@@H](O[C@H]2[C@H](O)[C@@H](O)[C@H](O)O[C@@H]2CO)[C@@H](O)[C@@H](O)[C@@H]1O[C@@H]1O[C@H](CO)[C@H](O)[C@H](O)[C@H]1O
REMARK SMILES IDX 22 1 3 2 4 3 5 4 18 5 20 6 23 7 24 8 26 9 29 10 25 11 31 12
REMARK SMILES IDX 33 13 27 14 28 15 30 17 32 19 34 21 2 23 1 24 21 26 19 28
REMARK SMILES IDX 6 30 7 31 15 32 8 33 14 34 10 35 12 36 16 37 17 38 9 40
REMARK SMILES IDX 11 42 13 44
REMARK H PARENT 28 16 30 18 32 20 34 22 1 25 21 27 19 29 17 39 9 41 11 43
REMARK H PARENT 13 45
REMARK Flexibility Score: inf
ROOT
ATOM      1  C   UNL     1      16.815  29.934  36.914  1.00  0.00     0.184 C 
ATOM      2  C   UNL     1      18.199  30.629  37.112  1.00  0.00     0.178 C 
ATOM      3  O   UNL     1      18.789  30.288  38.358  1.00  0.00    -0.341 OA
ATOM      4  C   UNL     1      19.129  28.909  38.483  1.00  0.00     0.282 C 
ATOM      5  C   UNL     1      18.071  27.956  37.844  1.00  0.00     0.202 C 
ATOM      6  C   UNL     1      16.705  28.633  37.739  1.00  0.00     0.180 C 
ENDROOT
BRANCH   1   7
ATOM      7  O   UNL     1      16.609  29.644  35.531  1.00  0.00    -0.341 OA
BRANCH   7   8
ATOM      8  C   UNL     1      16.180  28.315  35.286  1.00  0.00     0.282 C 
ATOM      9  C   UNL     1      18.030  27.492  33.964  1.00  0.00     0.178 C 
ATOM     10  C   UNL     1      17.134  27.374  32.713  1.00  0.00     0.177 C 
ATOM     11  O   UNL     1      17.292  27.422  35.185  1.00  0.00    -0.341 OA
ATOM     12  C   UNL     1      16.023  28.418  32.732  1.00  0.00     0.179 C 
ATOM     13  C   UNL     1      15.245  28.302  34.056  1.00  0.00     0.202 C 
BRANCH   9  14
ATOM     14  C   UNL     1      19.041  28.667  33.945  1.00  0.00     0.191 C 
BRANCH  14  15
ATOM     15  O   UNL     1      20.326  28.178  34.215  1.00  0.00    -0.394 OA
ATOM     16  H   UNL     1      20.206  27.296  34.655  1.00  0.00     0.210 HD
ENDBRANCH  14  15
ENDBRANCH   9  14
BRANCH  10  17
ATOM     17  O   UNL     1      17.906  27.478  31.540  1.00  0.00    -0.387 OA
ATOM     18  H   UNL     1      17.897  26.583  31.110  1.00  0.00     0.211 HD
ENDBRANCH  10  17
BRANCH  12  19
ATOM     19  O   UNL     1      16.571  29.702  32.566  1.00  0.00    -0.387 OA
ATOM     20  H   UNL     1      16.448  30.198  33.422  1.00  0.00     0.211 HD
ENDBRANCH  12  19
BRANCH  13  21
ATOM     21  O   UNL     1      14.484  27.116  34.057  1.00  0.00    -0.385 OA
ATOM     22  H   UNL     1      14.777  26.599  34.856  1.00  0.00     0.211 HD
ENDBRANCH  13  21
ENDBRANCH   7   8
ENDBRANCH   1   7
BRANCH   2  23
ATOM     23  C   UNL     1      19.191  30.488  35.937  1.00  0.00     0.191 C 
BRANCH  23  24
ATOM     24  O   UNL     1      20.419  31.081  36.265  1.00  0.00    -0.394 OA
ATOM     25  H   UNL     1      20.615  31.763  35.569  1.00  0.00     0.210 HD
ENDBRANCH  23  24
ENDBRANCH   2  23
BRANCH   6  26
ATOM     26  O   UNL     1      16.217  28.912  39.024  1.00  0.00    -0.387 OA
ATOM     27  H   UNL     1      15.241  28.741  39.010  1.00  0.00     0.211 HD
ENDBRANCH   6  26
BRANCH   5  28
ATOM     28  O   UNL     1      17.947  26.759  38.569  1.00  0.00    -0.385 OA
ATOM     29  H   UNL     1      18.448  26.884  39.418  1.00  0.00     0.211 HD
ENDBRANCH   5  28
BRANCH   4  30
ATOM     30  O   UNL     1      19.273  28.562  39.856  1.00  0.00    -0.341 OA
BRANCH  30  31
ATOM     31  C   UNL     1      20.099  27.429  40.158  1.00  0.00     0.184 C 
ATOM     32  C   UNL     1      21.112  27.082  39.030  1.00  0.00     0.178 C 
ATOM     33  C   UNL     1      19.366  26.151  40.671  1.00  0.00     0.180 C 
ATOM     34  O   UNL     1      22.125  26.165  39.444  1.00  0.00    -0.342 OA
ATOM     35  C   UNL     1      20.244  24.892  40.479  1.00  0.00     0.201 C 
ATOM     36  C   UNL     1      21.747  25.248  40.468  1.00  0.00     0.279 C 
BRANCH  32  37
ATOM     37  C   UNL     1      21.811  28.332  38.481  1.00  0.00     0.191 C 
BRANCH  37  38
ATOM     38  O   UNL     1      21.663  28.422  37.087  1.00  0.00    -0.394 OA
ATOM     39  H   UNL     1      20.714  28.211  36.883  1.00  0.00     0.210 HD
ENDBRANCH  37  38
ENDBRANCH  32  37
BRANCH  33  40
ATOM     40  O   UNL     1      19.062  26.299  42.033  1.00  0.00    -0.387 OA
ATOM     41  H   UNL     1      19.574  27.082  42.362  1.00  0.00     0.211 HD
ENDBRANCH  33  40
BRANCH  35  42
ATOM     42  O   UNL     1      19.900  24.263  39.269  1.00  0.00    -0.385 OA
ATOM     43  H   UNL     1      20.339  24.771  38.540  1.00  0.00     0.211 HD
ENDBRANCH  35  42
BRANCH  36  44
ATOM     44  O   UNL     1      22.125  25.748  41.726  1.00  0.00    -0.366 OA
ATOM     45  H   UNL     1      23.012  25.345  41.933  1.00  0.00     0.213 HD
ENDBRANCH  36  44
ENDBRANCH  30  31
ENDBRANCH   4  30
TORSDOF 18
ENDMDL
MODEL 8
REMARK VINA RESULT:     0.280      1.606      3.712
REMARK INTER + INTRA:           2.093
REMARK INTER:                   0.270
REMARK INTRA:                   1.823
REMARK UNBOUND:                 1.608
REMARK SMILES OC[C@@H]1O[C@@H](O[C@H]2[C@H](O)[C@@H](O)[C@H](O)O[C@@H]2CO)[C@@H](O)[C@@H](O)[C@@H]1O[C@@H]1O[C@H](CO)[C@H](O)[C@H](O)[C@H]1O
REMARK SMILES IDX 22 1 3 2 4 3 5 4 18 5 20 6 23 7 24 8 26 9 29 10 25 11 31 12
REMARK SMILES IDX 33 13 27 14 28 15 30 17 32 19 34 21 2 23 1 24 21 26 19 28
REMARK SMILES IDX 6 30 7 31 15 32 8 33 14 34 10 35 12 36 16 37 17 38 9 40
REMARK SMILES IDX 11 42 13 44
REMARK H PARENT 28 16 30 18 32 20 34 22 1 25 21 27 19 29 17 39 9 41 11 43
REMARK H PARENT 13 45
REMARK Flexibility Score: inf
ROOT
ATOM      1  C   UNL     1      20.669  28.299  38.787  1.00  0.00     0.184 C 
ATOM      2  C   UNL     1      19.401  29.139  39.139  1.00  0.00     0.178 C 
ATOM      3  O   UNL     1      18.918  29.864  38.018  1.00  0.00    -0.341 OA
ATOM      4  C   UNL     1      18.442  29.042  36.954  1.00  0.00     0.282 C 
ATOM      5  C   UNL     1      19.311  27.764  36.731  1.00  0.00     0.202 C 
ATOM      6  C   UNL     1      20.724  27.950  37.283  1.00  0.00     0.180 C 
ENDROOT
BRANCH   1   7
ATOM      7  O   UNL     1      20.688  27.099  39.559  1.00  0.00    -0.341 OA
BRANCH   7   8
ATOM      8  C   UNL     1      20.643  25.918  38.777  1.00  0.00     0.282 C 
ATOM      9  C   UNL     1      19.468  24.436  40.284  1.00  0.00     0.178 C 
ATOM     10  C   UNL     1      20.723  23.554  40.457  1.00  0.00     0.177 C 
ATOM     11  O   UNL     1      19.462  25.158  39.052  1.00  0.00    -0.341 OA
ATOM     12  C   UNL     1      21.998  24.378  40.310  1.00  0.00     0.179 C 
ATOM     13  C   UNL     1      21.959  25.131  38.968  1.00  0.00     0.202 C 
BRANCH   9  14
ATOM     14  C   UNL     1      19.113  25.328  41.501  1.00  0.00     0.191 C 
BRANCH  14  15
ATOM     15  O   UNL     1      17.804  25.808  41.357  1.00  0.00    -0.394 OA
ATOM     16  H   UNL     1      17.777  26.301  40.496  1.00  0.00     0.210 HD
ENDBRANCH  14  15
ENDBRANCH   9  14
BRANCH  10  17
ATOM     17  O   UNL     1      20.692  22.888  41.697  1.00  0.00    -0.387 OA
ATOM     18  H   UNL     1      20.923  21.939  41.520  1.00  0.00     0.211 HD
ENDBRANCH  10  17
BRANCH  12  19
ATOM     19  O   UNL     1      22.123  25.263  41.395  1.00  0.00    -0.387 OA
ATOM     20  H   UNL     1      22.881  24.947  41.960  1.00  0.00     0.211 HD
ENDBRANCH  12  19
BRANCH  13  21
ATOM     21  O   UNL     1      22.119  24.217  37.906  1.00  0.00    -0.385 OA
ATOM     22  H   UNL     1      21.778  23.343  38.239  1.00  0.00     0.211 HD
ENDBRANCH  13  21
ENDBRANCH   7   8
ENDBRANCH   1   7
BRANCH   2  23
ATOM     23  C   UNL     1      18.277  28.376  39.871  1.00  0.00     0.191 C 
BRANCH  23  24
ATOM     24  O   UNL     1      18.153  28.841  41.189  1.00  0.00    -0.394 OA
ATOM     25  H   UNL     1      17.908  29.803  41.142  1.00  0.00     0.210 HD
ENDBRANCH  23  24
ENDBRANCH   2  23
BRANCH   6  26
ATOM     26  O   UNL     1      21.378  28.965  36.571  1.00  0.00    -0.387 OA
ATOM     27  H   UNL     1      22.352  28.797  36.648  1.00  0.00     0.211 HD
ENDBRANCH   6  26
BRANCH   5  28
ATOM     28  O   UNL     1      19.380  27.415  35.372  1.00  0.00    -0.385 OA
ATOM     29  H   UNL     1      20.202  26.869  35.257  1.00  0.00     0.211 HD
ENDBRANCH   5  28
BRANCH   4  30
ATOM     30  O   UNL     1      18.413  29.781  35.738  1.00  0.00    -0.341 OA
BRANCH  30  31
ATOM     31  C   UNL     1      17.575  29.275  34.689  1.00  0.00     0.184 C 
ATOM     32  C   UNL     1      16.436  28.347  35.199  1.00  0.00     0.178 C 
ATOM     33  C   UNL     1      18.303  28.653  33.457  1.00  0.00     0.180 C 
ATOM     34  O   UNL     1      15.434  28.092  34.214  1.00  0.00    -0.342 OA
ATOM     35  C   UNL     1      17.356  27.717  32.667  1.00  0.00     0.201 C 
ATOM     36  C   UNL     1      15.877  28.118  32.859  1.00  0.00     0.279 C 
BRANCH  32  37
ATOM     37  C   UNL     1      15.737  28.921  36.437  1.00  0.00     0.191 C 
BRANCH  37  38
ATOM     38  O   UNL     1      14.376  28.574  36.455  1.00  0.00    -0.394 OA
ATOM     39  H   UNL     1      13.891  29.331  36.878  1.00  0.00     0.210 HD
ENDBRANCH  37  38
ENDBRANCH  32  37
BRANCH  33  40
ATOM     40  O   UNL     1      18.753  29.677  32.611  1.00  0.00    -0.387 OA
ATOM     41  H   UNL     1      18.738  29.320  31.687  1.00  0.00     0.211 HD
ENDBRANCH  33  40
BRANCH  35  42
ATOM     42  O   UNL     1      17.545  26.392  33.097  1.00  0.00    -0.385 OA
ATOM     43  H   UNL     1      16.713  26.112  33.555  1.00  0.00     0.211 HD
ENDBRANCH  35  42
BRANCH  36  44
ATOM     44  O   UNL     1      15.655  29.390  32.304  1.00  0.00    -0.366 OA
ATOM     45  H   UNL     1      15.765  29.289  31.319  1.00  0.00     0.213 HD
ENDBRANCH  36  44
ENDBRANCH  30  31
ENDBRANCH   4  30
TORSDOF 18
ENDMDL
