MODEL 1
REMARK VINA RESULT:    -3.945      0.000      0.000
REMARK INTER + INTRA:          -4.060
REMARK INTER:                  -4.060
REMARK INTRA:                   0.000
REMARK UNBOUND:                 0.000
REMARK SMILES Oc1ccc2[nH]ccc2c1
REMARK SMILES IDX 3 1 4 2 5 3 9 4 8 5 7 6 6 7 10 8 2 9 1 11
REMARK H PARENT 6 10 1 12
REMARK Flexibility Score: inf
ROOT
ATOM      1  C   UNL     1     119.214 117.159 111.934  1.00  0.00     0.048 A 
ATOM      2  C   UNL     1     118.629 118.439 111.949  1.00  0.00     0.030 A 
ATOM      3  C   UNL     1     117.238 118.519 111.926  1.00  0.00     0.046 A 
ATOM      4  C   UNL     1     116.453 117.398 111.890  1.00  0.00     0.003 A 
ATOM      5  C   UNL     1     115.140 117.815 111.875  1.00  0.00     0.028 A 
ATOM      6  C   UNL     1     115.199 119.205 111.903  1.00  0.00     0.083 A 
ATOM      7  N   UNL     1     116.483 119.630 111.934  1.00  0.00    -0.361 N 
ATOM      8  C   UNL     1     116.999 116.117 111.875  1.00  0.00     0.056 A 
ATOM      9  C   UNL     1     118.403 115.998 111.897  1.00  0.00     0.116 A 
ATOM     10  H   UNL     1     116.815 120.620 111.959  1.00  0.00     0.166 HD
ENDROOT
BRANCH   9  11
ATOM     11  O   UNL     1     118.982 114.732 111.883  1.00  0.00    -0.508 OA
ATOM     12  H   UNL     1     118.733 114.029 112.570  1.00  0.00     0.293 HD
ENDBRANCH   9  11
TORSDOF 1
ENDMDL
MODEL 2
REMARK VINA RESULT:    -3.930      2.069      3.378
REMARK INTER + INTRA:          -4.045
REMARK INTER:                  -4.045
REMARK INTRA:                   0.000
REMARK UNBOUND:                 0.000
REMARK SMILES Oc1ccc2[nH]ccc2c1
REMARK SMILES IDX 3 1 4 2 5 3 9 4 8 5 7 6 6 7 10 8 2 9 1 11
REMARK H PARENT 6 10 1 12
REMARK Flexibility Score: inf
ROOT
ATOM      1  C   UNL     1     115.029 118.808 111.905  1.00  0.00     0.048 A 
ATOM      2  C   UNL     1     116.306 119.399 111.932  1.00  0.00     0.030 A 
ATOM      3  C   UNL     1     117.413 118.554 111.973  1.00  0.00     0.046 A 
ATOM      4  C   UNL     1     117.279 117.191 111.987  1.00  0.00     0.003 A 
ATOM      5  C   UNL     1     118.546 116.653 112.028  1.00  0.00     0.028 A 
ATOM      6  C   UNL     1     119.406 117.747 112.037  1.00  0.00     0.083 A 
ATOM      7  N   UNL     1     118.709 118.906 112.003  1.00  0.00    -0.361 N 
ATOM      8  C   UNL     1     116.030 116.574 111.961  1.00  0.00     0.056 A 
ATOM      9  C   UNL     1     114.888 117.399 111.919  1.00  0.00     0.116 A 
ATOM     10  H   UNL     1     119.102 119.874 112.002  1.00  0.00     0.166 HD
ENDROOT
BRANCH   9  11
ATOM     11  O   UNL     1     113.625 116.814 111.892  1.00  0.00    -0.508 OA
ATOM     12  H   UNL     1     112.782 117.376 111.917  1.00  0.00     0.293 HD
ENDBRANCH   9  11
TORSDOF 1
ENDMDL
MODEL 3
REMARK VINA RESULT:    -3.878      2.279      3.284
REMARK INTER + INTRA:          -3.992
REMARK INTER:                  -3.992
REMARK INTRA:                   0.000
REMARK UNBOUND:                 0.000
REMARK SMILES Oc1ccc2[nH]ccc2c1
REMARK SMILES IDX 3 1 4 2 5 3 9 4 8 5 7 6 6 7 10 8 2 9 1 11
REMARK H PARENT 6 10 1 12
REMARK Flexibility Score: inf
ROOT
ATOM      1  C   UNL     1     117.173 113.984 111.977  1.00  0.00     0.048 A 
ATOM      2  C   UNL     1     118.450 114.575 111.941  1.00  0.00     0.030 A 
ATOM      3  C   UNL     1     118.522 115.966 111.919  1.00  0.00     0.046 A 
ATOM      4  C   UNL     1     117.396 116.746 111.933  1.00  0.00     0.003 A 
ATOM      5  C   UNL     1     117.806 118.061 111.906  1.00  0.00     0.028 A 
ATOM      6  C   UNL     1     119.196 118.009 111.875  1.00  0.00     0.083 A 
ATOM      7  N   UNL     1     119.628 116.727 111.883  1.00  0.00    -0.361 N 
ATOM      8  C   UNL     1     116.118 116.193 111.970  1.00  0.00     0.056 A 
ATOM      9  C   UNL     1     116.008 114.789 111.993  1.00  0.00     0.116 A 
ATOM     10  H   UNL     1     120.621 116.400 111.865  1.00  0.00     0.166 HD
ENDROOT
BRANCH   9  11
ATOM     11  O   UNL     1     114.745 114.203 112.030  1.00  0.00    -0.508 OA
ATOM     12  H   UNL     1     114.156 114.165 111.206  1.00  0.00     0.293 HD
ENDBRANCH   9  11
TORSDOF 1
ENDMDL
MODEL 4
REMARK VINA RESULT:    -3.872      2.280      3.255
REMARK INTER + INTRA:          -3.985
REMARK INTER:                  -3.985
REMARK INTRA:                   0.000
REMARK UNBOUND:                 0.000
REMARK SMILES Oc1ccc2[nH]ccc2c1
REMARK SMILES IDX 3 1 4 2 5 3 9 4 8 5 7 6 6 7 10 8 2 9 1 11
REMARK H PARENT 6 10 1 12
REMARK Flexibility Score: inf
ROOT
ATOM      1  C   UNL     1     116.124 119.121 112.164  1.00  0.00     0.048 A 
ATOM      2  C   UNL     1     114.838 118.551 112.120  1.00  0.00     0.030 A 
ATOM      3  C   UNL     1     114.745 117.164 112.022  1.00  0.00     0.046 A 
ATOM      4  C   UNL     1     115.859 116.370 111.971  1.00  0.00     0.003 A 
ATOM      5  C   UNL     1     115.429 115.064 111.878  1.00  0.00     0.028 A 
ATOM      6  C   UNL     1     114.039 115.137 111.878  1.00  0.00     0.083 A 
ATOM      7  N   UNL     1     113.627 116.422 111.966  1.00  0.00    -0.361 N 
ATOM      8  C   UNL     1     117.145 116.901 112.013  1.00  0.00     0.056 A 
ATOM      9  C   UNL     1     117.277 118.300 112.111  1.00  0.00     0.116 A 
ATOM     10  H   UNL     1     112.639 116.763 111.986  1.00  0.00     0.166 HD
ENDROOT
BRANCH   9  11
ATOM     11  O   UNL     1     118.549 118.865 112.155  1.00  0.00    -0.508 OA
ATOM     12  H   UNL     1     118.683 119.852 112.344  1.00  0.00     0.293 HD
ENDBRANCH   9  11
TORSDOF 1
ENDMDL
MODEL 5
REMARK VINA RESULT:    -3.864      4.023      4.321
REMARK INTER + INTRA:          -3.977
REMARK INTER:                  -3.977
REMARK INTRA:                   0.000
REMARK UNBOUND:                 0.000
REMARK SMILES Oc1ccc2[nH]ccc2c1
REMARK SMILES IDX 3 1 4 2 5 3 9 4 8 5 7 6 6 7 10 8 2 9 1 11
REMARK H PARENT 6 10 1 12
REMARK Flexibility Score: inf
ROOT
ATOM      1  C   UNL     1     118.481 113.438 113.583  1.00  0.00     0.048 A 
ATOM      2  C   UNL     1     117.616 113.644 112.492  1.00  0.00     0.030 A 
ATOM      3  C   UNL     1     116.332 114.114 112.760  1.00  0.00     0.046 A 
ATOM      4  C   UNL     1     115.912 114.372 114.037  1.00  0.00     0.003 A 
ATOM      5  C   UNL     1     114.610 114.819 113.961  1.00  0.00     0.028 A 
ATOM      6  C   UNL     1     114.301 114.808 112.604  1.00  0.00     0.083 A 
ATOM      7  N   UNL     1     115.356 114.377 111.875  1.00  0.00    -0.361 N 
ATOM      8  C   UNL     1     116.742 114.180 115.139  1.00  0.00     0.056 A 
ATOM      9  C   UNL     1     118.047 113.705 114.905  1.00  0.00     0.116 A 
ATOM     10  H   UNL     1     115.399 114.271 110.837  1.00  0.00     0.166 HD
ENDROOT
BRANCH   9  11
ATOM     11  O   UNL     1     118.904 113.501 115.984  1.00  0.00    -0.508 OA
ATOM     12  H   UNL     1     119.134 112.569 116.307  1.00  0.00     0.293 HD
ENDBRANCH   9  11
TORSDOF 1
ENDMDL
MODEL 6
REMARK VINA RESULT:    -3.857      1.883      3.079
REMARK INTER + INTRA:          -3.970
REMARK INTER:                  -3.970
REMARK INTRA:                   0.000
REMARK UNBOUND:                 0.000
REMARK SMILES Oc1ccc2[nH]ccc2c1
REMARK SMILES IDX 3 1 4 2 5 3 9 4 8 5 7 6 6 7 10 8 2 9 1 11
REMARK H PARENT 6 10 1 12
REMARK Flexibility Score: inf
ROOT
ATOM      1  C   UNL     1     114.404 114.750 112.122  1.00  0.00     0.048 A 
ATOM      2  C   UNL     1     113.727 115.981 112.223  1.00  0.00     0.030 A 
ATOM      3  C   UNL     1     114.489 117.147 112.173  1.00  0.00     0.046 A 
ATOM      4  C   UNL     1     115.850 117.112 112.031  1.00  0.00     0.003 A 
ATOM      5  C   UNL     1     116.296 118.416 112.017  1.00  0.00     0.028 A 
ATOM      6  C   UNL     1     115.151 119.194 112.155  1.00  0.00     0.083 A 
ATOM      7  N   UNL     1     114.049 118.413 112.250  1.00  0.00    -0.361 N 
ATOM      8  C   UNL     1     116.550 115.912 111.928  1.00  0.00     0.056 A 
ATOM      9  C   UNL     1     115.812 114.713 111.975  1.00  0.00     0.116 A 
ATOM     10  H   UNL     1     113.062 118.735 112.361  1.00  0.00     0.166 HD
ENDROOT
BRANCH   9  11
ATOM     11  O   UNL     1     116.480 113.495 111.875  1.00  0.00    -0.508 OA
ATOM     12  H   UNL     1     116.850 113.167 110.991  1.00  0.00     0.293 HD
ENDBRANCH   9  11
TORSDOF 1
ENDMDL
MODEL 7
REMARK VINA RESULT:    -3.826      3.126      4.295
REMARK INTER + INTRA:          -3.938
REMARK INTER:                  -3.938
REMARK INTRA:                   0.000
REMARK UNBOUND:                 0.000
REMARK SMILES Oc1ccc2[nH]ccc2c1
REMARK SMILES IDX 3 1 4 2 5 3 9 4 8 5 7 6 6 7 10 8 2 9 1 11
REMARK H PARENT 6 10 1 12
REMARK Flexibility Score: inf
ROOT
ATOM      1  C   UNL     1     118.517 117.621 114.033  1.00  0.00     0.048 A 
ATOM      2  C   UNL     1     118.541 116.393 114.721  1.00  0.00     0.030 A 
ATOM      3  C   UNL     1     118.535 115.223 113.962  1.00  0.00     0.046 A 
ATOM      4  C   UNL     1     118.508 115.253 112.594  1.00  0.00     0.003 A 
ATOM      5  C   UNL     1     118.509 113.947 112.154  1.00  0.00     0.028 A 
ATOM      6  C   UNL     1     118.539 113.173 113.310  1.00  0.00     0.083 A 
ATOM      7  N   UNL     1     118.554 113.958 114.412  1.00  0.00    -0.361 N 
ATOM      8  C   UNL     1     118.484 116.450 111.883  1.00  0.00     0.056 A 
ATOM      9  C   UNL     1     118.489 117.652 112.617  1.00  0.00     0.116 A 
ATOM     10  H   UNL     1     118.577 113.640 115.407  1.00  0.00     0.166 HD
ENDROOT
BRANCH   9  11
ATOM     11  O   UNL     1     118.466 118.868 111.938  1.00  0.00    -0.508 OA
ATOM     12  H   UNL     1     118.908 118.976 111.033  1.00  0.00     0.293 HD
ENDBRANCH   9  11
TORSDOF 1
ENDMDL
MODEL 8
REMARK VINA RESULT:    -3.807      2.749      3.935
REMARK INTER + INTRA:          -3.918
REMARK INTER:                  -3.918
REMARK INTRA:                   0.000
REMARK UNBOUND:                 0.000
REMARK SMILES Oc1ccc2[nH]ccc2c1
REMARK SMILES IDX 3 1 4 2 5 3 9 4 8 5 7 6 6 7 10 8 2 9 1 11
REMARK H PARENT 6 10 1 12
REMARK Flexibility Score: inf
ROOT
ATOM      1  C   UNL     1     115.536 118.505 114.009  1.00  0.00     0.048 A 
ATOM      2  C   UNL     1     116.743 118.502 114.733  1.00  0.00     0.030 A 
ATOM      3  C   UNL     1     117.934 118.500 114.010  1.00  0.00     0.046 A 
ATOM      4  C   UNL     1     117.946 118.502 112.641  1.00  0.00     0.003 A 
ATOM      5  C   UNL     1     119.264 118.499 112.240  1.00  0.00     0.028 A 
ATOM      6  C   UNL     1     120.003 118.496 113.419  1.00  0.00     0.083 A 
ATOM      7  N   UNL     1     119.186 118.496 114.497  1.00  0.00    -0.361 N 
ATOM      8  C   UNL     1     116.770 118.506 111.894  1.00  0.00     0.056 A 
ATOM      9  C   UNL     1     115.547 118.507 112.592  1.00  0.00     0.116 A 
ATOM     10  H   UNL     1     119.474 118.494 115.502  1.00  0.00     0.166 HD
ENDROOT
BRANCH   9  11
ATOM     11  O   UNL     1     114.352 118.511 111.877  1.00  0.00    -0.508 OA
ATOM     12  H   UNL     1     114.145 117.796 111.190  1.00  0.00     0.293 HD
ENDBRANCH   9  11
TORSDOF 1
ENDMDL
