MODEL 1
REMARK VINA RESULT:    -4.760      0.000      0.000
REMARK INTER + INTRA:          -5.824
REMARK INTER:                  -5.595
REMARK INTRA:                  -0.228
REMARK UNBOUND:                -0.228
REMARK SMILES O=c1c(O)c(-c2ccc(O)cc2)oc2cc(O)cc(O)c12
REMARK SMILES IDX 5 1 3 2 2 3 1 4 21 5 19 6 18 7 16 8 15 9 14 10 13 11 6 12
REMARK SMILES IDX 7 13 8 14 9 15 12 16 11 17 10 18 4 20 20 22 17 24
REMARK H PARENT 10 19 4 21 20 23 17 25
REMARK Flexibility Score: inf
ROOT
ATOM      1  C   UNL     1       9.753  12.103  60.871  1.00  0.00     0.180 A 
ATOM      2  C   UNL     1       9.554  10.981  61.695  1.00  0.00     0.208 A 
ATOM      3  C   UNL     1       9.880   9.708  61.201  1.00  0.00     0.238 A 
ATOM      4  O   UNL     1       9.649   8.702  61.921  1.00  0.00    -0.285 OA
ATOM      5  C   UNL     1      10.415   9.573  59.896  1.00  0.00     0.111 A 
ATOM      6  C   UNL     1      10.818   8.337  59.309  1.00  0.00     0.134 A 
ATOM      7  C   UNL     1      11.211   8.307  57.965  1.00  0.00     0.093 A 
ATOM      8  C   UNL     1      11.279   9.479  57.207  1.00  0.00     0.123 A 
ATOM      9  C   UNL     1      10.944  10.699  57.790  1.00  0.00     0.094 A 
ATOM     10  C   UNL     1      10.514  10.756  59.117  1.00  0.00     0.146 A 
ATOM     11  O   UNL     1      10.194  11.939  59.630  1.00  0.00    -0.452 OA
ENDROOT
BRANCH   1  12
ATOM     12  C   UNL     1       9.456  13.479  61.331  1.00  0.00     0.021 A 
ATOM     13  C   UNL     1       8.134  13.948  61.436  1.00  0.00     0.016 A 
ATOM     14  C   UNL     1       7.877  15.244  61.896  1.00  0.00     0.047 A 
ATOM     15  C   UNL     1       8.937  16.081  62.268  1.00  0.00     0.115 A 
ATOM     16  C   UNL     1      10.511  14.319  61.726  1.00  0.00     0.016 A 
ATOM     17  C   UNL     1      10.252  15.614  62.184  1.00  0.00     0.047 A 
BRANCH  15  18
ATOM     18  O   UNL     1       8.694  17.374  62.726  1.00  0.00    -0.508 OA
ATOM     19  H   UNL     1       7.847  17.606  63.232  1.00  0.00     0.293 HD
ENDBRANCH  15  18
ENDBRANCH   1  12
BRANCH   2  20
ATOM     20  O   UNL     1       9.004  11.133  62.970  1.00  0.00    -0.502 OA
ATOM     21  H   UNL     1       8.005  11.183  63.130  1.00  0.00     0.293 HD
ENDBRANCH   2  20
BRANCH   6  22
ATOM     22  O   UNL     1      10.876   7.126  60.003  1.00  0.00    -0.507 OA
ATOM     23  H   UNL     1      11.608   6.866  60.647  1.00  0.00     0.293 HD
ENDBRANCH   6  22
BRANCH   8  24
ATOM     24  O   UNL     1      11.687   9.442  55.876  1.00  0.00    -0.508 OA
ATOM     25  H   UNL     1      11.180   8.907  55.181  1.00  0.00     0.293 HD
ENDBRANCH   8  24
TORSDOF 5
ENDMDL
MODEL 2
REMARK VINA RESULT:    -4.634      9.644     11.573
REMARK INTER + INTRA:          -5.675
REMARK INTER:                  -5.472
REMARK INTRA:                  -0.203
REMARK UNBOUND:                -0.228
REMARK SMILES O=c1c(O)c(-c2ccc(O)cc2)oc2cc(O)cc(O)c12
REMARK SMILES IDX 5 1 3 2 2 3 1 4 21 5 19 6 18 7 16 8 15 9 14 10 13 11 6 12
REMARK SMILES IDX 7 13 8 14 9 15 12 16 11 17 10 18 4 20 20 22 17 24
REMARK H PARENT 10 19 4 21 20 23 17 25
REMARK Flexibility Score: inf
ROOT
ATOM      1  C   UNL     1       2.197  18.365  59.377  1.00  0.00     0.180 A 
ATOM      2  C   UNL     1       2.854  17.605  60.360  1.00  0.00     0.208 A 
ATOM      3  C   UNL     1       2.101  16.740  61.168  1.00  0.00     0.238 A 
ATOM      4  O   UNL     1       2.687  16.103  62.082  1.00  0.00    -0.285 OA
ATOM      5  C   UNL     1       0.702  16.632  60.974  1.00  0.00     0.111 A 
ATOM      6  C   UNL     1      -0.153  15.758  61.708  1.00  0.00     0.134 A 
ATOM      7  C   UNL     1      -1.539  15.830  61.522  1.00  0.00     0.093 A 
ATOM      8  C   UNL     1      -2.095  16.700  60.579  1.00  0.00     0.123 A 
ATOM      9  C   UNL     1      -1.263  17.514  59.816  1.00  0.00     0.094 A 
ATOM     10  C   UNL     1       0.120  17.491  60.005  1.00  0.00     0.146 A 
ATOM     11  O   UNL     1       0.876  18.292  59.262  1.00  0.00    -0.452 OA
ENDROOT
BRANCH   1  12
ATOM     12  C   UNL     1       2.926  19.280  58.470  1.00  0.00     0.021 A 
ATOM     13  C   UNL     1       3.789  18.790  57.472  1.00  0.00     0.016 A 
ATOM     14  C   UNL     1       4.448  19.673  56.610  1.00  0.00     0.047 A 
ATOM     15  C   UNL     1       4.244  21.054  56.727  1.00  0.00     0.115 A 
ATOM     16  C   UNL     1       2.712  20.666  58.565  1.00  0.00     0.016 A 
ATOM     17  C   UNL     1       3.373  21.546  57.704  1.00  0.00     0.047 A 
BRANCH  15  18
ATOM     18  O   UNL     1       4.897  21.943  55.876  1.00  0.00    -0.508 OA
ATOM     19  H   UNL     1       4.717  22.939  55.912  1.00  0.00     0.293 HD
ENDBRANCH  15  18
ENDBRANCH   1  12
BRANCH   2  20
ATOM     20  O   UNL     1       4.232  17.742  60.549  1.00  0.00    -0.502 OA
ATOM     21  H   UNL     1       4.809  16.992  60.909  1.00  0.00     0.293 HD
ENDBRANCH   2  20
BRANCH   6  22
ATOM     22  O   UNL     1       0.305  14.790  62.606  1.00  0.00    -0.507 OA
ATOM     23  H   UNL     1       1.221  14.786  63.029  1.00  0.00     0.293 HD
ENDBRANCH   6  22
BRANCH   8  24
ATOM     24  O   UNL     1      -3.474  16.754  60.389  1.00  0.00    -0.508 OA
ATOM     25  H   UNL     1      -3.895  16.530  59.494  1.00  0.00     0.293 HD
ENDBRANCH   8  24
TORSDOF 5
ENDMDL
MODEL 3
REMARK VINA RESULT:    -4.593      1.888      6.911
REMARK INTER + INTRA:          -5.627
REMARK INTER:                  -5.338
REMARK INTRA:                  -0.289
REMARK UNBOUND:                -0.228
REMARK SMILES O=c1c(O)c(-c2ccc(O)cc2)oc2cc(O)cc(O)c12
REMARK SMILES IDX 5 1 3 2 2 3 1 4 21 5 19 6 18 7 16 8 15 9 14 10 13 11 6 12
REMARK SMILES IDX 7 13 8 14 9 15 12 16 11 17 10 18 4 20 20 22 17 24
REMARK H PARENT 10 19 4 21 20 23 17 25
REMARK Flexibility Score: inf
ROOT
ATOM      1  C   UNL     1      10.753  11.118  59.572  1.00  0.00     0.180 A 
ATOM      2  C   UNL     1      11.875  11.908  59.876  1.00  0.00     0.208 A 
ATOM      3  C   UNL     1      11.710  13.037  60.694  1.00  0.00     0.238 A 
ATOM      4  O   UNL     1      12.708  13.772  60.917  1.00  0.00    -0.285 OA
ATOM      5  C   UNL     1      10.430  13.354  61.210  1.00  0.00     0.111 A 
ATOM      6  C   UNL     1      10.156  14.450  62.081  1.00  0.00     0.134 A 
ATOM      7  C   UNL     1       8.830  14.745  62.424  1.00  0.00     0.093 A 
ATOM      8  C   UNL     1       7.776  13.941  61.982  1.00  0.00     0.123 A 
ATOM      9  C   UNL     1       8.041  12.834  61.180  1.00  0.00     0.094 A 
ATOM     10  C   UNL     1       9.348  12.536  60.791  1.00  0.00     0.146 A 
ATOM     11  O   UNL     1       9.555  11.476  60.017  1.00  0.00    -0.452 OA
ENDROOT
BRANCH   1  12
ATOM     12  C   UNL     1      10.851   9.898  58.738  1.00  0.00     0.021 A 
ATOM     13  C   UNL     1      10.740   9.958  57.336  1.00  0.00     0.016 A 
ATOM     14  C   UNL     1      10.861   8.796  56.567  1.00  0.00     0.047 A 
ATOM     15  C   UNL     1      11.107   7.564  57.187  1.00  0.00     0.115 A 
ATOM     16  C   UNL     1      11.119   8.661  59.349  1.00  0.00     0.016 A 
ATOM     17  C   UNL     1      11.239   7.502  58.578  1.00  0.00     0.047 A 
BRANCH  15  18
ATOM     18  O   UNL     1      11.228   6.400  56.431  1.00  0.00    -0.508 OA
ATOM     19  H   UNL     1      10.968   6.376  55.452  1.00  0.00     0.293 HD
ENDBRANCH  15  18
ENDBRANCH   1  12
BRANCH   2  20
ATOM     20  O   UNL     1      13.125  11.591  59.338  1.00  0.00    -0.502 OA
ATOM     21  H   UNL     1      13.714  12.280  58.887  1.00  0.00     0.293 HD
ENDBRANCH   2  20
BRANCH   6  22
ATOM     22  O   UNL     1      11.142  15.259  62.652  1.00  0.00    -0.507 OA
ATOM     23  H   UNL     1      11.528  15.129  63.576  1.00  0.00     0.293 HD
ENDBRANCH   6  22
BRANCH   8  24
ATOM     24  O   UNL     1       6.462  14.232  62.342  1.00  0.00    -0.508 OA
ATOM     25  H   UNL     1       5.946  14.986  61.904  1.00  0.00     0.293 HD
ENDBRANCH   8  24
TORSDOF 5
ENDMDL
MODEL 4
REMARK VINA RESULT:    -4.572     11.219     14.227
REMARK INTER + INTRA:          -5.602
REMARK INTER:                  -5.309
REMARK INTRA:                  -0.293
REMARK UNBOUND:                -0.228
REMARK SMILES O=c1c(O)c(-c2ccc(O)cc2)oc2cc(O)cc(O)c12
REMARK SMILES IDX 5 1 3 2 2 3 1 4 21 5 19 6 18 7 16 8 15 9 14 10 13 11 6 12
REMARK SMILES IDX 7 13 8 14 9 15 12 16 11 17 10 18 4 20 20 22 17 24
REMARK H PARENT 10 19 4 21 20 23 17 25
REMARK Flexibility Score: inf
ROOT
ATOM      1  C   UNL     1      -2.398  13.747  59.731  1.00  0.00     0.180 A 
ATOM      2  C   UNL     1      -3.783  13.954  59.853  1.00  0.00     0.208 A 
ATOM      3  C   UNL     1      -4.279  15.267  59.840  1.00  0.00     0.238 A 
ATOM      4  O   UNL     1      -5.514  15.448  60.004  1.00  0.00    -0.285 OA
ATOM      5  C   UNL     1      -3.387  16.356  59.690  1.00  0.00     0.111 A 
ATOM      6  C   UNL     1      -3.784  17.725  59.623  1.00  0.00     0.134 A 
ATOM      7  C   UNL     1      -2.805  18.727  59.606  1.00  0.00     0.093 A 
ATOM      8  C   UNL     1      -1.445  18.406  59.586  1.00  0.00     0.123 A 
ATOM      9  C   UNL     1      -1.050  17.071  59.590  1.00  0.00     0.094 A 
ATOM     10  C   UNL     1      -2.002  16.050  59.644  1.00  0.00     0.146 A 
ATOM     11  O   UNL     1      -1.581  14.791  59.658  1.00  0.00    -0.452 OA
ENDROOT
BRANCH   1  12
ATOM     12  C   UNL     1      -1.803  12.391  59.711  1.00  0.00     0.021 A 
ATOM     13  C   UNL     1      -1.720  11.645  58.521  1.00  0.00     0.016 A 
ATOM     14  C   UNL     1      -1.130  10.377  58.521  1.00  0.00     0.047 A 
ATOM     15  C   UNL     1      -0.606   9.844  59.707  1.00  0.00     0.115 A 
ATOM     16  C   UNL     1      -1.256  11.858  60.890  1.00  0.00     0.016 A 
ATOM     17  C   UNL     1      -0.669  10.589  60.888  1.00  0.00     0.047 A 
BRANCH  15  18
ATOM     18  O   UNL     1      -0.019   8.581  59.720  1.00  0.00    -0.508 OA
ATOM     19  H   UNL     1       0.636   8.310  60.444  1.00  0.00     0.293 HD
ENDBRANCH  15  18
ENDBRANCH   1  12
BRANCH   2  20
ATOM     20  O   UNL     1      -4.644  12.866  60.021  1.00  0.00    -0.502 OA
ATOM     21  H   UNL     1      -4.943  12.284  59.248  1.00  0.00     0.293 HD
ENDBRANCH   2  20
BRANCH   6  22
ATOM     22  O   UNL     1      -5.113  18.150  59.546  1.00  0.00    -0.507 OA
ATOM     23  H   UNL     1      -5.907  17.612  59.859  1.00  0.00     0.293 HD
ENDBRANCH   6  22
BRANCH   8  24
ATOM     24  O   UNL     1      -0.479  19.410  59.551  1.00  0.00    -0.508 OA
ATOM     25  H   UNL     1       0.484  19.211  59.306  1.00  0.00     0.293 HD
ENDBRANCH   8  24
TORSDOF 5
ENDMDL
MODEL 5
REMARK VINA RESULT:    -4.569     12.675     16.089
REMARK INTER + INTRA:          -5.599
REMARK INTER:                  -5.299
REMARK INTRA:                  -0.300
REMARK UNBOUND:                -0.228
REMARK SMILES O=c1c(O)c(-c2ccc(O)cc2)oc2cc(O)cc(O)c12
REMARK SMILES IDX 5 1 3 2 2 3 1 4 21 5 19 6 18 7 16 8 15 9 14 10 13 11 6 12
REMARK SMILES IDX 7 13 8 14 9 15 12 16 11 17 10 18 4 20 20 22 17 24
REMARK H PARENT 10 19 4 21 20 23 17 25
REMARK Flexibility Score: inf
ROOT
ATOM      1  C   UNL     1       4.560  14.099  73.403  1.00  0.00     0.180 A 
ATOM      2  C   UNL     1       4.792  15.456  73.123  1.00  0.00     0.208 A 
ATOM      3  C   UNL     1       3.728  16.365  73.232  1.00  0.00     0.238 A 
ATOM      4  O   UNL     1       3.929  17.570  72.927  1.00  0.00    -0.285 OA
ATOM      5  C   UNL     1       2.450  15.909  73.635  1.00  0.00     0.111 A 
ATOM      6  C   UNL     1       1.310  16.748  73.818  1.00  0.00     0.134 A 
ATOM      7  C   UNL     1       0.064  16.171  74.091  1.00  0.00     0.093 A 
ATOM      8  C   UNL     1      -0.070  14.789  74.254  1.00  0.00     0.123 A 
ATOM      9  C   UNL     1       1.049  13.968  74.136  1.00  0.00     0.094 A 
ATOM     10  C   UNL     1       2.298  14.511  73.828  1.00  0.00     0.146 A 
ATOM     11  O   UNL     1       3.336  13.690  73.714  1.00  0.00    -0.452 OA
ENDROOT
BRANCH   1  12
ATOM     12  C   UNL     1       5.637  13.085  73.334  1.00  0.00     0.021 A 
ATOM     13  C   UNL     1       6.458  12.810  74.444  1.00  0.00     0.016 A 
ATOM     14  C   UNL     1       7.453  11.830  74.363  1.00  0.00     0.047 A 
ATOM     15  C   UNL     1       7.632  11.105  73.177  1.00  0.00     0.115 A 
ATOM     16  C   UNL     1       5.811  12.338  72.156  1.00  0.00     0.016 A 
ATOM     17  C   UNL     1       6.807  11.360  72.078  1.00  0.00     0.047 A 
BRANCH  15  18
ATOM     18  O   UNL     1       8.621  10.129  73.084  1.00  0.00    -0.508 OA
ATOM     19  H   UNL     1       9.350  10.179  72.383  1.00  0.00     0.293 HD
ENDBRANCH  15  18
ENDBRANCH   1  12
BRANCH   2  20
ATOM     20  O   UNL     1       6.057  15.882  72.705  1.00  0.00    -0.502 OA
ATOM     21  H   UNL     1       6.423  15.677  71.784  1.00  0.00     0.293 HD
ENDBRANCH   2  20
BRANCH   6  22
ATOM     22  O   UNL     1       1.353  18.144  73.768  1.00  0.00    -0.507 OA
ATOM     23  H   UNL     1       1.827  18.729  74.440  1.00  0.00     0.293 HD
ENDBRANCH   6  22
BRANCH   8  24
ATOM     24  O   UNL     1      -1.311  14.225  74.542  1.00  0.00    -0.508 OA
ATOM     25  H   UNL     1      -2.142  14.477  74.021  1.00  0.00     0.293 HD
ENDBRANCH   8  24
TORSDOF 5
ENDMDL
MODEL 6
REMARK VINA RESULT:    -4.564     14.698     16.208
REMARK INTER + INTRA:          -5.592
REMARK INTER:                  -5.300
REMARK INTRA:                  -0.293
REMARK UNBOUND:                -0.228
REMARK SMILES O=c1c(O)c(-c2ccc(O)cc2)oc2cc(O)cc(O)c12
REMARK SMILES IDX 5 1 3 2 2 3 1 4 21 5 19 6 18 7 16 8 15 9 14 10 13 11 6 12
REMARK SMILES IDX 7 13 8 14 9 15 12 16 11 17 10 18 4 20 20 22 17 24
REMARK H PARENT 10 19 4 21 20 23 17 25
REMARK Flexibility Score: inf
ROOT
ATOM      1  C   UNL     1       2.881  16.326  73.889  1.00  0.00     0.180 A 
ATOM      2  C   UNL     1       4.143  15.825  73.527  1.00  0.00     0.208 A 
ATOM      3  C   UNL     1       4.348  14.436  73.522  1.00  0.00     0.238 A 
ATOM      4  O   UNL     1       5.495  13.996  73.251  1.00  0.00    -0.285 OA
ATOM      5  C   UNL     1       3.285  13.565  73.864  1.00  0.00     0.111 A 
ATOM      6  C   UNL     1       3.369  12.141  73.854  1.00  0.00     0.134 A 
ATOM      7  C   UNL     1       2.295  11.383  74.337  1.00  0.00     0.093 A 
ATOM      8  C   UNL     1       1.115  11.996  74.767  1.00  0.00     0.123 A 
ATOM      9  C   UNL     1       1.003  13.383  74.724  1.00  0.00     0.094 A 
ATOM     10  C   UNL     1       2.070  14.168  74.282  1.00  0.00     0.146 A 
ATOM     11  O   UNL     1       1.923  15.488  74.268  1.00  0.00    -0.452 OA
ENDROOT
BRANCH   1  12
ATOM     12  C   UNL     1       2.581  17.776  73.893  1.00  0.00     0.021 A 
ATOM     13  C   UNL     1       2.189  18.448  72.720  1.00  0.00     0.016 A 
ATOM     14  C   UNL     1       1.886  19.813  72.753  1.00  0.00     0.047 A 
ATOM     15  C   UNL     1       1.959  20.521  73.960  1.00  0.00     0.115 A 
ATOM     16  C   UNL     1       2.630  18.490  75.102  1.00  0.00     0.016 A 
ATOM     17  C   UNL     1       2.329  19.855  75.133  1.00  0.00     0.047 A 
BRANCH  15  18
ATOM     18  O   UNL     1       1.662  21.881  74.005  1.00  0.00    -0.508 OA
ATOM     19  H   UNL     1       1.430  22.399  73.166  1.00  0.00     0.293 HD
ENDBRANCH  15  18
ENDBRANCH   1  12
BRANCH   2  20
ATOM     20  O   UNL     1       5.185  16.703  73.214  1.00  0.00    -0.502 OA
ATOM     21  H   UNL     1       5.225  17.208  72.337  1.00  0.00     0.293 HD
ENDBRANCH   2  20
BRANCH   6  22
ATOM     22  O   UNL     1       4.464  11.427  73.361  1.00  0.00    -0.507 OA
ATOM     23  H   UNL     1       4.559  10.423  73.394  1.00  0.00     0.293 HD
ENDBRANCH   6  22
BRANCH   8  24
ATOM     24  O   UNL     1       0.045  11.233  75.230  1.00  0.00    -0.508 OA
ATOM     25  H   UNL     1       0.176  10.495  75.912  1.00  0.00     0.293 HD
ENDBRANCH   8  24
TORSDOF 5
ENDMDL
MODEL 7
REMARK VINA RESULT:    -4.488     10.791     14.072
REMARK INTER + INTRA:          -5.503
REMARK INTER:                  -5.399
REMARK INTRA:                  -0.104
REMARK UNBOUND:                -0.228
REMARK SMILES O=c1c(O)c(-c2ccc(O)cc2)oc2cc(O)cc(O)c12
REMARK SMILES IDX 5 1 3 2 2 3 1 4 21 5 19 6 18 7 16 8 15 9 14 10 13 11 6 12
REMARK SMILES IDX 7 13 8 14 9 15 12 16 11 17 10 18 4 20 20 22 17 24
REMARK H PARENT 10 19 4 21 20 23 17 25
REMARK Flexibility Score: inf
ROOT
ATOM      1  C   UNL     1      -0.857  17.375  59.667  1.00  0.00     0.180 A 
ATOM      2  C   UNL     1      -1.465  16.156  59.321  1.00  0.00     0.208 A 
ATOM      3  C   UNL     1      -2.847  16.130  59.078  1.00  0.00     0.238 A 
ATOM      4  O   UNL     1      -3.395  15.026  58.822  1.00  0.00    -0.285 OA
ATOM      5  C   UNL     1      -3.602  17.325  59.168  1.00  0.00     0.111 A 
ATOM      6  C   UNL     1      -5.001  17.422  58.904  1.00  0.00     0.134 A 
ATOM      7  C   UNL     1      -5.669  18.628  59.152  1.00  0.00     0.093 A 
ATOM      8  C   UNL     1      -4.975  19.758  59.592  1.00  0.00     0.123 A 
ATOM      9  C   UNL     1      -3.599  19.689  59.796  1.00  0.00     0.094 A 
ATOM     10  C   UNL     1      -2.912  18.490  59.592  1.00  0.00     0.146 A 
ATOM     11  O   UNL     1      -1.601  18.466  59.808  1.00  0.00    -0.452 OA
ENDROOT
BRANCH   1  12
ATOM     12  C   UNL     1       0.599  17.488  59.914  1.00  0.00     0.021 A 
ATOM     13  C   UNL     1       1.417  18.307  59.113  1.00  0.00     0.016 A 
ATOM     14  C   UNL     1       2.785  18.416  59.381  1.00  0.00     0.047 A 
ATOM     15  C   UNL     1       3.350  17.720  60.457  1.00  0.00     0.115 A 
ATOM     16  C   UNL     1       1.171  16.809  61.003  1.00  0.00     0.016 A 
ATOM     17  C   UNL     1       2.539  16.920  61.267  1.00  0.00     0.047 A 
BRANCH  15  18
ATOM     18  O   UNL     1       4.712  17.819  60.732  1.00  0.00    -0.508 OA
ATOM     19  H   UNL     1       5.062  18.434  61.457  1.00  0.00     0.293 HD
ENDBRANCH  15  18
ENDBRANCH   1  12
BRANCH   2  20
ATOM     20  O   UNL     1      -0.706  14.985  59.258  1.00  0.00    -0.502 OA
ATOM     21  H   UNL     1      -0.411  14.574  58.381  1.00  0.00     0.293 HD
ENDBRANCH   2  20
BRANCH   6  22
ATOM     22  O   UNL     1      -5.769  16.381  58.376  1.00  0.00    -0.507 OA
ATOM     23  H   UNL     1      -6.562  15.960  58.838  1.00  0.00     0.293 HD
ENDBRANCH   6  22
BRANCH   8  24
ATOM     24  O   UNL     1      -5.645  20.959  59.821  1.00  0.00    -0.508 OA
ATOM     25  H   UNL     1      -6.134  21.442  59.078  1.00  0.00     0.293 HD
ENDBRANCH   8  24
TORSDOF 5
ENDMDL
MODEL 8
REMARK VINA RESULT:    -4.461     13.168     16.323
REMARK INTER + INTRA:          -5.472
REMARK INTER:                  -5.189
REMARK INTRA:                  -0.283
REMARK UNBOUND:                -0.228
REMARK SMILES O=c1c(O)c(-c2ccc(O)cc2)oc2cc(O)cc(O)c12
REMARK SMILES IDX 5 1 3 2 2 3 1 4 21 5 19 6 18 7 16 8 15 9 14 10 13 11 6 12
REMARK SMILES IDX 7 13 8 14 9 15 12 16 11 17 10 18 4 20 20 22 17 24
REMARK H PARENT 10 19 4 21 20 23 17 25
REMARK Flexibility Score: inf
ROOT
ATOM      1  C   UNL     1       3.526  13.208  73.684  1.00  0.00     0.180 A 
ATOM      2  C   UNL     1       2.499  12.358  74.130  1.00  0.00     0.208 A 
ATOM      3  C   UNL     1       1.225  12.897  74.369  1.00  0.00     0.238 A 
ATOM      4  O   UNL     1       0.324  12.142  74.819  1.00  0.00    -0.285 OA
ATOM      5  C   UNL     1       0.989  14.275  74.146  1.00  0.00     0.111 A 
ATOM      6  C   UNL     1      -0.272  14.920  74.317  1.00  0.00     0.134 A 
ATOM      7  C   UNL     1      -0.358  16.313  74.193  1.00  0.00     0.093 A 
ATOM      8  C   UNL     1       0.758  17.075  73.840  1.00  0.00     0.123 A 
ATOM      9  C   UNL     1       1.980  16.447  73.613  1.00  0.00     0.094 A 
ATOM     10  C   UNL     1       2.105  15.064  73.764  1.00  0.00     0.146 A 
ATOM     11  O   UNL     1       3.292  14.507  73.547  1.00  0.00    -0.452 OA
ENDROOT
BRANCH   1  12
ATOM     12  C   UNL     1       4.888  12.708  73.387  1.00  0.00     0.021 A 
ATOM     13  C   UNL     1       5.905  12.728  74.359  1.00  0.00     0.016 A 
ATOM     14  C   UNL     1       7.177  12.228  74.062  1.00  0.00     0.047 A 
ATOM     15  C   UNL     1       7.445  11.691  72.796  1.00  0.00     0.115 A 
ATOM     16  C   UNL     1       5.160  12.149  72.126  1.00  0.00     0.016 A 
ATOM     17  C   UNL     1       6.432  11.652  71.832  1.00  0.00     0.047 A 
BRANCH  15  18
ATOM     18  O   UNL     1       8.708  11.192  72.488  1.00  0.00    -0.508 OA
ATOM     19  H   UNL     1       8.825  10.335  71.961  1.00  0.00     0.293 HD
ENDBRANCH  15  18
ENDBRANCH   1  12
BRANCH   2  20
ATOM     20  O   UNL     1       2.758  11.005  74.364  1.00  0.00    -0.502 OA
ATOM     21  H   UNL     1       2.243  10.264  73.903  1.00  0.00     0.293 HD
ENDBRANCH   2  20
BRANCH   6  22
ATOM     22  O   UNL     1      -1.466  14.242  74.580  1.00  0.00    -0.507 OA
ATOM     23  H   UNL     1      -2.202  14.586  75.179  1.00  0.00     0.293 HD
ENDBRANCH   6  22
BRANCH   8  24
ATOM     24  O   UNL     1       0.660  18.458  73.703  1.00  0.00    -0.508 OA
ATOM     25  H   UNL     1      -0.104  18.888  73.194  1.00  0.00     0.293 HD
ENDBRANCH   8  24
TORSDOF 5
ENDMDL
MODEL 9
REMARK VINA RESULT:    -4.413     13.108     15.702
REMARK INTER + INTRA:          -5.415
REMARK INTER:                  -5.186
REMARK INTRA:                  -0.228
REMARK UNBOUND:                -0.228
REMARK SMILES O=c1c(O)c(-c2ccc(O)cc2)oc2cc(O)cc(O)c12
REMARK SMILES IDX 5 1 3 2 2 3 1 4 21 5 19 6 18 7 16 8 15 9 14 10 13 11 6 12
REMARK SMILES IDX 7 13 8 14 9 15 12 16 11 17 10 18 4 20 20 22 17 24
REMARK H PARENT 10 19 4 21 20 23 17 25
REMARK Flexibility Score: inf
ROOT
ATOM      1  C   UNL     1       3.355  16.540  73.840  1.00  0.00     0.180 A 
ATOM      2  C   UNL     1       4.501  16.823  73.077  1.00  0.00     0.208 A 
ATOM      3  C   UNL     1       5.308  15.760  72.641  1.00  0.00     0.238 A 
ATOM      4  O   UNL     1       6.362  16.023  72.006  1.00  0.00    -0.285 OA
ATOM      5  C   UNL     1       4.952  14.427  72.960  1.00  0.00     0.111 A 
ATOM      6  C   UNL     1       5.674  13.272  72.537  1.00  0.00     0.134 A 
ATOM      7  C   UNL     1       5.303  12.011  73.021  1.00  0.00     0.093 A 
ATOM      8  C   UNL     1       4.196  11.857  73.860  1.00  0.00     0.123 A 
ATOM      9  C   UNL     1       3.450  12.973  74.230  1.00  0.00     0.094 A 
ATOM     10  C   UNL     1       3.816  14.248  73.793  1.00  0.00     0.146 A 
ATOM     11  O   UNL     1       3.082  15.286  74.178  1.00  0.00    -0.452 OA
ENDROOT
BRANCH   1  12
ATOM     12  C   UNL     1       2.442  17.606  74.313  1.00  0.00     0.021 A 
ATOM     13  C   UNL     1       1.182  17.809  73.719  1.00  0.00     0.016 A 
ATOM     14  C   UNL     1       0.326  18.805  74.200  1.00  0.00     0.047 A 
ATOM     15  C   UNL     1       0.712  19.601  75.287  1.00  0.00     0.115 A 
ATOM     16  C   UNL     1       2.811  18.395  75.416  1.00  0.00     0.016 A 
ATOM     17  C   UNL     1       1.954  19.390  75.893  1.00  0.00     0.047 A 
BRANCH  15  18
ATOM     18  O   UNL     1      -0.131  20.597  75.773  1.00  0.00    -0.508 OA
ATOM     19  H   UNL     1      -0.546  20.536  76.695  1.00  0.00     0.293 HD
ENDBRANCH  15  18
ENDBRANCH   1  12
BRANCH   2  20
ATOM     20  O   UNL     1       4.847  18.147  72.792  1.00  0.00    -0.502 OA
ATOM     21  H   UNL     1       4.923  18.856  73.511  1.00  0.00     0.293 HD
ENDBRANCH   2  20
BRANCH   6  22
ATOM     22  O   UNL     1       6.737  13.304  71.630  1.00  0.00    -0.507 OA
ATOM     23  H   UNL     1       7.653  13.677  71.832  1.00  0.00     0.293 HD
ENDBRANCH   6  22
BRANCH   8  24
ATOM     24  O   UNL     1       3.825  10.597  74.323  1.00  0.00    -0.508 OA
ATOM     25  H   UNL     1       3.426   9.901  73.704  1.00  0.00     0.293 HD
ENDBRANCH   8  24
TORSDOF 5
ENDMDL
