MODEL 1
REMARK VINA RESULT:    -3.062      0.000      0.000
REMARK INTER + INTRA:          -4.209
REMARK INTER:                  -3.957
REMARK INTRA:                  -0.253
REMARK UNBOUND:                -0.253
REMARK SMILES CCCCCCC(=O)[O-]
REMARK SMILES IDX 5 1 6 2 7 3 8 4 9 5 4 6 3 7 2 8 1 9
REMARK H PARENT
REMARK Flexibility Score: inf
ROOT
ATOM      1  C   UNL     1     -27.864 -19.476  13.955  1.00  0.00     0.006 C 
ENDROOT
BRANCH   1   2
ATOM      2  C   UNL     1     -28.125 -18.380  14.997  1.00  0.00     0.053 C 
BRANCH   2   3
ATOM      3  C   UNL     1     -26.849 -17.798  15.525  1.00  0.00     0.041 C 
ATOM      4  O   UNL     1     -26.012 -18.534  16.110  1.00  0.00    -0.550 OA
ATOM      5  O   UNL     1     -26.602 -16.437  15.404  1.00  0.00    -0.550 OA
ENDBRANCH   2   3
ENDBRANCH   1   2
BRANCH   1   6
ATOM      6  C   UNL     1     -26.997 -18.975  12.786  1.00  0.00     0.000 C 
BRANCH   6   7
ATOM      7  C   UNL     1     -27.683 -17.844  11.992  1.00  0.00    -0.000 C 
BRANCH   7   8
ATOM      8  C   UNL     1     -26.742 -16.683  11.635  1.00  0.00    -0.003 C 
ATOM      9  C   UNL     1     -27.098 -16.007  10.313  1.00  0.00     0.004 C 
ENDBRANCH   7   8
ENDBRANCH   6   7
ENDBRANCH   1   6
TORSDOF 5
ENDMDL
MODEL 2
REMARK VINA RESULT:    -2.980      2.412      4.095
REMARK INTER + INTRA:          -4.104
REMARK INTER:                  -3.841
REMARK INTRA:                  -0.262
REMARK UNBOUND:                -0.253
REMARK SMILES CCCCCCC(=O)[O-]
REMARK SMILES IDX 5 1 6 2 7 3 8 4 9 5 4 6 3 7 2 8 1 9
REMARK H PARENT
REMARK Flexibility Score: inf
ROOT
ATOM      1  C   UNL     1     -27.094 -18.542  12.399  1.00  0.00     0.006 C 
ENDROOT
BRANCH   1   2
ATOM      2  C   UNL     1     -27.927 -17.535  11.595  1.00  0.00     0.053 C 
BRANCH   2   3
ATOM      3  C   UNL     1     -27.074 -16.464  10.989  1.00  0.00     0.041 C 
ATOM      4  O   UNL     1     -26.155 -15.929  11.663  1.00  0.00    -0.550 OA
ATOM      5  O   UNL     1     -27.317 -16.030   9.692  1.00  0.00    -0.550 OA
ENDBRANCH   2   3
ENDBRANCH   1   2
BRANCH   1   6
ATOM      6  C   UNL     1     -27.929 -19.272  13.466  1.00  0.00     0.000 C 
BRANCH   6   7
ATOM      7  C   UNL     1     -27.311 -19.149  14.875  1.00  0.00    -0.000 C 
BRANCH   7   8
ATOM      8  C   UNL     1     -26.304 -17.995  15.008  1.00  0.00    -0.003 C 
ATOM      9  C   UNL     1     -26.940 -16.702  15.516  1.00  0.00     0.004 C 
ENDBRANCH   7   8
ENDBRANCH   6   7
ENDBRANCH   1   6
TORSDOF 5
ENDMDL
MODEL 3
REMARK VINA RESULT:    -2.755     23.492     24.041
REMARK INTER + INTRA:          -3.813
REMARK INTER:                  -3.592
REMARK INTRA:                  -0.222
REMARK UNBOUND:                -0.253
REMARK SMILES CCCCCCC(=O)[O-]
REMARK SMILES IDX 5 1 6 2 7 3 8 4 9 5 4 6 3 7 2 8 1 9
REMARK H PARENT
REMARK Flexibility Score: inf
ROOT
ATOM      1  C   UNL     1      -9.812 -20.131  -3.808  1.00  0.00     0.006 C 
ENDROOT
BRANCH   1   2
ATOM      2  C   UNL     1      -9.800 -20.783  -2.419  1.00  0.00     0.053 C 
BRANCH   2   3
ATOM      3  C   UNL     1     -10.369 -22.168  -2.448  1.00  0.00     0.041 C 
ATOM      4  O   UNL     1     -10.210 -22.939  -1.466  1.00  0.00    -0.550 OA
ATOM      5  O   UNL     1     -11.043 -22.620  -3.575  1.00  0.00    -0.550 OA
ENDBRANCH   2   3
ENDBRANCH   1   2
BRANCH   1   6
ATOM      6  C   UNL     1      -9.449 -18.636  -3.755  1.00  0.00     0.000 C 
BRANCH   6   7
ATOM      7  C   UNL     1      -9.805 -17.996  -2.397  1.00  0.00    -0.000 C 
BRANCH   7   8
ATOM      8  C   UNL     1      -8.658 -17.177  -1.783  1.00  0.00    -0.003 C 
ATOM      9  C   UNL     1      -8.359 -17.557  -0.335  1.00  0.00     0.004 C 
ENDBRANCH   7   8
ENDBRANCH   6   7
ENDBRANCH   1   6
TORSDOF 5
ENDMDL
MODEL 4
REMARK VINA RESULT:    -2.753     23.341     24.000
REMARK INTER + INTRA:          -3.810
REMARK INTER:                  -3.588
REMARK INTRA:                  -0.222
REMARK UNBOUND:                -0.253
REMARK SMILES CCCCCCC(=O)[O-]
REMARK SMILES IDX 5 1 6 2 7 3 8 4 9 5 4 6 3 7 2 8 1 9
REMARK H PARENT
REMARK Flexibility Score: inf
ROOT
ATOM      1  C   UNL     1      -9.741 -18.438  -3.201  1.00  0.00     0.006 C 
ENDROOT
BRANCH   1   2
ATOM      2  C   UNL     1      -9.741 -17.911  -1.760  1.00  0.00     0.053 C 
BRANCH   2   3
ATOM      3  C   UNL     1      -8.513 -17.108  -1.461  1.00  0.00     0.041 C 
ATOM      4  O   UNL     1      -7.938 -17.222  -0.347  1.00  0.00    -0.550 OA
ATOM      5  O   UNL     1      -8.026 -16.205  -2.397  1.00  0.00    -0.550 OA
ENDBRANCH   2   3
ENDBRANCH   1   2
BRANCH   1   6
ATOM      6  C   UNL     1      -9.598 -19.969  -3.264  1.00  0.00     0.000 C 
BRANCH   6   7
ATOM      7  C   UNL     1      -9.749 -20.627  -1.876  1.00  0.00    -0.000 C 
BRANCH   7   8
ATOM      8  C   UNL     1     -10.354 -22.039  -1.927  1.00  0.00    -0.003 C 
ATOM      9  C   UNL     1     -10.860 -22.424  -3.316  1.00  0.00     0.004 C 
ENDBRANCH   7   8
ENDBRANCH   6   7
ENDBRANCH   1   6
TORSDOF 5
ENDMDL
MODEL 5
REMARK VINA RESULT:    -2.749     23.364     24.025
REMARK INTER + INTRA:          -3.805
REMARK INTER:                  -3.660
REMARK INTRA:                  -0.145
REMARK UNBOUND:                -0.253
REMARK SMILES CCCCCCC(=O)[O-]
REMARK SMILES IDX 5 1 6 2 7 3 8 4 9 5 4 6 3 7 2 8 1 9
REMARK H PARENT
REMARK Flexibility Score: inf
ROOT
ATOM      1  C   UNL     1      -9.831 -18.797  -1.658  1.00  0.00     0.006 C 
ENDROOT
BRANCH   1   2
ATOM      2  C   UNL     1      -9.435 -17.812  -2.765  1.00  0.00     0.053 C 
BRANCH   2   3
ATOM      3  C   UNL     1      -8.556 -16.715  -2.248  1.00  0.00     0.041 C 
ATOM      4  O   UNL     1      -8.078 -16.782  -1.085  1.00  0.00    -0.550 OA
ATOM      5  O   UNL     1      -8.293 -15.602  -3.036  1.00  0.00    -0.550 OA
ENDBRANCH   2   3
ENDBRANCH   1   2
BRANCH   1   6
ATOM      6  C   UNL     1      -9.283 -20.212  -1.911  1.00  0.00     0.000 C 
BRANCH   6   7
ATOM      7  C   UNL     1     -10.404 -21.271  -1.967  1.00  0.00    -0.000 C 
BRANCH   7   8
ATOM      8  C   UNL     1      -9.941 -22.680  -1.563  1.00  0.00    -0.003 C 
ATOM      9  C   UNL     1      -9.050 -22.685  -0.323  1.00  0.00     0.004 C 
ENDBRANCH   7   8
ENDBRANCH   6   7
ENDBRANCH   1   6
TORSDOF 5
ENDMDL
MODEL 6
REMARK VINA RESULT:    -2.734     16.229     16.699
REMARK INTER + INTRA:          -3.786
REMARK INTER:                  -3.630
REMARK INTRA:                  -0.156
REMARK UNBOUND:                -0.253
REMARK SMILES CCCCCCC(=O)[O-]
REMARK SMILES IDX 5 1 6 2 7 3 8 4 9 5 4 6 3 7 2 8 1 9
REMARK H PARENT
REMARK Flexibility Score: inf
ROOT
ATOM      1  C   UNL     1      -9.843 -17.824  13.821  1.00  0.00     0.006 C 
ENDROOT
BRANCH   1   2
ATOM      2  C   UNL     1     -10.882 -16.765  14.215  1.00  0.00     0.053 C 
BRANCH   2   3
ATOM      3  C   UNL     1     -11.641 -17.160  15.444  1.00  0.00     0.041 C 
ATOM      4  O   UNL     1     -11.610 -18.351  15.852  1.00  0.00    -0.550 OA
ATOM      5  O   UNL     1     -12.413 -16.222  16.117  1.00  0.00    -0.550 OA
ENDBRANCH   2   3
ENDBRANCH   1   2
BRANCH   1   6
ATOM      6  C   UNL     1      -9.315 -17.620  12.390  1.00  0.00     0.000 C 
BRANCH   6   7
ATOM      7  C   UNL     1      -9.711 -18.778  11.451  1.00  0.00    -0.000 C 
BRANCH   7   8
ATOM      8  C   UNL     1      -9.878 -18.351   9.983  1.00  0.00    -0.003 C 
ATOM      9  C   UNL     1      -9.471 -16.900   9.732  1.00  0.00     0.004 C 
ENDBRANCH   7   8
ENDBRANCH   6   7
ENDBRANCH   1   6
TORSDOF 5
ENDMDL
MODEL 7
REMARK VINA RESULT:    -2.730     16.726     17.252
REMARK INTER + INTRA:          -3.780
REMARK INTER:                  -3.567
REMARK INTRA:                  -0.214
REMARK UNBOUND:                -0.253
REMARK SMILES CCCCCCC(=O)[O-]
REMARK SMILES IDX 5 1 6 2 7 3 8 4 9 5 4 6 3 7 2 8 1 9
REMARK H PARENT
REMARK Flexibility Score: inf
ROOT
ATOM      1  C   UNL     1      -8.902 -17.522  13.204  1.00  0.00     0.006 C 
ENDROOT
BRANCH   1   2
ATOM      2  C   UNL     1      -9.324 -16.744  14.457  1.00  0.00     0.053 C 
BRANCH   2   3
ATOM      3  C   UNL     1     -10.659 -17.191  14.968  1.00  0.00     0.041 C 
ATOM      4  O   UNL     1     -11.612 -16.373  15.051  1.00  0.00    -0.550 OA
ATOM      5  O   UNL     1     -10.841 -18.503  15.386  1.00  0.00    -0.550 OA
ENDBRANCH   2   3
ENDBRANCH   1   2
BRANCH   1   6
ATOM      6  C   UNL     1      -9.995 -17.521  12.120  1.00  0.00     0.000 C 
BRANCH   6   7
ATOM      7  C   UNL     1      -9.835 -18.693  11.129  1.00  0.00    -0.000 C 
BRANCH   7   8
ATOM      8  C   UNL     1      -9.428 -18.251   9.714  1.00  0.00    -0.003 C 
ATOM      9  C   UNL     1      -9.466 -16.736   9.525  1.00  0.00     0.004 C 
ENDBRANCH   7   8
ENDBRANCH   6   7
ENDBRANCH   1   6
TORSDOF 5
ENDMDL
MODEL 8
REMARK VINA RESULT:    -2.646      1.618      2.330
REMARK INTER + INTRA:          -3.672
REMARK INTER:                  -3.642
REMARK INTRA:                  -0.030
REMARK UNBOUND:                -0.253
REMARK SMILES CCCCCCC(=O)[O-]
REMARK SMILES IDX 5 1 6 2 7 3 8 4 9 5 4 6 3 7 2 8 1 9
REMARK H PARENT
REMARK Flexibility Score: inf
ROOT
ATOM      1  C   UNL     1     -27.223 -18.999  13.343  1.00  0.00     0.006 C 
ENDROOT
BRANCH   1   2
ATOM      2  C   UNL     1     -28.124 -20.078  13.959  1.00  0.00     0.053 C 
BRANCH   2   3
ATOM      3  C   UNL     1     -27.720 -20.406  15.363  1.00  0.00     0.041 C 
ATOM      4  O   UNL     1     -27.134 -19.545  16.071  1.00  0.00    -0.550 OA
ATOM      5  O   UNL     1     -27.959 -21.673  15.879  1.00  0.00    -0.550 OA
ENDBRANCH   2   3
ENDBRANCH   1   2
BRANCH   1   6
ATOM      6  C   UNL     1     -27.777 -17.580  13.563  1.00  0.00     0.000 C 
BRANCH   6   7
ATOM      7  C   UNL     1     -28.081 -16.859  12.233  1.00  0.00    -0.000 C 
BRANCH   7   8
ATOM      8  C   UNL     1     -26.840 -16.643  11.352  1.00  0.00    -0.003 C 
ATOM      9  C   UNL     1     -27.167 -16.008  10.002  1.00  0.00     0.004 C 
ENDBRANCH   7   8
ENDBRANCH   6   7
ENDBRANCH   1   6
TORSDOF 5
ENDMDL
MODEL 9
REMARK VINA RESULT:    -2.505     17.057     17.825
REMARK INTER + INTRA:          -3.490
REMARK INTER:                  -3.313
REMARK INTRA:                  -0.177
REMARK UNBOUND:                -0.253
REMARK SMILES CCCCCCC(=O)[O-]
REMARK SMILES IDX 5 1 6 2 7 3 8 4 9 5 4 6 3 7 2 8 1 9
REMARK H PARENT
REMARK Flexibility Score: inf
ROOT
ATOM      1  C   UNL     1      -8.849 -17.746  12.313  1.00  0.00     0.006 C 
ENDROOT
BRANCH   1   2
ATOM      2  C   UNL     1      -9.893 -18.243  11.304  1.00  0.00     0.053 C 
BRANCH   2   3
ATOM      3  C   UNL     1      -9.526 -17.879   9.898  1.00  0.00     0.041 C 
ATOM      4  O   UNL     1      -9.669 -16.696   9.492  1.00  0.00    -0.550 OA
ATOM      5  O   UNL     1      -9.060 -18.854   9.025  1.00  0.00    -0.550 OA
ENDBRANCH   2   3
ENDBRANCH   1   2
BRANCH   1   6
ATOM      6  C   UNL     1      -9.439 -17.566  13.723  1.00  0.00     0.000 C 
BRANCH   6   7
ATOM      7  C   UNL     1     -10.765 -16.777  13.704  1.00  0.00    -0.000 C 
BRANCH   7   8
ATOM      8  C   UNL     1     -11.464 -16.716  15.072  1.00  0.00    -0.003 C 
ATOM      9  C   UNL     1     -10.879 -17.696  16.088  1.00  0.00     0.004 C 
ENDBRANCH   7   8
ENDBRANCH   6   7
ENDBRANCH   1   6
TORSDOF 5
ENDMDL
