MODEL 1
REMARK VINA RESULT:    -3.877      0.000      0.000
REMARK INTER + INTRA:          -7.426
REMARK INTER:                  -5.917
REMARK INTRA:                  -1.509
REMARK UNBOUND:                -1.509
REMARK SMILES C=CCCCCCCCCCC
REMARK SMILES IDX 7 1 8 2 9 3 10 4 11 5 12 6 6 7 5 8 4 9 3 10 2 11 1 12
REMARK H PARENT
REMARK Flexibility Score: inf
ROOT
ATOM      1  C   UNL     1      -1.278   1.502  11.238  1.00  0.00     0.000 C 
ENDROOT
BRANCH   1   2
ATOM      2  C   UNL     1      -0.274   2.569  11.706  1.00  0.00    -0.000 C 
BRANCH   2   3
ATOM      3  C   UNL     1      -0.696   3.994  11.316  1.00  0.00    -0.000 C 
BRANCH   3   4
ATOM      4  C   UNL     1      -2.221   4.090  11.156  1.00  0.00    -0.000 C 
BRANCH   4   5
ATOM      5  C   UNL     1      -2.871   4.991  12.216  1.00  0.00    -0.003 C 
ATOM      6  C   UNL     1      -4.393   5.050  12.089  1.00  0.00     0.004 C 
ENDBRANCH   4   5
ENDBRANCH   3   4
ENDBRANCH   2   3
ENDBRANCH   1   2
BRANCH   1   7
ATOM      7  C   UNL     1      -1.288   0.263  12.149  1.00  0.00     0.000 C 
BRANCH   7   8
ATOM      8  C   UNL     1      -1.112   0.613  13.638  1.00  0.00     0.000 C 
BRANCH   8   9
ATOM      9  C   UNL     1      -2.420   0.911  14.400  1.00  0.00     0.004 C 
BRANCH   9  10
ATOM     10  C   UNL     1      -2.569   2.369  14.866  1.00  0.00     0.027 C 
BRANCH  10  11
ATOM     11  C   UNL     1      -1.278   2.950  15.379  1.00  0.00    -0.035 C 
ATOM     12  C   UNL     1      -1.021   4.259  15.314  1.00  0.00     0.004 C 
ENDBRANCH  10  11
ENDBRANCH   9  10
ENDBRANCH   8   9
ENDBRANCH   7   8
ENDBRANCH   1   7
TORSDOF 9
ENDMDL
MODEL 2
REMARK VINA RESULT:    -3.842      1.428      3.921
REMARK INTER + INTRA:          -7.373
REMARK INTER:                  -5.988
REMARK INTRA:                  -1.385
REMARK UNBOUND:                -1.509
REMARK SMILES C=CCCCCCCCCCC
REMARK SMILES IDX 7 1 8 2 9 3 10 4 11 5 12 6 6 7 5 8 4 9 3 10 2 11 1 12
REMARK H PARENT
REMARK Flexibility Score: inf
ROOT
ATOM      1  C   UNL     1      -1.356   1.454  14.832  1.00  0.00     0.000 C 
ENDROOT
BRANCH   1   2
ATOM      2  C   UNL     1      -2.163   2.759  14.932  1.00  0.00    -0.000 C 
BRANCH   2   3
ATOM      3  C   UNL     1      -1.275   4.011  14.919  1.00  0.00    -0.000 C 
BRANCH   3   4
ATOM      4  C   UNL     1       0.143   3.673  14.432  1.00  0.00    -0.000 C 
BRANCH   4   5
ATOM      5  C   UNL     1       0.780   4.814  13.627  1.00  0.00    -0.003 C 
ATOM      6  C   UNL     1       1.663   5.722  14.484  1.00  0.00     0.004 C 
ENDBRANCH   4   5
ENDBRANCH   3   4
ENDBRANCH   2   3
ENDBRANCH   1   2
BRANCH   1   7
ATOM      7  C   UNL     1      -2.126   0.337  14.109  1.00  0.00     0.000 C 
BRANCH   7   8
ATOM      8  C   UNL     1      -1.470  -0.079  12.779  1.00  0.00     0.000 C 
BRANCH   8   9
ATOM      9  C   UNL     1      -0.677   1.033  12.064  1.00  0.00     0.004 C 
BRANCH   9  10
ATOM     10  C   UNL     1      -1.430   1.712  10.908  1.00  0.00     0.027 C 
BRANCH  10  11
ATOM     11  C   UNL     1      -1.203   3.199  10.860  1.00  0.00    -0.035 C 
ATOM     12  C   UNL     1      -2.116   4.065  11.310  1.00  0.00     0.004 C 
ENDBRANCH  10  11
ENDBRANCH   9  10
ENDBRANCH   8   9
ENDBRANCH   7   8
ENDBRANCH   1   7
TORSDOF 9
ENDMDL
MODEL 3
REMARK VINA RESULT:    -3.811      1.120      3.650
REMARK INTER + INTRA:          -7.325
REMARK INTER:                  -5.927
REMARK INTRA:                  -1.398
REMARK UNBOUND:                -1.509
REMARK SMILES C=CCCCCCCCCCC
REMARK SMILES IDX 7 1 8 2 9 3 10 4 11 5 12 6 6 7 5 8 4 9 3 10 2 11 1 12
REMARK H PARENT
REMARK Flexibility Score: inf
ROOT
ATOM      1  C   UNL     1      -1.371   2.010  10.826  1.00  0.00     0.000 C 
ENDROOT
BRANCH   1   2
ATOM      2  C   UNL     1      -0.715   1.264  12.000  1.00  0.00    -0.000 C 
BRANCH   2   3
ATOM      3  C   UNL     1      -1.333  -0.121  12.244  1.00  0.00    -0.000 C 
BRANCH   3   4
ATOM      4  C   UNL     1      -1.802  -0.264  13.700  1.00  0.00    -0.000 C 
BRANCH   4   5
ATOM      5  C   UNL     1      -1.627   1.031  14.507  1.00  0.00    -0.003 C 
ATOM      6  C   UNL     1      -2.960   1.662  14.910  1.00  0.00     0.004 C 
ENDBRANCH   4   5
ENDBRANCH   3   4
ENDBRANCH   2   3
ENDBRANCH   1   2
BRANCH   1   7
ATOM      7  C   UNL     1      -1.042   3.513  10.826  1.00  0.00     0.000 C 
BRANCH   7   8
ATOM      8  C   UNL     1      -2.262   4.393  11.156  1.00  0.00     0.000 C 
BRANCH   8   9
ATOM      9  C   UNL     1      -2.585   4.527  12.658  1.00  0.00     0.004 C 
BRANCH   9  10
ATOM     10  C   UNL     1      -1.625   5.440  13.439  1.00  0.00     0.027 C 
BRANCH  10  11
ATOM     11  C   UNL     1      -0.849   4.699  14.495  1.00  0.00    -0.035 C 
ATOM     12  C   UNL     1       0.359   4.185  14.248  1.00  0.00     0.004 C 
ENDBRANCH  10  11
ENDBRANCH   9  10
ENDBRANCH   8   9
ENDBRANCH   7   8
ENDBRANCH   1   7
TORSDOF 9
ENDMDL
MODEL 4
REMARK VINA RESULT:    -3.752      1.215      2.431
REMARK INTER + INTRA:          -7.236
REMARK INTER:                  -5.582
REMARK INTRA:                  -1.654
REMARK UNBOUND:                -1.509
REMARK SMILES C=CCCCCCCCCCC
REMARK SMILES IDX 7 1 8 2 9 3 10 4 11 5 12 6 6 7 5 8 4 9 3 10 2 11 1 12
REMARK H PARENT
REMARK Flexibility Score: inf
ROOT
ATOM      1  C   UNL     1      -0.744   1.471  13.148  1.00  0.00     0.000 C 
ENDROOT
BRANCH   1   2
ATOM      2  C   UNL     1      -1.125   0.971  11.745  1.00  0.00    -0.000 C 
BRANCH   2   3
ATOM      3  C   UNL     1      -1.318   2.115  10.738  1.00  0.00    -0.000 C 
BRANCH   3   4
ATOM      4  C   UNL     1      -0.591   3.385  11.206  1.00  0.00    -0.000 C 
BRANCH   4   5
ATOM      5  C   UNL     1      -1.476   4.638  11.122  1.00  0.00    -0.003 C 
ATOM      6  C   UNL     1      -2.676   4.580  12.067  1.00  0.00     0.004 C 
ENDBRANCH   4   5
ENDBRANCH   3   4
ENDBRANCH   2   3
ENDBRANCH   1   2
BRANCH   1   7
ATOM      7  C   UNL     1      -1.916   1.390  14.141  1.00  0.00     0.000 C 
BRANCH   7   8
ATOM      8  C   UNL     1      -1.937   2.562  15.139  1.00  0.00     0.000 C 
BRANCH   8   9
ATOM      9  C   UNL     1      -0.632   3.381  15.216  1.00  0.00     0.004 C 
BRANCH   9  10
ATOM     10  C   UNL     1      -0.837   4.904  15.277  1.00  0.00     0.027 C 
BRANCH  10  11
ATOM     11  C   UNL     1       0.153   5.658  14.430  1.00  0.00    -0.035 C 
ATOM     12  C   UNL     1       1.223   5.059  13.898  1.00  0.00     0.004 C 
ENDBRANCH  10  11
ENDBRANCH   9  10
ENDBRANCH   8   9
ENDBRANCH   7   8
ENDBRANCH   1   7
TORSDOF 9
ENDMDL
MODEL 5
REMARK VINA RESULT:    -3.739      0.687      4.093
REMARK INTER + INTRA:          -7.216
REMARK INTER:                  -6.066
REMARK INTRA:                  -1.150
REMARK UNBOUND:                -1.509
REMARK SMILES C=CCCCCCCCCCC
REMARK SMILES IDX 7 1 8 2 9 3 10 4 11 5 12 6 6 7 5 8 4 9 3 10 2 11 1 12
REMARK H PARENT
REMARK Flexibility Score: inf
ROOT
ATOM      1  C   UNL     1      -1.234   0.978  11.500  1.00  0.00     0.000 C 
ENDROOT
BRANCH   1   2
ATOM      2  C   UNL     1      -1.343  -0.043  12.645  1.00  0.00    -0.000 C 
BRANCH   2   3
ATOM      3  C   UNL     1      -1.311   0.614  14.033  1.00  0.00    -0.000 C 
BRANCH   3   4
ATOM      4  C   UNL     1      -2.731   0.947  14.514  1.00  0.00    -0.000 C 
BRANCH   4   5
ATOM      5  C   UNL     1      -2.889   2.420  14.918  1.00  0.00    -0.003 C 
ATOM      6  C   UNL     1      -1.555   3.084  15.264  1.00  0.00     0.004 C 
ENDBRANCH   4   5
ENDBRANCH   3   4
ENDBRANCH   2   3
ENDBRANCH   1   2
BRANCH   1   7
ATOM      7  C   UNL     1      -0.303   2.153  11.845  1.00  0.00     0.000 C 
BRANCH   7   8
ATOM      8  C   UNL     1      -0.688   3.455  11.119  1.00  0.00     0.000 C 
BRANCH   8   9
ATOM      9  C   UNL     1      -1.987   4.122  11.616  1.00  0.00     0.004 C 
BRANCH   9  10
ATOM     10  C   UNL     1      -3.063   4.310  10.534  1.00  0.00     0.027 C 
BRANCH  10  11
ATOM     11  C   UNL     1      -4.251   5.094  11.025  1.00  0.00    -0.035 C 
ATOM     12  C   UNL     1      -4.622   5.077  12.308  1.00  0.00     0.004 C 
ENDBRANCH  10  11
ENDBRANCH   9  10
ENDBRANCH   8   9
ENDBRANCH   7   8
ENDBRANCH   1   7
TORSDOF 9
ENDMDL
MODEL 6
REMARK VINA RESULT:    -3.655      1.345      3.854
REMARK INTER + INTRA:          -7.087
REMARK INTER:                  -5.675
REMARK INTRA:                  -1.413
REMARK UNBOUND:                -1.509
REMARK SMILES C=CCCCCCCCCCC
REMARK SMILES IDX 7 1 8 2 9 3 10 4 11 5 12 6 6 7 5 8 4 9 3 10 2 11 1 12
REMARK H PARENT
REMARK Flexibility Score: inf
ROOT
ATOM      1  C   UNL     1      -1.474   4.922  11.071  1.00  0.00     0.000 C 
ENDROOT
BRANCH   1   2
ATOM      2  C   UNL     1      -0.710   3.621  10.775  1.00  0.00    -0.000 C 
BRANCH   2   3
ATOM      3  C   UNL     1      -1.515   2.363  11.133  1.00  0.00    -0.000 C 
BRANCH   3   4
ATOM      4  C   UNL     1      -0.650   1.362  11.914  1.00  0.00    -0.000 C 
BRANCH   4   5
ATOM      5  C   UNL     1      -1.292  -0.030  12.005  1.00  0.00    -0.003 C 
ATOM      6  C   UNL     1      -1.387  -0.544  13.442  1.00  0.00     0.004 C 
ENDBRANCH   4   5
ENDBRANCH   3   4
ENDBRANCH   2   3
ENDBRANCH   1   2
BRANCH   1   7
ATOM      7  C   UNL     1      -1.128   5.508  12.450  1.00  0.00     0.000 C 
BRANCH   7   8
ATOM      8  C   UNL     1       0.263   5.079  12.952  1.00  0.00     0.000 C 
BRANCH   8   9
ATOM      9  C   UNL     1       0.261   4.221  14.233  1.00  0.00     0.004 C 
BRANCH   9  10
ATOM     10  C   UNL     1      -1.078   4.205  14.989  1.00  0.00     0.027 C 
BRANCH  10  11
ATOM     11  C   UNL     1      -1.591   2.811  15.232  1.00  0.00    -0.035 C 
ATOM     12  C   UNL     1      -2.840   2.456  14.914  1.00  0.00     0.004 C 
ENDBRANCH  10  11
ENDBRANCH   9  10
ENDBRANCH   8   9
ENDBRANCH   7   8
ENDBRANCH   1   7
TORSDOF 9
ENDMDL
MODEL 7
REMARK VINA RESULT:    -3.641      1.238      2.873
REMARK INTER + INTRA:          -7.065
REMARK INTER:                  -5.974
REMARK INTRA:                  -1.091
REMARK UNBOUND:                -1.509
REMARK SMILES C=CCCCCCCCCCC
REMARK SMILES IDX 7 1 8 2 9 3 10 4 11 5 12 6 6 7 5 8 4 9 3 10 2 11 1 12
REMARK H PARENT
REMARK Flexibility Score: inf
ROOT
ATOM      1  C   UNL     1      -0.318   3.334  13.888  1.00  0.00     0.000 C 
ENDROOT
BRANCH   1   2
ATOM      2  C   UNL     1       0.158   4.111  12.650  1.00  0.00    -0.000 C 
BRANCH   2   3
ATOM      3  C   UNL     1      -0.623   3.745  11.379  1.00  0.00    -0.000 C 
BRANCH   3   4
ATOM      4  C   UNL     1      -0.994   5.004  10.581  1.00  0.00    -0.000 C 
BRANCH   4   5
ATOM      5  C   UNL     1      -2.406   5.513  10.902  1.00  0.00    -0.003 C 
ATOM      6  C   UNL     1      -3.502   4.571  10.404  1.00  0.00     0.004 C 
ENDBRANCH   4   5
ENDBRANCH   3   4
ENDBRANCH   2   3
ENDBRANCH   1   2
BRANCH   1   7
ATOM      7  C   UNL     1      -1.772   3.663  14.267  1.00  0.00     0.000 C 
BRANCH   7   8
ATOM      8  C   UNL     1      -2.581   2.418  14.675  1.00  0.00     0.000 C 
BRANCH   8   9
ATOM      9  C   UNL     1      -1.747   1.140  14.898  1.00  0.00     0.004 C 
BRANCH   9  10
ATOM     10  C   UNL     1      -2.255  -0.094  14.134  1.00  0.00     0.027 C 
BRANCH  10  11
ATOM     11  C   UNL     1      -1.349  -0.486  12.997  1.00  0.00    -0.035 C 
ATOM     12  C   UNL     1      -1.245   0.257  11.892  1.00  0.00     0.004 C 
ENDBRANCH  10  11
ENDBRANCH   9  10
ENDBRANCH   8   9
ENDBRANCH   7   8
ENDBRANCH   1   7
TORSDOF 9
ENDMDL
MODEL 8
REMARK VINA RESULT:    -3.635      1.200      2.641
REMARK INTER + INTRA:          -7.056
REMARK INTER:                  -5.841
REMARK INTRA:                  -1.215
REMARK UNBOUND:                -1.509
REMARK SMILES C=CCCCCCCCCCC
REMARK SMILES IDX 7 1 8 2 9 3 10 4 11 5 12 6 6 7 5 8 4 9 3 10 2 11 1 12
REMARK H PARENT
REMARK Flexibility Score: inf
ROOT
ATOM      1  C   UNL     1      -1.085   3.304  10.821  1.00  0.00     0.000 C 
ENDROOT
BRANCH   1   2
ATOM      2  C   UNL     1      -2.377   4.138  10.824  1.00  0.00    -0.000 C 
BRANCH   2   3
ATOM      3  C   UNL     1      -2.285   5.375  11.730  1.00  0.00    -0.000 C 
BRANCH   3   4
ATOM      4  C   UNL     1      -2.096   4.965  13.199  1.00  0.00    -0.000 C 
BRANCH   4   5
ATOM      5  C   UNL     1      -0.794   5.513  13.802  1.00  0.00    -0.003 C 
ATOM      6  C   UNL     1       0.192   4.409  14.183  1.00  0.00     0.004 C 
ENDBRANCH   4   5
ENDBRANCH   3   4
ENDBRANCH   2   3
ENDBRANCH   1   2
BRANCH   1   7
ATOM      7  C   UNL     1      -1.359   1.792  10.887  1.00  0.00     0.000 C 
BRANCH   7   8
ATOM      8  C   UNL     1      -0.767   1.131  12.146  1.00  0.00     0.000 C 
BRANCH   8   9
ATOM      9  C   UNL     1      -1.570  -0.066  12.697  1.00  0.00     0.004 C 
BRANCH   9  10
ATOM     10  C   UNL     1      -1.805  -0.031  14.216  1.00  0.00     0.027 C 
BRANCH  10  11
ATOM     11  C   UNL     1      -1.838   1.370  14.767  1.00  0.00    -0.035 C 
ATOM     12  C   UNL     1      -2.990   2.011  14.987  1.00  0.00     0.004 C 
ENDBRANCH  10  11
ENDBRANCH   9  10
ENDBRANCH   8   9
ENDBRANCH   7   8
ENDBRANCH   1   7
TORSDOF 9
ENDMDL
MODEL 9
REMARK VINA RESULT:    -3.594      1.397      3.668
REMARK INTER + INTRA:          -6.994
REMARK INTER:                  -5.602
REMARK INTRA:                  -1.392
REMARK UNBOUND:                -1.509
REMARK SMILES C=CCCCCCCCCCC
REMARK SMILES IDX 7 1 8 2 9 3 10 4 11 5 12 6 6 7 5 8 4 9 3 10 2 11 1 12
REMARK H PARENT
REMARK Flexibility Score: inf
ROOT
ATOM      1  C   UNL     1      -2.458   4.192  11.206  1.00  0.00     0.000 C 
ENDROOT
BRANCH   1   2
ATOM      2  C   UNL     1      -1.170   3.398  10.931  1.00  0.00    -0.000 C 
BRANCH   2   3
ATOM      3  C   UNL     1      -1.421   1.891  10.781  1.00  0.00    -0.000 C 
BRANCH   3   4
ATOM      4  C   UNL     1      -0.679   1.100  11.868  1.00  0.00    -0.000 C 
BRANCH   4   5
ATOM      5  C   UNL     1      -1.480  -0.110  12.372  1.00  0.00    -0.003 C 
ATOM      6  C   UNL     1      -1.810  -0.022  13.862  1.00  0.00     0.004 C 
ENDBRANCH   4   5
ENDBRANCH   3   4
ENDBRANCH   2   3
ENDBRANCH   1   2
BRANCH   1   7
ATOM      7  C   UNL     1      -2.504   4.766  12.632  1.00  0.00     0.000 C 
BRANCH   7   8
ATOM      8  C   UNL     1      -2.468   3.674  13.718  1.00  0.00     0.000 C 
BRANCH   8   9
ATOM      9  C   UNL     1      -1.424   3.893  14.832  1.00  0.00     0.004 C 
BRANCH   9  10
ATOM     10  C   UNL     1       0.012   3.497  14.448  1.00  0.00     0.027 C 
BRANCH  10  11
ATOM     11  C   UNL     1       0.942   4.679  14.381  1.00  0.00    -0.035 C 
ATOM     12  C   UNL     1       1.060   5.420  13.275  1.00  0.00     0.004 C 
ENDBRANCH  10  11
ENDBRANCH   9  10
ENDBRANCH   8   9
ENDBRANCH   7   8
ENDBRANCH   1   7
TORSDOF 9
ENDMDL
