MODEL 1
REMARK VINA RESULT:    -3.696      0.000      0.000
REMARK INTER + INTRA:          -4.137
REMARK INTER:                  -4.128
REMARK INTRA:                  -0.009
REMARK UNBOUND:                -0.009
REMARK SMILES CCCC(=O)[O-]
REMARK SMILES IDX 3 1 4 2 5 3 6 4 2 5 1 6
REMARK H PARENT
REMARK Flexibility Score: inf
ROOT
ATOM      1  C   UNL     1      21.335  -0.359  26.364  1.00  0.00     0.052 C 
ENDROOT
BRANCH   1   2
ATOM      2  C   UNL     1      22.224   0.697  25.782  1.00  0.00     0.041 C 
ATOM      3  O   UNL     1      21.727   1.734  25.271  1.00  0.00    -0.550 OA
ATOM      4  O   UNL     1      23.605   0.549  25.834  1.00  0.00    -0.550 OA
ENDBRANCH   1   2
BRANCH   1   5
ATOM      5  C   UNL     1      20.609   0.140  27.621  1.00  0.00     0.003 C 
ATOM      6  C   UNL     1      20.783  -0.807  28.807  1.00  0.00     0.004 C 
ENDBRANCH   1   5
TORSDOF 2
ENDMDL
MODEL 2
REMARK VINA RESULT:    -3.660     14.420     15.033
REMARK INTER + INTRA:          -4.097
REMARK INTER:                  -4.087
REMARK INTRA:                  -0.010
REMARK UNBOUND:                -0.009
REMARK SMILES CCCC(=O)[O-]
REMARK SMILES IDX 3 1 4 2 5 3 6 4 2 5 1 6
REMARK H PARENT
REMARK Flexibility Score: inf
ROOT
ATOM      1  C   UNL     1      34.792   0.705  34.366  1.00  0.00     0.052 C 
ENDROOT
BRANCH   1   2
ATOM      2  C   UNL     1      33.708   1.618  34.848  1.00  0.00     0.041 C 
ATOM      3  O   UNL     1      33.978   2.797  35.194  1.00  0.00    -0.550 OA
ATOM      4  O   UNL     1      32.391   1.176  34.882  1.00  0.00    -0.550 OA
ENDBRANCH   1   2
BRANCH   1   5
ATOM      5  C   UNL     1      35.560   1.310  33.183  1.00  0.00     0.003 C 
ATOM      6  C   UNL     1      35.559   0.396  31.959  1.00  0.00     0.004 C 
ENDBRANCH   1   5
TORSDOF 2
ENDMDL
MODEL 3
REMARK VINA RESULT:    -3.637      2.897      3.764
REMARK INTER + INTRA:          -4.072
REMARK INTER:                  -4.064
REMARK INTRA:                  -0.008
REMARK UNBOUND:                -0.009
REMARK SMILES CCCC(=O)[O-]
REMARK SMILES IDX 3 1 4 2 5 3 6 4 2 5 1 6
REMARK H PARENT
REMARK Flexibility Score: inf
ROOT
ATOM      1  C   UNL     1      20.601   0.012  27.950  1.00  0.00     0.052 C 
ENDROOT
BRANCH   1   2
ATOM      2  C   UNL     1      20.933  -0.929  29.067  1.00  0.00     0.041 C 
ATOM      3  O   UNL     1      20.402  -2.068  29.117  1.00  0.00    -0.550 OA
ATOM      4  O   UNL     1      21.858  -0.557  30.036  1.00  0.00    -0.550 OA
ENDBRANCH   1   2
BRANCH   1   5
ATOM      5  C   UNL     1      21.172  -0.474  26.610  1.00  0.00     0.003 C 
ATOM      6  C   UNL     1      21.896   0.636  25.849  1.00  0.00     0.004 C 
ENDBRANCH   1   5
TORSDOF 2
ENDMDL
MODEL 4
REMARK VINA RESULT:    -3.583     14.523     15.232
REMARK INTER + INTRA:          -4.011
REMARK INTER:                  -3.989
REMARK INTRA:                  -0.022
REMARK UNBOUND:                -0.009
REMARK SMILES CCCC(=O)[O-]
REMARK SMILES IDX 3 1 4 2 5 3 6 4 2 5 1 6
REMARK H PARENT
REMARK Flexibility Score: inf
ROOT
ATOM      1  C   UNL     1      35.619   1.209  32.672  1.00  0.00     0.052 C 
ENDROOT
BRANCH   1   2
ATOM      2  C   UNL     1      35.094   0.779  34.007  1.00  0.00     0.041 C 
ATOM      3  O   UNL     1      35.461  -0.314  34.511  1.00  0.00    -0.550 OA
ATOM      4  O   UNL     1      34.224   1.604  34.711  1.00  0.00    -0.550 OA
ENDBRANCH   1   2
BRANCH   1   5
ATOM      5  C   UNL     1      35.717   0.030  31.694  1.00  0.00     0.003 C 
ATOM      6  C   UNL     1      34.669   0.107  30.584  1.00  0.00     0.004 C 
ENDBRANCH   1   5
TORSDOF 2
ENDMDL
MODEL 5
REMARK VINA RESULT:    -3.560      2.244      3.177
REMARK INTER + INTRA:          -3.985
REMARK INTER:                  -3.962
REMARK INTRA:                  -0.023
REMARK UNBOUND:                -0.009
REMARK SMILES CCCC(=O)[O-]
REMARK SMILES IDX 3 1 4 2 5 3 6 4 2 5 1 6
REMARK H PARENT
REMARK Flexibility Score: inf
ROOT
ATOM      1  C   UNL     1      21.356  -0.400  26.306  1.00  0.00     0.052 C 
ENDROOT
BRANCH   1   2
ATOM      2  C   UNL     1      20.680  -0.093  27.608  1.00  0.00     0.041 C 
ATOM      3  O   UNL     1      20.092   1.007  27.774  1.00  0.00    -0.550 OA
ATOM      4  O   UNL     1      20.673  -1.039  28.626  1.00  0.00    -0.550 OA
ENDBRANCH   1   2
BRANCH   1   5
ATOM      5  C   UNL     1      21.987   0.854  25.686  1.00  0.00     0.003 C 
ATOM      6  C   UNL     1      23.514   0.809  25.708  1.00  0.00     0.004 C 
ENDBRANCH   1   5
TORSDOF 2
ENDMDL
MODEL 6
REMARK VINA RESULT:    -3.193      1.763      2.287
REMARK INTER + INTRA:          -3.576
REMARK INTER:                  -3.545
REMARK INTRA:                  -0.031
REMARK UNBOUND:                -0.009
REMARK SMILES CCCC(=O)[O-]
REMARK SMILES IDX 3 1 4 2 5 3 6 4 2 5 1 6
REMARK H PARENT
REMARK Flexibility Score: inf
ROOT
ATOM      1  C   UNL     1      20.975  -1.291  28.198  1.00  0.00     0.052 C 
ENDROOT
BRANCH   1   2
ATOM      2  C   UNL     1      20.930  -0.094  27.299  1.00  0.00     0.041 C 
ATOM      3  O   UNL     1      20.219   0.900  27.600  1.00  0.00    -0.550 OA
ATOM      4  O   UNL     1      21.702  -0.063  26.144  1.00  0.00    -0.550 OA
ENDBRANCH   1   2
BRANCH   1   5
ATOM      5  C   UNL     1      20.869  -0.894  29.677  1.00  0.00     0.003 C 
ATOM      6  C   UNL     1      22.222  -0.931  30.387  1.00  0.00     0.004 C 
ENDBRANCH   1   5
TORSDOF 2
ENDMDL
MODEL 7
REMARK VINA RESULT:    -2.898      6.594      7.194
REMARK INTER + INTRA:          -3.246
REMARK INTER:                  -3.228
REMARK INTRA:                  -0.018
REMARK UNBOUND:                -0.009
REMARK SMILES CCCC(=O)[O-]
REMARK SMILES IDX 3 1 4 2 5 3 6 4 2 5 1 6
REMARK H PARENT
REMARK Flexibility Score: inf
ROOT
ATOM      1  C   UNL     1      28.262  -0.154  28.871  1.00  0.00     0.052 C 
ENDROOT
BRANCH   1   2
ATOM      2  C   UNL     1      26.802   0.134  29.040  1.00  0.00     0.041 C 
ATOM      3  O   UNL     1      26.122   0.558  28.070  1.00  0.00    -0.550 OA
ATOM      4  O   UNL     1      26.185  -0.098  30.263  1.00  0.00    -0.550 OA
ENDBRANCH   1   2
BRANCH   1   5
ATOM      5  C   UNL     1      29.129   1.040  29.296  1.00  0.00     0.003 C 
ATOM      6  C   UNL     1      30.190   0.651  30.325  1.00  0.00     0.004 C 
ENDBRANCH   1   5
TORSDOF 2
ENDMDL
MODEL 8
REMARK VINA RESULT:    -2.887      7.721      8.452
REMARK INTER + INTRA:          -3.234
REMARK INTER:                  -3.210
REMARK INTRA:                  -0.024
REMARK UNBOUND:                -0.009
REMARK SMILES CCCC(=O)[O-]
REMARK SMILES IDX 3 1 4 2 5 3 6 4 2 5 1 6
REMARK H PARENT
REMARK Flexibility Score: inf
ROOT
ATOM      1  C   UNL     1      29.108   1.028  29.207  1.00  0.00     0.052 C 
ENDROOT
BRANCH   1   2
ATOM      2  C   UNL     1      29.908   0.690  30.427  1.00  0.00     0.041 C 
ATOM      3  O   UNL     1      31.113   0.345  30.321  1.00  0.00    -0.550 OA
ATOM      4  O   UNL     1      29.329   0.790  31.687  1.00  0.00    -0.550 OA
ENDBRANCH   1   2
BRANCH   1   5
ATOM      5  C   UNL     1      28.169  -0.119  28.809  1.00  0.00     0.003 C 
ATOM      6  C   UNL     1      26.707   0.320  28.750  1.00  0.00     0.004 C 
ENDBRANCH   1   5
TORSDOF 2
ENDMDL
MODEL 9
REMARK VINA RESULT:    -2.884      6.632      7.354
REMARK INTER + INTRA:          -3.230
REMARK INTER:                  -3.161
REMARK INTRA:                  -0.069
REMARK UNBOUND:                -0.009
REMARK SMILES CCCC(=O)[O-]
REMARK SMILES IDX 3 1 4 2 5 3 6 4 2 5 1 6
REMARK H PARENT
REMARK Flexibility Score: inf
ROOT
ATOM      1  C   UNL     1      27.345  -0.163  31.090  1.00  0.00     0.052 C 
ENDROOT
BRANCH   1   2
ATOM      2  C   UNL     1      27.958  -1.455  30.644  1.00  0.00     0.041 C 
ATOM      3  O   UNL     1      27.333  -2.537  30.789  1.00  0.00    -0.550 OA
ATOM      4  O   UNL     1      29.208  -1.458  30.037  1.00  0.00    -0.550 OA
ENDBRANCH   1   2
BRANCH   1   5
ATOM      5  C   UNL     1      26.123   0.209  30.239  1.00  0.00     0.003 C 
ATOM      6  C   UNL     1      26.493   0.502  28.786  1.00  0.00     0.004 C 
ENDBRANCH   1   5
TORSDOF 2
ENDMDL
