MODEL 1
REMARK VINA RESULT:    -3.623      0.000      0.000
REMARK INTER + INTRA:          -6.190
REMARK INTER:                  -5.212
REMARK INTRA:                  -0.979
REMARK UNBOUND:                -0.979
REMARK SMILES O=C(CO)[C@H](O)[C@@H](O)[C@@H](O)CO
REMARK SMILES IDX 7 1 9 2 11 3 12 4 10 6 5 8 2 9 1 10 3 11 4 12 6 14 8 16
REMARK H PARENT 12 5 10 7 4 13 6 15 8 17
REMARK Flexibility Score: inf
ROOT
ATOM      1  C   UNL     1      58.008  18.560  50.966  1.00  0.00     0.181 C 
ENDROOT
BRANCH   1   2
ATOM      2  C   UNL     1      58.751  18.658  49.602  1.00  0.00     0.171 C 
BRANCH   2   3
ATOM      3  C   UNL     1      58.936  17.309  48.885  1.00  0.00     0.190 C 
BRANCH   3   4
ATOM      4  O   UNL     1      57.720  16.875  48.341  1.00  0.00    -0.394 OA
ATOM      5  H   UNL     1      57.405  16.137  48.925  1.00  0.00     0.210 HD
ENDBRANCH   3   4
ENDBRANCH   2   3
BRANCH   2   6
ATOM      6  O   UNL     1      59.995  19.288  49.771  1.00  0.00    -0.388 OA
ATOM      7  H   UNL     1      60.044  19.582  50.719  1.00  0.00     0.211 HD
ENDBRANCH   2   6
ENDBRANCH   1   2
BRANCH   1   8
ATOM      8  C   UNL     1      56.509  18.955  50.965  1.00  0.00     0.214 C 
BRANCH   8   9
ATOM      9  C   UNL     1      55.947  19.157  52.356  1.00  0.00     0.189 C 
ATOM     10  O   UNL     1      56.533  18.693  53.324  1.00  0.00    -0.294 OA
BRANCH   9  11
ATOM     11  C   UNL     1      54.681  19.938  52.572  1.00  0.00     0.234 C 
BRANCH  11  12
ATOM     12  O   UNL     1      53.691  19.512  51.676  1.00  0.00    -0.388 OA
ATOM     13  H   UNL     1      52.853  19.974  51.940  1.00  0.00     0.211 HD
ENDBRANCH  11  12
ENDBRANCH   9  11
ENDBRANCH   8   9
BRANCH   8  14
ATOM     14  O   UNL     1      55.753  18.005  50.257  1.00  0.00    -0.382 OA
ATOM     15  H   UNL     1      56.197  17.879  49.377  1.00  0.00     0.211 HD
ENDBRANCH   8  14
ENDBRANCH   1   8
BRANCH   1  16
ATOM     16  O   UNL     1      58.128  17.250  51.463  1.00  0.00    -0.387 OA
ATOM     17  H   UNL     1      58.415  17.322  52.410  1.00  0.00     0.211 HD
ENDBRANCH   1  16
TORSDOF 10
ENDMDL
MODEL 2
REMARK VINA RESULT:    -3.462      1.308      4.533
REMARK INTER + INTRA:          -5.958
REMARK INTER:                  -5.205
REMARK INTRA:                  -0.754
REMARK UNBOUND:                -0.979
REMARK SMILES O=C(CO)[C@H](O)[C@@H](O)[C@@H](O)CO
REMARK SMILES IDX 7 1 9 2 11 3 12 4 10 6 5 8 2 9 1 10 3 11 4 12 6 14 8 16
REMARK H PARENT 12 5 10 7 4 13 6 15 8 17
REMARK Flexibility Score: inf
ROOT
ATOM      1  C   UNL     1      56.348  18.887  50.842  1.00  0.00     0.181 C 
ENDROOT
BRANCH   1   2
ATOM      2  C   UNL     1      55.921  19.476  52.219  1.00  0.00     0.171 C 
BRANCH   2   3
ATOM      3  C   UNL     1      54.433  19.855  52.309  1.00  0.00     0.190 C 
BRANCH   3   4
ATOM      4  O   UNL     1      54.059  20.631  51.204  1.00  0.00    -0.394 OA
ATOM      5  H   UNL     1      54.492  20.214  50.415  1.00  0.00     0.210 HD
ENDBRANCH   3   4
ENDBRANCH   2   3
BRANCH   2   6
ATOM      6  O   UNL     1      56.722  20.584  52.541  1.00  0.00    -0.388 OA
ATOM      7  H   UNL     1      57.662  20.265  52.563  1.00  0.00     0.211 HD
ENDBRANCH   2   6
ENDBRANCH   1   2
BRANCH   1   8
ATOM      8  C   UNL     1      57.549  17.907  50.853  1.00  0.00     0.214 C 
BRANCH   8   9
ATOM      9  C   UNL     1      58.878  18.593  50.616  1.00  0.00     0.189 C 
ATOM     10  O   UNL     1      58.966  19.807  50.730  1.00  0.00    -0.294 OA
BRANCH   9  11
ATOM     11  C   UNL     1      60.103  17.799  50.255  1.00  0.00     0.234 C 
BRANCH  11  12
ATOM     12  O   UNL     1      59.978  17.278  48.961  1.00  0.00    -0.388 OA
ATOM     13  H   UNL     1      60.898  17.214  48.592  1.00  0.00     0.211 HD
ENDBRANCH  11  12
ENDBRANCH   9  11
ENDBRANCH   8   9
BRANCH   8  14
ATOM     14  O   UNL     1      57.348  16.875  49.919  1.00  0.00    -0.382 OA
ATOM     15  H   UNL     1      57.446  16.018  50.410  1.00  0.00     0.211 HD
ENDBRANCH   8  14
ENDBRANCH   1   8
BRANCH   1  16
ATOM     16  O   UNL     1      55.246  18.241  50.255  1.00  0.00    -0.387 OA
ATOM     17  H   UNL     1      55.605  17.545  49.646  1.00  0.00     0.211 HD
ENDBRANCH   1  16
TORSDOF 10
ENDMDL
MODEL 3
REMARK VINA RESULT:    -3.430     21.598     22.963
REMARK INTER + INTRA:          -5.913
REMARK INTER:                  -5.428
REMARK INTRA:                  -0.486
REMARK UNBOUND:                -0.979
REMARK SMILES O=C(CO)[C@H](O)[C@@H](O)[C@@H](O)CO
REMARK SMILES IDX 7 1 9 2 11 3 12 4 10 6 5 8 2 9 1 10 3 11 4 12 6 14 8 16
REMARK H PARENT 12 5 10 7 4 13 6 15 8 17
REMARK Flexibility Score: inf
ROOT
ATOM      1  C   UNL     1      70.102  35.272  58.138  1.00  0.00     0.181 C 
ENDROOT
BRANCH   1   2
ATOM      2  C   UNL     1      70.841  36.500  57.529  1.00  0.00     0.171 C 
BRANCH   2   3
ATOM      3  C   UNL     1      71.683  36.174  56.283  1.00  0.00     0.190 C 
BRANCH   3   4
ATOM      4  O   UNL     1      72.812  35.426  56.638  1.00  0.00    -0.394 OA
ATOM      5  H   UNL     1      73.287  35.224  55.791  1.00  0.00     0.210 HD
ENDBRANCH   3   4
ENDBRANCH   2   3
BRANCH   2   6
ATOM      6  O   UNL     1      71.641  37.118  58.503  1.00  0.00    -0.388 OA
ATOM      7  H   UNL     1      71.929  36.407  59.135  1.00  0.00     0.211 HD
ENDBRANCH   2   6
ENDBRANCH   1   2
BRANCH   1   8
ATOM      8  C   UNL     1      70.848  34.505  59.261  1.00  0.00     0.214 C 
BRANCH   8   9
ATOM      9  C   UNL     1      70.825  33.004  59.071  1.00  0.00     0.189 C 
ATOM     10  O   UNL     1      70.313  32.523  58.070  1.00  0.00    -0.294 OA
BRANCH   9  11
ATOM     11  C   UNL     1      71.440  32.087  60.091  1.00  0.00     0.234 C 
BRANCH  11  12
ATOM     12  O   UNL     1      72.309  32.803  60.925  1.00  0.00    -0.388 OA
ATOM     13  H   UNL     1      73.063  33.106  60.354  1.00  0.00     0.211 HD
ENDBRANCH  11  12
ENDBRANCH   9  11
ENDBRANCH   8   9
BRANCH   8  14
ATOM     14  O   UNL     1      70.331  34.856  60.520  1.00  0.00    -0.382 OA
ATOM     15  H   UNL     1      70.560  35.810  60.671  1.00  0.00     0.211 HD
ENDBRANCH   8  14
ENDBRANCH   1   8
BRANCH   1  16
ATOM     16  O   UNL     1      68.851  35.684  58.630  1.00  0.00    -0.387 OA
ATOM     17  H   UNL     1      69.012  36.467  59.219  1.00  0.00     0.211 HD
ENDBRANCH   1  16
TORSDOF 10
ENDMDL
MODEL 4
REMARK VINA RESULT:    -3.394     16.431     17.527
REMARK INTER + INTRA:          -5.860
REMARK INTER:                  -5.139
REMARK INTRA:                  -0.722
REMARK UNBOUND:                -0.979
REMARK SMILES O=C(CO)[C@H](O)[C@@H](O)[C@@H](O)CO
REMARK SMILES IDX 7 1 9 2 11 3 12 4 10 6 5 8 2 9 1 10 3 11 4 12 6 14 8 16
REMARK H PARENT 12 5 10 7 4 13 6 15 8 17
REMARK Flexibility Score: inf
ROOT
ATOM      1  C   UNL     1      63.862  34.032  48.700  1.00  0.00     0.181 C 
ENDROOT
BRANCH   1   2
ATOM      2  C   UNL     1      64.599  34.643  47.472  1.00  0.00     0.171 C 
BRANCH   2   3
ATOM      3  C   UNL     1      65.746  35.601  47.836  1.00  0.00     0.190 C 
BRANCH   3   4
ATOM      4  O   UNL     1      66.128  36.353  46.718  1.00  0.00    -0.394 OA
ATOM      5  H   UNL     1      67.033  36.034  46.467  1.00  0.00     0.210 HD
ENDBRANCH   3   4
ENDBRANCH   2   3
BRANCH   2   6
ATOM      6  O   UNL     1      63.681  35.289  46.628  1.00  0.00    -0.388 OA
ATOM      7  H   UNL     1      64.043  36.197  46.446  1.00  0.00     0.211 HD
ENDBRANCH   2   6
ENDBRANCH   1   2
BRANCH   1   8
ATOM      8  C   UNL     1      62.446  34.587  49.002  1.00  0.00     0.214 C 
BRANCH   8   9
ATOM      9  C   UNL     1      62.068  34.486  50.464  1.00  0.00     0.189 C 
ATOM     10  O   UNL     1      62.542  33.597  51.157  1.00  0.00    -0.294 OA
BRANCH   9  11
ATOM     11  C   UNL     1      61.127  35.478  51.088  1.00  0.00     0.234 C 
BRANCH  11  12
ATOM     12  O   UNL     1      60.371  36.117  50.097  1.00  0.00    -0.388 OA
ATOM     13  H   UNL     1      60.997  36.705  49.599  1.00  0.00     0.211 HD
ENDBRANCH  11  12
ENDBRANCH   9  11
ENDBRANCH   8   9
BRANCH   8  14
ATOM     14  O   UNL     1      61.488  33.949  48.195  1.00  0.00    -0.382 OA
ATOM     15  H   UNL     1      61.986  33.451  47.494  1.00  0.00     0.211 HD
ENDBRANCH   8  14
ENDBRANCH   1   8
BRANCH   1  16
ATOM     16  O   UNL     1      63.774  32.638  48.538  1.00  0.00    -0.387 OA
ATOM     17  H   UNL     1      63.103  32.469  47.827  1.00  0.00     0.211 HD
ENDBRANCH   1  16
TORSDOF 10
ENDMDL
MODEL 5
REMARK VINA RESULT:    -3.373     16.005     17.396
REMARK INTER + INTRA:          -5.830
REMARK INTER:                  -4.673
REMARK INTRA:                  -1.158
REMARK UNBOUND:                -0.979
REMARK SMILES O=C(CO)[C@H](O)[C@@H](O)[C@@H](O)CO
REMARK SMILES IDX 7 1 9 2 11 3 12 4 10 6 5 8 2 9 1 10 3 11 4 12 6 14 8 16
REMARK H PARENT 12 5 10 7 4 13 6 15 8 17
REMARK Flexibility Score: inf
ROOT
ATOM      1  C   UNL     1      64.757  34.667  48.225  1.00  0.00     0.181 C 
ENDROOT
BRANCH   1   2
ATOM      2  C   UNL     1      64.862  34.851  46.683  1.00  0.00     0.171 C 
BRANCH   2   3
ATOM      3  C   UNL     1      66.254  35.285  46.193  1.00  0.00     0.190 C 
BRANCH   3   4
ATOM      4  O   UNL     1      67.104  34.176  46.091  1.00  0.00    -0.394 OA
ATOM      5  H   UNL     1      66.537  33.422  45.784  1.00  0.00     0.210 HD
ENDBRANCH   3   4
ENDBRANCH   2   3
BRANCH   2   6
ATOM      6  O   UNL     1      63.888  35.759  46.235  1.00  0.00    -0.388 OA
ATOM      7  H   UNL     1      63.242  35.881  46.979  1.00  0.00     0.211 HD
ENDBRANCH   2   6
ENDBRANCH   1   2
BRANCH   1   8
ATOM      8  C   UNL     1      63.343  34.376  48.791  1.00  0.00     0.214 C 
BRANCH   8   9
ATOM      9  C   UNL     1      63.342  33.311  49.867  1.00  0.00     0.189 C 
ATOM     10  O   UNL     1      63.768  33.571  50.983  1.00  0.00    -0.294 OA
BRANCH   9  11
ATOM     11  C   UNL     1      62.806  31.934  49.590  1.00  0.00     0.234 C 
BRANCH  11  12
ATOM     12  O   UNL     1      63.538  31.328  48.561  1.00  0.00    -0.388 OA
ATOM     13  H   UNL     1      63.638  30.372  48.810  1.00  0.00     0.211 HD
ENDBRANCH  11  12
ENDBRANCH   9  11
ENDBRANCH   8   9
BRANCH   8  14
ATOM     14  O   UNL     1      62.461  34.033  47.751  1.00  0.00    -0.382 OA
ATOM     15  H   UNL     1      62.966  34.126  46.901  1.00  0.00     0.211 HD
ENDBRANCH   8  14
ENDBRANCH   1   8
BRANCH   1  16
ATOM     16  O   UNL     1      65.623  33.636  48.627  1.00  0.00    -0.387 OA
ATOM     17  H   UNL     1      65.072  32.818  48.738  1.00  0.00     0.211 HD
ENDBRANCH   1  16
TORSDOF 10
ENDMDL
MODEL 6
REMARK VINA RESULT:    -3.366     13.159     14.094
REMARK INTER + INTRA:          -5.820
REMARK INTER:                  -4.850
REMARK INTRA:                  -0.970
REMARK UNBOUND:                -0.979
REMARK SMILES O=C(CO)[C@H](O)[C@@H](O)[C@@H](O)CO
REMARK SMILES IDX 7 1 9 2 11 3 12 4 10 6 5 8 2 9 1 10 3 11 4 12 6 14 8 16
REMARK H PARENT 12 5 10 7 4 13 6 15 8 17
REMARK Flexibility Score: inf
ROOT
ATOM      1  C   UNL     1      56.940  26.818  61.995  1.00  0.00     0.181 C 
ENDROOT
BRANCH   1   2
ATOM      2  C   UNL     1      58.122  27.296  61.101  1.00  0.00     0.171 C 
BRANCH   2   3
ATOM      3  C   UNL     1      59.426  26.506  61.304  1.00  0.00     0.190 C 
BRANCH   3   4
ATOM      4  O   UNL     1      59.559  26.118  62.644  1.00  0.00    -0.394 OA
ATOM      5  H   UNL     1      60.102  25.288  62.638  1.00  0.00     0.210 HD
ENDBRANCH   3   4
ENDBRANCH   2   3
BRANCH   2   6
ATOM      6  O   UNL     1      58.353  28.667  61.296  1.00  0.00    -0.388 OA
ATOM      7  H   UNL     1      58.714  28.772  62.216  1.00  0.00     0.211 HD
ENDBRANCH   2   6
ENDBRANCH   1   2
BRANCH   1   8
ATOM      8  C   UNL     1      55.658  27.690  61.969  1.00  0.00     0.214 C 
BRANCH   8   9
ATOM      9  C   UNL     1      55.042  27.799  60.591  1.00  0.00     0.189 C 
ATOM     10  O   UNL     1      54.555  26.812  60.060  1.00  0.00    -0.294 OA
BRANCH   9  11
ATOM     11  C   UNL     1      55.004  29.115  59.864  1.00  0.00     0.234 C 
BRANCH  11  12
ATOM     12  O   UNL     1      54.289  30.060  60.611  1.00  0.00    -0.388 OA
ATOM     13  H   UNL     1      53.844  29.561  61.346  1.00  0.00     0.211 HD
ENDBRANCH  11  12
ENDBRANCH   9  11
ENDBRANCH   8   9
BRANCH   8  14
ATOM     14  O   UNL     1      55.923  28.965  62.498  1.00  0.00    -0.382 OA
ATOM     15  H   UNL     1      56.377  28.828  63.371  1.00  0.00     0.211 HD
ENDBRANCH   8  14
ENDBRANCH   1   8
BRANCH   1  16
ATOM     16  O   UNL     1      56.596  25.502  61.640  1.00  0.00    -0.387 OA
ATOM     17  H   UNL     1      55.981  25.561  60.863  1.00  0.00     0.211 HD
ENDBRANCH   1  16
TORSDOF 10
ENDMDL
MODEL 7
REMARK VINA RESULT:    -3.358     12.890     14.405
REMARK INTER + INTRA:          -5.809
REMARK INTER:                  -4.627
REMARK INTRA:                  -1.181
REMARK UNBOUND:                -0.979
REMARK SMILES O=C(CO)[C@H](O)[C@@H](O)[C@@H](O)CO
REMARK SMILES IDX 7 1 9 2 11 3 12 4 10 6 5 8 2 9 1 10 3 11 4 12 6 14 8 16
REMARK H PARENT 12 5 10 7 4 13 6 15 8 17
REMARK Flexibility Score: inf
ROOT
ATOM      1  C   UNL     1      58.176  26.454  61.243  1.00  0.00     0.181 C 
ENDROOT
BRANCH   1   2
ATOM      2  C   UNL     1      57.428  27.809  61.409  1.00  0.00     0.171 C 
BRANCH   2   3
ATOM      3  C   UNL     1      55.949  27.669  61.807  1.00  0.00     0.190 C 
BRANCH   3   4
ATOM      4  O   UNL     1      55.822  27.609  63.201  1.00  0.00    -0.394 OA
ATOM      5  H   UNL     1      56.293  26.784  63.486  1.00  0.00     0.210 HD
ENDBRANCH   3   4
ENDBRANCH   2   3
BRANCH   2   6
ATOM      6  O   UNL     1      57.541  28.572  60.235  1.00  0.00    -0.388 OA
ATOM      7  H   UNL     1      56.879  28.210  59.589  1.00  0.00     0.211 HD
ENDBRANCH   2   6
ENDBRANCH   1   2
BRANCH   1   8
ATOM      8  C   UNL     1      59.703  26.535  60.984  1.00  0.00     0.214 C 
BRANCH   8   9
ATOM      9  C   UNL     1      60.474  25.397  61.618  1.00  0.00     0.189 C 
ATOM     10  O   UNL     1      60.379  24.267  61.162  1.00  0.00    -0.294 OA
BRANCH   9  11
ATOM     11  C   UNL     1      61.375  25.638  62.797  1.00  0.00     0.234 C 
BRANCH  11  12
ATOM     12  O   UNL     1      60.627  26.080  63.896  1.00  0.00    -0.388 OA
ATOM     13  H   UNL     1      60.365  25.269  64.405  1.00  0.00     0.211 HD
ENDBRANCH  11  12
ENDBRANCH   9  11
ENDBRANCH   8   9
BRANCH   8  14
ATOM     14  O   UNL     1      60.206  27.776  61.411  1.00  0.00    -0.382 OA
ATOM     15  H   UNL     1      60.797  27.596  62.189  1.00  0.00     0.211 HD
ENDBRANCH   8  14
ENDBRANCH   1   8
BRANCH   1  16
ATOM     16  O   UNL     1      57.956  25.663  62.384  1.00  0.00    -0.387 OA
ATOM     17  H   UNL     1      57.028  25.841  62.688  1.00  0.00     0.211 HD
ENDBRANCH   1  16
TORSDOF 10
ENDMDL
MODEL 8
REMARK VINA RESULT:    -3.357     13.120     14.873
REMARK INTER + INTRA:          -5.808
REMARK INTER:                  -4.633
REMARK INTRA:                  -1.175
REMARK UNBOUND:                -0.979
REMARK SMILES O=C(CO)[C@H](O)[C@@H](O)[C@@H](O)CO
REMARK SMILES IDX 7 1 9 2 11 3 12 4 10 6 5 8 2 9 1 10 3 11 4 12 6 14 8 16
REMARK H PARENT 12 5 10 7 4 13 6 15 8 17
REMARK Flexibility Score: inf
ROOT
ATOM      1  C   UNL     1      63.668  31.792  49.546  1.00  0.00     0.181 C 
ENDROOT
BRANCH   1   2
ATOM      2  C   UNL     1      62.356  32.612  49.364  1.00  0.00     0.171 C 
BRANCH   2   3
ATOM      3  C   UNL     1      62.581  34.079  48.961  1.00  0.00     0.190 C 
BRANCH   3   4
ATOM      4  O   UNL     1      62.764  34.182  47.576  1.00  0.00    -0.394 OA
ATOM      5  H   UNL     1      62.990  35.132  47.397  1.00  0.00     0.210 HD
ENDBRANCH   3   4
ENDBRANCH   2   3
BRANCH   2   6
ATOM      6  O   UNL     1      61.578  32.546  50.531  1.00  0.00    -0.388 OA
ATOM      7  H   UNL     1      61.098  31.676  50.511  1.00  0.00     0.211 HD
ENDBRANCH   2   6
ENDBRANCH   1   2
BRANCH   1   8
ATOM      8  C   UNL     1      63.500  30.280  49.846  1.00  0.00     0.214 C 
BRANCH   8   9
ATOM      9  C   UNL     1      64.598  29.430  49.242  1.00  0.00     0.189 C 
ATOM     10  O   UNL     1      65.735  29.496  49.686  1.00  0.00    -0.294 OA
BRANCH   9  11
ATOM     11  C   UNL     1      64.308  28.486  48.108  1.00  0.00     0.234 C 
BRANCH  11  12
ATOM     12  O   UNL     1      63.979  29.206  46.952  1.00  0.00    -0.388 OA
ATOM     13  H   UNL     1      64.361  30.115  47.066  1.00  0.00     0.211 HD
ENDBRANCH  11  12
ENDBRANCH   9  11
ENDBRANCH   8   9
BRANCH   8  14
ATOM     14  O   UNL     1      62.236  29.834  49.423  1.00  0.00    -0.382 OA
ATOM     15  H   UNL     1      62.172  30.026  48.450  1.00  0.00     0.211 HD
ENDBRANCH   8  14
ENDBRANCH   1   8
BRANCH   1  16
ATOM     16  O   UNL     1      64.465  31.937  48.397  1.00  0.00    -0.387 OA
ATOM     17  H   UNL     1      65.186  32.581  48.621  1.00  0.00     0.211 HD
ENDBRANCH   1  16
TORSDOF 10
ENDMDL
MODEL 9
REMARK VINA RESULT:    -1.592     20.726     22.165
REMARK INTER + INTRA:          -3.269
REMARK INTER:                  -2.268
REMARK INTRA:                  -1.001
REMARK UNBOUND:                -0.979
REMARK SMILES O=C(CO)[C@H](O)[C@@H](O)[C@@H](O)CO
REMARK SMILES IDX 7 1 9 2 11 3 12 4 10 6 5 8 2 9 1 10 3 11 4 12 6 14 8 16
REMARK H PARENT 12 5 10 7 4 13 6 15 8 17
REMARK Flexibility Score: inf
ROOT
ATOM      1  C   UNL     1      71.451  31.181  59.757  1.00  0.00     0.181 C 
ENDROOT
BRANCH   1   2
ATOM      2  C   UNL     1      71.220  30.436  61.105  1.00  0.00     0.171 C 
BRANCH   2   3
ATOM      3  C   UNL     1      72.510  30.128  61.884  1.00  0.00     0.190 C 
BRANCH   3   4
ATOM      4  O   UNL     1      73.125  31.316  62.301  1.00  0.00    -0.394 OA
ATOM      5  H   UNL     1      73.792  31.541  61.602  1.00  0.00     0.210 HD
ENDBRANCH   3   4
ENDBRANCH   2   3
BRANCH   2   6
ATOM      6  O   UNL     1      70.494  29.254  60.887  1.00  0.00    -0.388 OA
ATOM      7  H   UNL     1      70.078  29.330  59.988  1.00  0.00     0.211 HD
ENDBRANCH   2   6
ENDBRANCH   1   2
BRANCH   1   8
ATOM      8  C   UNL     1      71.177  32.707  59.757  1.00  0.00     0.214 C 
BRANCH   8   9
ATOM      9  C   UNL     1      71.086  33.294  58.365  1.00  0.00     0.189 C 
ATOM     10  O   UNL     1      71.607  32.714  57.423  1.00  0.00    -0.294 OA
BRANCH   9  11
ATOM     11  C   UNL     1      70.347  34.579  58.116  1.00  0.00     0.234 C 
BRANCH  11  12
ATOM     12  O   UNL     1      70.902  35.613  58.881  1.00  0.00    -0.388 OA
ATOM     13  H   UNL     1      70.162  35.990  59.427  1.00  0.00     0.211 HD
ENDBRANCH  11  12
ENDBRANCH   9  11
ENDBRANCH   8   9
BRANCH   8  14
ATOM     14  O   UNL     1      72.150  33.379  60.518  1.00  0.00    -0.382 OA
ATOM     15  H   UNL     1      72.563  32.705  61.119  1.00  0.00     0.211 HD
ENDBRANCH   8  14
ENDBRANCH   1   8
BRANCH   1  16
ATOM     16  O   UNL     1      72.772  30.962  59.329  1.00  0.00    -0.387 OA
ATOM     17  H   UNL     1      73.351  31.007  60.134  1.00  0.00     0.211 HD
ENDBRANCH   1  16
TORSDOF 10
ENDMDL
