MODEL 1
REMARK VINA RESULT:    -4.614      0.000      0.000
REMARK INTER + INTRA:          -9.846
REMARK INTER:                  -8.390
REMARK INTRA:                  -1.455
REMARK UNBOUND:                -1.455
REMARK SMILES CCCCCCCCCCCCCCCC(=O)[O-]
REMARK SMILES IDX 9 1 10 2 11 3 12 4 13 5 14 6 15 7 16 8 17 9 18 10 8 11 7 12
REMARK SMILES IDX 6 13 5 14 4 15 3 16 2 17 1 18
REMARK H PARENT
REMARK Flexibility Score: inf
ROOT
ATOM      1  C   UNL     1      -2.581   9.292  -4.651  1.00  0.00     0.000 C 
ENDROOT
BRANCH   1   2
ATOM      2  C   UNL     1      -1.203   8.639  -4.436  1.00  0.00     0.000 C 
BRANCH   2   3
ATOM      3  C   UNL     1      -0.395   8.388  -5.724  1.00  0.00     0.000 C 
BRANCH   3   4
ATOM      4  C   UNL     1      -0.670   9.435  -6.813  1.00  0.00     0.000 C 
BRANCH   4   5
ATOM      5  C   UNL     1       0.462   9.465  -7.846  1.00  0.00     0.000 C 
BRANCH   5   6
ATOM      6  C   UNL     1       1.520   8.399  -7.533  1.00  0.00     0.006 C 
BRANCH   6   7
ATOM      7  C   UNL     1       2.627   8.391  -8.590  1.00  0.00     0.053 C 
BRANCH   7   8
ATOM      8  C   UNL     1       3.543   7.228  -8.380  1.00  0.00     0.041 C 
ATOM      9  O   UNL     1       4.657   7.187  -8.963  1.00  0.00    -0.550 OA
ATOM     10  O   UNL     1       3.139   6.159  -7.593  1.00  0.00    -0.550 OA
ENDBRANCH   7   8
ENDBRANCH   6   7
ENDBRANCH   5   6
ENDBRANCH   4   5
ENDBRANCH   3   4
ENDBRANCH   2   3
ENDBRANCH   1   2
BRANCH   1  11
ATOM     11  C   UNL     1      -3.456   9.405  -3.389  1.00  0.00     0.000 C 
BRANCH  11  12
ATOM     12  C   UNL     1      -4.931   9.754  -3.683  1.00  0.00    -0.000 C 
BRANCH  12  13
ATOM     13  C   UNL     1      -5.397   9.235  -5.055  1.00  0.00    -0.000 C 
BRANCH  13  14
ATOM     14  C   UNL     1      -6.684   8.399  -4.970  1.00  0.00    -0.000 C 
BRANCH  14  15
ATOM     15  C   UNL     1      -6.444   6.911  -5.276  1.00  0.00    -0.000 C 
BRANCH  15  16
ATOM     16  C   UNL     1      -4.948   6.558  -5.382  1.00  0.00    -0.000 C 
BRANCH  16  17
ATOM     17  C   UNL     1      -4.486   6.091  -6.775  1.00  0.00    -0.003 C 
ATOM     18  C   UNL     1      -3.682   7.156  -7.523  1.00  0.00     0.004 C 
ENDBRANCH  16  17
ENDBRANCH  15  16
ENDBRANCH  14  15
ENDBRANCH  13  14
ENDBRANCH  12  13
ENDBRANCH  11  12
ENDBRANCH   1  11
TORSDOF 14
ENDMDL
MODEL 2
REMARK VINA RESULT:    -4.595      1.044      2.064
REMARK INTER + INTRA:          -9.812
REMARK INTER:                  -8.582
REMARK INTRA:                  -1.230
REMARK UNBOUND:                -1.455
REMARK SMILES CCCCCCCCCCCCCCCC(=O)[O-]
REMARK SMILES IDX 9 1 10 2 11 3 12 4 13 5 14 6 15 7 16 8 17 9 18 10 8 11 7 12
REMARK SMILES IDX 6 13 5 14 4 15 3 16 2 17 1 18
REMARK H PARENT
REMARK Flexibility Score: inf
ROOT
ATOM      1  C   UNL     1      -2.800   9.036  -3.356  1.00  0.00     0.000 C 
ENDROOT
BRANCH   1   2
ATOM      2  C   UNL     1      -1.560   9.414  -4.187  1.00  0.00     0.000 C 
BRANCH   2   3
ATOM      3  C   UNL     1      -1.136   8.365  -5.234  1.00  0.00     0.000 C 
BRANCH   3   4
ATOM      4  C   UNL     1      -1.137   8.920  -6.666  1.00  0.00     0.000 C 
BRANCH   4   5
ATOM      5  C   UNL     1       0.265   9.385  -7.077  1.00  0.00     0.000 C 
BRANCH   5   6
ATOM      6  C   UNL     1       1.264   8.222  -7.033  1.00  0.00     0.006 C 
BRANCH   6   7
ATOM      7  C   UNL     1       2.154   8.209  -8.278  1.00  0.00     0.053 C 
BRANCH   7   8
ATOM      8  C   UNL     1       3.272   7.230  -8.113  1.00  0.00     0.041 C 
ATOM      9  O   UNL     1       3.216   6.353  -7.212  1.00  0.00    -0.550 OA
ATOM     10  O   UNL     1       4.403   7.325  -8.911  1.00  0.00    -0.550 OA
ENDBRANCH   7   8
ENDBRANCH   6   7
ENDBRANCH   5   6
ENDBRANCH   4   5
ENDBRANCH   3   4
ENDBRANCH   2   3
ENDBRANCH   1   2
BRANCH   1  11
ATOM     11  C   UNL     1      -3.979  10.022  -3.454  1.00  0.00     0.000 C 
BRANCH  11  12
ATOM     12  C   UNL     1      -5.219   9.441  -4.165  1.00  0.00    -0.000 C 
BRANCH  12  13
ATOM     13  C   UNL     1      -4.971   9.178  -5.661  1.00  0.00    -0.000 C 
BRANCH  13  14
ATOM     14  C   UNL     1      -4.743   7.690  -5.975  1.00  0.00    -0.000 C 
BRANCH  14  15
ATOM     15  C   UNL     1      -6.016   6.990  -6.480  1.00  0.00    -0.000 C 
BRANCH  15  16
ATOM     16  C   UNL     1      -6.846   6.369  -5.340  1.00  0.00    -0.000 C 
BRANCH  16  17
ATOM     17  C   UNL     1      -8.350   6.701  -5.374  1.00  0.00    -0.003 C 
ATOM     18  C   UNL     1      -8.638   8.182  -5.126  1.00  0.00     0.004 C 
ENDBRANCH  16  17
ENDBRANCH  15  16
ENDBRANCH  14  15
ENDBRANCH  13  14
ENDBRANCH  12  13
ENDBRANCH  11  12
ENDBRANCH   1  11
TORSDOF 14
ENDMDL
MODEL 3
REMARK VINA RESULT:    -4.482      3.947      7.689
REMARK INTER + INTRA:          -9.606
REMARK INTER:                  -8.586
REMARK INTRA:                  -1.020
REMARK UNBOUND:                -1.455
REMARK SMILES CCCCCCCCCCCCCCCC(=O)[O-]
REMARK SMILES IDX 9 1 10 2 11 3 12 4 13 5 14 6 15 7 16 8 17 9 18 10 8 11 7 12
REMARK SMILES IDX 6 13 5 14 4 15 3 16 2 17 1 18
REMARK H PARENT
REMARK Flexibility Score: inf
ROOT
ATOM      1  C   UNL     1      -1.927   9.198  -3.806  1.00  0.00     0.000 C 
ENDROOT
BRANCH   1   2
ATOM      2  C   UNL     1      -3.365   9.101  -3.263  1.00  0.00     0.000 C 
BRANCH   2   3
ATOM      3  C   UNL     1      -4.403   9.952  -4.020  1.00  0.00     0.000 C 
BRANCH   3   4
ATOM      4  C   UNL     1      -5.547   9.114  -4.608  1.00  0.00     0.000 C 
BRANCH   4   5
ATOM      5  C   UNL     1      -5.111   8.415  -5.901  1.00  0.00     0.000 C 
BRANCH   5   6
ATOM      6  C   UNL     1      -5.138   6.891  -5.737  1.00  0.00     0.006 C 
BRANCH   6   7
ATOM      7  C   UNL     1      -6.480   6.419  -5.173  1.00  0.00     0.053 C 
BRANCH   7   8
ATOM      8  C   UNL     1      -7.481   6.253  -6.271  1.00  0.00     0.041 C 
ATOM      9  O   UNL     1      -7.403   5.272  -7.055  1.00  0.00    -0.550 OA
ATOM     10  O   UNL     1      -8.460   7.216  -6.470  1.00  0.00    -0.550 OA
ENDBRANCH   7   8
ENDBRANCH   6   7
ENDBRANCH   5   6
ENDBRANCH   4   5
ENDBRANCH   3   4
ENDBRANCH   2   3
ENDBRANCH   1   2
BRANCH   1  11
ATOM     11  C   UNL     1      -1.671   8.440  -5.122  1.00  0.00     0.000 C 
BRANCH  11  12
ATOM     12  C   UNL     1      -0.287   8.721  -5.744  1.00  0.00    -0.000 C 
BRANCH  12  13
ATOM     13  C   UNL     1      -0.357   8.931  -7.267  1.00  0.00    -0.000 C 
BRANCH  13  14
ATOM     14  C   UNL     1       0.968   9.433  -7.862  1.00  0.00    -0.000 C 
BRANCH  14  15
ATOM     15  C   UNL     1       1.533   8.483  -8.933  1.00  0.00    -0.000 C 
BRANCH  15  16
ATOM     16  C   UNL     1       3.068   8.370  -8.880  1.00  0.00    -0.000 C 
BRANCH  16  17
ATOM     17  C   UNL     1       3.605   7.018  -8.372  1.00  0.00    -0.003 C 
ATOM     18  C   UNL     1       3.000   6.604  -7.030  1.00  0.00     0.004 C 
ENDBRANCH  16  17
ENDBRANCH  15  16
ENDBRANCH  14  15
ENDBRANCH  13  14
ENDBRANCH  12  13
ENDBRANCH  11  12
ENDBRANCH   1  11
TORSDOF 14
ENDMDL
MODEL 4
REMARK VINA RESULT:    -4.448      2.859      6.477
REMARK INTER + INTRA:          -9.543
REMARK INTER:                  -8.152
REMARK INTRA:                  -1.391
REMARK UNBOUND:                -1.455
REMARK SMILES CCCCCCCCCCCCCCCC(=O)[O-]
REMARK SMILES IDX 9 1 10 2 11 3 12 4 13 5 14 6 15 7 16 8 17 9 18 10 8 11 7 12
REMARK SMILES IDX 6 13 5 14 4 15 3 16 2 17 1 18
REMARK H PARENT
REMARK Flexibility Score: inf
ROOT
ATOM      1  C   UNL     1      -2.878   9.007  -3.283  1.00  0.00     0.000 C 
ENDROOT
BRANCH   1   2
ATOM      2  C   UNL     1      -4.134   9.895  -3.207  1.00  0.00     0.000 C 
BRANCH   2   3
ATOM      3  C   UNL     1      -4.849  10.125  -4.553  1.00  0.00     0.000 C 
BRANCH   3   4
ATOM      4  C   UNL     1      -5.837   9.002  -4.901  1.00  0.00     0.000 C 
BRANCH   4   5
ATOM      5  C   UNL     1      -6.058   8.913  -6.416  1.00  0.00     0.000 C 
BRANCH   5   6
ATOM      6  C   UNL     1      -4.725   8.749  -7.155  1.00  0.00     0.006 C 
BRANCH   6   7
ATOM      7  C   UNL     1      -4.814   7.652  -8.220  1.00  0.00     0.053 C 
BRANCH   7   8
ATOM      8  C   UNL     1      -4.736   6.300  -7.587  1.00  0.00     0.041 C 
ATOM      9  O   UNL     1      -5.602   5.426  -7.852  1.00  0.00    -0.550 OA
ATOM     10  O   UNL     1      -3.745   6.025  -6.656  1.00  0.00    -0.550 OA
ENDBRANCH   7   8
ENDBRANCH   6   7
ENDBRANCH   5   6
ENDBRANCH   4   5
ENDBRANCH   3   4
ENDBRANCH   2   3
ENDBRANCH   1   2
BRANCH   1  11
ATOM     11  C   UNL     1      -1.820   9.456  -4.307  1.00  0.00     0.000 C 
BRANCH  11  12
ATOM     12  C   UNL     1      -1.422   8.357  -5.315  1.00  0.00    -0.000 C 
BRANCH  12  13
ATOM     13  C   UNL     1      -1.133   8.920  -6.718  1.00  0.00    -0.000 C 
BRANCH  13  14
ATOM     14  C   UNL     1       0.259   9.564  -6.826  1.00  0.00    -0.000 C 
BRANCH  14  15
ATOM     15  C   UNL     1       0.781   9.604  -8.273  1.00  0.00    -0.000 C 
BRANCH  15  16
ATOM     16  C   UNL     1       1.834   8.516  -8.556  1.00  0.00    -0.000 C 
BRANCH  16  17
ATOM     17  C   UNL     1       2.189   7.624  -7.351  1.00  0.00    -0.003 C 
ATOM     18  C   UNL     1       3.264   6.585  -7.675  1.00  0.00     0.004 C 
ENDBRANCH  16  17
ENDBRANCH  15  16
ENDBRANCH  14  15
ENDBRANCH  13  14
ENDBRANCH  12  13
ENDBRANCH  11  12
ENDBRANCH   1  11
TORSDOF 14
ENDMDL
MODEL 5
REMARK VINA RESULT:    -4.027      3.630      4.945
REMARK INTER + INTRA:          -8.778
REMARK INTER:                  -7.213
REMARK INTRA:                  -1.566
REMARK UNBOUND:                -1.455
REMARK SMILES CCCCCCCCCCCCCCCC(=O)[O-]
REMARK SMILES IDX 9 1 10 2 11 3 12 4 13 5 14 6 15 7 16 8 17 9 18 10 8 11 7 12
REMARK SMILES IDX 6 13 5 14 4 15 3 16 2 17 1 18
REMARK H PARENT
REMARK Flexibility Score: inf
ROOT
ATOM      1  C   UNL     1      -4.036   9.883  -3.197  1.00  0.00     0.000 C 
ENDROOT
BRANCH   1   2
ATOM      2  C   UNL     1      -2.738   9.076  -3.378  1.00  0.00     0.000 C 
BRANCH   2   3
ATOM      3  C   UNL     1      -1.952   9.391  -4.666  1.00  0.00     0.000 C 
BRANCH   3   4
ATOM      4  C   UNL     1      -1.819   8.175  -5.595  1.00  0.00     0.000 C 
BRANCH   4   5
ATOM      5  C   UNL     1      -2.235   8.528  -7.027  1.00  0.00     0.000 C 
BRANCH   5   6
ATOM      6  C   UNL     1      -3.599   7.915  -7.368  1.00  0.00     0.006 C 
BRANCH   6   7
ATOM      7  C   UNL     1      -3.729   6.501  -6.798  1.00  0.00     0.053 C 
BRANCH   7   8
ATOM      8  C   UNL     1      -4.549   5.642  -7.707  1.00  0.00     0.041 C 
ATOM      9  O   UNL     1      -3.987   4.918  -8.570  1.00  0.00    -0.550 OA
ATOM     10  O   UNL     1      -5.934   5.689  -7.645  1.00  0.00    -0.550 OA
ENDBRANCH   7   8
ENDBRANCH   6   7
ENDBRANCH   5   6
ENDBRANCH   4   5
ENDBRANCH   3   4
ENDBRANCH   2   3
ENDBRANCH   1   2
BRANCH   1  11
ATOM     11  C   UNL     1      -4.998   9.855  -4.399  1.00  0.00     0.000 C 
BRANCH  11  12
ATOM     12  C   UNL     1      -5.831   8.560  -4.500  1.00  0.00    -0.000 C 
BRANCH  12  13
ATOM     13  C   UNL     1      -6.914   8.640  -5.591  1.00  0.00    -0.000 C 
BRANCH  13  14
ATOM     14  C   UNL     1      -8.249   8.015  -5.154  1.00  0.00    -0.000 C 
BRANCH  14  15
ATOM     15  C   UNL     1      -9.273   7.944  -6.300  1.00  0.00    -0.000 C 
BRANCH  15  16
ATOM     16  C   UNL     1      -9.636   6.498  -6.686  1.00  0.00    -0.000 C 
BRANCH  16  17
ATOM     17  C   UNL     1      -8.857   5.406  -5.927  1.00  0.00    -0.003 C 
ATOM     18  C   UNL     1      -9.317   3.992  -6.280  1.00  0.00     0.004 C 
ENDBRANCH  16  17
ENDBRANCH  15  16
ENDBRANCH  14  15
ENDBRANCH  13  14
ENDBRANCH  12  13
ENDBRANCH  11  12
ENDBRANCH   1  11
TORSDOF 14
ENDMDL
MODEL 6
REMARK VINA RESULT:    -4.018      3.276      4.465
REMARK INTER + INTRA:          -8.761
REMARK INTER:                  -7.190
REMARK INTRA:                  -1.572
REMARK UNBOUND:                -1.455
REMARK SMILES CCCCCCCCCCCCCCCC(=O)[O-]
REMARK SMILES IDX 9 1 10 2 11 3 12 4 13 5 14 6 15 7 16 8 17 9 18 10 8 11 7 12
REMARK SMILES IDX 6 13 5 14 4 15 3 16 2 17 1 18
REMARK H PARENT
REMARK Flexibility Score: inf
ROOT
ATOM      1  C   UNL     1      -1.773   9.655  -4.169  1.00  0.00     0.000 C 
ENDROOT
BRANCH   1   2
ATOM      2  C   UNL     1      -0.894   8.606  -4.874  1.00  0.00     0.000 C 
BRANCH   2   3
ATOM      3  C   UNL     1      -0.406   9.007  -6.280  1.00  0.00     0.000 C 
BRANCH   3   4
ATOM      4  C   UNL     1      -1.453   9.808  -7.069  1.00  0.00     0.000 C 
BRANCH   4   5
ATOM      5  C   UNL     1      -2.153   8.925  -8.109  1.00  0.00     0.000 C 
BRANCH   5   6
ATOM      6  C   UNL     1      -3.556   8.526  -7.635  1.00  0.00     0.006 C 
BRANCH   6   7
ATOM      7  C   UNL     1      -4.099   7.346  -8.445  1.00  0.00     0.053 C 
BRANCH   7   8
ATOM      8  C   UNL     1      -4.042   6.088  -7.639  1.00  0.00     0.041 C 
ATOM      9  O   UNL     1      -3.825   6.139  -6.401  1.00  0.00    -0.550 OA
ATOM     10  O   UNL     1      -4.165   4.856  -8.265  1.00  0.00    -0.550 OA
ENDBRANCH   7   8
ENDBRANCH   6   7
ENDBRANCH   5   6
ENDBRANCH   4   5
ENDBRANCH   3   4
ENDBRANCH   2   3
ENDBRANCH   1   2
BRANCH   1  11
ATOM     11  C   UNL     1      -2.906   9.080  -3.298  1.00  0.00     0.000 C 
BRANCH  11  12
ATOM     12  C   UNL     1      -4.132  10.010  -3.177  1.00  0.00    -0.000 C 
BRANCH  12  13
ATOM     13  C   UNL     1      -4.916  10.125  -4.497  1.00  0.00    -0.000 C 
BRANCH  13  14
ATOM     14  C   UNL     1      -5.744   8.868  -4.811  1.00  0.00    -0.000 C 
BRANCH  14  15
ATOM     15  C   UNL     1      -6.854   9.134  -5.842  1.00  0.00    -0.000 C 
BRANCH  15  16
ATOM     16  C   UNL     1      -7.566   7.845  -6.296  1.00  0.00    -0.000 C 
BRANCH  16  17
ATOM     17  C   UNL     1      -8.490   7.206  -5.242  1.00  0.00    -0.003 C 
ATOM     18  C   UNL     1      -9.735   8.046  -4.954  1.00  0.00     0.004 C 
ENDBRANCH  16  17
ENDBRANCH  15  16
ENDBRANCH  14  15
ENDBRANCH  13  14
ENDBRANCH  12  13
ENDBRANCH  11  12
ENDBRANCH   1  11
TORSDOF 14
ENDMDL
MODEL 7
REMARK VINA RESULT:    -4.004      3.182      5.319
REMARK INTER + INTRA:          -8.736
REMARK INTER:                  -6.693
REMARK INTRA:                  -2.042
REMARK UNBOUND:                -1.455
REMARK SMILES CCCCCCCCCCCCCCCC(=O)[O-]
REMARK SMILES IDX 9 1 10 2 11 3 12 4 13 5 14 6 15 7 16 8 17 9 18 10 8 11 7 12
REMARK SMILES IDX 6 13 5 14 4 15 3 16 2 17 1 18
REMARK H PARENT
REMARK Flexibility Score: inf
ROOT
ATOM      1  C   UNL     1      -6.571   6.581  -4.939  1.00  0.00     0.000 C 
ENDROOT
BRANCH   1   2
ATOM      2  C   UNL     1      -5.385   6.947  -5.850  1.00  0.00     0.000 C 
BRANCH   2   3
ATOM      3  C   UNL     1      -4.793   8.350  -5.613  1.00  0.00     0.000 C 
BRANCH   3   4
ATOM      4  C   UNL     1      -5.507   9.116  -4.490  1.00  0.00     0.000 C 
BRANCH   4   5
ATOM      5  C   UNL     1      -4.498   9.831  -3.583  1.00  0.00     0.000 C 
BRANCH   5   6
ATOM      6  C   UNL     1      -3.162   9.079  -3.551  1.00  0.00     0.006 C 
BRANCH   6   7
ATOM      7  C   UNL     1      -2.005   9.988  -3.974  1.00  0.00     0.053 C 
BRANCH   7   8
ATOM      8  C   UNL     1      -1.149   9.306  -4.993  1.00  0.00     0.041 C 
ATOM      9  O   UNL     1      -0.332   9.973  -5.680  1.00  0.00    -0.550 OA
ATOM     10  O   UNL     1      -1.299   7.947  -5.230  1.00  0.00    -0.550 OA
ENDBRANCH   7   8
ENDBRANCH   6   7
ENDBRANCH   5   6
ENDBRANCH   4   5
ENDBRANCH   3   4
ENDBRANCH   2   3
ENDBRANCH   1   2
BRANCH   1  11
ATOM     11  C   UNL     1      -7.707   5.799  -5.625  1.00  0.00     0.000 C 
BRANCH  11  12
ATOM     12  C   UNL     1      -8.905   6.679  -6.043  1.00  0.00    -0.000 C 
BRANCH  12  13
ATOM     13  C   UNL     1      -9.137   7.855  -5.077  1.00  0.00    -0.000 C 
BRANCH  13  14
ATOM     14  C   UNL     1     -10.125   8.895  -5.630  1.00  0.00    -0.000 C 
BRANCH  14  15
ATOM     15  C   UNL     1      -9.558   9.665  -6.836  1.00  0.00    -0.000 C 
BRANCH  15  16
ATOM     16  C   UNL     1      -8.081  10.061  -6.649  1.00  0.00    -0.000 C 
BRANCH  16  17
ATOM     17  C   UNL     1      -7.255  10.125  -7.947  1.00  0.00    -0.003 C 
ATOM     18  C   UNL     1      -7.060   8.754  -8.596  1.00  0.00     0.004 C 
ENDBRANCH  16  17
ENDBRANCH  15  16
ENDBRANCH  14  15
ENDBRANCH  13  14
ENDBRANCH  12  13
ENDBRANCH  11  12
ENDBRANCH   1  11
TORSDOF 14
ENDMDL
MODEL 8
REMARK VINA RESULT:    -3.982      2.967      6.891
REMARK INTER + INTRA:          -8.696
REMARK INTER:                  -7.434
REMARK INTRA:                  -1.262
REMARK UNBOUND:                -1.455
REMARK SMILES CCCCCCCCCCCCCCCC(=O)[O-]
REMARK SMILES IDX 9 1 10 2 11 3 12 4 13 5 14 6 15 7 16 8 17 9 18 10 8 11 7 12
REMARK SMILES IDX 6 13 5 14 4 15 3 16 2 17 1 18
REMARK H PARENT
REMARK Flexibility Score: inf
ROOT
ATOM      1  C   UNL     1      -1.250   9.206  -4.717  1.00  0.00     0.000 C 
ENDROOT
BRANCH   1   2
ATOM      2  C   UNL     1      -2.437  10.051  -4.219  1.00  0.00     0.000 C 
BRANCH   2   3
ATOM      3  C   UNL     1      -3.747   9.267  -4.003  1.00  0.00     0.000 C 
BRANCH   3   4
ATOM      4  C   UNL     1      -4.526   9.039  -5.306  1.00  0.00     0.000 C 
BRANCH   4   5
ATOM      5  C   UNL     1      -4.876   7.558  -5.488  1.00  0.00     0.000 C 
BRANCH   5   6
ATOM      6  C   UNL     1      -3.727   6.802  -6.167  1.00  0.00     0.006 C 
BRANCH   6   7
ATOM      7  C   UNL     1      -3.694   7.083  -7.672  1.00  0.00     0.053 C 
BRANCH   7   8
ATOM      8  C   UNL     1      -4.493   6.060  -8.414  1.00  0.00     0.041 C 
ATOM      9  O   UNL     1      -4.155   4.848  -8.381  1.00  0.00    -0.550 OA
ATOM     10  O   UNL     1      -5.572   6.452  -9.193  1.00  0.00    -0.550 OA
ENDBRANCH   7   8
ENDBRANCH   6   7
ENDBRANCH   5   6
ENDBRANCH   4   5
ENDBRANCH   3   4
ENDBRANCH   2   3
ENDBRANCH   1   2
BRANCH   1  11
ATOM     11  C   UNL     1      -0.408   9.854  -5.832  1.00  0.00     0.000 C 
BRANCH  11  12
ATOM     12  C   UNL     1       0.350   8.836  -6.711  1.00  0.00    -0.000 C 
BRANCH  12  13
ATOM     13  C   UNL     1       0.853   9.456  -8.027  1.00  0.00    -0.000 C 
BRANCH  13  14
ATOM     14  C   UNL     1       1.432   8.411  -8.995  1.00  0.00    -0.000 C 
BRANCH  14  15
ATOM     15  C   UNL     1       2.954   8.550  -9.174  1.00  0.00    -0.000 C 
BRANCH  15  16
ATOM     16  C   UNL     1       3.742   7.428  -8.471  1.00  0.00    -0.000 C 
BRANCH  16  17
ATOM     17  C   UNL     1       2.874   6.356  -7.784  1.00  0.00    -0.003 C 
ATOM     18  C   UNL     1       2.979   6.395  -6.259  1.00  0.00     0.004 C 
ENDBRANCH  16  17
ENDBRANCH  15  16
ENDBRANCH  14  15
ENDBRANCH  13  14
ENDBRANCH  12  13
ENDBRANCH  11  12
ENDBRANCH   1  11
TORSDOF 14
ENDMDL
MODEL 9
REMARK VINA RESULT:    -3.893      4.188      8.104
REMARK INTER + INTRA:          -8.535
REMARK INTER:                  -7.864
REMARK INTRA:                  -0.671
REMARK UNBOUND:                -1.455
REMARK SMILES CCCCCCCCCCCCCCCC(=O)[O-]
REMARK SMILES IDX 9 1 10 2 11 3 12 4 13 5 14 6 15 7 16 8 17 9 18 10 8 11 7 12
REMARK SMILES IDX 6 13 5 14 4 15 3 16 2 17 1 18
REMARK H PARENT
REMARK Flexibility Score: inf
ROOT
ATOM      1  C   UNL     1      -3.292   8.280  -5.558  1.00  0.00     0.000 C 
ENDROOT
BRANCH   1   2
ATOM      2  C   UNL     1      -4.728   7.785  -5.305  1.00  0.00     0.000 C 
BRANCH   2   3
ATOM      3  C   UNL     1      -5.760   8.897  -5.034  1.00  0.00     0.000 C 
BRANCH   3   4
ATOM      4  C   UNL     1      -7.079   8.682  -5.790  1.00  0.00     0.000 C 
BRANCH   4   5
ATOM      5  C   UNL     1      -8.097   7.935  -4.922  1.00  0.00     0.000 C 
BRANCH   5   6
ATOM      6  C   UNL     1      -8.518   6.616  -5.581  1.00  0.00     0.006 C 
BRANCH   6   7
ATOM      7  C   UNL     1      -7.717   6.356  -6.860  1.00  0.00     0.053 C 
BRANCH   7   8
ATOM      8  C   UNL     1      -8.152   5.077  -7.500  1.00  0.00     0.041 C 
ATOM      9  O   UNL     1      -7.912   4.866  -8.717  1.00  0.00    -0.550 OA
ATOM     10  O   UNL     1      -8.878   4.146  -6.770  1.00  0.00    -0.550 OA
ENDBRANCH   7   8
ENDBRANCH   6   7
ENDBRANCH   5   6
ENDBRANCH   4   5
ENDBRANCH   3   4
ENDBRANCH   2   3
ENDBRANCH   1   2
BRANCH   1  11
ATOM     11  C   UNL     1      -2.622   8.981  -4.361  1.00  0.00     0.000 C 
BRANCH  11  12
ATOM     12  C   UNL     1      -1.079   8.966  -4.416  1.00  0.00    -0.000 C 
BRANCH  12  13
ATOM     13  C   UNL     1      -0.529   9.609  -5.702  1.00  0.00    -0.000 C 
BRANCH  13  14
ATOM     14  C   UNL     1       0.329   8.641  -6.532  1.00  0.00    -0.000 C 
BRANCH  14  15
ATOM     15  C   UNL     1       0.956   9.315  -7.765  1.00  0.00    -0.000 C 
BRANCH  15  16
ATOM     16  C   UNL     1       1.746   8.329  -8.646  1.00  0.00    -0.000 C 
BRANCH  16  17
ATOM     17  C   UNL     1       2.638   7.338  -7.874  1.00  0.00    -0.003 C 
ATOM     18  C   UNL     1       4.010   7.143  -8.522  1.00  0.00     0.004 C 
ENDBRANCH  16  17
ENDBRANCH  15  16
ENDBRANCH  14  15
ENDBRANCH  13  14
ENDBRANCH  12  13
ENDBRANCH  11  12
ENDBRANCH   1  11
TORSDOF 14
ENDMDL
