MODEL 1
REMARK VINA RESULT:    -4.106      0.000      0.000
REMARK INTER + INTRA:          -7.668
REMARK INTER:                  -6.266
REMARK INTRA:                  -1.402
REMARK UNBOUND:                -1.402
REMARK SMILES CCCCCCCCCCC(=O)[O-]
REMARK SMILES IDX 7 1 8 2 9 3 10 4 11 5 12 6 13 7 6 8 5 9 4 10 3 11 2 12 1 13
REMARK H PARENT
REMARK Flexibility Score: inf
ROOT
ATOM      1  C   UNL     1      18.347  -3.910  21.137  1.00  0.00     0.000 C 
ENDROOT
BRANCH   1   2
ATOM      2  C   UNL     1      18.550  -4.894  19.976  1.00  0.00     0.000 C 
BRANCH   2   3
ATOM      3  C   UNL     1      17.487  -4.683  18.887  1.00  0.00     0.006 C 
BRANCH   3   4
ATOM      4  C   UNL     1      16.393  -3.700  19.324  1.00  0.00     0.053 C 
BRANCH   4   5
ATOM      5  C   UNL     1      15.686  -3.096  18.149  1.00  0.00     0.041 C 
ATOM      6  O   UNL     1      15.182  -1.946  18.237  1.00  0.00    -0.550 OA
ATOM      7  O   UNL     1      15.557  -3.817  16.969  1.00  0.00    -0.550 OA
ENDBRANCH   4   5
ENDBRANCH   3   4
ENDBRANCH   2   3
ENDBRANCH   1   2
BRANCH   1   8
ATOM      8  C   UNL     1      19.638  -3.170  21.522  1.00  0.00     0.000 C 
BRANCH   8   9
ATOM      9  C   UNL     1      19.443  -1.646  21.608  1.00  0.00    -0.000 C 
BRANCH   9  10
ATOM     10  C   UNL     1      19.884  -0.922  20.326  1.00  0.00    -0.000 C 
BRANCH  10  11
ATOM     11  C   UNL     1      18.709  -0.632  19.374  1.00  0.00    -0.000 C 
BRANCH  11  12
ATOM     12  C   UNL     1      18.932  -1.216  17.971  1.00  0.00    -0.003 C 
ATOM     13  C   UNL     1      20.097  -2.204  17.920  1.00  0.00     0.004 C 
ENDBRANCH  11  12
ENDBRANCH  10  11
ENDBRANCH   9  10
ENDBRANCH   8   9
ENDBRANCH   1   8
TORSDOF 9
ENDMDL
MODEL 2
REMARK VINA RESULT:    -4.075      3.530      4.899
REMARK INTER + INTRA:          -7.621
REMARK INTER:                  -6.423
REMARK INTRA:                  -1.198
REMARK UNBOUND:                -1.402
REMARK SMILES CCCCCCCCCCC(=O)[O-]
REMARK SMILES IDX 7 1 8 2 9 3 10 4 11 5 12 6 13 7 6 8 5 9 4 10 3 11 2 12 1 13
REMARK H PARENT
REMARK Flexibility Score: inf
ROOT
ATOM      1  C   UNL     1      18.287  -4.936  19.760  1.00  0.00     0.000 C 
ENDROOT
BRANCH   1   2
ATOM      2  C   UNL     1      18.579  -4.060  20.988  1.00  0.00     0.000 C 
BRANCH   2   3
ATOM      3  C   UNL     1      19.973  -3.421  20.887  1.00  0.00     0.006 C 
BRANCH   3   4
ATOM      4  C   UNL     1      20.144  -2.243  21.855  1.00  0.00     0.053 C 
BRANCH   4   5
ATOM      5  C   UNL     1      20.968  -2.620  23.049  1.00  0.00     0.041 C 
ATOM      6  O   UNL     1      21.300  -3.820  23.236  1.00  0.00    -0.550 OA
ATOM      7  O   UNL     1      21.341  -1.650  23.971  1.00  0.00    -0.550 OA
ENDBRANCH   4   5
ENDBRANCH   3   4
ENDBRANCH   2   3
ENDBRANCH   1   2
BRANCH   1   8
ATOM      8  C   UNL     1      19.005  -4.443  18.494  1.00  0.00     0.000 C 
BRANCH   8   9
ATOM      9  C   UNL     1      18.070  -3.673  17.546  1.00  0.00    -0.000 C 
BRANCH   9  10
ATOM     10  C   UNL     1      18.734  -2.420  16.951  1.00  0.00    -0.000 C 
BRANCH  10  11
ATOM     11  C   UNL     1      18.820  -1.259  17.957  1.00  0.00    -0.000 C 
BRANCH  11  12
ATOM     12  C   UNL     1      17.435  -0.780  18.420  1.00  0.00    -0.003 C 
ATOM     13  C   UNL     1      17.310  -0.714  19.941  1.00  0.00     0.004 C 
ENDBRANCH  11  12
ENDBRANCH  10  11
ENDBRANCH   9  10
ENDBRANCH   8   9
ENDBRANCH   1   8
TORSDOF 9
ENDMDL
MODEL 3
REMARK VINA RESULT:    -4.042      3.597      5.482
REMARK INTER + INTRA:          -7.570
REMARK INTER:                  -6.449
REMARK INTRA:                  -1.122
REMARK UNBOUND:                -1.402
REMARK SMILES CCCCCCCCCCC(=O)[O-]
REMARK SMILES IDX 7 1 8 2 9 3 10 4 11 5 12 6 13 7 6 8 5 9 4 10 3 11 2 12 1 13
REMARK H PARENT
REMARK Flexibility Score: inf
ROOT
ATOM      1  C   UNL     1      20.343   0.438  22.353  1.00  0.00     0.000 C 
ENDROOT
BRANCH   1   2
ATOM      2  C   UNL     1      19.960  -0.717  23.289  1.00  0.00     0.000 C 
BRANCH   2   3
ATOM      3  C   UNL     1      21.194  -1.554  23.661  1.00  0.00     0.006 C 
BRANCH   3   4
ATOM      4  C   UNL     1      21.236  -2.893  22.912  1.00  0.00     0.053 C 
BRANCH   4   5
ATOM      5  C   UNL     1      22.175  -2.847  21.745  1.00  0.00     0.041 C 
ATOM      6  O   UNL     1      21.880  -3.434  20.672  1.00  0.00    -0.550 OA
ATOM      7  O   UNL     1      23.391  -2.184  21.856  1.00  0.00    -0.550 OA
ENDBRANCH   4   5
ENDBRANCH   3   4
ENDBRANCH   2   3
ENDBRANCH   1   2
BRANCH   1   8
ATOM      8  C   UNL     1      20.151   0.090  20.868  1.00  0.00     0.000 C 
BRANCH   8   9
ATOM      9  C   UNL     1      18.739  -0.437  20.562  1.00  0.00    -0.000 C 
BRANCH   9  10
ATOM     10  C   UNL     1      18.749  -1.885  20.045  1.00  0.00    -0.000 C 
BRANCH  10  11
ATOM     11  C   UNL     1      17.877  -2.825  20.895  1.00  0.00    -0.000 C 
BRANCH  11  12
ATOM     12  C   UNL     1      18.500  -4.222  21.052  1.00  0.00    -0.003 C 
ATOM     13  C   UNL     1      18.562  -4.992  19.734  1.00  0.00     0.004 C 
ENDBRANCH  11  12
ENDBRANCH  10  11
ENDBRANCH   9  10
ENDBRANCH   8   9
ENDBRANCH   1   8
TORSDOF 9
ENDMDL
MODEL 4
REMARK VINA RESULT:    -4.002      1.024      3.037
REMARK INTER + INTRA:          -7.510
REMARK INTER:                  -6.131
REMARK INTRA:                  -1.379
REMARK UNBOUND:                -1.402
REMARK SMILES CCCCCCCCCCC(=O)[O-]
REMARK SMILES IDX 7 1 8 2 9 3 10 4 11 5 12 6 13 7 6 8 5 9 4 10 3 11 2 12 1 13
REMARK H PARENT
REMARK Flexibility Score: inf
ROOT
ATOM      1  C   UNL     1      19.756  -0.629  19.887  1.00  0.00     0.000 C 
ENDROOT
BRANCH   1   2
ATOM      2  C   UNL     1      19.967  -1.173  18.466  1.00  0.00     0.000 C 
BRANCH   2   3
ATOM      3  C   UNL     1      18.623  -1.370  17.749  1.00  0.00     0.006 C 
BRANCH   3   4
ATOM      4  C   UNL     1      17.430  -1.245  18.705  1.00  0.00     0.053 C 
BRANCH   4   5
ATOM      5  C   UNL     1      16.227  -1.977  18.192  1.00  0.00     0.041 C 
ATOM      6  O   UNL     1      16.363  -3.075  17.592  1.00  0.00    -0.550 OA
ATOM      7  O   UNL     1      14.960  -1.428  18.347  1.00  0.00    -0.550 OA
ENDBRANCH   4   5
ENDBRANCH   3   4
ENDBRANCH   2   3
ENDBRANCH   1   2
BRANCH   1   8
ATOM      8  C   UNL     1      20.677  -1.294  20.922  1.00  0.00     0.000 C 
BRANCH   8   9
ATOM      9  C   UNL     1      19.904  -2.158  21.933  1.00  0.00    -0.000 C 
BRANCH   9  10
ATOM     10  C   UNL     1      19.806  -3.629  21.498  1.00  0.00    -0.000 C 
BRANCH  10  11
ATOM     11  C   UNL     1      18.399  -4.009  21.003  1.00  0.00    -0.000 C 
BRANCH  11  12
ATOM     12  C   UNL     1      18.437  -4.951  19.789  1.00  0.00    -0.003 C 
ATOM     13  C   UNL     1      19.710  -4.791  18.958  1.00  0.00     0.004 C 
ENDBRANCH  11  12
ENDBRANCH  10  11
ENDBRANCH   9  10
ENDBRANCH   8   9
ENDBRANCH   1   8
TORSDOF 9
ENDMDL
MODEL 5
REMARK VINA RESULT:    -4.002      3.177      4.615
REMARK INTER + INTRA:          -7.509
REMARK INTER:                  -6.344
REMARK INTRA:                  -1.165
REMARK UNBOUND:                -1.402
REMARK SMILES CCCCCCCCCCC(=O)[O-]
REMARK SMILES IDX 7 1 8 2 9 3 10 4 11 5 12 6 13 7 6 8 5 9 4 10 3 11 2 12 1 13
REMARK H PARENT
REMARK Flexibility Score: inf
ROOT
ATOM      1  C   UNL     1      18.521  -4.483  20.782  1.00  0.00     0.000 C 
ENDROOT
BRANCH   1   2
ATOM      2  C   UNL     1      18.206  -3.004  21.053  1.00  0.00     0.000 C 
BRANCH   2   3
ATOM      3  C   UNL     1      19.482  -2.228  21.411  1.00  0.00     0.006 C 
BRANCH   3   4
ATOM      4  C   UNL     1      20.634  -3.158  21.817  1.00  0.00     0.053 C 
BRANCH   4   5
ATOM      5  C   UNL     1      21.813  -3.015  20.902  1.00  0.00     0.041 C 
ATOM      6  O   UNL     1      22.889  -2.521  21.330  1.00  0.00    -0.550 OA
ATOM      7  O   UNL     1      21.710  -3.396  19.571  1.00  0.00    -0.550 OA
ENDBRANCH   4   5
ENDBRANCH   3   4
ENDBRANCH   2   3
ENDBRANCH   1   2
BRANCH   1   8
ATOM      8  C   UNL     1      18.404  -4.853  19.295  1.00  0.00     0.000 C 
BRANCH   8   9
ATOM      9  C   UNL     1      17.052  -4.441  18.687  1.00  0.00    -0.000 C 
BRANCH   9  10
ATOM     10  C   UNL     1      17.209  -3.468  17.507  1.00  0.00    -0.000 C 
BRANCH  10  11
ATOM     11  C   UNL     1      18.652  -2.959  17.344  1.00  0.00    -0.000 C 
BRANCH  11  12
ATOM     12  C   UNL     1      18.748  -1.428  17.430  1.00  0.00    -0.003 C 
ATOM     13  C   UNL     1      17.539  -0.798  18.120  1.00  0.00     0.004 C 
ENDBRANCH  11  12
ENDBRANCH  10  11
ENDBRANCH   9  10
ENDBRANCH   8   9
ENDBRANCH   1   8
TORSDOF 9
ENDMDL
MODEL 6
REMARK VINA RESULT:    -3.986      2.205      3.783
REMARK INTER + INTRA:          -7.485
REMARK INTER:                  -6.188
REMARK INTRA:                  -1.297
REMARK UNBOUND:                -1.402
REMARK SMILES CCCCCCCCCCC(=O)[O-]
REMARK SMILES IDX 7 1 8 2 9 3 10 4 11 5 12 6 13 7 6 8 5 9 4 10 3 11 2 12 1 13
REMARK H PARENT
REMARK Flexibility Score: inf
ROOT
ATOM      1  C   UNL     1      19.387  -0.375  20.391  1.00  0.00     0.000 C 
ENDROOT
BRANCH   1   2
ATOM      2  C   UNL     1      19.095  -1.773  19.826  1.00  0.00     0.000 C 
BRANCH   2   3
ATOM      3  C   UNL     1      18.110  -2.534  20.726  1.00  0.00     0.006 C 
BRANCH   3   4
ATOM      4  C   UNL     1      18.423  -4.035  20.793  1.00  0.00     0.053 C 
BRANCH   4   5
ATOM      5  C   UNL     1      18.314  -4.685  19.447  1.00  0.00     0.041 C 
ATOM      6  O   UNL     1      17.185  -4.852  18.915  1.00  0.00    -0.550 OA
ATOM      7  O   UNL     1      19.456  -5.136  18.798  1.00  0.00    -0.550 OA
ENDBRANCH   4   5
ENDBRANCH   3   4
ENDBRANCH   2   3
ENDBRANCH   1   2
BRANCH   1   8
ATOM      8  C   UNL     1      18.754  -0.147  21.772  1.00  0.00     0.000 C 
BRANCH   8   9
ATOM      9  C   UNL     1      19.785   0.276  22.833  1.00  0.00    -0.000 C 
BRANCH   9  10
ATOM     10  C   UNL     1      21.071  -0.564  22.774  1.00  0.00    -0.000 C 
BRANCH  10  11
ATOM     11  C   UNL     1      21.059  -1.740  23.766  1.00  0.00    -0.000 C 
BRANCH  11  12
ATOM     12  C   UNL     1      21.078  -3.105  23.061  1.00  0.00    -0.003 C 
ATOM     13  C   UNL     1      21.998  -3.126  21.840  1.00  0.00     0.004 C 
ENDBRANCH  11  12
ENDBRANCH  10  11
ENDBRANCH   9  10
ENDBRANCH   8   9
ENDBRANCH   1   8
TORSDOF 9
ENDMDL
MODEL 7
REMARK VINA RESULT:    -3.986      2.934      4.084
REMARK INTER + INTRA:          -7.485
REMARK INTER:                  -6.112
REMARK INTRA:                  -1.373
REMARK UNBOUND:                -1.402
REMARK SMILES CCCCCCCCCCC(=O)[O-]
REMARK SMILES IDX 7 1 8 2 9 3 10 4 11 5 12 6 13 7 6 8 5 9 4 10 3 11 2 12 1 13
REMARK H PARENT
REMARK Flexibility Score: inf
ROOT
ATOM      1  C   UNL     1      20.920  -2.999  22.758  1.00  0.00     0.000 C 
ENDROOT
BRANCH   1   2
ATOM      2  C   UNL     1      22.153  -3.093  21.848  1.00  0.00     0.000 C 
BRANCH   2   3
ATOM      3  C   UNL     1      21.745  -3.068  20.367  1.00  0.00     0.006 C 
BRANCH   3   4
ATOM      4  C   UNL     1      20.249  -2.776  20.181  1.00  0.00     0.053 C 
BRANCH   4   5
ATOM      5  C   UNL     1      19.927  -2.409  18.764  1.00  0.00     0.041 C 
ATOM      6  O   UNL     1      19.076  -1.514  18.520  1.00  0.00    -0.550 OA
ATOM      7  O   UNL     1      20.543  -3.079  17.715  1.00  0.00    -0.550 OA
ENDBRANCH   4   5
ENDBRANCH   3   4
ENDBRANCH   2   3
ENDBRANCH   1   2
BRANCH   1   8
ATOM      8  C   UNL     1      20.990  -1.814  23.734  1.00  0.00     0.000 C 
BRANCH   8   9
ATOM      9  C   UNL     1      20.085  -0.644  23.309  1.00  0.00    -0.000 C 
BRANCH   9  10
ATOM     10  C   UNL     1      20.884   0.557  22.778  1.00  0.00    -0.000 C 
BRANCH  10  11
ATOM     11  C   UNL     1      20.926   0.610  21.241  1.00  0.00    -0.000 C 
BRANCH  11  12
ATOM     12  C   UNL     1      22.358   0.723  20.695  1.00  0.00    -0.003 C 
ATOM     13  C   UNL     1      23.418   0.409  21.750  1.00  0.00     0.004 C 
ENDBRANCH  11  12
ENDBRANCH  10  11
ENDBRANCH   9  10
ENDBRANCH   8   9
ENDBRANCH   1   8
TORSDOF 9
ENDMDL
MODEL 8
REMARK VINA RESULT:    -3.975      1.411      3.956
REMARK INTER + INTRA:          -7.468
REMARK INTER:                  -6.247
REMARK INTRA:                  -1.221
REMARK UNBOUND:                -1.402
REMARK SMILES CCCCCCCCCCC(=O)[O-]
REMARK SMILES IDX 7 1 8 2 9 3 10 4 11 5 12 6 13 7 6 8 5 9 4 10 3 11 2 12 1 13
REMARK H PARENT
REMARK Flexibility Score: inf
ROOT
ATOM      1  C   UNL     1      18.951  -1.154  17.833  1.00  0.00     0.000 C 
ENDROOT
BRANCH   1   2
ATOM      2  C   UNL     1      18.743  -0.710  19.288  1.00  0.00     0.000 C 
BRANCH   2   3
ATOM      3  C   UNL     1      17.303  -0.221  19.511  1.00  0.00     0.006 C 
BRANCH   3   4
ATOM      4  C   UNL     1      16.558   0.016  18.190  1.00  0.00     0.053 C 
BRANCH   4   5
ATOM      5  C   UNL     1      15.206  -0.631  18.191  1.00  0.00     0.041 C 
ATOM      6  O   UNL     1      15.105  -1.885  18.230  1.00  0.00    -0.550 OA
ATOM      7  O   UNL     1      14.061   0.152  18.116  1.00  0.00    -0.550 OA
ENDBRANCH   4   5
ENDBRANCH   3   4
ENDBRANCH   2   3
ENDBRANCH   1   2
BRANCH   1   8
ATOM      8  C   UNL     1      19.347  -2.634  17.713  1.00  0.00     0.000 C 
BRANCH   8   9
ATOM      9  C   UNL     1      18.138  -3.552  17.464  1.00  0.00    -0.000 C 
BRANCH   9  10
ATOM     10  C   UNL     1      17.623  -4.211  18.754  1.00  0.00    -0.000 C 
BRANCH  10  11
ATOM     11  C   UNL     1      18.761  -4.692  19.671  1.00  0.00    -0.000 C 
BRANCH  11  12
ATOM     12  C   UNL     1      18.645  -4.132  21.097  1.00  0.00    -0.003 C 
ATOM     13  C   UNL     1      19.919  -3.428  21.561  1.00  0.00     0.004 C 
ENDBRANCH  11  12
ENDBRANCH  10  11
ENDBRANCH   9  10
ENDBRANCH   8   9
ENDBRANCH   1   8
TORSDOF 9
ENDMDL
MODEL 9
REMARK VINA RESULT:    -3.904      2.757      4.061
REMARK INTER + INTRA:          -7.359
REMARK INTER:                  -5.913
REMARK INTRA:                  -1.446
REMARK UNBOUND:                -1.402
REMARK SMILES CCCCCCCCCCC(=O)[O-]
REMARK SMILES IDX 7 1 8 2 9 3 10 4 11 5 12 6 13 7 6 8 5 9 4 10 3 11 2 12 1 13
REMARK H PARENT
REMARK Flexibility Score: inf
ROOT
ATOM      1  C   UNL     1      17.259  -3.610  17.635  1.00  0.00     0.000 C 
ENDROOT
BRANCH   1   2
ATOM      2  C   UNL     1      17.158  -4.490  18.890  1.00  0.00     0.000 C 
BRANCH   2   3
ATOM      3  C   UNL     1      18.551  -4.778  19.471  1.00  0.00     0.006 C 
BRANCH   3   4
ATOM      4  C   UNL     1      18.707  -4.244  20.901  1.00  0.00     0.053 C 
BRANCH   4   5
ATOM      5  C   UNL     1      19.933  -3.394  21.046  1.00  0.00     0.041 C 
ATOM      6  O   UNL     1      19.949  -2.442  21.870  1.00  0.00    -0.550 OA
ATOM      7  O   UNL     1      21.044  -3.633  20.248  1.00  0.00    -0.550 OA
ENDBRANCH   4   5
ENDBRANCH   3   4
ENDBRANCH   2   3
ENDBRANCH   1   2
BRANCH   1   8
ATOM      8  C   UNL     1      18.682  -3.082  17.391  1.00  0.00     0.000 C 
BRANCH   8   9
ATOM      9  C   UNL     1      18.749  -1.545  17.390  1.00  0.00    -0.000 C 
BRANCH   9  10
ATOM     10  C   UNL     1      17.565  -0.902  18.130  1.00  0.00    -0.000 C 
BRANCH  10  11
ATOM     11  C   UNL     1      17.906  -0.523  19.582  1.00  0.00    -0.000 C 
BRANCH  11  12
ATOM     12  C   UNL     1      16.907  -1.109  20.592  1.00  0.00    -0.003 C 
ATOM     13  C   UNL     1      15.508  -1.289  20.003  1.00  0.00     0.004 C 
ENDBRANCH  11  12
ENDBRANCH  10  11
ENDBRANCH   9  10
ENDBRANCH   8   9
ENDBRANCH   1   8
TORSDOF 9
ENDMDL
