MODEL 1
REMARK VINA RESULT:    -5.919      0.000      0.000
REMARK INTER + INTRA:          -9.304
REMARK INTER:                  -8.341
REMARK INTRA:                  -0.962
REMARK UNBOUND:                -0.962
REMARK SMILES OCC1=C[C@H](O)[C@@H]2C=CO[C@@H](O[C@@H]3O[C@@H](CO)[C@@H](O)[C@@H](O)[C@H]3O)[C@H]12
REMARK SMILES IDX 12 1 11 2 8 3 9 4 7 5 10 6 24 7 5 8 3 9 4 10 6 11 2 13 1 14
REMARK SMILES IDX 13 16 22 17 14 18 20 19 15 20 18 21 23 22 21 24 16 26 17 27
REMARK SMILES IDX 19 29
REMARK H PARENT 6 12 1 15 23 23 21 25 17 28 19 30
REMARK Flexibility Score: inf
ROOT
ATOM      1  O   UNL     1      -7.000  -2.193  -6.924  1.00  0.00    -0.310 OA
ENDROOT
BRANCH   1   2
ATOM      2  C   UNL     1      -5.957  -2.313  -7.878  1.00  0.00     0.316 C 
ATOM      3  C   UNL     1      -7.314  -4.300  -9.389  1.00  0.00     0.018 C 
ATOM      4  C   UNL     1      -7.302  -3.033  -9.802  1.00  0.00     0.186 C 
ATOM      5  C   UNL     1      -6.345  -4.825  -8.339  1.00  0.00     0.061 C 
ATOM      6  O   UNL     1      -6.474  -2.093  -9.188  1.00  0.00    -0.472 OA
ATOM      7  C   UNL     1      -5.383  -3.740  -7.781  1.00  0.00     0.096 C 
ATOM      8  C   UNL     1      -5.388  -5.882  -8.939  1.00  0.00     0.145 C 
ATOM      9  C   UNL     1      -4.127  -3.950  -8.575  1.00  0.00    -0.036 C 
ATOM     10  C   UNL     1      -4.140  -5.118  -9.207  1.00  0.00     0.007 C 
BRANCH   8  11
ATOM     11  O   UNL     1      -5.862  -6.466 -10.125  1.00  0.00    -0.388 OA
ATOM     12  H   UNL     1      -6.604  -5.885 -10.441  1.00  0.00     0.211 HD
ENDBRANCH   8  11
BRANCH   9  13
ATOM     13  C   UNL     1      -2.896  -3.086  -8.497  1.00  0.00     0.187 C 
BRANCH  13  14
ATOM     14  O   UNL     1      -2.732  -2.596  -7.194  1.00  0.00    -0.392 OA
ATOM     15  H   UNL     1      -1.933  -2.007  -7.210  1.00  0.00     0.211 HD
ENDBRANCH  13  14
ENDBRANCH   9  13
ENDBRANCH   1   2
BRANCH   1  16
ATOM     16  C   UNL     1      -7.278  -0.842  -6.582  1.00  0.00     0.286 C 
ATOM     17  C   UNL     1      -8.622  -0.367  -7.216  1.00  0.00     0.202 C 
ATOM     18  O   UNL     1      -7.274  -0.725  -5.165  1.00  0.00    -0.341 OA
ATOM     19  C   UNL     1      -9.411   0.510  -6.225  1.00  0.00     0.179 C 
ATOM     20  C   UNL     1      -8.473  -1.233  -4.606  1.00  0.00     0.178 C 
ATOM     21  C   UNL     1      -9.658  -0.270  -4.910  1.00  0.00     0.177 C 
BRANCH  17  22
ATOM     22  O   UNL     1      -8.365   0.347  -8.399  1.00  0.00    -0.385 OA
ATOM     23  H   UNL     1      -7.692   1.043  -8.174  1.00  0.00     0.211 HD
ENDBRANCH  17  22
BRANCH  19  24
ATOM     24  O   UNL     1      -8.696   1.691  -5.955  1.00  0.00    -0.387 OA
ATOM     25  H   UNL     1      -8.888   1.934  -5.012  1.00  0.00     0.211 HD
ENDBRANCH  19  24
BRANCH  20  26
ATOM     26  C   UNL     1      -8.270  -1.476  -3.103  1.00  0.00     0.191 C 
BRANCH  26  27
ATOM     27  O   UNL     1      -7.582  -0.400  -2.524  1.00  0.00    -0.394 OA
ATOM     28  H   UNL     1      -7.458  -0.623  -1.564  1.00  0.00     0.210 HD
ENDBRANCH  26  27
ENDBRANCH  20  26
BRANCH  21  29
ATOM     29  O   UNL     1      -9.872   0.629  -3.850  1.00  0.00    -0.387 OA
ATOM     30  H   UNL     1     -10.318   0.116  -3.126  1.00  0.00     0.211 HD
ENDBRANCH  21  29
ENDBRANCH   1  16
TORSDOF 10
ENDMDL
MODEL 2
REMARK VINA RESULT:    -5.681     15.181     17.928
REMARK INTER + INTRA:          -8.968
REMARK INTER:                  -8.124
REMARK INTRA:                  -0.844
REMARK UNBOUND:                -0.962
REMARK SMILES OCC1=C[C@H](O)[C@@H]2C=CO[C@@H](O[C@@H]3O[C@@H](CO)[C@@H](O)[C@@H](O)[C@H]3O)[C@H]12
REMARK SMILES IDX 12 1 11 2 8 3 9 4 7 5 10 6 24 7 5 8 3 9 4 10 6 11 2 13 1 14
REMARK SMILES IDX 13 16 22 17 14 18 20 19 15 20 18 21 23 22 21 24 16 26 17 27
REMARK SMILES IDX 19 29
REMARK H PARENT 6 12 1 15 23 23 21 25 17 28 19 30
REMARK Flexibility Score: inf
ROOT
ATOM      1  O   UNL     1      -2.936   6.319   7.250  1.00  0.00    -0.310 OA
ENDROOT
BRANCH   1   2
ATOM      2  C   UNL     1      -4.288   5.894   7.200  1.00  0.00     0.316 C 
ATOM      3  C   UNL     1      -4.945   7.613   5.036  1.00  0.00     0.018 C 
ATOM      4  C   UNL     1      -4.718   6.318   4.821  1.00  0.00     0.186 C 
ATOM      5  C   UNL     1      -5.226   8.172   6.424  1.00  0.00     0.061 C 
ATOM      6  O   UNL     1      -4.599   5.430   5.890  1.00  0.00    -0.472 OA
ATOM      7  C   UNL     1      -5.181   7.100   7.548  1.00  0.00     0.096 C 
ATOM      8  C   UNL     1      -6.662   8.738   6.521  1.00  0.00     0.145 C 
ATOM      9  C   UNL     1      -6.627   6.753   7.752  1.00  0.00    -0.036 C 
ATOM     10  C   UNL     1      -7.428   7.648   7.184  1.00  0.00     0.007 C 
BRANCH   8  11
ATOM     11  O   UNL     1      -7.235   9.042   5.275  1.00  0.00    -0.388 OA
ATOM     12  H   UNL     1      -6.651   9.734   4.865  1.00  0.00     0.211 HD
ENDBRANCH   8  11
BRANCH   9  13
ATOM     13  C   UNL     1      -7.140   5.678   8.673  1.00  0.00     0.187 C 
BRANCH  13  14
ATOM     14  O   UNL     1      -8.494   5.896   8.963  1.00  0.00    -0.392 OA
ATOM     15  H   UNL     1      -8.721   6.794   8.605  1.00  0.00     0.211 HD
ENDBRANCH  13  14
ENDBRANCH   9  13
ENDBRANCH   1   2
BRANCH   1  16
ATOM     16  C   UNL     1      -2.022   5.285   6.911  1.00  0.00     0.286 C 
ATOM     17  C   UNL     1      -1.176   5.671   5.659  1.00  0.00     0.202 C 
ATOM     18  O   UNL     1      -1.214   5.005   8.048  1.00  0.00    -0.341 OA
ATOM     19  C   UNL     1       0.288   5.222   5.832  1.00  0.00     0.179 C 
ATOM     20  C   UNL     1      -0.212   5.992   8.218  1.00  0.00     0.178 C 
ATOM     21  C   UNL     1       0.881   5.842   7.120  1.00  0.00     0.177 C 
BRANCH  17  22
ATOM     22  O   UNL     1      -1.732   5.084   4.509  1.00  0.00    -0.385 OA
ATOM     23  H   UNL     1      -1.086   5.234   3.769  1.00  0.00     0.211 HD
ENDBRANCH  17  22
BRANCH  19  24
ATOM     24  O   UNL     1       0.354   3.818   5.899  1.00  0.00    -0.387 OA
ATOM     25  H   UNL     1       1.146   3.594   6.455  1.00  0.00     0.211 HD
ENDBRANCH  19  24
BRANCH  20  26
ATOM     26  C   UNL     1       0.355   5.900   9.643  1.00  0.00     0.191 C 
BRANCH  26  27
ATOM     27  O   UNL     1       1.387   6.832   9.818  1.00  0.00    -0.394 OA
ATOM     28  H   UNL     1       0.998   7.601  10.312  1.00  0.00     0.210 HD
ENDBRANCH  26  27
ENDBRANCH  20  26
BRANCH  21  29
ATOM     29  O   UNL     1       1.962   5.063   7.576  1.00  0.00    -0.387 OA
ATOM     30  H   UNL     1       2.606   5.001   6.823  1.00  0.00     0.211 HD
ENDBRANCH  21  29
ENDBRANCH   1  16
TORSDOF 10
ENDMDL
MODEL 3
REMARK VINA RESULT:    -5.429     15.271     17.759
REMARK INTER + INTRA:          -8.613
REMARK INTER:                  -7.779
REMARK INTRA:                  -0.834
REMARK UNBOUND:                -0.962
REMARK SMILES OCC1=C[C@H](O)[C@@H]2C=CO[C@@H](O[C@@H]3O[C@@H](CO)[C@@H](O)[C@@H](O)[C@H]3O)[C@H]12
REMARK SMILES IDX 12 1 11 2 8 3 9 4 7 5 10 6 24 7 5 8 3 9 4 10 6 11 2 13 1 14
REMARK SMILES IDX 13 16 22 17 14 18 20 19 15 20 18 21 23 22 21 24 16 26 17 27
REMARK SMILES IDX 19 29
REMARK H PARENT 6 12 1 15 23 23 21 25 17 28 19 30
REMARK Flexibility Score: inf
ROOT
ATOM      1  O   UNL     1      -2.859   6.306   7.390  1.00  0.00    -0.310 OA
ENDROOT
BRANCH   1   2
ATOM      2  C   UNL     1      -2.944   7.382   6.471  1.00  0.00     0.316 C 
ATOM      3  C   UNL     1      -5.300   8.448   7.649  1.00  0.00     0.018 C 
ATOM      4  C   UNL     1      -4.113   8.997   7.904  1.00  0.00     0.186 C 
ATOM      5  C   UNL     1      -5.525   7.499   6.481  1.00  0.00     0.061 C 
ATOM      6  O   UNL     1      -2.984   8.619   7.178  1.00  0.00    -0.472 OA
ATOM      7  C   UNL     1      -4.241   7.211   5.655  1.00  0.00     0.096 C 
ATOM      8  C   UNL     1      -6.495   8.109   5.441  1.00  0.00     0.145 C 
ATOM      9  C   UNL     1      -4.361   8.152   4.491  1.00  0.00    -0.036 C 
ATOM     10  C   UNL     1      -5.591   8.641   4.385  1.00  0.00     0.007 C 
BRANCH   8  11
ATOM     11  O   UNL     1      -7.298   9.141   5.955  1.00  0.00    -0.388 OA
ATOM     12  H   UNL     1      -8.068   8.696   6.399  1.00  0.00     0.211 HD
ENDBRANCH   8  11
BRANCH   9  13
ATOM     13  C   UNL     1      -3.316   8.351   3.425  1.00  0.00     0.187 C 
BRANCH  13  14
ATOM     14  O   UNL     1      -3.217   7.204   2.626  1.00  0.00    -0.392 OA
ATOM     15  H   UNL     1      -3.806   7.352   1.840  1.00  0.00     0.211 HD
ENDBRANCH  13  14
ENDBRANCH   9  13
ENDBRANCH   1   2
BRANCH   1  16
ATOM     16  C   UNL     1      -1.990   5.273   6.947  1.00  0.00     0.286 C 
ATOM     17  C   UNL     1      -1.179   5.722   5.692  1.00  0.00     0.202 C 
ATOM     18  O   UNL     1      -1.150   4.893   8.030  1.00  0.00    -0.341 OA
ATOM     19  C   UNL     1       0.277   5.223   5.777  1.00  0.00     0.179 C 
ATOM     20  C   UNL     1      -0.112   5.838   8.229  1.00  0.00     0.178 C 
ATOM     21  C   UNL     1       0.935   5.735   7.082  1.00  0.00     0.177 C 
BRANCH  17  22
ATOM     22  O   UNL     1      -1.793   5.233   4.527  1.00  0.00    -0.385 OA
ATOM     23  H   UNL     1      -1.064   5.015   3.888  1.00  0.00     0.211 HD
ENDBRANCH  17  22
BRANCH  19  24
ATOM     24  O   UNL     1       0.304   3.817   5.746  1.00  0.00    -0.387 OA
ATOM     25  H   UNL     1       0.780   3.520   6.566  1.00  0.00     0.211 HD
ENDBRANCH  19  24
BRANCH  20  26
ATOM     26  C   UNL     1       0.503   5.631   9.621  1.00  0.00     0.191 C 
BRANCH  26  27
ATOM     27  O   UNL     1       1.511   6.576   9.854  1.00  0.00    -0.394 OA
ATOM     28  H   UNL     1       2.250   6.099  10.316  1.00  0.00     0.210 HD
ENDBRANCH  26  27
ENDBRANCH  20  26
BRANCH  21  29
ATOM     29  O   UNL     1       2.008   4.898   7.441  1.00  0.00    -0.387 OA
ATOM     30  H   UNL     1       1.610   4.058   7.791  1.00  0.00     0.211 HD
ENDBRANCH  21  29
ENDBRANCH   1  16
TORSDOF 10
ENDMDL
MODEL 4
REMARK VINA RESULT:    -5.426     14.417     17.282
REMARK INTER + INTRA:          -8.609
REMARK INTER:                  -7.773
REMARK INTRA:                  -0.836
REMARK UNBOUND:                -0.962
REMARK SMILES OCC1=C[C@H](O)[C@@H]2C=CO[C@@H](O[C@@H]3O[C@@H](CO)[C@@H](O)[C@@H](O)[C@H]3O)[C@H]12
REMARK SMILES IDX 12 1 11 2 8 3 9 4 7 5 10 6 24 7 5 8 3 9 4 10 6 11 2 13 1 14
REMARK SMILES IDX 13 16 22 17 14 18 20 19 15 20 18 21 23 22 21 24 16 26 17 27
REMARK SMILES IDX 19 29
REMARK H PARENT 6 12 1 15 23 23 21 25 17 28 19 30
REMARK Flexibility Score: inf
ROOT
ATOM      1  O   UNL     1      -1.834   6.363   5.636  1.00  0.00    -0.310 OA
ENDROOT
BRANCH   1   2
ATOM      2  C   UNL     1      -3.082   6.006   5.065  1.00  0.00     0.316 C 
ATOM      3  C   UNL     1      -3.652   8.652   4.199  1.00  0.00     0.018 C 
ATOM      4  C   UNL     1      -3.201   7.744   3.334  1.00  0.00     0.186 C 
ATOM      5  C   UNL     1      -4.223   8.271   5.557  1.00  0.00     0.061 C 
ATOM      6  O   UNL     1      -3.115   6.399   3.696  1.00  0.00    -0.472 OA
ATOM      7  C   UNL     1      -4.190   6.744   5.842  1.00  0.00     0.096 C 
ATOM      8  C   UNL     1      -5.726   8.624   5.652  1.00  0.00     0.145 C 
ATOM      9  C   UNL     1      -5.581   6.298   5.496  1.00  0.00    -0.036 C 
ATOM     10  C   UNL     1      -6.411   7.330   5.389  1.00  0.00     0.007 C 
BRANCH   8  11
ATOM     11  O   UNL     1      -6.140   9.589   4.720  1.00  0.00    -0.388 OA
ATOM     12  H   UNL     1      -5.310  10.006   4.367  1.00  0.00     0.211 HD
ENDBRANCH   8  11
BRANCH   9  13
ATOM     13  C   UNL     1      -6.061   4.871   5.499  1.00  0.00     0.187 C 
BRANCH  13  14
ATOM     14  O   UNL     1      -5.896   4.303   4.228  1.00  0.00    -0.392 OA
ATOM     15  H   UNL     1      -5.280   4.900   3.728  1.00  0.00     0.211 HD
ENDBRANCH  13  14
ENDBRANCH   9  13
ENDBRANCH   1   2
BRANCH   1  16
ATOM     16  C   UNL     1      -1.162   5.255   6.220  1.00  0.00     0.286 C 
ATOM     17  C   UNL     1       0.369   5.309   5.927  1.00  0.00     0.202 C 
ATOM     18  O   UNL     1      -1.448   5.235   7.613  1.00  0.00    -0.341 OA
ATOM     19  C   UNL     1       1.176   4.879   7.167  1.00  0.00     0.179 C 
ATOM     20  C   UNL     1      -0.687   6.209   8.306  1.00  0.00     0.178 C 
ATOM     21  C   UNL     1       0.806   5.773   8.375  1.00  0.00     0.177 C 
BRANCH  17  22
ATOM     22  O   UNL     1       0.676   4.479   4.836  1.00  0.00    -0.385 OA
ATOM     23  H   UNL     1       0.553   5.025   4.016  1.00  0.00     0.211 HD
ENDBRANCH  17  22
BRANCH  19  24
ATOM     24  O   UNL     1       0.909   3.530   7.469  1.00  0.00    -0.387 OA
ATOM     25  H   UNL     1       1.134   3.004   6.657  1.00  0.00     0.211 HD
ENDBRANCH  19  24
BRANCH  20  26
ATOM     26  C   UNL     1      -1.306   6.446   9.692  1.00  0.00     0.191 C 
BRANCH  26  27
ATOM     27  O   UNL     1      -1.985   5.299  10.125  1.00  0.00    -0.394 OA
ATOM     28  H   UNL     1      -1.320   4.562  10.144  1.00  0.00     0.210 HD
ENDBRANCH  26  27
ENDBRANCH  20  26
BRANCH  21  29
ATOM     29  O   UNL     1       1.088   5.100   9.578  1.00  0.00    -0.387 OA
ATOM     30  H   UNL     1       0.949   5.755  10.312  1.00  0.00     0.211 HD
ENDBRANCH  21  29
ENDBRANCH   1  16
TORSDOF 10
ENDMDL
MODEL 5
REMARK VINA RESULT:    -5.393     14.969     16.938
REMARK INTER + INTRA:          -8.562
REMARK INTER:                  -7.769
REMARK INTRA:                  -0.793
REMARK UNBOUND:                -0.962
REMARK SMILES OCC1=C[C@H](O)[C@@H]2C=CO[C@@H](O[C@@H]3O[C@@H](CO)[C@@H](O)[C@@H](O)[C@H]3O)[C@H]12
REMARK SMILES IDX 12 1 11 2 8 3 9 4 7 5 10 6 24 7 5 8 3 9 4 10 6 11 2 13 1 14
REMARK SMILES IDX 13 16 22 17 14 18 20 19 15 20 18 21 23 22 21 24 16 26 17 27
REMARK SMILES IDX 19 29
REMARK H PARENT 6 12 1 15 23 23 21 25 17 28 19 30
REMARK Flexibility Score: inf
ROOT
ATOM      1  O   UNL     1      -2.143   5.948   5.074  1.00  0.00    -0.310 OA
ENDROOT
BRANCH   1   2
ATOM      2  C   UNL     1      -1.985   6.105   6.474  1.00  0.00     0.316 C 
ATOM      3  C   UNL     1       0.842   6.334   6.320  1.00  0.00     0.018 C 
ATOM      4  C   UNL     1       0.087   7.422   6.465  1.00  0.00     0.186 C 
ATOM      5  C   UNL     1       0.313   4.932   6.588  1.00  0.00     0.061 C 
ATOM      6  O   UNL     1      -1.274   7.309   6.748  1.00  0.00    -0.472 OA
ATOM      7  C   UNL     1      -1.184   4.899   7.003  1.00  0.00     0.096 C 
ATOM      8  C   UNL     1       1.036   4.280   7.791  1.00  0.00     0.145 C 
ATOM      9  C   UNL     1      -1.125   4.812   8.500  1.00  0.00    -0.036 C 
ATOM     10  C   UNL     1       0.090   4.478   8.921  1.00  0.00     0.007 C 
BRANCH   8  11
ATOM     11  O   UNL     1       2.277   4.866   8.090  1.00  0.00    -0.388 OA
ATOM     12  H   UNL     1       2.743   4.231   8.696  1.00  0.00     0.211 HD
ENDBRANCH   8  11
BRANCH   9  13
ATOM     13  C   UNL     1      -2.318   4.851   9.419  1.00  0.00     0.187 C 
BRANCH  13  14
ATOM     14  O   UNL     1      -3.391   4.156   8.847  1.00  0.00    -0.392 OA
ATOM     15  H   UNL     1      -3.570   4.581   7.967  1.00  0.00     0.211 HD
ENDBRANCH  13  14
ENDBRANCH   9  13
ENDBRANCH   1   2
BRANCH   1  16
ATOM     16  C   UNL     1      -3.506   5.957   4.671  1.00  0.00     0.286 C 
ATOM     17  C   UNL     1      -4.450   6.186   5.891  1.00  0.00     0.202 C 
ATOM     18  O   UNL     1      -3.672   6.945   3.661  1.00  0.00    -0.341 OA
ATOM     19  C   UNL     1      -5.611   7.126   5.511  1.00  0.00     0.179 C 
ATOM     20  C   UNL     1      -3.709   8.247   4.221  1.00  0.00     0.178 C 
ATOM     21  C   UNL     1      -5.051   8.467   4.977  1.00  0.00     0.177 C 
BRANCH  17  22
ATOM     22  O   UNL     1      -4.951   4.954   6.344  1.00  0.00    -0.385 OA
ATOM     23  H   UNL     1      -4.320   4.625   7.037  1.00  0.00     0.211 HD
ENDBRANCH  17  22
BRANCH  19  24
ATOM     24  O   UNL     1      -6.419   6.519   4.532  1.00  0.00    -0.387 OA
ATOM     25  H   UNL     1      -6.596   5.592   4.840  1.00  0.00     0.211 HD
ENDBRANCH  19  24
BRANCH  20  26
ATOM     26  C   UNL     1      -3.470   9.283   3.112  1.00  0.00     0.191 C 
BRANCH  26  27
ATOM     27  O   UNL     1      -2.317   8.960   2.383  1.00  0.00    -0.394 OA
ATOM     28  H   UNL     1      -2.524   8.135   1.871  1.00  0.00     0.210 HD
ENDBRANCH  26  27
ENDBRANCH  20  26
BRANCH  21  29
ATOM     29  O   UNL     1      -6.006   9.095   4.156  1.00  0.00    -0.387 OA
ATOM     30  H   UNL     1      -5.918  10.072   4.310  1.00  0.00     0.211 HD
ENDBRANCH  21  29
ENDBRANCH   1  16
TORSDOF 10
ENDMDL
MODEL 6
REMARK VINA RESULT:    -5.147     13.120     16.575
REMARK INTER + INTRA:          -8.215
REMARK INTER:                  -7.184
REMARK INTRA:                  -1.031
REMARK UNBOUND:                -0.962
REMARK SMILES OCC1=C[C@H](O)[C@@H]2C=CO[C@@H](O[C@@H]3O[C@@H](CO)[C@@H](O)[C@@H](O)[C@H]3O)[C@H]12
REMARK SMILES IDX 12 1 11 2 8 3 9 4 7 5 10 6 24 7 5 8 3 9 4 10 6 11 2 13 1 14
REMARK SMILES IDX 13 16 22 17 14 18 20 19 15 20 18 21 23 22 21 24 16 26 17 27
REMARK SMILES IDX 19 29
REMARK H PARENT 6 12 1 15 23 23 21 25 17 28 19 30
REMARK Flexibility Score: inf
ROOT
ATOM      1  O   UNL     1      -2.858  -8.251   7.165  1.00  0.00    -0.310 OA
ENDROOT
BRANCH   1   2
ATOM      2  C   UNL     1      -3.380  -7.680   8.353  1.00  0.00     0.316 C 
ATOM      3  C   UNL     1      -4.571 -10.109   9.220  1.00  0.00     0.018 C 
ATOM      4  C   UNL     1      -3.416  -9.701   9.746  1.00  0.00     0.186 C 
ATOM      5  C   UNL     1      -5.482  -9.179   8.433  1.00  0.00     0.061 C 
ATOM      6  O   UNL     1      -2.928  -8.421   9.483  1.00  0.00    -0.472 OA
ATOM      7  C   UNL     1      -4.918  -7.739   8.276  1.00  0.00     0.096 C 
ATOM      8  C   UNL     1      -6.828  -8.961   9.165  1.00  0.00     0.145 C 
ATOM      9  C   UNL     1      -5.616  -6.974   9.362  1.00  0.00    -0.036 C 
ATOM     10  C   UNL     1      -6.653  -7.649   9.845  1.00  0.00     0.007 C 
BRANCH   8  11
ATOM     11  O   UNL     1      -7.126  -9.958  10.108  1.00  0.00    -0.388 OA
ATOM     12  H   UNL     1      -7.522  -9.489  10.890  1.00  0.00     0.211 HD
ENDBRANCH   8  11
BRANCH   9  13
ATOM     13  C   UNL     1      -5.352  -5.534   9.716  1.00  0.00     0.187 C 
BRANCH  13  14
ATOM     14  O   UNL     1      -5.265  -4.759   8.552  1.00  0.00    -0.392 OA
ATOM     15  H   UNL     1      -5.587  -3.850   8.790  1.00  0.00     0.211 HD
ENDBRANCH  13  14
ENDBRANCH   9  13
ENDBRANCH   1   2
BRANCH   1  16
ATOM     16  C   UNL     1      -3.189  -7.500   6.004  1.00  0.00     0.286 C 
ATOM     17  C   UNL     1      -2.337  -6.196   5.918  1.00  0.00     0.202 C 
ATOM     18  O   UNL     1      -3.024  -8.334   4.864  1.00  0.00    -0.341 OA
ATOM     19  C   UNL     1      -1.899  -5.927   4.465  1.00  0.00     0.179 C 
ATOM     20  C   UNL     1      -1.655  -8.472   4.525  1.00  0.00     0.178 C 
ATOM     21  C   UNL     1      -1.116  -7.145   3.915  1.00  0.00     0.177 C 
BRANCH  17  22
ATOM     22  O   UNL     1      -3.077  -5.109   6.411  1.00  0.00    -0.385 OA
ATOM     23  H   UNL     1      -2.746  -4.929   7.330  1.00  0.00     0.211 HD
ENDBRANCH  17  22
BRANCH  19  24
ATOM     24  O   UNL     1      -3.028  -5.680   3.662  1.00  0.00    -0.387 OA
ATOM     25  H   UNL     1      -3.716  -5.275   4.252  1.00  0.00     0.211 HD
ENDBRANCH  19  24
BRANCH  20  26
ATOM     26  C   UNL     1      -1.483  -9.675   3.585  1.00  0.00     0.191 C 
BRANCH  26  27
ATOM     27  O   UNL     1      -2.427  -9.623   2.550  1.00  0.00    -0.394 OA
ATOM     28  H   UNL     1      -2.036  -9.058   1.833  1.00  0.00     0.210 HD
ENDBRANCH  26  27
ENDBRANCH  20  26
BRANCH  21  29
ATOM     29  O   UNL     1      -1.179  -7.163   2.509  1.00  0.00    -0.387 OA
ATOM     30  H   UNL     1      -1.599  -8.026   2.254  1.00  0.00     0.211 HD
ENDBRANCH  21  29
ENDBRANCH   1  16
TORSDOF 10
ENDMDL
MODEL 7
REMARK VINA RESULT:    -5.074      2.770      4.616
REMARK INTER + INTRA:          -8.113
REMARK INTER:                  -7.669
REMARK INTRA:                  -0.445
REMARK UNBOUND:                -0.962
REMARK SMILES OCC1=C[C@H](O)[C@@H]2C=CO[C@@H](O[C@@H]3O[C@@H](CO)[C@@H](O)[C@@H](O)[C@H]3O)[C@H]12
REMARK SMILES IDX 12 1 11 2 8 3 9 4 7 5 10 6 24 7 5 8 3 9 4 10 6 11 2 13 1 14
REMARK SMILES IDX 13 16 22 17 14 18 20 19 15 20 18 21 23 22 21 24 16 26 17 27
REMARK SMILES IDX 19 29
REMARK H PARENT 6 12 1 15 23 23 21 25 17 28 19 30
REMARK Flexibility Score: inf
ROOT
ATOM      1  O   UNL     1      -7.312  -0.269  -5.483  1.00  0.00    -0.310 OA
ENDROOT
BRANCH   1   2
ATOM      2  C   UNL     1      -7.439  -1.635  -5.841  1.00  0.00     0.316 C 
ATOM      3  C   UNL     1      -7.812  -1.069  -8.601  1.00  0.00     0.018 C 
ATOM      4  C   UNL     1      -6.627  -1.484  -8.154  1.00  0.00     0.186 C 
ATOM      5  C   UNL     1      -9.089  -1.218  -7.785  1.00  0.00     0.061 C 
ATOM      6  O   UNL     1      -6.486  -1.959  -6.850  1.00  0.00    -0.472 OA
ATOM      7  C   UNL     1      -8.864  -1.856  -6.386  1.00  0.00     0.096 C 
ATOM      8  C   UNL     1     -10.081  -2.188  -8.469  1.00  0.00     0.145 C 
ATOM      9  C   UNL     1      -9.221  -3.298  -6.602  1.00  0.00    -0.036 C 
ATOM     10  C   UNL     1      -9.880  -3.471  -7.743  1.00  0.00     0.007 C 
BRANCH   8  11
ATOM     11  O   UNL     1      -9.842  -2.367  -9.841  1.00  0.00    -0.388 OA
ATOM     12  H   UNL     1     -10.530  -1.826 -10.314  1.00  0.00     0.211 HD
ENDBRANCH   8  11
BRANCH   9  13
ATOM     13  C   UNL     1      -9.081  -4.390  -5.575  1.00  0.00     0.187 C 
BRANCH  13  14
ATOM     14  O   UNL     1      -9.311  -3.878  -4.291  1.00  0.00    -0.392 OA
ATOM     15  H   UNL     1     -10.091  -3.267  -4.364  1.00  0.00     0.211 HD
ENDBRANCH  13  14
ENDBRANCH   9  13
ENDBRANCH   1   2
BRANCH   1  16
ATOM     16  C   UNL     1      -8.140   0.088  -4.384  1.00  0.00     0.286 C 
ATOM     17  C   UNL     1      -7.356   0.951  -3.348  1.00  0.00     0.202 C 
ATOM     18  O   UNL     1      -9.294   0.753  -4.884  1.00  0.00    -0.341 OA
ATOM     19  C   UNL     1      -8.246   2.084  -2.800  1.00  0.00     0.179 C 
ATOM     20  C   UNL     1      -8.996   2.091  -5.244  1.00  0.00     0.178 C 
ATOM     21  C   UNL     1      -8.773   2.953  -3.968  1.00  0.00     0.177 C 
BRANCH  17  22
ATOM     22  O   UNL     1      -6.902   0.138  -2.296  1.00  0.00    -0.385 OA
ATOM     23  H   UNL     1      -7.700  -0.321  -1.923  1.00  0.00     0.211 HD
ENDBRANCH  17  22
BRANCH  19  24
ATOM     24  O   UNL     1      -9.325   1.540  -2.080  1.00  0.00    -0.387 OA
ATOM     25  H   UNL     1     -10.087   1.471  -2.713  1.00  0.00     0.211 HD
ENDBRANCH  19  24
BRANCH  20  26
ATOM     26  C   UNL     1     -10.116   2.635  -6.146  1.00  0.00     0.191 C 
BRANCH  26  27
ATOM     27  O   UNL     1     -10.125   1.958  -7.373  1.00  0.00    -0.394 OA
ATOM     28  H   UNL     1     -10.537   1.070  -7.207  1.00  0.00     0.210 HD
ENDBRANCH  26  27
ENDBRANCH  20  26
BRANCH  21  29
ATOM     29  O   UNL     1      -9.955   3.613  -3.581  1.00  0.00    -0.387 OA
ATOM     30  H   UNL     1      -9.755   4.082  -2.730  1.00  0.00     0.211 HD
ENDBRANCH  21  29
ENDBRANCH   1  16
TORSDOF 10
ENDMDL
MODEL 8
REMARK VINA RESULT:    -4.976     15.360     17.039
REMARK INTER + INTRA:          -7.974
REMARK INTER:                  -7.196
REMARK INTRA:                  -0.778
REMARK UNBOUND:                -0.962
REMARK SMILES OCC1=C[C@H](O)[C@@H]2C=CO[C@@H](O[C@@H]3O[C@@H](CO)[C@@H](O)[C@@H](O)[C@H]3O)[C@H]12
REMARK SMILES IDX 12 1 11 2 8 3 9 4 7 5 10 6 24 7 5 8 3 9 4 10 6 11 2 13 1 14
REMARK SMILES IDX 13 16 22 17 14 18 20 19 15 20 18 21 23 22 21 24 16 26 17 27
REMARK SMILES IDX 19 29
REMARK H PARENT 6 12 1 15 23 23 21 25 17 28 19 30
REMARK Flexibility Score: inf
ROOT
ATOM      1  O   UNL     1      -1.823   6.606   5.761  1.00  0.00    -0.310 OA
ENDROOT
BRANCH   1   2
ATOM      2  C   UNL     1      -1.661   6.360   7.148  1.00  0.00     0.316 C 
ATOM      3  C   UNL     1       1.064   5.600   6.884  1.00  0.00     0.018 C 
ATOM      4  C   UNL     1       0.746   6.818   7.322  1.00  0.00     0.186 C 
ATOM      5  C   UNL     1       0.060   4.456   6.851  1.00  0.00     0.061 C 
ATOM      6  O   UNL     1      -0.573   7.131   7.651  1.00  0.00    -0.472 OA
ATOM      7  C   UNL     1      -1.360   4.859   7.334  1.00  0.00     0.096 C 
ATOM      8  C   UNL     1       0.466   3.325   7.825  1.00  0.00     0.145 C 
ATOM      9  C   UNL     1      -1.381   4.404   8.765  1.00  0.00    -0.036 C 
ATOM     10  C   UNL     1      -0.378   3.572   9.025  1.00  0.00     0.007 C 
BRANCH   8  11
ATOM     11  O   UNL     1       1.825   3.344   8.179  1.00  0.00    -0.388 OA
ATOM     12  H   UNL     1       2.129   4.283   8.058  1.00  0.00     0.211 HD
ENDBRANCH   8  11
BRANCH   9  13
ATOM     13  C   UNL     1      -2.506   4.645   9.736  1.00  0.00     0.187 C 
BRANCH  13  14
ATOM     14  O   UNL     1      -3.624   3.879   9.380  1.00  0.00    -0.392 OA
ATOM     15  H   UNL     1      -3.816   3.280  10.148  1.00  0.00     0.211 HD
ENDBRANCH  13  14
ENDBRANCH   9  13
ENDBRANCH   1   2
BRANCH   1  16
ATOM     16  C   UNL     1      -2.812   7.591   5.491  1.00  0.00     0.286 C 
ATOM     17  C   UNL     1      -3.267   7.535   4.000  1.00  0.00     0.202 C 
ATOM     18  O   UNL     1      -3.893   7.407   6.397  1.00  0.00    -0.341 OA
ATOM     19  C   UNL     1      -4.790   7.746   3.888  1.00  0.00     0.179 C 
ATOM     20  C   UNL     1      -4.708   6.315   6.006  1.00  0.00     0.178 C 
ATOM     21  C   UNL     1      -5.533   6.689   4.740  1.00  0.00     0.177 C 
BRANCH  17  22
ATOM     22  O   UNL     1      -2.585   8.512   3.256  1.00  0.00    -0.385 OA
ATOM     23  H   UNL     1      -1.889   8.039   2.730  1.00  0.00     0.211 HD
ENDBRANCH  17  22
BRANCH  19  24
ATOM     24  O   UNL     1      -5.128   9.040   4.325  1.00  0.00    -0.387 OA
ATOM     25  H   UNL     1      -4.859   9.100   5.279  1.00  0.00     0.211 HD
ENDBRANCH  19  24
BRANCH  20  26
ATOM     26  C   UNL     1      -5.588   5.889   7.190  1.00  0.00     0.191 C 
BRANCH  26  27
ATOM     27  O   UNL     1      -5.632   4.491   7.286  1.00  0.00    -0.394 OA
ATOM     28  H   UNL     1      -4.918   4.225   7.923  1.00  0.00     0.210 HD
ENDBRANCH  26  27
ENDBRANCH  20  26
BRANCH  21  29
ATOM     29  O   UNL     1      -6.814   7.162   5.085  1.00  0.00    -0.387 OA
ATOM     30  H   UNL     1      -7.451   6.423   4.899  1.00  0.00     0.211 HD
ENDBRANCH  21  29
ENDBRANCH   1  16
TORSDOF 10
ENDMDL
MODEL 9
REMARK VINA RESULT:    -4.730     14.765     17.509
REMARK INTER + INTRA:          -7.628
REMARK INTER:                  -6.837
REMARK INTRA:                  -0.791
REMARK UNBOUND:                -0.962
REMARK SMILES OCC1=C[C@H](O)[C@@H]2C=CO[C@@H](O[C@@H]3O[C@@H](CO)[C@@H](O)[C@@H](O)[C@H]3O)[C@H]12
REMARK SMILES IDX 12 1 11 2 8 3 9 4 7 5 10 6 24 7 5 8 3 9 4 10 6 11 2 13 1 14
REMARK SMILES IDX 13 16 22 17 14 18 20 19 15 20 18 21 23 22 21 24 16 26 17 27
REMARK SMILES IDX 19 29
REMARK H PARENT 6 12 1 15 23 23 21 25 17 28 19 30
REMARK Flexibility Score: inf
ROOT
ATOM      1  O   UNL     1      -2.363   5.844   7.253  1.00  0.00    -0.310 OA
ENDROOT
BRANCH   1   2
ATOM      2  C   UNL     1      -1.124   6.384   7.682  1.00  0.00     0.316 C 
ATOM      3  C   UNL     1       0.393   4.223   6.633  1.00  0.00     0.018 C 
ATOM      4  C   UNL     1       0.324   5.378   5.973  1.00  0.00     0.186 C 
ATOM      5  C   UNL     1       0.000   4.096   8.098  1.00  0.00     0.061 C 
ATOM      6  O   UNL     1      -0.241   6.505   6.570  1.00  0.00    -0.472 OA
ATOM      7  C   UNL     1      -0.518   5.421   8.722  1.00  0.00     0.096 C 
ATOM      8  C   UNL     1       1.222   3.736   8.977  1.00  0.00     0.145 C 
ATOM      9  C   UNL     1       0.689   5.965   9.430  1.00  0.00    -0.036 C 
ATOM     10  C   UNL     1       1.635   5.041   9.560  1.00  0.00     0.007 C 
BRANCH   8  11
ATOM     11  O   UNL     1       2.287   3.168   8.259  1.00  0.00    -0.388 OA
ATOM     12  H   UNL     1       3.013   3.848   8.259  1.00  0.00     0.211 HD
ENDBRANCH   8  11
BRANCH   9  13
ATOM     13  C   UNL     1       0.760   7.299  10.125  1.00  0.00     0.187 C 
BRANCH  13  14
ATOM     14  O   UNL     1       1.122   8.300   9.214  1.00  0.00    -0.392 OA
ATOM     15  H   UNL     1       0.714   9.144   9.541  1.00  0.00     0.211 HD
ENDBRANCH  13  14
ENDBRANCH   9  13
ENDBRANCH   1   2
BRANCH   1  16
ATOM     16  C   UNL     1      -2.938   6.576   6.179  1.00  0.00     0.286 C 
ATOM     17  C   UNL     1      -3.431   5.620   5.049  1.00  0.00     0.202 C 
ATOM     18  O   UNL     1      -3.983   7.391   6.696  1.00  0.00    -0.341 OA
ATOM     19  C   UNL     1      -4.777   6.104   4.476  1.00  0.00     0.179 C 
ATOM     20  C   UNL     1      -5.149   6.628   6.951  1.00  0.00     0.178 C 
ATOM     21  C   UNL     1      -5.825   6.215   5.611  1.00  0.00     0.177 C 
BRANCH  17  22
ATOM     22  O   UNL     1      -2.466   5.550   4.030  1.00  0.00    -0.385 OA
ATOM     23  H   UNL     1      -1.693   5.050   4.401  1.00  0.00     0.211 HD
ENDBRANCH  17  22
BRANCH  19  24
ATOM     24  O   UNL     1      -4.611   7.354   3.852  1.00  0.00    -0.387 OA
ATOM     25  H   UNL     1      -5.504   7.789   3.839  1.00  0.00     0.211 HD
ENDBRANCH  19  24
BRANCH  20  26
ATOM     26  C   UNL     1      -6.085   7.424   7.873  1.00  0.00     0.191 C 
BRANCH  26  27
ATOM     27  O   UNL     1      -7.267   6.706   8.105  1.00  0.00    -0.394 OA
ATOM     28  H   UNL     1      -6.997   5.791   8.378  1.00  0.00     0.210 HD
ENDBRANCH  26  27
ENDBRANCH  20  26
BRANCH  21  29
ATOM     29  O   UNL     1      -6.836   7.123   5.246  1.00  0.00    -0.387 OA
ATOM     30  H   UNL     1      -7.702   6.657   5.384  1.00  0.00     0.211 HD
ENDBRANCH  21  29
ENDBRANCH   1  16
TORSDOF 10
ENDMDL
