MODEL 1
REMARK VINA RESULT:    -3.565      0.000      0.000
REMARK INTER + INTRA:          -4.221
REMARK INTER:                  -4.190
REMARK INTRA:                  -0.031
REMARK UNBOUND:                -0.031
REMARK SMILES CCCCC(=O)[O-]
REMARK SMILES IDX 4 1 5 2 6 3 7 4 3 5 2 6 1 7
REMARK H PARENT
REMARK Flexibility Score: inf
ROOT
ATOM      1  C   UNL     1       3.209   0.838  -3.054  1.00  0.00     0.053 C 
ENDROOT
BRANCH   1   2
ATOM      2  C   UNL     1       3.405  -0.647  -3.005  1.00  0.00     0.041 C 
ATOM      3  O   UNL     1       4.565  -1.131  -2.925  1.00  0.00    -0.550 OA
ATOM      4  O   UNL     1       2.304  -1.494  -3.016  1.00  0.00    -0.550 OA
ENDBRANCH   1   2
BRANCH   1   5
ATOM      5  C   UNL     1       4.372   1.541  -3.767  1.00  0.00     0.006 C 
BRANCH   5   6
ATOM      6  C   UNL     1       4.186   3.064  -3.818  1.00  0.00    -0.003 C 
ATOM      7  C   UNL     1       2.722   3.433  -4.034  1.00  0.00     0.004 C 
ENDBRANCH   5   6
ENDBRANCH   1   5
TORSDOF 3
ENDMDL
MODEL 2
REMARK VINA RESULT:    -3.549      0.135      1.230
REMARK INTER + INTRA:          -4.202
REMARK INTER:                  -4.170
REMARK INTRA:                  -0.033
REMARK UNBOUND:                -0.031
REMARK SMILES CCCCC(=O)[O-]
REMARK SMILES IDX 4 1 5 2 6 3 7 4 3 5 2 6 1 7
REMARK H PARENT
REMARK Flexibility Score: inf
ROOT
ATOM      1  C   UNL     1       3.257   0.877  -3.094  1.00  0.00     0.053 C 
ENDROOT
BRANCH   1   2
ATOM      2  C   UNL     1       3.469  -0.605  -3.022  1.00  0.00     0.041 C 
ATOM      3  O   UNL     1       2.482  -1.385  -2.982  1.00  0.00    -0.550 OA
ATOM      4  O   UNL     1       4.758  -1.124  -3.031  1.00  0.00    -0.550 OA
ENDBRANCH   1   2
BRANCH   1   5
ATOM      5  C   UNL     1       4.468   1.594  -3.705  1.00  0.00     0.006 C 
BRANCH   5   6
ATOM      6  C   UNL     1       4.238   3.106  -3.844  1.00  0.00    -0.003 C 
ATOM      7  C   UNL     1       2.758   3.421  -4.039  1.00  0.00     0.004 C 
ENDBRANCH   5   6
ENDBRANCH   1   5
TORSDOF 3
ENDMDL
MODEL 3
REMARK VINA RESULT:    -3.258      1.396      2.047
REMARK INTER + INTRA:          -3.860
REMARK INTER:                  -3.815
REMARK INTRA:                  -0.045
REMARK UNBOUND:                -0.031
REMARK SMILES CCCCC(=O)[O-]
REMARK SMILES IDX 4 1 5 2 6 3 7 4 3 5 2 6 1 7
REMARK H PARENT
REMARK Flexibility Score: inf
ROOT
ATOM      1  C   UNL     1       4.055  -0.041  -4.104  1.00  0.00     0.053 C 
ENDROOT
BRANCH   1   2
ATOM      2  C   UNL     1       5.326  -0.596  -3.539  1.00  0.00     0.041 C 
ATOM      3  O   UNL     1       5.295  -1.355  -2.534  1.00  0.00    -0.550 OA
ATOM      4  O   UNL     1       6.542  -0.301  -4.142  1.00  0.00    -0.550 OA
ENDBRANCH   1   2
BRANCH   1   5
ATOM      5  C   UNL     1       3.582   1.197  -3.330  1.00  0.00     0.006 C 
BRANCH   5   6
ATOM      6  C   UNL     1       3.941   2.504  -4.050  1.00  0.00    -0.003 C 
ATOM      7  C   UNL     1       2.771   3.484  -4.027  1.00  0.00     0.004 C 
ENDBRANCH   5   6
ENDBRANCH   1   5
TORSDOF 3
ENDMDL
MODEL 4
REMARK VINA RESULT:    -3.245      2.839      4.020
REMARK INTER + INTRA:          -3.845
REMARK INTER:                  -3.830
REMARK INTRA:                  -0.016
REMARK UNBOUND:                -0.031
REMARK SMILES CCCCC(=O)[O-]
REMARK SMILES IDX 4 1 5 2 6 3 7 4 3 5 2 6 1 7
REMARK H PARENT
REMARK Flexibility Score: inf
ROOT
ATOM      1  C   UNL     1       4.047   1.682  -4.148  1.00  0.00     0.053 C 
ENDROOT
BRANCH   1   2
ATOM      2  C   UNL     1       3.770   3.149  -4.020  1.00  0.00     0.041 C 
ATOM      3  O   UNL     1       4.720   3.975  -4.011  1.00  0.00    -0.550 OA
ATOM      4  O   UNL     1       2.460   3.605  -3.941  1.00  0.00    -0.550 OA
ENDBRANCH   1   2
BRANCH   1   5
ATOM      5  C   UNL     1       3.470   0.890  -2.967  1.00  0.00     0.006 C 
BRANCH   5   6
ATOM      6  C   UNL     1       3.695  -0.621  -3.117  1.00  0.00    -0.003 C 
ATOM      7  C   UNL     1       2.392  -1.392  -2.931  1.00  0.00     0.004 C 
ENDBRANCH   5   6
ENDBRANCH   1   5
TORSDOF 3
ENDMDL
MODEL 5
REMARK VINA RESULT:    -3.211      5.350      6.448
REMARK INTER + INTRA:          -3.805
REMARK INTER:                  -3.785
REMARK INTRA:                  -0.020
REMARK UNBOUND:                -0.031
REMARK SMILES CCCCC(=O)[O-]
REMARK SMILES IDX 4 1 5 2 6 3 7 4 3 5 2 6 1 7
REMARK H PARENT
REMARK Flexibility Score: inf
ROOT
ATOM      1  C   UNL     1       4.395  -3.383  -1.541  1.00  0.00     0.053 C 
ENDROOT
BRANCH   1   2
ATOM      2  C   UNL     1       5.426  -3.139  -0.482  1.00  0.00     0.041 C 
ATOM      3  O   UNL     1       6.606  -2.839  -0.803  1.00  0.00    -0.550 OA
ATOM      4  O   UNL     1       5.075  -3.212   0.860  1.00  0.00    -0.550 OA
ENDBRANCH   1   2
BRANCH   1   5
ATOM      5  C   UNL     1       3.148  -4.073  -0.972  1.00  0.00     0.006 C 
BRANCH   5   6
ATOM      6  C   UNL     1       2.512  -5.044  -1.976  1.00  0.00    -0.003 C 
ATOM      7  C   UNL     1       2.002  -6.302  -1.279  1.00  0.00     0.004 C 
ENDBRANCH   5   6
ENDBRANCH   1   5
TORSDOF 3
ENDMDL
MODEL 6
REMARK VINA RESULT:    -3.141      3.285      4.382
REMARK INTER + INTRA:          -3.722
REMARK INTER:                  -3.642
REMARK INTRA:                  -0.081
REMARK UNBOUND:                -0.031
REMARK SMILES CCCCC(=O)[O-]
REMARK SMILES IDX 4 1 5 2 6 3 7 4 3 5 2 6 1 7
REMARK H PARENT
REMARK Flexibility Score: inf
ROOT
ATOM      1  C   UNL     1       3.853   3.724  -3.913  1.00  0.00     0.053 C 
ENDROOT
BRANCH   1   2
ATOM      2  C   UNL     1       4.912   3.731  -4.973  1.00  0.00     0.041 C 
ATOM      3  O   UNL     1       4.611   3.492  -6.172  1.00  0.00    -0.550 OA
ATOM      4  O   UNL     1       6.226   4.033  -4.640  1.00  0.00    -0.550 OA
ENDBRANCH   1   2
BRANCH   1   5
ATOM      5  C   UNL     1       3.177   2.351  -3.794  1.00  0.00     0.006 C 
BRANCH   5   6
ATOM      6  C   UNL     1       4.136   1.277  -3.262  1.00  0.00    -0.003 C 
ATOM      7  C   UNL     1       3.395  -0.023  -2.964  1.00  0.00     0.004 C 
ENDBRANCH   5   6
ENDBRANCH   1   5
TORSDOF 3
ENDMDL
MODEL 7
REMARK VINA RESULT:    -3.050     14.407     15.100
REMARK INTER + INTRA:          -3.616
REMARK INTER:                  -3.549
REMARK INTRA:                  -0.067
REMARK UNBOUND:                -0.031
REMARK SMILES CCCCC(=O)[O-]
REMARK SMILES IDX 4 1 5 2 6 3 7 4 3 5 2 6 1 7
REMARK H PARENT
REMARK Flexibility Score: inf
ROOT
ATOM      1  C   UNL     1      -7.864  -7.469   3.291  1.00  0.00     0.053 C 
ENDROOT
BRANCH   1   2
ATOM      2  C   UNL     1      -8.165  -6.278   2.433  1.00  0.00     0.041 C 
ATOM      3  O   UNL     1      -7.912  -6.304   1.200  1.00  0.00    -0.550 OA
ATOM      4  O   UNL     1      -8.754  -5.150   2.992  1.00  0.00    -0.550 OA
ENDBRANCH   1   2
BRANCH   1   5
ATOM      5  C   UNL     1      -7.257  -7.059   4.639  1.00  0.00     0.006 C 
BRANCH   5   6
ATOM      6  C   UNL     1      -5.858  -6.447   4.484  1.00  0.00    -0.003 C 
ATOM      7  C   UNL     1      -4.832  -7.200   5.326  1.00  0.00     0.004 C 
ENDBRANCH   5   6
ENDBRANCH   1   5
TORSDOF 3
ENDMDL
MODEL 8
REMARK VINA RESULT:    -2.916     12.502     13.330
REMARK INTER + INTRA:          -3.458
REMARK INTER:                  -3.442
REMARK INTRA:                  -0.016
REMARK UNBOUND:                -0.031
REMARK SMILES CCCCC(=O)[O-]
REMARK SMILES IDX 4 1 5 2 6 3 7 4 3 5 2 6 1 7
REMARK H PARENT
REMARK Flexibility Score: inf
ROOT
ATOM      1  C   UNL     1      -7.215   8.542  -2.302  1.00  0.00     0.053 C 
ENDROOT
BRANCH   1   2
ATOM      2  C   UNL     1      -6.353   8.472  -1.079  1.00  0.00     0.041 C 
ATOM      3  O   UNL     1      -6.362   9.413  -0.242  1.00  0.00    -0.550 OA
ATOM      4  O   UNL     1      -5.562   7.353  -0.848  1.00  0.00    -0.550 OA
ENDBRANCH   1   2
BRANCH   1   5
ATOM      5  C   UNL     1      -6.998   9.848  -3.077  1.00  0.00     0.006 C 
BRANCH   5   6
ATOM      6  C   UNL     1      -7.507   9.757  -4.522  1.00  0.00    -0.003 C 
ATOM      7  C   UNL     1      -6.400  10.092  -5.518  1.00  0.00     0.004 C 
ENDBRANCH   5   6
ENDBRANCH   1   5
TORSDOF 3
ENDMDL
MODEL 9
REMARK VINA RESULT:    -2.879      2.399      3.243
REMARK INTER + INTRA:          -3.415
REMARK INTER:                  -3.399
REMARK INTRA:                  -0.017
REMARK UNBOUND:                -0.031
REMARK SMILES CCCCC(=O)[O-]
REMARK SMILES IDX 4 1 5 2 6 3 7 4 3 5 2 6 1 7
REMARK H PARENT
REMARK Flexibility Score: inf
ROOT
ATOM      1  C   UNL     1       4.530  -2.054  -2.103  1.00  0.00     0.053 C 
ENDROOT
BRANCH   1   2
ATOM      2  C   UNL     1       5.634  -2.476  -1.183  1.00  0.00     0.041 C 
ATOM      3  O   UNL     1       6.833  -2.419  -1.563  1.00  0.00    -0.550 OA
ATOM      4  O   UNL     1       5.340  -2.903   0.106  1.00  0.00    -0.550 OA
ENDBRANCH   1   2
BRANCH   1   5
ATOM      5  C   UNL     1       4.756  -0.638  -2.649  1.00  0.00     0.006 C 
BRANCH   5   6
ATOM      6  C   UNL     1       3.436   0.085  -2.953  1.00  0.00    -0.003 C 
ATOM      7  C   UNL     1       3.690   1.468  -3.545  1.00  0.00     0.004 C 
ENDBRANCH   5   6
ENDBRANCH   1   5
TORSDOF 3
ENDMDL
