MODEL 1
REMARK VINA RESULT:    -2.899      0.000      0.000
REMARK INTER + INTRA:          -3.663
REMARK INTER:                  -3.577
REMARK INTRA:                  -0.087
REMARK UNBOUND:                -0.087
REMARK SMILES CCCCCC=O
REMARK SMILES IDX 4 1 3 2 2 3 1 4 5 5 6 6 7 7
REMARK H PARENT
REMARK Flexibility Score: inf
ROOT
ATOM      1  C   UNL     1      16.858  97.668   8.952  1.00  0.00     0.008 C 
ENDROOT
BRANCH   1   2
ATOM      2  C   UNL     1      16.690  96.310   9.657  1.00  0.00     0.000 C 
BRANCH   2   3
ATOM      3  C   UNL     1      16.439  95.161   8.668  1.00  0.00    -0.003 C 
ATOM      4  C   UNL     1      17.555  94.117   8.680  1.00  0.00     0.004 C 
ENDBRANCH   2   3
ENDBRANCH   1   2
BRANCH   1   5
ATOM      5  C   UNL     1      18.325  97.959   8.603  1.00  0.00     0.072 C 
BRANCH   5   6
ATOM      6  C   UNL     1      18.718  99.372   8.926  1.00  0.00     0.224 C 
ATOM      7  O   UNL     1      18.339 100.287   8.212  1.00  0.00    -0.303 OA
ENDBRANCH   5   6
ENDBRANCH   1   5
TORSDOF 4
ENDMDL
MODEL 2
REMARK VINA RESULT:    -2.787      2.582      4.371
REMARK INTER + INTRA:          -3.526
REMARK INTER:                  -3.437
REMARK INTRA:                  -0.089
REMARK UNBOUND:                -0.087
REMARK SMILES CCCCCC=O
REMARK SMILES IDX 4 1 3 2 2 3 1 4 5 5 6 6 7 7
REMARK H PARENT
REMARK Flexibility Score: inf
ROOT
ATOM      1  C   UNL     1      16.674  97.250   9.034  1.00  0.00     0.008 C 
ENDROOT
BRANCH   1   2
ATOM      2  C   UNL     1      17.973  97.576   8.273  1.00  0.00     0.000 C 
BRANCH   2   3
ATOM      3  C   UNL     1      18.786  98.690   8.948  1.00  0.00    -0.003 C 
ATOM      4  C   UNL     1      18.348 100.088   8.512  1.00  0.00     0.004 C 
ENDBRANCH   2   3
ENDBRANCH   1   2
BRANCH   1   5
ATOM      5  C   UNL     1      16.333  95.754   8.979  1.00  0.00     0.072 C 
BRANCH   5   6
ATOM      6  C   UNL     1      17.484  94.924   8.486  1.00  0.00     0.224 C 
ATOM      7  O   UNL     1      17.588  93.760   8.837  1.00  0.00    -0.303 OA
ENDBRANCH   5   6
ENDBRANCH   1   5
TORSDOF 4
ENDMDL
MODEL 3
REMARK VINA RESULT:    -2.641      0.804      1.532
REMARK INTER + INTRA:          -3.345
REMARK INTER:                  -3.249
REMARK INTRA:                  -0.096
REMARK UNBOUND:                -0.087
REMARK SMILES CCCCCC=O
REMARK SMILES IDX 4 1 3 2 2 3 1 4 5 5 6 6 7 7
REMARK H PARENT
REMARK Flexibility Score: inf
ROOT
ATOM      1  C   UNL     1      16.631  96.297   9.558  1.00  0.00     0.008 C 
ENDROOT
BRANCH   1   2
ATOM      2  C   UNL     1      16.644  95.163   8.517  1.00  0.00     0.000 C 
BRANCH   2   3
ATOM      3  C   UNL     1      17.637  94.047   8.875  1.00  0.00    -0.003 C 
ATOM      4  C   UNL     1      18.598  93.722   7.732  1.00  0.00     0.004 C 
ENDBRANCH   2   3
ENDBRANCH   1   2
BRANCH   1   5
ATOM      5  C   UNL     1      16.885  97.670   8.919  1.00  0.00     0.072 C 
BRANCH   5   6
ATOM      6  C   UNL     1      18.341  97.904   8.632  1.00  0.00     0.224 C 
ATOM      7  O   UNL     1      18.798  99.034   8.695  1.00  0.00    -0.303 OA
ENDBRANCH   5   6
ENDBRANCH   1   5
TORSDOF 4
ENDMDL
MODEL 4
REMARK VINA RESULT:    -2.442      2.060      3.838
REMARK INTER + INTRA:          -3.099
REMARK INTER:                  -2.952
REMARK INTRA:                  -0.147
REMARK UNBOUND:                -0.087
REMARK SMILES CCCCCC=O
REMARK SMILES IDX 4 1 3 2 2 3 1 4 5 5 6 6 7 7
REMARK H PARENT
REMARK Flexibility Score: inf
ROOT
ATOM      1  C   UNL     1      17.870  96.262   8.224  1.00  0.00     0.008 C 
ENDROOT
BRANCH   1   2
ATOM      2  C   UNL     1      18.697  97.509   7.859  1.00  0.00     0.000 C 
BRANCH   2   3
ATOM      3  C   UNL     1      18.704  98.558   8.981  1.00  0.00    -0.003 C 
ATOM      4  C   UNL     1      18.366  99.962   8.479  1.00  0.00     0.004 C 
ENDBRANCH   2   3
ENDBRANCH   1   2
BRANCH   1   5
ATOM      5  C   UNL     1      17.258  96.367   9.629  1.00  0.00     0.072 C 
BRANCH   5   6
ATOM      6  C   UNL     1      15.776  96.609   9.588  1.00  0.00     0.224 C 
ATOM      7  O   UNL     1      15.341  97.741   9.734  1.00  0.00    -0.303 OA
ENDBRANCH   5   6
ENDBRANCH   1   5
TORSDOF 4
ENDMDL
MODEL 5
REMARK VINA RESULT:    -2.034      3.071      4.212
REMARK INTER + INTRA:          -2.597
REMARK INTER:                  -2.502
REMARK INTRA:                  -0.094
REMARK UNBOUND:                -0.087
REMARK SMILES CCCCCC=O
REMARK SMILES IDX 4 1 3 2 2 3 1 4 5 5 6 6 7 7
REMARK H PARENT
REMARK Flexibility Score: inf
ROOT
ATOM      1  C   UNL     1      17.725  96.074   8.374  1.00  0.00     0.008 C 
ENDROOT
BRANCH   1   2
ATOM      2  C   UNL     1      16.591  97.088   8.612  1.00  0.00     0.000 C 
BRANCH   2   3
ATOM      3  C   UNL     1      16.043  97.032  10.046  1.00  0.00    -0.003 C 
ATOM      4  C   UNL     1      14.528  96.834  10.092  1.00  0.00     0.004 C 
ENDBRANCH   2   3
ENDBRANCH   1   2
BRANCH   1   5
ATOM      5  C   UNL     1      17.271  94.630   8.634  1.00  0.00     0.072 C 
BRANCH   5   6
ATOM      6  C   UNL     1      18.392  93.643   8.473  1.00  0.00     0.224 C 
ATOM      7  O   UNL     1      18.759  93.319   7.355  1.00  0.00    -0.303 OA
ENDBRANCH   5   6
ENDBRANCH   1   5
TORSDOF 4
ENDMDL
MODEL 6
REMARK VINA RESULT:    -1.101     11.419     12.201
REMARK INTER + INTRA:          -1.446
REMARK INTER:                  -1.359
REMARK INTRA:                  -0.087
REMARK UNBOUND:                -0.087
REMARK SMILES CCCCCC=O
REMARK SMILES IDX 4 1 3 2 2 3 1 4 5 5 6 6 7 7
REMARK H PARENT
REMARK Flexibility Score: inf
ROOT
ATOM      1  C   UNL     1      12.411  96.538  -1.375  1.00  0.00     0.008 C 
ENDROOT
BRANCH   1   2
ATOM      2  C   UNL     1      12.596  97.954  -0.798  1.00  0.00     0.000 C 
BRANCH   2   3
ATOM      3  C   UNL     1      12.818  99.010  -1.891  1.00  0.00    -0.003 C 
ATOM      4  C   UNL     1      12.817 100.436  -1.343  1.00  0.00     0.004 C 
ENDBRANCH   2   3
ENDBRANCH   1   2
BRANCH   1   5
ATOM      5  C   UNL     1      11.006  95.982  -1.100  1.00  0.00     0.072 C 
BRANCH   5   6
ATOM      6  C   UNL     1      10.147  96.952  -0.340  1.00  0.00     0.224 C 
ATOM      7  O   UNL     1       9.044  96.608   0.053  1.00  0.00    -0.303 OA
ENDBRANCH   5   6
ENDBRANCH   1   5
TORSDOF 4
ENDMDL
MODEL 7
REMARK VINA RESULT:    -1.040     11.149     11.613
REMARK INTER + INTRA:          -1.370
REMARK INTER:                  -1.267
REMARK INTRA:                  -0.102
REMARK UNBOUND:                -0.087
REMARK SMILES CCCCCC=O
REMARK SMILES IDX 4 1 3 2 2 3 1 4 5 5 6 6 7 7
REMARK H PARENT
REMARK Flexibility Score: inf
ROOT
ATOM      1  C   UNL     1      12.539  96.826  -1.622  1.00  0.00     0.008 C 
ENDROOT
BRANCH   1   2
ATOM      2  C   UNL     1      11.236  96.126  -1.195  1.00  0.00     0.000 C 
BRANCH   2   3
ATOM      3  C   UNL     1      10.462  96.922  -0.133  1.00  0.00    -0.003 C 
ATOM      4  C   UNL     1       9.017  96.449   0.024  1.00  0.00     0.004 C 
ENDBRANCH   2   3
ENDBRANCH   1   2
BRANCH   1   5
ATOM      5  C   UNL     1      12.741  98.163  -0.894  1.00  0.00     0.072 C 
BRANCH   5   6
ATOM      6  C   UNL     1      12.795  99.326  -1.842  1.00  0.00     0.224 C 
ATOM      7  O   UNL     1      12.791 100.466  -1.406  1.00  0.00    -0.303 OA
ENDBRANCH   5   6
ENDBRANCH   1   5
TORSDOF 4
ENDMDL
MODEL 8
REMARK VINA RESULT:    -0.936     11.327     12.040
REMARK INTER + INTRA:          -1.241
REMARK INTER:                  -1.401
REMARK INTRA:                   0.160
REMARK UNBOUND:                -0.087
REMARK SMILES CCCCCC=O
REMARK SMILES IDX 4 1 3 2 2 3 1 4 5 5 6 6 7 7
REMARK H PARENT
REMARK Flexibility Score: inf
ROOT
ATOM      1  C   UNL     1      11.881  96.808  -0.493  1.00  0.00     0.008 C 
ENDROOT
BRANCH   1   2
ATOM      2  C   UNL     1      12.696  98.109  -0.367  1.00  0.00     0.000 C 
BRANCH   2   3
ATOM      3  C   UNL     1      12.676  98.942  -1.657  1.00  0.00    -0.003 C 
ATOM      4  C   UNL     1      12.811 100.441  -1.394  1.00  0.00     0.004 C 
ENDBRANCH   2   3
ENDBRANCH   1   2
BRANCH   1   5
ATOM      5  C   UNL     1      12.019  96.174  -1.885  1.00  0.00     0.072 C 
BRANCH   5   6
ATOM      6  C   UNL     1      13.441  95.816  -2.210  1.00  0.00     0.224 C 
ATOM      7  O   UNL     1      13.760  94.643  -2.329  1.00  0.00    -0.303 OA
ENDBRANCH   5   6
ENDBRANCH   1   5
TORSDOF 4
ENDMDL
MODEL 9
REMARK VINA RESULT:    -0.784     10.985     11.287
REMARK INTER + INTRA:          -1.053
REMARK INTER:                  -0.952
REMARK INTRA:                  -0.101
REMARK UNBOUND:                -0.087
REMARK SMILES CCCCCC=O
REMARK SMILES IDX 4 1 3 2 2 3 1 4 5 5 6 6 7 7
REMARK H PARENT
REMARK Flexibility Score: inf
ROOT
ATOM      1  C   UNL     1      12.396  98.238  -0.298  1.00  0.00     0.008 C 
ENDROOT
BRANCH   1   2
ATOM      2  C   UNL     1      12.409  96.705  -0.443  1.00  0.00     0.000 C 
BRANCH   2   3
ATOM      3  C   UNL     1      12.312  96.253  -1.908  1.00  0.00    -0.003 C 
ATOM      4  C   UNL     1      13.456  95.327  -2.317  1.00  0.00     0.004 C 
ENDBRANCH   2   3
ENDBRANCH   1   2
BRANCH   1   5
ATOM      5  C   UNL     1      12.756  98.945  -1.613  1.00  0.00     0.072 C 
BRANCH   5   6
ATOM      6  C   UNL     1      12.578 100.434  -1.527  1.00  0.00     0.224 C 
ATOM      7  O   UNL     1      13.503 101.136  -1.150  1.00  0.00    -0.303 OA
ENDBRANCH   5   6
ENDBRANCH   1   5
TORSDOF 4
ENDMDL
