MODEL 1
REMARK VINA RESULT:    -3.773      0.000      0.000
REMARK INTER + INTRA:          -5.523
REMARK INTER:                  -5.097
REMARK INTRA:                  -0.426
REMARK UNBOUND:                -0.426
REMARK SMILES CCCCCCC=CC(=O)[O-]
REMARK SMILES IDX 5 1 6 2 7 3 8 4 9 5 10 6 11 7 4 8 3 9 2 10 1 11
REMARK H PARENT
REMARK Flexibility Score: inf
ROOT
ATOM      1  C   UNL     1       4.933  29.699  21.256  1.00  0.00     0.004 C 
ENDROOT
BRANCH   1   2
ATOM      2  C   UNL     1       4.345  28.700  20.251  1.00  0.00     0.027 C 
BRANCH   2   3
ATOM      3  C   UNL     1       5.391  28.222  19.281  1.00  0.00    -0.025 C 
ATOM      4  C   UNL     1       6.115  27.097  19.392  1.00  0.00     0.020 C 
BRANCH   4   5
ATOM      5  C   UNL     1       6.007  26.080  20.459  1.00  0.00     0.064 C 
ATOM      6  O   UNL     1       5.956  24.863  20.138  1.00  0.00    -0.545 OA
ATOM      7  O   UNL     1       5.933  26.421  21.804  1.00  0.00    -0.545 OA
ENDBRANCH   4   5
ENDBRANCH   2   3
ENDBRANCH   1   2
BRANCH   1   8
ATOM      8  C   UNL     1       5.021  31.106  20.643  1.00  0.00     0.000 C 
BRANCH   8   9
ATOM      9  C   UNL     1       6.467  31.537  20.352  1.00  0.00    -0.000 C 
BRANCH   9  10
ATOM     10  C   UNL     1       6.591  32.351  19.055  1.00  0.00    -0.003 C 
ATOM     11  C   UNL     1       5.754  31.735  17.938  1.00  0.00     0.004 C 
ENDBRANCH   9  10
ENDBRANCH   8   9
ENDBRANCH   1   8
TORSDOF 6
ENDMDL
MODEL 2
REMARK VINA RESULT:    -3.616     10.008     11.255
REMARK INTER + INTRA:          -5.310
REMARK INTER:                  -5.052
REMARK INTRA:                  -0.258
REMARK UNBOUND:                -0.426
REMARK SMILES CCCCCCC=CC(=O)[O-]
REMARK SMILES IDX 5 1 6 2 7 3 8 4 9 5 10 6 11 7 4 8 3 9 2 10 1 11
REMARK H PARENT
REMARK Flexibility Score: inf
ROOT
ATOM      1  C   UNL     1      10.012  26.839   8.386  1.00  0.00     0.004 C 
ENDROOT
BRANCH   1   2
ATOM      2  C   UNL     1      10.882  26.063   9.385  1.00  0.00     0.027 C 
BRANCH   2   3
ATOM      3  C   UNL     1      10.288  26.097  10.766  1.00  0.00    -0.025 C 
ATOM      4  C   UNL     1      10.391  25.131  11.694  1.00  0.00     0.020 C 
BRANCH   4   5
ATOM      5  C   UNL     1      11.139  23.863  11.567  1.00  0.00     0.064 C 
ATOM      6  O   UNL     1      11.126  23.256  10.463  1.00  0.00    -0.545 OA
ATOM      7  O   UNL     1      11.834  23.302  12.630  1.00  0.00    -0.545 OA
ENDBRANCH   4   5
ENDBRANCH   2   3
ENDBRANCH   1   2
BRANCH   1   8
ATOM      8  C   UNL     1       8.522  26.531   8.603  1.00  0.00     0.000 C 
BRANCH   8   9
ATOM      9  C   UNL     1       7.693  27.792   8.897  1.00  0.00    -0.000 C 
BRANCH   9  10
ATOM     10  C   UNL     1       6.933  27.702  10.229  1.00  0.00    -0.003 C 
ATOM     11  C   UNL     1       7.505  28.678  11.253  1.00  0.00     0.004 C 
ENDBRANCH   9  10
ENDBRANCH   8   9
ENDBRANCH   1   8
TORSDOF 6
ENDMDL
MODEL 3
REMARK VINA RESULT:    -3.594      1.447      2.300
REMARK INTER + INTRA:          -5.280
REMARK INTER:                  -4.538
REMARK INTRA:                  -0.742
REMARK UNBOUND:                -0.426
REMARK SMILES CCCCCCC=CC(=O)[O-]
REMARK SMILES IDX 5 1 6 2 7 3 8 4 9 5 10 6 11 7 4 8 3 9 2 10 1 11
REMARK H PARENT
REMARK Flexibility Score: inf
ROOT
ATOM      1  C   UNL     1       3.373  30.088  18.322  1.00  0.00     0.004 C 
ENDROOT
BRANCH   1   2
ATOM      2  C   UNL     1       3.873  28.640  18.239  1.00  0.00     0.027 C 
BRANCH   2   3
ATOM      3  C   UNL     1       5.353  28.587  17.976  1.00  0.00    -0.025 C 
ATOM      4  C   UNL     1       6.255  27.881  18.676  1.00  0.00     0.020 C 
BRANCH   4   5
ATOM      5  C   UNL     1       5.979  26.981  19.816  1.00  0.00     0.064 C 
ATOM      6  O   UNL     1       5.627  27.483  20.916  1.00  0.00    -0.545 OA
ATOM      7  O   UNL     1       6.119  25.603  19.724  1.00  0.00    -0.545 OA
ENDBRANCH   4   5
ENDBRANCH   2   3
ENDBRANCH   1   2
BRANCH   1   8
ATOM      8  C   UNL     1       2.961  30.445  19.759  1.00  0.00     0.000 C 
BRANCH   8   9
ATOM      9  C   UNL     1       3.877  31.504  20.392  1.00  0.00    -0.000 C 
BRANCH   9  10
ATOM     10  C   UNL     1       5.163  30.900  20.976  1.00  0.00    -0.003 C 
ATOM     11  C   UNL     1       6.398  31.446  20.264  1.00  0.00     0.004 C 
ENDBRANCH   9  10
ENDBRANCH   8   9
ENDBRANCH   1   8
TORSDOF 6
ENDMDL
MODEL 4
REMARK VINA RESULT:    -3.553     10.260     11.545
REMARK INTER + INTRA:          -5.225
REMARK INTER:                  -4.483
REMARK INTRA:                  -0.742
REMARK UNBOUND:                -0.426
REMARK SMILES CCCCCCC=CC(=O)[O-]
REMARK SMILES IDX 5 1 6 2 7 3 8 4 9 5 10 6 11 7 4 8 3 9 2 10 1 11
REMARK H PARENT
REMARK Flexibility Score: inf
ROOT
ATOM      1  C   UNL     1      10.912  28.732   9.531  1.00  0.00     0.004 C 
ENDROOT
BRANCH   1   2
ATOM      2  C   UNL     1      11.337  27.932  10.769  1.00  0.00     0.027 C 
BRANCH   2   3
ATOM      3  C   UNL     1      10.142  27.433  11.534  1.00  0.00    -0.025 C 
ATOM      4  C   UNL     1       9.794  26.147  11.705  1.00  0.00     0.020 C 
BRANCH   4   5
ATOM      5  C   UNL     1      10.531  24.962  11.218  1.00  0.00     0.064 C 
ATOM      6  O   UNL     1      10.950  24.119  12.054  1.00  0.00    -0.545 OA
ATOM      7  O   UNL     1      10.802  24.759   9.871  1.00  0.00    -0.545 OA
ENDBRANCH   4   5
ENDBRANCH   2   3
ENDBRANCH   1   2
BRANCH   1   8
ATOM      8  C   UNL     1      10.898  27.840   8.280  1.00  0.00     0.000 C 
BRANCH   8   9
ATOM      9  C   UNL     1       9.596  27.969   7.475  1.00  0.00    -0.000 C 
BRANCH   9  10
ATOM     10  C   UNL     1       8.392  28.340   8.354  1.00  0.00    -0.003 C 
ATOM     11  C   UNL     1       7.623  27.095   8.786  1.00  0.00     0.004 C 
ENDBRANCH   9  10
ENDBRANCH   8   9
ENDBRANCH   1   8
TORSDOF 6
ENDMDL
MODEL 5
REMARK VINA RESULT:    -3.538      1.541      2.113
REMARK INTER + INTRA:          -5.205
REMARK INTER:                  -4.345
REMARK INTRA:                  -0.859
REMARK UNBOUND:                -0.426
REMARK SMILES CCCCCCC=CC(=O)[O-]
REMARK SMILES IDX 5 1 6 2 7 3 8 4 9 5 10 6 11 7 4 8 3 9 2 10 1 11
REMARK H PARENT
REMARK Flexibility Score: inf
ROOT
ATOM      1  C   UNL     1       5.159  31.176  20.924  1.00  0.00     0.004 C 
ENDROOT
BRANCH   1   2
ATOM      2  C   UNL     1       4.689  29.716  20.986  1.00  0.00     0.027 C 
BRANCH   2   3
ATOM      3  C   UNL     1       3.966  29.322  19.728  1.00  0.00    -0.025 C 
ATOM      4  C   UNL     1       4.453  28.544  18.747  1.00  0.00     0.020 C 
BRANCH   4   5
ATOM      5  C   UNL     1       5.775  27.884  18.720  1.00  0.00     0.064 C 
ATOM      6  O   UNL     1       6.692  28.387  18.018  1.00  0.00    -0.545 OA
ATOM      7  O   UNL     1       6.034  26.713  19.420  1.00  0.00    -0.545 OA
ENDBRANCH   4   5
ENDBRANCH   2   3
ENDBRANCH   1   2
BRANCH   1   8
ATOM      8  C   UNL     1       6.552  31.276  20.283  1.00  0.00     0.000 C 
BRANCH   8   9
ATOM      9  C   UNL     1       6.690  32.492  19.353  1.00  0.00    -0.000 C 
BRANCH   9  10
ATOM     10  C   UNL     1       5.518  32.617  18.367  1.00  0.00    -0.003 C 
ATOM     11  C   UNL     1       5.727  31.721  17.150  1.00  0.00     0.004 C 
ENDBRANCH   9  10
ENDBRANCH   8   9
ENDBRANCH   1   8
TORSDOF 6
ENDMDL
MODEL 6
REMARK VINA RESULT:    -3.530      1.478      2.448
REMARK INTER + INTRA:          -5.194
REMARK INTER:                  -4.387
REMARK INTRA:                  -0.807
REMARK UNBOUND:                -0.426
REMARK SMILES CCCCCCC=CC(=O)[O-]
REMARK SMILES IDX 5 1 6 2 7 3 8 4 9 5 10 6 11 7 4 8 3 9 2 10 1 11
REMARK H PARENT
REMARK Flexibility Score: inf
ROOT
ATOM      1  C   UNL     1       6.189  31.297  18.986  1.00  0.00     0.004 C 
ENDROOT
BRANCH   1   2
ATOM      2  C   UNL     1       6.988  30.023  18.681  1.00  0.00     0.027 C 
BRANCH   2   3
ATOM      3  C   UNL     1       6.177  29.053  17.867  1.00  0.00    -0.025 C 
ATOM      4  C   UNL     1       5.727  27.857  18.281  1.00  0.00     0.020 C 
BRANCH   4   5
ATOM      5  C   UNL     1       5.898  27.268  19.625  1.00  0.00     0.064 C 
ATOM      6  O   UNL     1       6.415  26.124  19.728  1.00  0.00    -0.545 OA
ATOM      7  O   UNL     1       5.483  27.920  20.779  1.00  0.00    -0.545 OA
ENDBRANCH   4   5
ENDBRANCH   2   3
ENDBRANCH   1   2
BRANCH   1   8
ATOM      8  C   UNL     1       5.962  31.454  20.498  1.00  0.00     0.000 C 
BRANCH   8   9
ATOM      9  C   UNL     1       4.485  31.304  20.894  1.00  0.00    -0.000 C 
BRANCH   9  10
ATOM     10  C   UNL     1       3.566  31.096  19.681  1.00  0.00    -0.003 C 
ATOM     11  C   UNL     1       2.774  29.799  19.810  1.00  0.00     0.004 C 
ENDBRANCH   9  10
ENDBRANCH   8   9
ENDBRANCH   1   8
TORSDOF 6
ENDMDL
MODEL 7
REMARK VINA RESULT:    -3.522      9.161     10.308
REMARK INTER + INTRA:          -5.183
REMARK INTER:                  -4.804
REMARK INTRA:                  -0.380
REMARK UNBOUND:                -0.426
REMARK SMILES CCCCCCC=CC(=O)[O-]
REMARK SMILES IDX 5 1 6 2 7 3 8 4 9 5 10 6 11 7 4 8 3 9 2 10 1 11
REMARK H PARENT
REMARK Flexibility Score: inf
ROOT
ATOM      1  C   UNL     1      11.739  29.553  10.751  1.00  0.00     0.004 C 
ENDROOT
BRANCH   1   2
ATOM      2  C   UNL     1      11.344  28.081  10.573  1.00  0.00     0.027 C 
BRANCH   2   3
ATOM      3  C   UNL     1      10.254  27.689  11.532  1.00  0.00    -0.025 C 
ATOM      4  C   UNL     1       9.878  26.435  11.830  1.00  0.00     0.020 C 
BRANCH   4   5
ATOM      5  C   UNL     1      10.481  25.187  11.315  1.00  0.00     0.064 C 
ATOM      6  O   UNL     1      10.865  24.313  12.136  1.00  0.00    -0.545 OA
ATOM      7  O   UNL     1      10.663  24.957   9.958  1.00  0.00    -0.545 OA
ENDBRANCH   4   5
ENDBRANCH   2   3
ENDBRANCH   1   2
BRANCH   1   8
ATOM      8  C   UNL     1      13.096  29.675  11.463  1.00  0.00     0.000 C 
BRANCH   8   9
ATOM      9  C   UNL     1      12.960  30.137  12.922  1.00  0.00    -0.000 C 
BRANCH   9  10
ATOM     10  C   UNL     1      11.725  31.022  13.149  1.00  0.00    -0.003 C 
ATOM     11  C   UNL     1      11.190  30.863  14.569  1.00  0.00     0.004 C 
ENDBRANCH   9  10
ENDBRANCH   8   9
ENDBRANCH   1   8
TORSDOF 6
ENDMDL
MODEL 8
REMARK VINA RESULT:    -3.501     10.387     11.563
REMARK INTER + INTRA:          -5.156
REMARK INTER:                  -4.286
REMARK INTRA:                  -0.869
REMARK UNBOUND:                -0.426
REMARK SMILES CCCCCCC=CC(=O)[O-]
REMARK SMILES IDX 5 1 6 2 7 3 8 4 9 5 10 6 11 7 4 8 3 9 2 10 1 11
REMARK H PARENT
REMARK Flexibility Score: inf
ROOT
ATOM      1  C   UNL     1       8.245  27.203   8.603  1.00  0.00     0.004 C 
ENDROOT
BRANCH   1   2
ATOM      2  C   UNL     1       7.942  26.759  10.040  1.00  0.00     0.027 C 
BRANCH   2   3
ATOM      3  C   UNL     1       8.984  27.265  10.999  1.00  0.00    -0.025 C 
ATOM      4  C   UNL     1      10.066  26.589  11.419  1.00  0.00     0.020 C 
BRANCH   4   5
ATOM      5  C   UNL     1      10.477  25.233  10.997  1.00  0.00     0.064 C 
ATOM      6  O   UNL     1      10.530  24.317  11.858  1.00  0.00    -0.545 OA
ATOM      7  O   UNL     1      10.834  24.941   9.687  1.00  0.00    -0.545 OA
ENDBRANCH   4   5
ENDBRANCH   2   3
ENDBRANCH   1   2
BRANCH   1   8
ATOM      8  C   UNL     1       8.489  28.720   8.538  1.00  0.00     0.000 C 
BRANCH   8   9
ATOM      9  C   UNL     1       9.760  29.083   7.755  1.00  0.00    -0.000 C 
BRANCH   9  10
ATOM     10  C   UNL     1      10.823  27.975   7.809  1.00  0.00    -0.003 C 
ATOM     11  C   UNL     1      11.956  28.348   8.761  1.00  0.00     0.004 C 
ENDBRANCH   9  10
ENDBRANCH   8   9
ENDBRANCH   1   8
TORSDOF 6
ENDMDL
MODEL 9
REMARK VINA RESULT:    -3.445      9.881     11.188
REMARK INTER + INTRA:          -5.080
REMARK INTER:                  -4.119
REMARK INTRA:                  -0.961
REMARK UNBOUND:                -0.426
REMARK SMILES CCCCCCC=CC(=O)[O-]
REMARK SMILES IDX 5 1 6 2 7 3 8 4 9 5 10 6 11 7 4 8 3 9 2 10 1 11
REMARK H PARENT
REMARK Flexibility Score: inf
ROOT
ATOM      1  C   UNL     1       9.347  27.622   7.979  1.00  0.00     0.004 C 
ENDROOT
BRANCH   1   2
ATOM      2  C   UNL     1      10.604  26.947   8.545  1.00  0.00     0.027 C 
BRANCH   2   3
ATOM      3  C   UNL     1      11.149  27.709   9.722  1.00  0.00    -0.025 C 
ATOM      4  C   UNL     1      10.889  27.456  11.016  1.00  0.00     0.020 C 
BRANCH   4   5
ATOM      5  C   UNL     1      10.055  26.359  11.549  1.00  0.00     0.064 C 
ATOM      6  O   UNL     1       8.948  26.639  12.081  1.00  0.00    -0.545 OA
ATOM      7  O   UNL     1      10.462  25.032  11.510  1.00  0.00    -0.545 OA
ENDBRANCH   4   5
ENDBRANCH   2   3
ENDBRANCH   1   2
BRANCH   1   8
ATOM      8  C   UNL     1       8.075  26.927   8.488  1.00  0.00     0.000 C 
BRANCH   8   9
ATOM      9  C   UNL     1       7.162  27.872   9.285  1.00  0.00    -0.000 C 
BRANCH   9  10
ATOM     10  C   UNL     1       7.650  29.328   9.257  1.00  0.00    -0.003 C 
ATOM     11  C   UNL     1       7.923  29.843  10.667  1.00  0.00     0.004 C 
ENDBRANCH   9  10
ENDBRANCH   8   9
ENDBRANCH   1   8
TORSDOF 6
ENDMDL
