MODEL 1
REMARK VINA RESULT:    -4.995      0.000      0.000
REMARK INTER + INTRA:         -15.884
REMARK INTER:                 -12.587
REMARK INTRA:                  -3.297
REMARK UNBOUND:                -3.297
REMARK SMILES CCCCCCCCCCCCCCCCCCCCCCCCCCCC(=O)[O-]
REMARK SMILES IDX 15 1 16 2 17 3 18 4 19 5 20 6 21 7 22 8 23 9 24 10 25 11
REMARK SMILES IDX 26 12 27 13 28 14 29 15 30 16 14 17 13 18 12 19 11 20 10 21
REMARK SMILES IDX 9 22 8 23 7 24 6 25 5 26 4 27 3 28 2 29 1 30
REMARK H PARENT
REMARK Flexibility Score: inf
ROOT
ATOM      1  C   UNL     1      -8.658  36.778   5.354  1.00  0.00     0.000 C 
ENDROOT
BRANCH   1   2
ATOM      2  C   UNL     1      -8.208  38.021   6.148  1.00  0.00     0.000 C 
BRANCH   2   3
ATOM      3  C   UNL     1      -9.338  39.004   6.512  1.00  0.00     0.000 C 
BRANCH   3   4
ATOM      4  C   UNL     1     -10.651  38.810   5.726  1.00  0.00     0.000 C 
BRANCH   4   5
ATOM      5  C   UNL     1     -11.770  39.806   6.078  1.00  0.00     0.000 C 
BRANCH   5   6
ATOM      6  C   UNL     1     -12.594  39.369   7.299  1.00  0.00     0.000 C 
BRANCH   6   7
ATOM      7  C   UNL     1     -12.213  40.184   8.541  1.00  0.00     0.000 C 
BRANCH   7   8
ATOM      8  C   UNL     1     -12.267  39.315   9.806  1.00  0.00     0.000 C 
BRANCH   8   9
ATOM      9  C   UNL     1     -12.282  37.808   9.496  1.00  0.00     0.000 C 
BRANCH   9  10
ATOM     10  C   UNL     1     -10.950  37.072   9.756  1.00  0.00     0.000 C 
BRANCH  10  11
ATOM     11  C   UNL     1     -10.450  36.198   8.592  1.00  0.00     0.000 C 
BRANCH  11  12
ATOM     12  C   UNL     1     -11.597  35.569   7.782  1.00  0.00     0.006 C 
BRANCH  12  13
ATOM     13  C   UNL     1     -12.183  34.331   8.474  1.00  0.00     0.053 C 
BRANCH  13  14
ATOM     14  C   UNL     1     -11.111  33.399   8.947  1.00  0.00     0.041 C 
ATOM     15  O   UNL     1     -10.925  33.219  10.180  1.00  0.00    -0.550 OA
ATOM     16  O   UNL     1     -10.299  32.748   8.025  1.00  0.00    -0.550 OA
ENDBRANCH  13  14
ENDBRANCH  12  13
ENDBRANCH  11  12
ENDBRANCH  10  11
ENDBRANCH   9  10
ENDBRANCH   8   9
ENDBRANCH   7   8
ENDBRANCH   6   7
ENDBRANCH   5   6
ENDBRANCH   4   5
ENDBRANCH   3   4
ENDBRANCH   2   3
ENDBRANCH   1   2
BRANCH   1  17
ATOM     17  C   UNL     1      -8.259  35.427   5.979  1.00  0.00     0.000 C 
BRANCH  17  18
ATOM     18  C   UNL     1      -7.844  34.337   4.970  1.00  0.00     0.000 C 
BRANCH  18  19
ATOM     19  C   UNL     1      -8.086  32.894   5.444  1.00  0.00     0.000 C 
BRANCH  19  20
ATOM     20  C   UNL     1      -6.838  32.259   6.081  1.00  0.00     0.000 C 
BRANCH  20  21
ATOM     21  C   UNL     1      -6.985  30.742   6.292  1.00  0.00     0.000 C 
BRANCH  21  22
ATOM     22  C   UNL     1      -8.312  30.141   5.783  1.00  0.00    -0.000 C 
BRANCH  22  23
ATOM     23  C   UNL     1      -8.193  28.742   5.150  1.00  0.00    -0.000 C 
BRANCH  23  24
ATOM     24  C   UNL     1      -7.056  28.648   4.123  1.00  0.00    -0.000 C 
BRANCH  24  25
ATOM     25  C   UNL     1      -6.309  27.312   4.249  1.00  0.00    -0.000 C 
BRANCH  25  26
ATOM     26  C   UNL     1      -5.120  27.398   5.228  1.00  0.00    -0.000 C 
BRANCH  26  27
ATOM     27  C   UNL     1      -4.291  28.686   5.082  1.00  0.00    -0.000 C 
BRANCH  27  28
ATOM     28  C   UNL     1      -3.344  28.924   6.270  1.00  0.00    -0.000 C 
BRANCH  28  29
ATOM     29  C   UNL     1      -3.640  27.995   7.457  1.00  0.00    -0.003 C 
ATOM     30  C   UNL     1      -2.542  28.020   8.520  1.00  0.00     0.004 C 
ENDBRANCH  28  29
ENDBRANCH  27  28
ENDBRANCH  26  27
ENDBRANCH  25  26
ENDBRANCH  24  25
ENDBRANCH  23  24
ENDBRANCH  22  23
ENDBRANCH  21  22
ENDBRANCH  20  21
ENDBRANCH  19  20
ENDBRANCH  18  19
ENDBRANCH  17  18
ENDBRANCH   1  17
TORSDOF 26
ENDMDL
MODEL 2
REMARK VINA RESULT:    -4.779      2.483     10.130
REMARK INTER + INTRA:         -15.340
REMARK INTER:                 -12.035
REMARK INTRA:                  -3.305
REMARK UNBOUND:                -3.297
REMARK SMILES CCCCCCCCCCCCCCCCCCCCCCCCCCCC(=O)[O-]
REMARK SMILES IDX 15 1 16 2 17 3 18 4 19 5 20 6 21 7 22 8 23 9 24 10 25 11
REMARK SMILES IDX 26 12 27 13 28 14 29 15 30 16 14 17 13 18 12 19 11 20 10 21
REMARK SMILES IDX 9 22 8 23 7 24 6 25 5 26 4 27 3 28 2 29 1 30
REMARK H PARENT
REMARK Flexibility Score: inf
ROOT
ATOM      1  C   UNL     1      -7.804  34.228   5.029  1.00  0.00     0.000 C 
ENDROOT
BRANCH   1   2
ATOM      2  C   UNL     1      -7.406  33.182   6.090  1.00  0.00     0.000 C 
BRANCH   2   3
ATOM      3  C   UNL     1      -7.547  31.714   5.642  1.00  0.00     0.000 C 
BRANCH   3   4
ATOM      4  C   UNL     1      -8.577  30.885   6.437  1.00  0.00     0.000 C 
BRANCH   4   5
ATOM      5  C   UNL     1      -8.832  29.471   5.888  1.00  0.00     0.000 C 
BRANCH   5   6
ATOM      6  C   UNL     1      -8.510  28.369   6.909  1.00  0.00     0.000 C 
BRANCH   6   7
ATOM      7  C   UNL     1      -8.028  27.093   6.208  1.00  0.00     0.000 C 
BRANCH   7   8
ATOM      8  C   UNL     1      -7.966  27.292   4.687  1.00  0.00     0.000 C 
BRANCH   8   9
ATOM      9  C   UNL     1      -6.554  27.076   4.113  1.00  0.00     0.000 C 
BRANCH   9  10
ATOM     10  C   UNL     1      -5.771  28.368   3.797  1.00  0.00     0.000 C 
BRANCH  10  11
ATOM     11  C   UNL     1      -4.428  28.514   4.537  1.00  0.00     0.000 C 
BRANCH  11  12
ATOM     12  C   UNL     1      -4.603  28.798   6.039  1.00  0.00     0.006 C 
BRANCH  12  13
ATOM     13  C   UNL     1      -3.829  27.801   6.911  1.00  0.00     0.053 C 
BRANCH  13  14
ATOM     14  C   UNL     1      -2.806  28.484   7.764  1.00  0.00     0.041 C 
ATOM     15  O   UNL     1      -1.949  27.808   8.393  1.00  0.00    -0.550 OA
ATOM     16  O   UNL     1      -2.815  29.869   7.886  1.00  0.00    -0.550 OA
ENDBRANCH  13  14
ENDBRANCH  12  13
ENDBRANCH  11  12
ENDBRANCH  10  11
ENDBRANCH   9  10
ENDBRANCH   8   9
ENDBRANCH   7   8
ENDBRANCH   6   7
ENDBRANCH   5   6
ENDBRANCH   4   5
ENDBRANCH   3   4
ENDBRANCH   2   3
ENDBRANCH   1   2
BRANCH   1  17
ATOM     17  C   UNL     1      -8.975  35.146   5.427  1.00  0.00     0.000 C 
BRANCH  17  18
ATOM     18  C   UNL     1      -8.622  36.255   6.439  1.00  0.00     0.000 C 
BRANCH  18  19
ATOM     19  C   UNL     1      -8.330  37.630   5.814  1.00  0.00     0.000 C 
BRANCH  19  20
ATOM     20  C   UNL     1      -9.287  38.726   6.313  1.00  0.00     0.000 C 
BRANCH  20  21
ATOM     21  C   UNL     1     -10.720  38.552   5.781  1.00  0.00     0.000 C 
BRANCH  21  22
ATOM     22  C   UNL     1     -11.574  39.837   5.782  1.00  0.00    -0.000 C 
BRANCH  22  23
ATOM     23  C   UNL     1     -12.746  39.840   6.780  1.00  0.00    -0.000 C 
BRANCH  23  24
ATOM     24  C   UNL     1     -12.712  38.644   7.742  1.00  0.00    -0.000 C 
BRANCH  24  25
ATOM     25  C   UNL     1     -12.361  39.094   9.168  1.00  0.00    -0.000 C 
BRANCH  25  26
ATOM     26  C   UNL     1     -11.751  37.952  10.007  1.00  0.00    -0.000 C 
BRANCH  26  27
ATOM     27  C   UNL     1     -10.944  36.938   9.178  1.00  0.00    -0.000 C 
BRANCH  27  28
ATOM     28  C   UNL     1     -11.240  35.480   9.565  1.00  0.00    -0.000 C 
BRANCH  28  29
ATOM     29  C   UNL     1     -11.570  34.602   8.348  1.00  0.00    -0.003 C 
ATOM     30  C   UNL     1     -10.538  33.498   8.116  1.00  0.00     0.004 C 
ENDBRANCH  28  29
ENDBRANCH  27  28
ENDBRANCH  26  27
ENDBRANCH  25  26
ENDBRANCH  24  25
ENDBRANCH  23  24
ENDBRANCH  22  23
ENDBRANCH  21  22
ENDBRANCH  20  21
ENDBRANCH  19  20
ENDBRANCH  18  19
ENDBRANCH  17  18
ENDBRANCH   1  17
TORSDOF 26
ENDMDL
MODEL 3
REMARK VINA RESULT:    -4.693      1.006      2.715
REMARK INTER + INTRA:         -15.122
REMARK INTER:                 -11.559
REMARK INTRA:                  -3.563
REMARK UNBOUND:                -3.297
REMARK SMILES CCCCCCCCCCCCCCCCCCCCCCCCCCCC(=O)[O-]
REMARK SMILES IDX 15 1 16 2 17 3 18 4 19 5 20 6 21 7 22 8 23 9 24 10 25 11
REMARK SMILES IDX 26 12 27 13 28 14 29 15 30 16 14 17 13 18 12 19 11 20 10 21
REMARK SMILES IDX 9 22 8 23 7 24 6 25 5 26 4 27 3 28 2 29 1 30
REMARK H PARENT
REMARK Flexibility Score: inf
ROOT
ATOM      1  C   UNL     1      -8.845  36.320   5.385  1.00  0.00     0.000 C 
ENDROOT
BRANCH   1   2
ATOM      2  C   UNL     1      -8.208  37.588   5.988  1.00  0.00     0.000 C 
BRANCH   2   3
ATOM      3  C   UNL     1      -9.201  38.718   6.324  1.00  0.00     0.000 C 
BRANCH   3   4
ATOM      4  C   UNL     1     -10.639  38.498   5.810  1.00  0.00     0.000 C 
BRANCH   4   5
ATOM      5  C   UNL     1     -11.588  39.693   6.009  1.00  0.00     0.000 C 
BRANCH   5   6
ATOM      6  C   UNL     1     -12.576  39.483   7.166  1.00  0.00     0.000 C 
BRANCH   6   7
ATOM      7  C   UNL     1     -12.037  40.089   8.467  1.00  0.00     0.000 C 
BRANCH   7   8
ATOM      8  C   UNL     1     -12.178  39.101   9.634  1.00  0.00     0.000 C 
BRANCH   8   9
ATOM      9  C   UNL     1     -12.064  37.631   9.190  1.00  0.00     0.000 C 
BRANCH   9  10
ATOM     10  C   UNL     1     -10.659  37.010   9.334  1.00  0.00     0.000 C 
BRANCH  10  11
ATOM     11  C   UNL     1     -10.399  35.773   8.455  1.00  0.00     0.000 C 
BRANCH  11  12
ATOM     12  C   UNL     1     -11.567  34.771   8.476  1.00  0.00     0.006 C 
BRANCH  12  13
ATOM     13  C   UNL     1     -11.111  33.344   8.147  1.00  0.00     0.053 C 
BRANCH  13  14
ATOM     14  C   UNL     1     -11.070  32.477   9.367  1.00  0.00     0.041 C 
ATOM     15  O   UNL     1     -11.220  31.230   9.265  1.00  0.00    -0.550 OA
ATOM     16  O   UNL     1     -10.895  33.049  10.622  1.00  0.00    -0.550 OA
ENDBRANCH  13  14
ENDBRANCH  12  13
ENDBRANCH  11  12
ENDBRANCH  10  11
ENDBRANCH   9  10
ENDBRANCH   8   9
ENDBRANCH   7   8
ENDBRANCH   6   7
ENDBRANCH   5   6
ENDBRANCH   4   5
ENDBRANCH   3   4
ENDBRANCH   2   3
ENDBRANCH   1   2
BRANCH   1  17
ATOM     17  C   UNL     1      -8.144  34.999   5.759  1.00  0.00     0.000 C 
BRANCH  17  18
ATOM     18  C   UNL     1      -8.599  33.766   4.952  1.00  0.00     0.000 C 
BRANCH  18  19
ATOM     19  C   UNL     1      -8.437  32.421   5.681  1.00  0.00     0.000 C 
BRANCH  19  20
ATOM     20  C   UNL     1      -7.336  32.455   6.755  1.00  0.00     0.000 C 
BRANCH  20  21
ATOM     21  C   UNL     1      -5.957  32.049   6.206  1.00  0.00     0.000 C 
BRANCH  21  22
ATOM     22  C   UNL     1      -5.055  31.297   7.207  1.00  0.00    -0.000 C 
BRANCH  22  23
ATOM     23  C   UNL     1      -3.839  30.588   6.583  1.00  0.00    -0.000 C 
BRANCH  23  24
ATOM     24  C   UNL     1      -3.984  29.060   6.569  1.00  0.00    -0.000 C 
BRANCH  24  25
ATOM     25  C   UNL     1      -4.497  28.567   5.208  1.00  0.00    -0.000 C 
BRANCH  25  26
ATOM     26  C   UNL     1      -5.739  27.662   5.344  1.00  0.00    -0.000 C 
BRANCH  26  27
ATOM     27  C   UNL     1      -7.027  28.428   5.693  1.00  0.00    -0.000 C 
BRANCH  27  28
ATOM     28  C   UNL     1      -7.583  29.233   4.507  1.00  0.00    -0.000 C 
BRANCH  28  29
ATOM     29  C   UNL     1      -7.994  28.339   3.328  1.00  0.00    -0.003 C 
ATOM     30  C   UNL     1      -9.408  27.775   3.475  1.00  0.00     0.004 C 
ENDBRANCH  28  29
ENDBRANCH  27  28
ENDBRANCH  26  27
ENDBRANCH  25  26
ENDBRANCH  24  25
ENDBRANCH  23  24
ENDBRANCH  22  23
ENDBRANCH  21  22
ENDBRANCH  20  21
ENDBRANCH  19  20
ENDBRANCH  18  19
ENDBRANCH  17  18
ENDBRANCH   1  17
TORSDOF 26
ENDMDL
MODEL 4
REMARK VINA RESULT:    -4.669      6.877     10.244
REMARK INTER + INTRA:         -15.063
REMARK INTER:                 -12.965
REMARK INTRA:                  -2.099
REMARK UNBOUND:                -3.297
REMARK SMILES CCCCCCCCCCCCCCCCCCCCCCCCCCCC(=O)[O-]
REMARK SMILES IDX 15 1 16 2 17 3 18 4 19 5 20 6 21 7 22 8 23 9 24 10 25 11
REMARK SMILES IDX 26 12 27 13 28 14 29 15 30 16 14 17 13 18 12 19 11 20 10 21
REMARK SMILES IDX 9 22 8 23 7 24 6 25 5 26 4 27 3 28 2 29 1 30
REMARK H PARENT
REMARK Flexibility Score: inf
ROOT
ATOM      1  C   UNL     1      -3.606  28.689   1.276  1.00  0.00     0.000 C 
ENDROOT
BRANCH   1   2
ATOM      2  C   UNL     1      -3.754  28.387   2.781  1.00  0.00     0.000 C 
BRANCH   2   3
ATOM      3  C   UNL     1      -5.115  28.777   3.391  1.00  0.00     0.000 C 
BRANCH   3   4
ATOM      4  C   UNL     1      -5.251  28.519   4.905  1.00  0.00     0.000 C 
BRANCH   4   5
ATOM      5  C   UNL     1      -6.301  29.386   5.620  1.00  0.00     0.000 C 
BRANCH   5   6
ATOM      6  C   UNL     1      -7.438  29.834   4.688  1.00  0.00     0.000 C 
BRANCH   6   7
ATOM      7  C   UNL     1      -8.019  31.180   5.135  1.00  0.00     0.000 C 
BRANCH   7   8
ATOM      8  C   UNL     1      -7.048  31.914   6.071  1.00  0.00     0.000 C 
BRANCH   8   9
ATOM      9  C   UNL     1      -6.949  33.420   5.771  1.00  0.00     0.000 C 
BRANCH   9  10
ATOM     10  C   UNL     1      -8.185  34.033   5.079  1.00  0.00     0.000 C 
BRANCH  10  11
ATOM     11  C   UNL     1      -9.213  34.674   6.029  1.00  0.00     0.000 C 
BRANCH  11  12
ATOM     12  C   UNL     1      -9.448  36.166   5.733  1.00  0.00     0.006 C 
BRANCH  12  13
ATOM     13  C   UNL     1      -8.373  37.058   6.368  1.00  0.00     0.053 C 
BRANCH  13  14
ATOM     14  C   UNL     1      -8.694  38.512   6.211  1.00  0.00     0.041 C 
ATOM     15  O   UNL     1      -7.878  39.388   6.604  1.00  0.00    -0.550 OA
ATOM     16  O   UNL     1      -9.906  38.902   5.653  1.00  0.00    -0.550 OA
ENDBRANCH  13  14
ENDBRANCH  12  13
ENDBRANCH  11  12
ENDBRANCH  10  11
ENDBRANCH   9  10
ENDBRANCH   8   9
ENDBRANCH   7   8
ENDBRANCH   6   7
ENDBRANCH   5   6
ENDBRANCH   4   5
ENDBRANCH   3   4
ENDBRANCH   2   3
ENDBRANCH   1   2
BRANCH   1  17
ATOM     17  C   UNL     1      -2.222  28.364   0.681  1.00  0.00     0.000 C 
BRANCH  17  18
ATOM     18  C   UNL     1      -1.130  28.019   1.714  1.00  0.00     0.000 C 
BRANCH  18  19
ATOM     19  C   UNL     1       0.306  28.028   1.163  1.00  0.00     0.000 C 
BRANCH  19  20
ATOM     20  C   UNL     1       0.746  29.415   0.666  1.00  0.00     0.000 C 
BRANCH  20  21
ATOM     21  C   UNL     1       1.320  29.381  -0.762  1.00  0.00     0.000 C 
BRANCH  21  22
ATOM     22  C   UNL     1       0.400  28.730  -1.816  1.00  0.00    -0.000 C 
BRANCH  22  23
ATOM     23  C   UNL     1       0.811  27.312  -2.252  1.00  0.00    -0.000 C 
BRANCH  23  24
ATOM     24  C   UNL     1       1.865  27.314  -3.368  1.00  0.00    -0.000 C 
BRANCH  24  25
ATOM     25  C   UNL     1       1.770  28.594  -4.212  1.00  0.00    -0.000 C 
BRANCH  25  26
ATOM     26  C   UNL     1       3.065  29.430  -4.152  1.00  0.00    -0.000 C 
BRANCH  26  27
ATOM     27  C   UNL     1       4.159  28.814  -3.263  1.00  0.00    -0.000 C 
BRANCH  27  28
ATOM     28  C   UNL     1       4.873  29.855  -2.386  1.00  0.00    -0.000 C 
BRANCH  28  29
ATOM     29  C   UNL     1       4.042  31.133  -2.192  1.00  0.00    -0.003 C 
ATOM     30  C   UNL     1       4.787  32.397  -2.624  1.00  0.00     0.004 C 
ENDBRANCH  28  29
ENDBRANCH  27  28
ENDBRANCH  26  27
ENDBRANCH  25  26
ENDBRANCH  24  25
ENDBRANCH  23  24
ENDBRANCH  22  23
ENDBRANCH  21  22
ENDBRANCH  20  21
ENDBRANCH  19  20
ENDBRANCH  18  19
ENDBRANCH  17  18
ENDBRANCH   1  17
TORSDOF 26
ENDMDL
MODEL 5
REMARK VINA RESULT:    -4.568      1.558      2.901
REMARK INTER + INTRA:         -14.809
REMARK INTER:                 -12.204
REMARK INTRA:                  -2.605
REMARK UNBOUND:                -3.297
REMARK SMILES CCCCCCCCCCCCCCCCCCCCCCCCCCCC(=O)[O-]
REMARK SMILES IDX 15 1 16 2 17 3 18 4 19 5 20 6 21 7 22 8 23 9 24 10 25 11
REMARK SMILES IDX 26 12 27 13 28 14 29 15 30 16 14 17 13 18 12 19 11 20 10 21
REMARK SMILES IDX 9 22 8 23 7 24 6 25 5 26 4 27 3 28 2 29 1 30
REMARK H PARENT
REMARK Flexibility Score: inf
ROOT
ATOM      1  C   UNL     1      -9.164  38.880   6.426  1.00  0.00     0.000 C 
ENDROOT
BRANCH   1   2
ATOM      2  C   UNL     1     -10.367  38.883   5.461  1.00  0.00     0.000 C 
BRANCH   2   3
ATOM      3  C   UNL     1     -11.639  39.559   6.009  1.00  0.00     0.000 C 
BRANCH   3   4
ATOM      4  C   UNL     1     -11.730  39.630   7.547  1.00  0.00     0.000 C 
BRANCH   4   5
ATOM      5  C   UNL     1     -13.078  39.182   8.138  1.00  0.00     0.000 C 
BRANCH   5   6
ATOM      6  C   UNL     1     -12.961  37.910   8.991  1.00  0.00     0.000 C 
BRANCH   6   7
ATOM      7  C   UNL     1     -11.921  36.947   8.405  1.00  0.00     0.000 C 
BRANCH   7   8
ATOM      8  C   UNL     1     -11.073  36.312   9.516  1.00  0.00     0.000 C 
BRANCH   8   9
ATOM      9  C   UNL     1     -11.173  34.776   9.542  1.00  0.00     0.000 C 
BRANCH   9  10
ATOM     10  C   UNL     1     -12.028  34.156   8.416  1.00  0.00     0.000 C 
BRANCH  10  11
ATOM     11  C   UNL     1     -12.033  32.617   8.374  1.00  0.00     0.000 C 
BRANCH  11  12
ATOM     12  C   UNL     1     -11.144  31.988   9.461  1.00  0.00     0.006 C 
BRANCH  12  13
ATOM     13  C   UNL     1     -11.884  30.906  10.259  1.00  0.00     0.053 C 
BRANCH  13  14
ATOM     14  C   UNL     1     -11.462  30.890  11.696  1.00  0.00     0.041 C 
ATOM     15  O   UNL     1     -10.429  31.513  12.062  1.00  0.00    -0.550 OA
ATOM     16  O   UNL     1     -12.194  30.163  12.628  1.00  0.00    -0.550 OA
ENDBRANCH  13  14
ENDBRANCH  12  13
ENDBRANCH  11  12
ENDBRANCH  10  11
ENDBRANCH   9  10
ENDBRANCH   8   9
ENDBRANCH   7   8
ENDBRANCH   6   7
ENDBRANCH   5   6
ENDBRANCH   4   5
ENDBRANCH   3   4
ENDBRANCH   2   3
ENDBRANCH   1   2
BRANCH   1  17
ATOM     17  C   UNL     1      -8.063  37.857   6.090  1.00  0.00     0.000 C 
BRANCH  17  18
ATOM     18  C   UNL     1      -8.552  36.577   5.382  1.00  0.00     0.000 C 
BRANCH  18  19
ATOM     19  C   UNL     1      -9.409  35.644   6.255  1.00  0.00     0.000 C 
BRANCH  19  20
ATOM     20  C   UNL     1      -8.933  34.182   6.209  1.00  0.00     0.000 C 
BRANCH  20  21
ATOM     21  C   UNL     1      -7.471  34.047   5.749  1.00  0.00     0.000 C 
BRANCH  21  22
ATOM     22  C   UNL     1      -6.872  32.633   5.898  1.00  0.00    -0.000 C 
BRANCH  22  23
ATOM     23  C   UNL     1      -7.759  31.491   5.368  1.00  0.00    -0.000 C 
BRANCH  23  24
ATOM     24  C   UNL     1      -7.434  30.137   6.016  1.00  0.00    -0.000 C 
BRANCH  24  25
ATOM     25  C   UNL     1      -6.013  29.679   5.654  1.00  0.00    -0.000 C 
BRANCH  25  26
ATOM     26  C   UNL     1      -5.824  28.160   5.840  1.00  0.00    -0.000 C 
BRANCH  26  27
ATOM     27  C   UNL     1      -4.412  27.766   6.307  1.00  0.00    -0.000 C 
BRANCH  27  28
ATOM     28  C   UNL     1      -3.466  28.971   6.432  1.00  0.00    -0.000 C 
BRANCH  28  29
ATOM     29  C   UNL     1      -2.713  28.995   7.771  1.00  0.00    -0.003 C 
ATOM     30  C   UNL     1      -2.909  27.715   8.584  1.00  0.00     0.004 C 
ENDBRANCH  28  29
ENDBRANCH  27  28
ENDBRANCH  26  27
ENDBRANCH  25  26
ENDBRANCH  24  25
ENDBRANCH  23  24
ENDBRANCH  22  23
ENDBRANCH  21  22
ENDBRANCH  20  21
ENDBRANCH  19  20
ENDBRANCH  18  19
ENDBRANCH  17  18
ENDBRANCH   1  17
TORSDOF 26
ENDMDL
MODEL 6
REMARK VINA RESULT:    -4.562      2.605      9.241
REMARK INTER + INTRA:         -14.794
REMARK INTER:                 -11.902
REMARK INTRA:                  -2.893
REMARK UNBOUND:                -3.297
REMARK SMILES CCCCCCCCCCCCCCCCCCCCCCCCCCCC(=O)[O-]
REMARK SMILES IDX 15 1 16 2 17 3 18 4 19 5 20 6 21 7 22 8 23 9 24 10 25 11
REMARK SMILES IDX 26 12 27 13 28 14 29 15 30 16 14 17 13 18 12 19 11 20 10 21
REMARK SMILES IDX 9 22 8 23 7 24 6 25 5 26 4 27 3 28 2 29 1 30
REMARK H PARENT
REMARK Flexibility Score: inf
ROOT
ATOM      1  C   UNL     1      -8.895  37.437   6.669  1.00  0.00     0.000 C 
ENDROOT
BRANCH   1   2
ATOM      2  C   UNL     1      -8.811  36.485   5.459  1.00  0.00     0.000 C 
BRANCH   2   3
ATOM      3  C   UNL     1      -9.852  35.349   5.452  1.00  0.00     0.000 C 
BRANCH   3   4
ATOM      4  C   UNL     1      -9.328  33.979   5.928  1.00  0.00     0.000 C 
BRANCH   4   5
ATOM      5  C   UNL     1      -7.802  33.893   6.101  1.00  0.00     0.000 C 
BRANCH   5   6
ATOM      6  C   UNL     1      -7.243  32.499   5.780  1.00  0.00     0.000 C 
BRANCH   6   7
ATOM      7  C   UNL     1      -8.244  31.680   4.957  1.00  0.00     0.000 C 
BRANCH   7   8
ATOM      8  C   UNL     1      -8.272  30.217   5.423  1.00  0.00     0.000 C 
BRANCH   8   9
ATOM      9  C   UNL     1      -6.868  29.651   5.702  1.00  0.00     0.000 C 
BRANCH   9  10
ATOM     10  C   UNL     1      -6.315  28.704   4.617  1.00  0.00     0.000 C 
BRANCH  10  11
ATOM     11  C   UNL     1      -4.793  28.475   4.665  1.00  0.00     0.000 C 
BRANCH  11  12
ATOM     12  C   UNL     1      -4.335  27.786   5.961  1.00  0.00     0.006 C 
BRANCH  12  13
ATOM     13  C   UNL     1      -3.484  28.712   6.840  1.00  0.00     0.053 C 
BRANCH  13  14
ATOM     14  C   UNL     1      -2.946  28.000   8.042  1.00  0.00     0.041 C 
ATOM     15  O   UNL     1      -1.715  28.040   8.306  1.00  0.00    -0.550 OA
ATOM     16  O   UNL     1      -3.802  27.268   8.858  1.00  0.00    -0.550 OA
ENDBRANCH  13  14
ENDBRANCH  12  13
ENDBRANCH  11  12
ENDBRANCH  10  11
ENDBRANCH   9  10
ENDBRANCH   8   9
ENDBRANCH   7   8
ENDBRANCH   6   7
ENDBRANCH   5   6
ENDBRANCH   4   5
ENDBRANCH   3   4
ENDBRANCH   2   3
ENDBRANCH   1   2
BRANCH   1  17
ATOM     17  C   UNL     1      -9.268  38.893   6.327  1.00  0.00     0.000 C 
BRANCH  17  18
ATOM     18  C   UNL     1     -10.626  39.071   5.619  1.00  0.00     0.000 C 
BRANCH  18  19
ATOM     19  C   UNL     1     -11.809  39.367   6.557  1.00  0.00     0.000 C 
BRANCH  19  20
ATOM     20  C   UNL     1     -11.363  39.706   7.990  1.00  0.00     0.000 C 
BRANCH  20  21
ATOM     21  C   UNL     1     -12.522  40.202   8.872  1.00  0.00     0.000 C 
BRANCH  21  22
ATOM     22  C   UNL     1     -12.915  39.252  10.022  1.00  0.00    -0.000 C 
BRANCH  22  23
ATOM     23  C   UNL     1     -11.946  38.079  10.258  1.00  0.00    -0.000 C 
BRANCH  23  24
ATOM     24  C   UNL     1     -12.589  36.712   9.986  1.00  0.00    -0.000 C 
BRANCH  24  25
ATOM     25  C   UNL     1     -12.477  36.336   8.501  1.00  0.00    -0.000 C 
BRANCH  25  26
ATOM     26  C   UNL     1     -12.157  34.841   8.299  1.00  0.00    -0.000 C 
BRANCH  26  27
ATOM     27  C   UNL     1     -11.028  34.322   9.207  1.00  0.00    -0.000 C 
BRANCH  27  28
ATOM     28  C   UNL     1     -10.832  32.801   9.106  1.00  0.00    -0.000 C 
BRANCH  28  29
ATOM     29  C   UNL     1     -12.040  32.013   9.634  1.00  0.00    -0.003 C 
ATOM     30  C   UNL     1     -12.268  32.210  11.133  1.00  0.00     0.004 C 
ENDBRANCH  28  29
ENDBRANCH  27  28
ENDBRANCH  26  27
ENDBRANCH  25  26
ENDBRANCH  24  25
ENDBRANCH  23  24
ENDBRANCH  22  23
ENDBRANCH  21  22
ENDBRANCH  20  21
ENDBRANCH  19  20
ENDBRANCH  18  19
ENDBRANCH  17  18
ENDBRANCH   1  17
TORSDOF 26
ENDMDL
MODEL 7
REMARK VINA RESULT:    -4.546      4.020      6.514
REMARK INTER + INTRA:         -14.753
REMARK INTER:                 -11.450
REMARK INTRA:                  -3.303
REMARK UNBOUND:                -3.297
REMARK SMILES CCCCCCCCCCCCCCCCCCCCCCCCCCCC(=O)[O-]
REMARK SMILES IDX 15 1 16 2 17 3 18 4 19 5 20 6 21 7 22 8 23 9 24 10 25 11
REMARK SMILES IDX 26 12 27 13 28 14 29 15 30 16 14 17 13 18 12 19 11 20 10 21
REMARK SMILES IDX 9 22 8 23 7 24 6 25 5 26 4 27 3 28 2 29 1 30
REMARK H PARENT
REMARK Flexibility Score: inf
ROOT
ATOM      1  C   UNL     1     -11.131  34.868   8.962  1.00  0.00     0.000 C 
ENDROOT
BRANCH   1   2
ATOM      2  C   UNL     1     -10.507  36.182   9.473  1.00  0.00     0.000 C 
BRANCH   2   3
ATOM      3  C   UNL     1     -11.253  37.464   9.051  1.00  0.00     0.000 C 
BRANCH   3   4
ATOM      4  C   UNL     1     -11.676  37.515   7.569  1.00  0.00     0.000 C 
BRANCH   4   5
ATOM      5  C   UNL     1     -11.491  38.883   6.889  1.00  0.00     0.000 C 
BRANCH   5   6
ATOM      6  C   UNL     1     -10.332  38.896   5.880  1.00  0.00     0.000 C 
BRANCH   6   7
ATOM      7  C   UNL     1      -8.977  38.904   6.598  1.00  0.00     0.000 C 
BRANCH   7   8
ATOM      8  C   UNL     1      -8.044  37.829   6.021  1.00  0.00     0.000 C 
BRANCH   8   9
ATOM      9  C   UNL     1      -8.805  36.609   5.471  1.00  0.00     0.000 C 
BRANCH   9  10
ATOM     10  C   UNL     1      -8.567  35.289   6.234  1.00  0.00     0.000 C 
BRANCH  10  11
ATOM     11  C   UNL     1      -8.396  34.044   5.346  1.00  0.00     0.000 C 
BRANCH  11  12
ATOM     12  C   UNL     1      -7.193  33.178   5.759  1.00  0.00     0.006 C 
BRANCH  12  13
ATOM     13  C   UNL     1      -7.557  32.165   6.852  1.00  0.00     0.053 C 
BRANCH  13  14
ATOM     14  C   UNL     1      -8.703  31.291   6.442  1.00  0.00     0.041 C 
ATOM     15  O   UNL     1      -9.752  31.252   7.138  1.00  0.00    -0.550 OA
ATOM     16  O   UNL     1      -8.601  30.500   5.303  1.00  0.00    -0.550 OA
ENDBRANCH  13  14
ENDBRANCH  12  13
ENDBRANCH  11  12
ENDBRANCH  10  11
ENDBRANCH   9  10
ENDBRANCH   8   9
ENDBRANCH   7   8
ENDBRANCH   6   7
ENDBRANCH   5   6
ENDBRANCH   4   5
ENDBRANCH   3   4
ENDBRANCH   2   3
ENDBRANCH   1   2
BRANCH   1  17
ATOM     17  C   UNL     1     -12.467  34.481   9.626  1.00  0.00     0.000 C 
BRANCH  17  18
ATOM     18  C   UNL     1     -12.359  33.422  10.743  1.00  0.00     0.000 C 
BRANCH  18  19
ATOM     19  C   UNL     1     -10.938  32.888  10.991  1.00  0.00     0.000 C 
BRANCH  19  20
ATOM     20  C   UNL     1     -10.928  31.441  11.513  1.00  0.00     0.000 C 
BRANCH  20  21
ATOM     21  C   UNL     1     -12.344  30.869  11.706  1.00  0.00     0.000 C 
BRANCH  21  22
ATOM     22  C   UNL     1     -12.448  29.335  11.578  1.00  0.00    -0.000 C 
BRANCH  22  23
ATOM     23  C   UNL     1     -11.351  28.678  10.720  1.00  0.00    -0.000 C 
BRANCH  23  24
ATOM     24  C   UNL     1     -10.760  27.419  11.372  1.00  0.00    -0.000 C 
BRANCH  24  25
ATOM     25  C   UNL     1      -9.548  27.770  12.248  1.00  0.00    -0.000 C 
BRANCH  25  26
ATOM     26  C   UNL     1      -9.574  27.032  13.603  1.00  0.00    -0.000 C 
BRANCH  26  27
ATOM     27  C   UNL     1     -10.531  27.660  14.631  1.00  0.00    -0.000 C 
BRANCH  27  28
ATOM     28  C   UNL     1     -10.446  29.195  14.667  1.00  0.00    -0.000 C 
BRANCH  28  29
ATOM     29  C   UNL     1      -9.065  29.699  15.113  1.00  0.00    -0.003 C 
ATOM     30  C   UNL     1      -8.614  30.946  14.353  1.00  0.00     0.004 C 
ENDBRANCH  28  29
ENDBRANCH  27  28
ENDBRANCH  26  27
ENDBRANCH  25  26
ENDBRANCH  24  25
ENDBRANCH  23  24
ENDBRANCH  22  23
ENDBRANCH  21  22
ENDBRANCH  20  21
ENDBRANCH  19  20
ENDBRANCH  18  19
ENDBRANCH  17  18
ENDBRANCH   1  17
TORSDOF 26
ENDMDL
MODEL 8
REMARK VINA RESULT:    -4.456      7.836     14.337
REMARK INTER + INTRA:         -14.526
REMARK INTER:                 -12.736
REMARK INTRA:                  -1.790
REMARK UNBOUND:                -3.297
REMARK SMILES CCCCCCCCCCCCCCCCCCCCCCCCCCCC(=O)[O-]
REMARK SMILES IDX 15 1 16 2 17 3 18 4 19 5 20 6 21 7 22 8 23 9 24 10 25 11
REMARK SMILES IDX 26 12 27 13 28 14 29 15 30 16 14 17 13 18 12 19 11 20 10 21
REMARK SMILES IDX 9 22 8 23 7 24 6 25 5 26 4 27 3 28 2 29 1 30
REMARK H PARENT
REMARK Flexibility Score: inf
ROOT
ATOM      1  C   UNL     1      -3.272  28.373   2.164  1.00  0.00     0.000 C 
ENDROOT
BRANCH   1   2
ATOM      2  C   UNL     1      -3.005  27.200   1.199  1.00  0.00     0.000 C 
BRANCH   2   3
ATOM      3  C   UNL     1      -1.523  26.983   0.835  1.00  0.00     0.000 C 
BRANCH   3   4
ATOM      4  C   UNL     1      -0.618  28.218   1.016  1.00  0.00     0.000 C 
BRANCH   4   5
ATOM      5  C   UNL     1      -0.429  29.075  -0.248  1.00  0.00     0.000 C 
BRANCH   5   6
ATOM      6  C   UNL     1       0.893  29.857  -0.247  1.00  0.00     0.000 C 
BRANCH   6   7
ATOM      7  C   UNL     1       1.772  29.454  -1.437  1.00  0.00     0.000 C 
BRANCH   7   8
ATOM      8  C   UNL     1       1.053  28.432  -2.329  1.00  0.00     0.000 C 
BRANCH   8   9
ATOM      9  C   UNL     1       1.626  28.376  -3.757  1.00  0.00     0.000 C 
BRANCH   9  10
ATOM     10  C   UNL     1       3.006  29.044  -3.937  1.00  0.00     0.000 C 
BRANCH  10  11
ATOM     11  C   UNL     1       3.018  30.275  -4.860  1.00  0.00     0.000 C 
BRANCH  11  12
ATOM     12  C   UNL     1       3.777  31.468  -4.253  1.00  0.00     0.006 C 
BRANCH  12  13
ATOM     13  C   UNL     1       4.594  31.066  -3.018  1.00  0.00     0.053 C 
BRANCH  13  14
ATOM     14  C   UNL     1       4.497  32.091  -1.930  1.00  0.00     0.041 C 
ATOM     15  O   UNL     1       4.247  31.738  -0.746  1.00  0.00    -0.550 OA
ATOM     16  O   UNL     1       4.658  33.439  -2.227  1.00  0.00    -0.550 OA
ENDBRANCH  13  14
ENDBRANCH  12  13
ENDBRANCH  11  12
ENDBRANCH  10  11
ENDBRANCH   9  10
ENDBRANCH   8   9
ENDBRANCH   7   8
ENDBRANCH   6   7
ENDBRANCH   5   6
ENDBRANCH   4   5
ENDBRANCH   3   4
ENDBRANCH   2   3
ENDBRANCH   1   2
BRANCH   1  17
ATOM     17  C   UNL     1      -4.578  28.264   2.975  1.00  0.00     0.000 C 
BRANCH  17  18
ATOM     18  C   UNL     1      -4.424  28.479   4.494  1.00  0.00     0.000 C 
BRANCH  18  19
ATOM     19  C   UNL     1      -5.745  28.482   5.282  1.00  0.00     0.000 C 
BRANCH  19  20
ATOM     20  C   UNL     1      -6.969  28.756   4.393  1.00  0.00     0.000 C 
BRANCH  20  21
ATOM     21  C   UNL     1      -8.065  29.557   5.119  1.00  0.00     0.000 C 
BRANCH  21  22
ATOM     22  C   UNL     1      -7.544  30.598   6.132  1.00  0.00    -0.000 C 
BRANCH  22  23
ATOM     23  C   UNL     1      -8.571  31.662   6.558  1.00  0.00    -0.000 C 
BRANCH  23  24
ATOM     24  C   UNL     1      -8.017  33.092   6.473  1.00  0.00    -0.000 C 
BRANCH  24  25
ATOM     25  C   UNL     1      -8.431  33.765   5.156  1.00  0.00    -0.000 C 
BRANCH  25  26
ATOM     26  C   UNL     1      -9.293  35.024   5.389  1.00  0.00    -0.000 C 
BRANCH  26  27
ATOM     27  C   UNL     1      -9.524  35.348   6.875  1.00  0.00    -0.000 C 
BRANCH  27  28
ATOM     28  C   UNL     1      -9.545  36.859   7.160  1.00  0.00    -0.000 C 
BRANCH  28  29
ATOM     29  C   UNL     1      -9.056  37.692   5.965  1.00  0.00    -0.003 C 
ATOM     30  C   UNL     1      -8.091  38.805   6.374  1.00  0.00     0.004 C 
ENDBRANCH  28  29
ENDBRANCH  27  28
ENDBRANCH  26  27
ENDBRANCH  25  26
ENDBRANCH  24  25
ENDBRANCH  23  24
ENDBRANCH  22  23
ENDBRANCH  21  22
ENDBRANCH  20  21
ENDBRANCH  19  20
ENDBRANCH  18  19
ENDBRANCH  17  18
ENDBRANCH   1  17
TORSDOF 26
ENDMDL
MODEL 9
REMARK VINA RESULT:    -4.400     14.408     17.846
REMARK INTER + INTRA:         -14.386
REMARK INTER:                 -10.007
REMARK INTRA:                  -4.380
REMARK UNBOUND:                -3.297
REMARK SMILES CCCCCCCCCCCCCCCCCCCCCCCCCCCC(=O)[O-]
REMARK SMILES IDX 15 1 16 2 17 3 18 4 19 5 20 6 21 7 22 8 23 9 24 10 25 11
REMARK SMILES IDX 26 12 27 13 28 14 29 15 30 16 14 17 13 18 12 19 11 20 10 21
REMARK SMILES IDX 9 22 8 23 7 24 6 25 5 26 4 27 3 28 2 29 1 30
REMARK H PARENT
REMARK Flexibility Score: inf
ROOT
ATOM      1  C   UNL     1       3.672  41.800   1.623  1.00  0.00     0.000 C 
ENDROOT
BRANCH   1   2
ATOM      2  C   UNL     1       2.440  41.867   2.548  1.00  0.00     0.000 C 
BRANCH   2   3
ATOM      3  C   UNL     1       1.120  41.397   1.905  1.00  0.00     0.000 C 
BRANCH   3   4
ATOM      4  C   UNL     1      -0.011  42.446   1.893  1.00  0.00     0.000 C 
BRANCH   4   5
ATOM      5  C   UNL     1      -0.751  42.586   0.552  1.00  0.00     0.000 C 
BRANCH   5   6
ATOM      6  C   UNL     1       0.058  42.041  -0.635  1.00  0.00     0.000 C 
BRANCH   6   7
ATOM      7  C   UNL     1       0.171  43.087  -1.751  1.00  0.00     0.000 C 
BRANCH   7   8
ATOM      8  C   UNL     1      -0.675  44.327  -1.429  1.00  0.00     0.000 C 
BRANCH   8   9
ATOM      9  C   UNL     1      -0.053  45.631  -1.960  1.00  0.00     0.000 C 
BRANCH   9  10
ATOM     10  C   UNL     1       0.707  46.470  -0.911  1.00  0.00     0.000 C 
BRANCH  10  11
ATOM     11  C   UNL     1       0.748  45.864   0.503  1.00  0.00     0.000 C 
BRANCH  11  12
ATOM     12  C   UNL     1       2.093  45.188   0.823  1.00  0.00     0.006 C 
BRANCH  12  13
ATOM     13  C   UNL     1       3.267  45.868   0.107  1.00  0.00     0.053 C 
BRANCH  13  14
ATOM     14  C   UNL     1       4.029  44.905  -0.750  1.00  0.00     0.041 C 
ATOM     15  O   UNL     1       3.493  43.827  -1.124  1.00  0.00    -0.550 OA
ATOM     16  O   UNL     1       5.341  45.184  -1.114  1.00  0.00    -0.550 OA
ENDBRANCH  13  14
ENDBRANCH  12  13
ENDBRANCH  11  12
ENDBRANCH  10  11
ENDBRANCH   9  10
ENDBRANCH   8   9
ENDBRANCH   7   8
ENDBRANCH   6   7
ENDBRANCH   5   6
ENDBRANCH   4   5
ENDBRANCH   3   4
ENDBRANCH   2   3
ENDBRANCH   1   2
BRANCH   1  17
ATOM     17  C   UNL     1       4.801  40.871   2.110  1.00  0.00     0.000 C 
BRANCH  17  18
ATOM     18  C   UNL     1       6.231  41.386   1.848  1.00  0.00     0.000 C 
BRANCH  18  19
ATOM     19  C   UNL     1       6.313  42.844   1.363  1.00  0.00     0.000 C 
BRANCH  19  20
ATOM     20  C   UNL     1       6.737  43.818   2.476  1.00  0.00     0.000 C 
BRANCH  20  21
ATOM     21  C   UNL     1       5.857  45.079   2.529  1.00  0.00     0.000 C 
BRANCH  21  22
ATOM     22  C   UNL     1       5.911  45.853   3.863  1.00  0.00    -0.000 C 
BRANCH  22  23
ATOM     23  C   UNL     1       4.603  46.563   4.257  1.00  0.00    -0.000 C 
BRANCH  23  24
ATOM     24  C   UNL     1       4.277  46.424   5.751  1.00  0.00    -0.000 C 
BRANCH  24  25
ATOM     25  C   UNL     1       2.758  46.395   5.983  1.00  0.00    -0.000 C 
BRANCH  25  26
ATOM     26  C   UNL     1       2.348  45.345   7.036  1.00  0.00    -0.000 C 
BRANCH  26  27
ATOM     27  C   UNL     1       1.520  44.183   6.460  1.00  0.00    -0.000 C 
BRANCH  27  28
ATOM     28  C   UNL     1       1.160  44.383   4.979  1.00  0.00    -0.000 C 
BRANCH  28  29
ATOM     29  C   UNL     1      -0.351  44.535   4.754  1.00  0.00    -0.003 C 
ATOM     30  C   UNL     1      -0.923  45.800   5.395  1.00  0.00     0.004 C 
ENDBRANCH  28  29
ENDBRANCH  27  28
ENDBRANCH  26  27
ENDBRANCH  25  26
ENDBRANCH  24  25
ENDBRANCH  23  24
ENDBRANCH  22  23
ENDBRANCH  21  22
ENDBRANCH  20  21
ENDBRANCH  19  20
ENDBRANCH  18  19
ENDBRANCH  17  18
ENDBRANCH   1  17
TORSDOF 26
ENDMDL
