MODEL 1
REMARK VINA RESULT:    -4.135      0.000      0.000
REMARK INTER + INTRA:          -8.433
REMARK INTER:                  -7.157
REMARK INTRA:                  -1.277
REMARK UNBOUND:                -1.277
REMARK SMILES CCCCCCCCCCCCCCO
REMARK SMILES IDX 8 1 7 2 6 3 5 4 4 5 3 6 2 7 1 8 9 9 10 10 11 11 12 12 13 13
REMARK SMILES IDX 14 14 15 15
REMARK H PARENT 15 16
REMARK Flexibility Score: inf
ROOT
ATOM      1  C   UNL     1     175.757 170.054 184.822  1.00  0.00     0.000 C 
ENDROOT
BRANCH   1   2
ATOM      2  C   UNL     1     174.299 170.146 185.289  1.00  0.00    -0.000 C 
BRANCH   2   3
ATOM      3  C   UNL     1     174.160 171.113 186.472  1.00  0.00    -0.000 C 
BRANCH   3   4
ATOM      4  C   UNL     1     173.406 172.382 186.061  1.00  0.00    -0.000 C 
BRANCH   4   5
ATOM      5  C   UNL     1     174.339 173.599 186.052  1.00  0.00    -0.000 C 
BRANCH   5   6
ATOM      6  C   UNL     1     174.297 174.315 184.695  1.00  0.00    -0.000 C 
BRANCH   6   7
ATOM      7  C   UNL     1     175.087 173.569 183.608  1.00  0.00    -0.003 C 
ATOM      8  C   UNL     1     176.599 173.736 183.758  1.00  0.00     0.004 C 
ENDBRANCH   6   7
ENDBRANCH   5   6
ENDBRANCH   4   5
ENDBRANCH   3   4
ENDBRANCH   2   3
ENDBRANCH   1   2
BRANCH   1   9
ATOM      9  C   UNL     1     176.707 170.669 185.861  1.00  0.00     0.000 C 
BRANCH   9  10
ATOM     10  C   UNL     1     177.848 169.718 186.264  1.00  0.00     0.000 C 
BRANCH  10  11
ATOM     11  C   UNL     1     178.002 168.466 185.376  1.00  0.00     0.000 C 
BRANCH  11  12
ATOM     12  C   UNL     1     179.006 168.608 184.219  1.00  0.00     0.002 C 
BRANCH  12  13
ATOM     13  C   UNL     1     179.221 167.293 183.450  1.00  0.00     0.028 C 
BRANCH  13  14
ATOM     14  C   UNL     1     180.706 166.958 183.308  1.00  0.00     0.156 C 
BRANCH  14  15
ATOM     15  O   UNL     1     181.398 167.332 184.467  1.00  0.00    -0.396 OA
ATOM     16  H   UNL     1     181.537 168.312 184.400  1.00  0.00     0.210 HD
ENDBRANCH  14  15
ENDBRANCH  13  14
ENDBRANCH  12  13
ENDBRANCH  11  12
ENDBRANCH  10  11
ENDBRANCH   9  10
ENDBRANCH   1   9
TORSDOF 13
ENDMDL
MODEL 2
REMARK VINA RESULT:    -4.135      8.592     12.217
REMARK INTER + INTRA:          -8.433
REMARK INTER:                  -7.378
REMARK INTRA:                  -1.055
REMARK UNBOUND:                -1.277
REMARK SMILES CCCCCCCCCCCCCCO
REMARK SMILES IDX 8 1 7 2 6 3 5 4 4 5 3 6 2 7 1 8 9 9 10 10 11 11 12 12 13 13
REMARK SMILES IDX 14 14 15 15
REMARK H PARENT 15 16
REMARK Flexibility Score: inf
ROOT
ATOM      1  C   UNL     1     167.481 173.494 185.830  1.00  0.00     0.000 C 
ENDROOT
BRANCH   1   2
ATOM      2  C   UNL     1     168.456 174.124 184.828  1.00  0.00    -0.000 C 
BRANCH   2   3
ATOM      3  C   UNL     1     169.865 174.235 185.425  1.00  0.00    -0.000 C 
BRANCH   3   4
ATOM      4  C   UNL     1     170.050 173.250 186.585  1.00  0.00    -0.000 C 
BRANCH   4   5
ATOM      5  C   UNL     1     170.888 172.041 186.153  1.00  0.00    -0.000 C 
BRANCH   5   6
ATOM      6  C   UNL     1     169.993 170.829 185.857  1.00  0.00    -0.000 C 
BRANCH   6   7
ATOM      7  C   UNL     1     170.349 170.141 184.530  1.00  0.00    -0.003 C 
ATOM      8  C   UNL     1     169.812 170.893 183.313  1.00  0.00     0.004 C 
ENDBRANCH   6   7
ENDBRANCH   5   6
ENDBRANCH   4   5
ENDBRANCH   3   4
ENDBRANCH   2   3
ENDBRANCH   1   2
BRANCH   1   9
ATOM      9  C   UNL     1     166.263 174.402 186.058  1.00  0.00     0.000 C 
BRANCH   9  10
ATOM     10  C   UNL     1     166.444 175.806 185.456  1.00  0.00     0.000 C 
BRANCH  10  11
ATOM     11  C   UNL     1     165.225 176.347 184.680  1.00  0.00     0.000 C 
BRANCH  11  12
ATOM     12  C   UNL     1     165.523 176.821 183.247  1.00  0.00     0.002 C 
BRANCH  12  13
ATOM     13  C   UNL     1     164.381 177.655 182.644  1.00  0.00     0.028 C 
BRANCH  13  14
ATOM     14  C   UNL     1     164.868 179.029 182.181  1.00  0.00     0.156 C 
BRANCH  14  15
ATOM     15  O   UNL     1     164.779 179.951 183.232  1.00  0.00    -0.396 OA
ATOM     16  H   UNL     1     163.810 180.113 183.375  1.00  0.00     0.210 HD
ENDBRANCH  14  15
ENDBRANCH  13  14
ENDBRANCH  12  13
ENDBRANCH  11  12
ENDBRANCH  10  11
ENDBRANCH   9  10
ENDBRANCH   1   9
TORSDOF 13
ENDMDL
MODEL 3
REMARK VINA RESULT:    -4.115      9.374     12.701
REMARK INTER + INTRA:          -8.400
REMARK INTER:                  -6.706
REMARK INTRA:                  -1.694
REMARK UNBOUND:                -1.277
REMARK SMILES CCCCCCCCCCCCCCO
REMARK SMILES IDX 8 1 7 2 6 3 5 4 4 5 3 6 2 7 1 8 9 9 10 10 11 11 12 12 13 13
REMARK SMILES IDX 14 14 15 15
REMARK H PARENT 15 16
REMARK Flexibility Score: inf
ROOT
ATOM      1  C   UNL     1     166.614 175.699 185.562  1.00  0.00     0.000 C 
ENDROOT
BRANCH   1   2
ATOM      2  C   UNL     1     166.245 174.326 186.138  1.00  0.00    -0.000 C 
BRANCH   2   3
ATOM      3  C   UNL     1     167.417 173.345 186.017  1.00  0.00    -0.000 C 
BRANCH   3   4
ATOM      4  C   UNL     1     167.268 172.459 184.775  1.00  0.00    -0.000 C 
BRANCH   4   5
ATOM      5  C   UNL     1     168.587 172.370 183.999  1.00  0.00    -0.000 C 
BRANCH   5   6
ATOM      6  C   UNL     1     168.568 173.296 182.774  1.00  0.00    -0.000 C 
BRANCH   6   7
ATOM      7  C   UNL     1     169.192 174.670 183.061  1.00  0.00    -0.003 C 
ATOM      8  C   UNL     1     170.397 174.587 183.999  1.00  0.00     0.004 C 
ENDBRANCH   6   7
ENDBRANCH   5   6
ENDBRANCH   4   5
ENDBRANCH   3   4
ENDBRANCH   2   3
ENDBRANCH   1   2
BRANCH   1   9
ATOM      9  C   UNL     1     165.552 176.180 184.563  1.00  0.00     0.000 C 
BRANCH   9  10
ATOM     10  C   UNL     1     165.435 175.266 183.330  1.00  0.00     0.000 C 
BRANCH  10  11
ATOM     11  C   UNL     1     165.567 175.982 181.970  1.00  0.00     0.000 C 
BRANCH  11  12
ATOM     12  C   UNL     1     166.316 177.326 182.011  1.00  0.00     0.002 C 
BRANCH  12  13
ATOM     13  C   UNL     1     165.499 178.483 181.414  1.00  0.00     0.028 C 
BRANCH  13  14
ATOM     14  C   UNL     1     164.368 178.917 182.348  1.00  0.00     0.156 C 
BRANCH  14  15
ATOM     15  O   UNL     1     164.811 179.936 183.201  1.00  0.00    -0.396 OA
ATOM     16  H   UNL     1     165.346 180.553 182.638  1.00  0.00     0.210 HD
ENDBRANCH  14  15
ENDBRANCH  13  14
ENDBRANCH  12  13
ENDBRANCH  11  12
ENDBRANCH  10  11
ENDBRANCH   9  10
ENDBRANCH   1   9
TORSDOF 13
ENDMDL
MODEL 4
REMARK VINA RESULT:    -4.058      8.263     11.861
REMARK INTER + INTRA:          -8.299
REMARK INTER:                  -7.596
REMARK INTRA:                  -0.704
REMARK UNBOUND:                -1.277
REMARK SMILES CCCCCCCCCCCCCCO
REMARK SMILES IDX 8 1 7 2 6 3 5 4 4 5 3 6 2 7 1 8 9 9 10 10 11 11 12 12 13 13
REMARK SMILES IDX 14 14 15 15
REMARK H PARENT 15 16
REMARK Flexibility Score: inf
ROOT
ATOM      1  C   UNL     1     167.593 173.519 186.016  1.00  0.00     0.000 C 
ENDROOT
BRANCH   1   2
ATOM      2  C   UNL     1     168.694 174.210 185.201  1.00  0.00    -0.000 C 
BRANCH   2   3
ATOM      3  C   UNL     1     170.087 173.793 185.692  1.00  0.00    -0.000 C 
BRANCH   3   4
ATOM      4  C   UNL     1     170.013 173.164 187.088  1.00  0.00    -0.000 C 
BRANCH   4   5
ATOM      5  C   UNL     1     170.957 171.961 187.201  1.00  0.00    -0.000 C 
BRANCH   5   6
ATOM      6  C   UNL     1     172.077 172.040 186.154  1.00  0.00    -0.000 C 
BRANCH   6   7
ATOM      7  C   UNL     1     173.451 172.330 186.779  1.00  0.00    -0.003 C 
ATOM      8  C   UNL     1     174.348 171.094 186.831  1.00  0.00     0.004 C 
ENDBRANCH   6   7
ENDBRANCH   5   6
ENDBRANCH   4   5
ENDBRANCH   3   4
ENDBRANCH   2   3
ENDBRANCH   1   2
BRANCH   1   9
ATOM      9  C   UNL     1     166.329 174.388 186.077  1.00  0.00     0.000 C 
BRANCH   9  10
ATOM     10  C   UNL     1     166.511 175.758 185.402  1.00  0.00     0.000 C 
BRANCH  10  11
ATOM     11  C   UNL     1     165.381 176.168 184.435  1.00  0.00     0.000 C 
BRANCH  11  12
ATOM     12  C   UNL     1     165.834 176.481 182.999  1.00  0.00     0.002 C 
BRANCH  12  13
ATOM     13  C   UNL     1     165.886 177.990 182.704  1.00  0.00     0.028 C 
BRANCH  13  14
ATOM     14  C   UNL     1     164.487 178.607 182.673  1.00  0.00     0.156 C 
BRANCH  14  15
ATOM     15  O   UNL     1     164.550 179.961 183.028  1.00  0.00    -0.396 OA
ATOM     16  H   UNL     1     164.762 179.982 183.996  1.00  0.00     0.210 HD
ENDBRANCH  14  15
ENDBRANCH  13  14
ENDBRANCH  12  13
ENDBRANCH  11  12
ENDBRANCH  10  11
ENDBRANCH   9  10
ENDBRANCH   1   9
TORSDOF 13
ENDMDL
MODEL 5
REMARK VINA RESULT:    -4.026      8.906     12.501
REMARK INTER + INTRA:          -8.246
REMARK INTER:                  -6.986
REMARK INTRA:                  -1.259
REMARK UNBOUND:                -1.277
REMARK SMILES CCCCCCCCCCCCCCO
REMARK SMILES IDX 8 1 7 2 6 3 5 4 4 5 3 6 2 7 1 8 9 9 10 10 11 11 12 12 13 13
REMARK SMILES IDX 14 14 15 15
REMARK H PARENT 15 16
REMARK Flexibility Score: inf
ROOT
ATOM      1  C   UNL     1     168.075 174.588 184.202  1.00  0.00     0.000 C 
ENDROOT
BRANCH   1   2
ATOM      2  C   UNL     1     167.749 173.422 183.260  1.00  0.00    -0.000 C 
BRANCH   2   3
ATOM      3  C   UNL     1     167.085 172.268 184.021  1.00  0.00    -0.000 C 
BRANCH   3   4
ATOM      4  C   UNL     1     167.777 170.936 183.714  1.00  0.00    -0.000 C 
BRANCH   4   5
ATOM      5  C   UNL     1     169.277 171.010 184.023  1.00  0.00    -0.000 C 
BRANCH   5   6
ATOM      6  C   UNL     1     169.525 171.072 185.538  1.00  0.00    -0.000 C 
BRANCH   6   7
ATOM      7  C   UNL     1     170.560 172.139 185.924  1.00  0.00    -0.003 C 
ATOM      8  C   UNL     1     170.039 173.111 186.983  1.00  0.00     0.004 C 
ENDBRANCH   6   7
ENDBRANCH   5   6
ENDBRANCH   4   5
ENDBRANCH   3   4
ENDBRANCH   2   3
ENDBRANCH   1   2
BRANCH   1   9
ATOM      9  C   UNL     1     167.002 174.730 185.292  1.00  0.00     0.000 C 
BRANCH   9  10
ATOM     10  C   UNL     1     166.304 176.100 185.267  1.00  0.00     0.000 C 
BRANCH  10  11
ATOM     11  C   UNL     1     165.813 176.561 183.879  1.00  0.00     0.000 C 
BRANCH  11  12
ATOM     12  C   UNL     1     164.284 176.583 183.703  1.00  0.00     0.002 C 
BRANCH  12  13
ATOM     13  C   UNL     1     163.762 177.933 183.185  1.00  0.00     0.028 C 
BRANCH  13  14
ATOM     14  C   UNL     1     164.879 178.766 182.555  1.00  0.00     0.156 C 
BRANCH  14  15
ATOM     15  O   UNL     1     164.975 180.008 183.195  1.00  0.00    -0.396 OA
ATOM     16  H   UNL     1     165.068 179.812 184.163  1.00  0.00     0.210 HD
ENDBRANCH  14  15
ENDBRANCH  13  14
ENDBRANCH  12  13
ENDBRANCH  11  12
ENDBRANCH  10  11
ENDBRANCH   9  10
ENDBRANCH   1   9
TORSDOF 13
ENDMDL
MODEL 6
REMARK VINA RESULT:    -4.015      1.623      2.480
REMARK INTER + INTRA:          -8.225
REMARK INTER:                  -6.830
REMARK INTRA:                  -1.395
REMARK UNBOUND:                -1.277
REMARK SMILES CCCCCCCCCCCCCCO
REMARK SMILES IDX 8 1 7 2 6 3 5 4 4 5 3 6 2 7 1 8 9 9 10 10 11 11 12 12 13 13
REMARK SMILES IDX 14 14 15 15
REMARK H PARENT 15 16
REMARK Flexibility Score: inf
ROOT
ATOM      1  C   UNL     1     176.653 170.527 186.158  1.00  0.00     0.000 C 
ENDROOT
BRANCH   1   2
ATOM      2  C   UNL     1     175.741 170.000 185.043  1.00  0.00    -0.000 C 
BRANCH   2   3
ATOM      3  C   UNL     1     175.185 171.151 184.195  1.00  0.00    -0.000 C 
BRANCH   3   4
ATOM      4  C   UNL     1     175.534 172.509 184.813  1.00  0.00    -0.000 C 
BRANCH   4   5
ATOM      5  C   UNL     1     176.247 173.410 183.798  1.00  0.00    -0.000 C 
BRANCH   5   6
ATOM      6  C   UNL     1     177.716 172.996 183.630  1.00  0.00    -0.000 C 
BRANCH   6   7
ATOM      7  C   UNL     1     178.031 172.497 182.211  1.00  0.00    -0.003 C 
ATOM      8  C   UNL     1     178.188 170.978 182.141  1.00  0.00     0.004 C 
ENDBRANCH   6   7
ENDBRANCH   5   6
ENDBRANCH   4   5
ENDBRANCH   3   4
ENDBRANCH   2   3
ENDBRANCH   1   2
BRANCH   1   9
ATOM      9  C   UNL     1     178.010 169.808 186.145  1.00  0.00     0.000 C 
BRANCH   9  10
ATOM     10  C   UNL     1     177.978 168.488 185.356  1.00  0.00     0.000 C 
BRANCH  10  11
ATOM     11  C   UNL     1     179.210 168.229 184.463  1.00  0.00     0.000 C 
BRANCH  11  12
ATOM     12  C   UNL     1     179.006 167.170 183.365  1.00  0.00     0.002 C 
BRANCH  12  13
ATOM     13  C   UNL     1     180.303 166.839 182.607  1.00  0.00     0.028 C 
BRANCH  13  14
ATOM     14  C   UNL     1     180.984 165.591 183.170  1.00  0.00     0.156 C 
BRANCH  14  15
ATOM     15  O   UNL     1     180.645 164.469 182.402  1.00  0.00    -0.396 OA
ATOM     16  H   UNL     1     179.998 164.787 181.721  1.00  0.00     0.210 HD
ENDBRANCH  14  15
ENDBRANCH  13  14
ENDBRANCH  12  13
ENDBRANCH  11  12
ENDBRANCH  10  11
ENDBRANCH   9  10
ENDBRANCH   1   9
TORSDOF 13
ENDMDL
MODEL 7
REMARK VINA RESULT:    -3.993      1.868      3.218
REMARK INTER + INTRA:          -8.187
REMARK INTER:                  -7.175
REMARK INTRA:                  -1.012
REMARK UNBOUND:                -1.277
REMARK SMILES CCCCCCCCCCCCCCO
REMARK SMILES IDX 8 1 7 2 6 3 5 4 4 5 3 6 2 7 1 8 9 9 10 10 11 11 12 12 13 13
REMARK SMILES IDX 14 14 15 15
REMARK H PARENT 15 16
REMARK Flexibility Score: inf
ROOT
ATOM      1  C   UNL     1     178.035 169.820 186.448  1.00  0.00     0.000 C 
ENDROOT
BRANCH   1   2
ATOM      2  C   UNL     1     176.994 170.945 186.386  1.00  0.00    -0.000 C 
BRANCH   2   3
ATOM      3  C   UNL     1     176.991 171.617 185.007  1.00  0.00    -0.000 C 
BRANCH   3   4
ATOM      4  C   UNL     1     175.582 171.626 184.402  1.00  0.00    -0.000 C 
BRANCH   4   5
ATOM      5  C   UNL     1     174.550 171.093 185.403  1.00  0.00    -0.000 C 
BRANCH   5   6
ATOM      6  C   UNL     1     174.004 169.729 184.957  1.00  0.00    -0.000 C 
BRANCH   6   7
ATOM      7  C   UNL     1     173.433 169.757 183.531  1.00  0.00    -0.003 C 
ATOM      8  C   UNL     1     171.946 170.106 183.498  1.00  0.00     0.004 C 
ENDBRANCH   6   7
ENDBRANCH   5   6
ENDBRANCH   4   5
ENDBRANCH   3   4
ENDBRANCH   2   3
ENDBRANCH   1   2
BRANCH   1   9
ATOM      9  C   UNL     1     177.646 168.660 185.518  1.00  0.00     0.000 C 
BRANCH   9  10
ATOM     10  C   UNL     1     178.765 168.283 184.533  1.00  0.00     0.000 C 
BRANCH  10  11
ATOM     11  C   UNL     1     178.444 168.542 183.046  1.00  0.00     0.000 C 
BRANCH  11  12
ATOM     12  C   UNL     1     179.016 167.503 182.066  1.00  0.00     0.002 C 
BRANCH  12  13
ATOM     13  C   UNL     1     179.216 166.121 182.711  1.00  0.00     0.028 C 
BRANCH  13  14
ATOM     14  C   UNL     1     180.693 165.726 182.751  1.00  0.00     0.156 C 
BRANCH  14  15
ATOM     15  O   UNL     1     180.858 164.426 182.256  1.00  0.00    -0.396 OA
ATOM     16  H   UNL     1     180.342 163.833 182.862  1.00  0.00     0.210 HD
ENDBRANCH  14  15
ENDBRANCH  13  14
ENDBRANCH  12  13
ENDBRANCH  11  12
ENDBRANCH  10  11
ENDBRANCH   9  10
ENDBRANCH   1   9
TORSDOF 13
ENDMDL
MODEL 8
REMARK VINA RESULT:    -3.917      1.812      2.746
REMARK INTER + INTRA:          -8.056
REMARK INTER:                  -5.960
REMARK INTRA:                  -2.095
REMARK UNBOUND:                -1.277
REMARK SMILES CCCCCCCCCCCCCCO
REMARK SMILES IDX 8 1 7 2 6 3 5 4 4 5 3 6 2 7 1 8 9 9 10 10 11 11 12 12 13 13
REMARK SMILES IDX 14 14 15 15
REMARK H PARENT 15 16
REMARK Flexibility Score: inf
ROOT
ATOM      1  C   UNL     1     174.017 170.217 183.030  1.00  0.00     0.000 C 
ENDROOT
BRANCH   1   2
ATOM      2  C   UNL     1     172.879 170.192 184.058  1.00  0.00    -0.000 C 
BRANCH   2   3
ATOM      3  C   UNL     1     173.402 170.499 185.467  1.00  0.00    -0.000 C 
BRANCH   3   4
ATOM      4  C   UNL     1     172.577 171.607 186.132  1.00  0.00    -0.000 C 
BRANCH   4   5
ATOM      5  C   UNL     1     172.746 172.939 185.393  1.00  0.00    -0.000 C 
BRANCH   5   6
ATOM      6  C   UNL     1     174.142 173.531 185.637  1.00  0.00    -0.000 C 
BRANCH   6   7
ATOM      7  C   UNL     1     174.690 174.280 184.412  1.00  0.00    -0.003 C 
ATOM      8  C   UNL     1     173.974 173.895 183.117  1.00  0.00     0.004 C 
ENDBRANCH   6   7
ENDBRANCH   5   6
ENDBRANCH   4   5
ENDBRANCH   3   4
ENDBRANCH   2   3
ENDBRANCH   1   2
BRANCH   1   9
ATOM      9  C   UNL     1     175.376 169.993 183.710  1.00  0.00     0.000 C 
BRANCH   9  10
ATOM     10  C   UNL     1     176.436 171.021 183.278  1.00  0.00     0.000 C 
BRANCH  10  11
ATOM     11  C   UNL     1     177.276 171.618 184.427  1.00  0.00     0.000 C 
BRANCH  11  12
ATOM     12  C   UNL     1     176.934 171.083 185.829  1.00  0.00     0.002 C 
BRANCH  12  13
ATOM     13  C   UNL     1     178.059 170.226 186.432  1.00  0.00     0.028 C 
BRANCH  13  14
ATOM     14  C   UNL     1     178.071 168.815 185.844  1.00  0.00     0.156 C 
BRANCH  14  15
ATOM     15  O   UNL     1     179.174 168.654 184.996  1.00  0.00    -0.396 OA
ATOM     16  H   UNL     1     179.902 169.205 185.385  1.00  0.00     0.210 HD
ENDBRANCH  14  15
ENDBRANCH  13  14
ENDBRANCH  12  13
ENDBRANCH  11  12
ENDBRANCH  10  11
ENDBRANCH   9  10
ENDBRANCH   1   9
TORSDOF 13
ENDMDL
MODEL 9
REMARK VINA RESULT:    -3.913      6.006      8.357
REMARK INTER + INTRA:          -8.049
REMARK INTER:                  -6.129
REMARK INTRA:                  -1.920
REMARK UNBOUND:                -1.277
REMARK SMILES CCCCCCCCCCCCCCO
REMARK SMILES IDX 8 1 7 2 6 3 5 4 4 5 3 6 2 7 1 8 9 9 10 10 11 11 12 12 13 13
REMARK SMILES IDX 14 14 15 15
REMARK H PARENT 15 16
REMARK Flexibility Score: inf
ROOT
ATOM      1  C   UNL     1     170.183 174.555 184.497  1.00  0.00     0.000 C 
ENDROOT
BRANCH   1   2
ATOM      2  C   UNL     1     170.257 174.075 183.042  1.00  0.00    -0.000 C 
BRANCH   2   3
ATOM      3  C   UNL     1     168.898 174.220 182.345  1.00  0.00    -0.000 C 
BRANCH   3   4
ATOM      4  C   UNL     1     167.929 173.121 182.794  1.00  0.00    -0.000 C 
BRANCH   4   5
ATOM      5  C   UNL     1     166.758 173.709 183.590  1.00  0.00    -0.000 C 
BRANCH   5   6
ATOM      6  C   UNL     1     166.685 173.094 184.996  1.00  0.00    -0.000 C 
BRANCH   6   7
ATOM      7  C   UNL     1     166.472 174.150 186.092  1.00  0.00    -0.003 C 
ATOM      8  C   UNL     1     166.418 175.573 185.538  1.00  0.00     0.004 C 
ENDBRANCH   6   7
ENDBRANCH   5   6
ENDBRANCH   4   5
ENDBRANCH   3   4
ENDBRANCH   2   3
ENDBRANCH   1   2
BRANCH   1   9
ATOM      9  C   UNL     1     171.077 173.697 185.405  1.00  0.00     0.000 C 
BRANCH   9  10
ATOM     10  C   UNL     1     170.277 172.899 186.449  1.00  0.00     0.000 C 
BRANCH  10  11
ATOM     11  C   UNL     1     170.301 171.367 186.262  1.00  0.00     0.000 C 
BRANCH  11  12
ATOM     12  C   UNL     1     169.408 170.835 185.127  1.00  0.00     0.002 C 
BRANCH  12  13
ATOM     13  C   UNL     1     170.206 170.458 183.868  1.00  0.00     0.028 C 
BRANCH  13  14
ATOM     14  C   UNL     1     171.664 170.136 184.198  1.00  0.00     0.156 C 
BRANCH  14  15
ATOM     15  O   UNL     1     172.057 168.958 183.549  1.00  0.00    -0.396 OA
ATOM     16  H   UNL     1     172.348 168.335 184.264  1.00  0.00     0.210 HD
ENDBRANCH  14  15
ENDBRANCH  13  14
ENDBRANCH  12  13
ENDBRANCH  11  12
ENDBRANCH  10  11
ENDBRANCH   9  10
ENDBRANCH   1   9
TORSDOF 13
ENDMDL
