MODEL 1
REMARK VINA RESULT:    -6.950      0.000      0.000
REMARK INTER + INTRA:         -10.720
REMARK INTER:                  -9.591
REMARK INTRA:                  -1.129
REMARK UNBOUND:                -1.129
REMARK SMILES O=C([O-])[C@H]1O[C@H](Oc2cc3oc(-c4ccccc4)cc(=O)c3c(O)c2O)[C@H](O)[C@@H](O)[C@H]1O
REMARK SMILES IDX 7 1 6 2 4 3 31 4 5 5 29 6 27 7 2 8 1 9 3 10 32 11 30 13
REMARK SMILES IDX 28 15 8 17 25 18 9 19 23 20 10 21 22 22 11 23 20 24 12 25
REMARK SMILES IDX 19 26 21 27 26 28 24 30 13 32 14 33 18 34 15 35 17 36 16 37
REMARK H PARENT 32 12 30 14 28 16 26 29 24 31
REMARK Flexibility Score: inf
ROOT
ATOM      1  O   UNL     1      35.659   3.548 165.647  1.00  0.00    -0.458 OA
ENDROOT
BRANCH   1   2
ATOM      2  C   UNL     1      34.907   4.571 166.317  1.00  0.00     0.339 C 
ATOM      3  C   UNL     1      36.769   5.237 167.583  1.00  0.00     0.199 C 
ATOM      4  C   UNL     1      36.870   6.613 166.892  1.00  0.00     0.180 C 
ATOM      5  O   UNL     1      35.425   4.780 167.624  1.00  0.00    -0.328 OA
ATOM      6  C   UNL     1      36.293   6.506 165.466  1.00  0.00     0.181 C 
ATOM      7  C   UNL     1      34.885   5.898 165.519  1.00  0.00     0.214 C 
BRANCH   3   8
ATOM      8  C   UNL     1      37.307   5.317 168.982  1.00  0.00     0.073 C 
ATOM      9  O   UNL     1      38.418   4.800 169.271  1.00  0.00    -0.547 OA
ATOM     10  O   UNL     1      36.552   5.920 169.981  1.00  0.00    -0.547 OA
ENDBRANCH   3   8
BRANCH   4  11
ATOM     11  O   UNL     1      36.158   7.574 167.634  1.00  0.00    -0.387 OA
ATOM     12  H   UNL     1      35.217   7.541 167.321  1.00  0.00     0.211 HD
ENDBRANCH   4  11
BRANCH   6  13
ATOM     13  O   UNL     1      36.236   7.771 164.860  1.00  0.00    -0.387 OA
ATOM     14  H   UNL     1      36.035   8.424 165.581  1.00  0.00     0.211 HD
ENDBRANCH   6  13
BRANCH   7  15
ATOM     15  O   UNL     1      34.409   5.696 164.214  1.00  0.00    -0.384 OA
ATOM     16  H   UNL     1      34.492   6.566 163.743  1.00  0.00     0.211 HD
ENDBRANCH   7  15
ENDBRANCH   1   2
BRANCH   1  17
ATOM     17  C   UNL     1      35.110   2.379 165.103  1.00  0.00     0.172 A 
ATOM     18  C   UNL     1      35.682   1.727 163.997  1.00  0.00     0.201 A 
ATOM     19  C   UNL     1      33.949   1.872 165.681  1.00  0.00     0.098 A 
ATOM     20  C   UNL     1      35.125   0.526 163.512  1.00  0.00     0.176 A 
ATOM     21  C   UNL     1      33.354   0.712 165.190  1.00  0.00     0.146 A 
ATOM     22  C   UNL     1      33.917   0.026 164.084  1.00  0.00     0.111 A 
ATOM     23  O   UNL     1      32.246   0.270 165.775  1.00  0.00    -0.456 OA
ATOM     24  C   UNL     1      33.205  -1.102 163.604  1.00  0.00     0.197 A 
ATOM     25  C   UNL     1      31.580  -0.806 165.370  1.00  0.00     0.138 A 
ATOM     26  C   UNL     1      32.050  -1.526 164.263  1.00  0.00     0.100 A 
ATOM     27  O   UNL     1      33.564  -1.730 162.575  1.00  0.00    -0.289 OA
BRANCH  18  28
ATOM     28  O   UNL     1      36.800   2.285 163.376  1.00  0.00    -0.502 OA
ATOM     29  H   UNL     1      37.709   2.325 163.819  1.00  0.00     0.293 HD
ENDBRANCH  18  28
BRANCH  20  30
ATOM     30  O   UNL     1      35.815  -0.129 162.486  1.00  0.00    -0.504 OA
ATOM     31  H   UNL     1      35.880   0.200 161.535  1.00  0.00     0.293 HD
ENDBRANCH  20  30
BRANCH  25  32
ATOM     32  C   UNL     1      30.359  -1.211 166.111  1.00  0.00     0.017 A 
ATOM     33  C   UNL     1      29.329  -1.952 165.496  1.00  0.00     0.012 A 
ATOM     34  C   UNL     1      30.206  -0.824 167.455  1.00  0.00     0.012 A 
ATOM     35  C   UNL     1      28.187  -2.310 166.219  1.00  0.00     0.001 A 
ATOM     36  C   UNL     1      29.062  -1.186 168.172  1.00  0.00     0.001 A 
ATOM     37  C   UNL     1      28.055  -1.930 167.556  1.00  0.00     0.000 A 
ENDBRANCH  25  32
ENDBRANCH   1  17
TORSDOF 9
ENDMDL
MODEL 2
REMARK VINA RESULT:    -6.850      1.433      2.498
REMARK INTER + INTRA:         -10.581
REMARK INTER:                  -9.115
REMARK INTRA:                  -1.467
REMARK UNBOUND:                -1.129
REMARK SMILES O=C([O-])[C@H]1O[C@H](Oc2cc3oc(-c4ccccc4)cc(=O)c3c(O)c2O)[C@H](O)[C@@H](O)[C@H]1O
REMARK SMILES IDX 7 1 6 2 4 3 31 4 5 5 29 6 27 7 2 8 1 9 3 10 32 11 30 13
REMARK SMILES IDX 28 15 8 17 25 18 9 19 23 20 10 21 22 22 11 23 20 24 12 25
REMARK SMILES IDX 19 26 21 27 26 28 24 30 13 32 14 33 18 34 15 35 17 36 16 37
REMARK H PARENT 32 12 30 14 28 16 26 29 24 31
REMARK Flexibility Score: inf
ROOT
ATOM      1  O   UNL     1      35.533   3.833 165.824  1.00  0.00    -0.458 OA
ENDROOT
BRANCH   1   2
ATOM      2  C   UNL     1      36.620   3.899 166.759  1.00  0.00     0.339 C 
ATOM      3  C   UNL     1      37.974   5.068 165.239  1.00  0.00     0.199 C 
ATOM      4  C   UNL     1      37.971   6.362 166.078  1.00  0.00     0.180 C 
ATOM      5  O   UNL     1      37.859   3.918 166.065  1.00  0.00    -0.328 OA
ATOM      6  C   UNL     1      36.673   6.422 166.908  1.00  0.00     0.181 C 
ATOM      7  C   UNL     1      36.504   5.122 167.704  1.00  0.00     0.214 C 
BRANCH   3   8
ATOM      8  C   UNL     1      39.238   4.973 164.434  1.00  0.00     0.073 C 
ATOM      9  O   UNL     1      40.021   5.956 164.355  1.00  0.00    -0.547 OA
ATOM     10  O   UNL     1      39.524   3.811 163.727  1.00  0.00    -0.547 OA
ENDBRANCH   3   8
BRANCH   4  11
ATOM     11  O   UNL     1      39.093   6.383 166.927  1.00  0.00    -0.387 OA
ATOM     12  H   UNL     1      38.817   6.850 167.759  1.00  0.00     0.211 HD
ENDBRANCH   4  11
BRANCH   6  13
ATOM     13  O   UNL     1      36.703   7.513 167.792  1.00  0.00    -0.387 OA
ATOM     14  H   UNL     1      36.465   8.318 167.261  1.00  0.00     0.211 HD
ENDBRANCH   6  13
BRANCH   7  15
ATOM     15  O   UNL     1      35.267   5.132 168.368  1.00  0.00    -0.384 OA
ATOM     16  H   UNL     1      35.310   4.423 169.062  1.00  0.00     0.211 HD
ENDBRANCH   7  15
ENDBRANCH   1   2
BRANCH   1  17
ATOM     17  C   UNL     1      35.012   2.647 165.287  1.00  0.00     0.172 A 
ATOM     18  C   UNL     1      35.598   2.004 164.183  1.00  0.00     0.201 A 
ATOM     19  C   UNL     1      33.867   2.113 165.871  1.00  0.00     0.098 A 
ATOM     20  C   UNL     1      35.071   0.788 163.705  1.00  0.00     0.176 A 
ATOM     21  C   UNL     1      33.300   0.935 165.387  1.00  0.00     0.146 A 
ATOM     22  C   UNL     1      33.878   0.258 164.283  1.00  0.00     0.111 A 
ATOM     23  O   UNL     1      32.206   0.468 165.978  1.00  0.00    -0.456 OA
ATOM     24  C   UNL     1      33.194  -0.890 163.811  1.00  0.00     0.197 A 
ATOM     25  C   UNL     1      31.568  -0.627 165.580  1.00  0.00     0.138 A 
ATOM     26  C   UNL     1      32.053  -1.340 164.476  1.00  0.00     0.100 A 
ATOM     27  O   UNL     1      33.566  -1.513 162.784  1.00  0.00    -0.289 OA
BRANCH  18  28
ATOM     28  O   UNL     1      36.699   2.589 163.555  1.00  0.00    -0.502 OA
ATOM     29  H   UNL     1      36.630   3.075 162.670  1.00  0.00     0.293 HD
ENDBRANCH  18  28
BRANCH  20  30
ATOM     30  O   UNL     1      35.775   0.146 162.680  1.00  0.00    -0.504 OA
ATOM     31  H   UNL     1      36.764   0.246 162.511  1.00  0.00     0.293 HD
ENDBRANCH  20  30
BRANCH  25  32
ATOM     32  C   UNL     1      30.360  -1.061 166.327  1.00  0.00     0.017 A 
ATOM     33  C   UNL     1      30.173  -0.738 167.687  1.00  0.00     0.012 A 
ATOM     34  C   UNL     1      29.386  -1.839 165.676  1.00  0.00     0.012 A 
ATOM     35  C   UNL     1      29.029  -1.169 168.366  1.00  0.00     0.001 A 
ATOM     36  C   UNL     1      28.244  -2.267 166.360  1.00  0.00     0.001 A 
ATOM     37  C   UNL     1      28.064  -1.930 167.702  1.00  0.00     0.000 A 
ENDBRANCH  25  32
ENDBRANCH   1  17
TORSDOF 9
ENDMDL
MODEL 3
REMARK VINA RESULT:    -6.467      2.031      8.315
REMARK INTER + INTRA:         -10.053
REMARK INTER:                  -8.727
REMARK INTRA:                  -1.326
REMARK UNBOUND:                -1.129
REMARK SMILES O=C([O-])[C@H]1O[C@H](Oc2cc3oc(-c4ccccc4)cc(=O)c3c(O)c2O)[C@H](O)[C@@H](O)[C@H]1O
REMARK SMILES IDX 7 1 6 2 4 3 31 4 5 5 29 6 27 7 2 8 1 9 3 10 32 11 30 13
REMARK SMILES IDX 28 15 8 17 25 18 9 19 23 20 10 21 22 22 11 23 20 24 12 25
REMARK SMILES IDX 19 26 21 27 26 28 24 30 13 32 14 33 18 34 15 35 17 36 16 37
REMARK H PARENT 32 12 30 14 28 16 26 29 24 31
REMARK Flexibility Score: inf
ROOT
ATOM      1  O   UNL     1      32.962   1.457 165.449  1.00  0.00    -0.458 OA
ENDROOT
BRANCH   1   2
ATOM      2  C   UNL     1      33.110   0.152 166.027  1.00  0.00     0.339 C 
ATOM      3  C   UNL     1      30.940   0.205 166.924  1.00  0.00     0.199 C 
ATOM      4  C   UNL     1      30.427  -0.925 166.007  1.00  0.00     0.180 C 
ATOM      5  O   UNL     1      32.324   0.049 167.206  1.00  0.00    -0.328 OA
ATOM      6  C   UNL     1      31.246  -0.926 164.701  1.00  0.00     0.181 C 
ATOM      7  C   UNL     1      32.745  -0.975 165.027  1.00  0.00     0.214 C 
BRANCH   3   8
ATOM      8  C   UNL     1      30.172   0.217 168.214  1.00  0.00     0.073 C 
ATOM      9  O   UNL     1      29.289  -0.652 168.440  1.00  0.00    -0.547 OA
ATOM     10  O   UNL     1      30.397   1.224 169.145  1.00  0.00    -0.547 OA
ENDBRANCH   3   8
BRANCH   4  11
ATOM     11  O   UNL     1      30.550  -2.165 166.660  1.00  0.00    -0.387 OA
ATOM     12  H   UNL     1      29.822  -2.746 166.317  1.00  0.00     0.211 HD
ENDBRANCH   4  11
BRANCH   6  13
ATOM     13  O   UNL     1      30.903  -2.031 163.904  1.00  0.00    -0.387 OA
ATOM     14  H   UNL     1      31.703  -2.248 163.357  1.00  0.00     0.211 HD
ENDBRANCH   6  13
BRANCH   7  15
ATOM     15  O   UNL     1      33.490  -0.861 163.843  1.00  0.00    -0.384 OA
ATOM     16  H   UNL     1      34.440  -1.008 164.089  1.00  0.00     0.211 HD
ENDBRANCH   7  15
ENDBRANCH   1   2
BRANCH   1  17
ATOM     17  C   UNL     1      33.991   2.402 165.335  1.00  0.00     0.172 A 
ATOM     18  C   UNL     1      34.685   2.613 164.132  1.00  0.00     0.201 A 
ATOM     19  C   UNL     1      34.333   3.135 166.468  1.00  0.00     0.098 A 
ATOM     20  C   UNL     1      35.681   3.607 164.048  1.00  0.00     0.176 A 
ATOM     21  C   UNL     1      35.346   4.091 166.423  1.00  0.00     0.146 A 
ATOM     22  C   UNL     1      36.053   4.334 165.219  1.00  0.00     0.111 A 
ATOM     23  O   UNL     1      35.636   4.762 167.532  1.00  0.00    -0.456 OA
ATOM     24  C   UNL     1      37.116   5.270 165.282  1.00  0.00     0.197 A 
ATOM     25  C   UNL     1      36.600   5.672 167.609  1.00  0.00     0.138 A 
ATOM     26  C   UNL     1      37.371   5.951 166.472  1.00  0.00     0.100 A 
ATOM     27  O   UNL     1      37.867   5.494 164.298  1.00  0.00    -0.289 OA
BRANCH  18  28
ATOM     28  O   UNL     1      34.389   1.819 163.022  1.00  0.00    -0.502 OA
ATOM     29  H   UNL     1      35.047   1.665 162.268  1.00  0.00     0.293 HD
ENDBRANCH  18  28
BRANCH  20  30
ATOM     30  O   UNL     1      36.245   3.841 162.789  1.00  0.00    -0.504 OA
ATOM     31  H   UNL     1      37.235   3.873 162.599  1.00  0.00     0.293 HD
ENDBRANCH  20  30
BRANCH  25  32
ATOM     32  C   UNL     1      36.825   6.367 168.902  1.00  0.00     0.017 A 
ATOM     33  C   UNL     1      37.637   7.516 168.995  1.00  0.00     0.012 A 
ATOM     34  C   UNL     1      36.238   5.854 170.074  1.00  0.00     0.012 A 
ATOM     35  C   UNL     1      37.838   8.142 170.230  1.00  0.00     0.001 A 
ATOM     36  C   UNL     1      36.441   6.486 171.304  1.00  0.00     0.001 A 
ATOM     37  C   UNL     1      37.238   7.630 171.382  1.00  0.00     0.000 A 
ENDBRANCH  25  32
ENDBRANCH   1  17
TORSDOF 9
ENDMDL
MODEL 4
REMARK VINA RESULT:    -6.461      1.547      2.921
REMARK INTER + INTRA:         -10.045
REMARK INTER:                  -9.233
REMARK INTRA:                  -0.812
REMARK UNBOUND:                -1.129
REMARK SMILES O=C([O-])[C@H]1O[C@H](Oc2cc3oc(-c4ccccc4)cc(=O)c3c(O)c2O)[C@H](O)[C@@H](O)[C@H]1O
REMARK SMILES IDX 7 1 6 2 4 3 31 4 5 5 29 6 27 7 2 8 1 9 3 10 32 11 30 13
REMARK SMILES IDX 28 15 8 17 25 18 9 19 23 20 10 21 22 22 11 23 20 24 12 25
REMARK SMILES IDX 19 26 21 27 26 28 24 30 13 32 14 33 18 34 15 35 17 36 16 37
REMARK H PARENT 32 12 30 14 28 16 26 29 24 31
REMARK Flexibility Score: inf
ROOT
ATOM      1  O   UNL     1      36.130   2.791 165.562  1.00  0.00    -0.458 OA
ENDROOT
BRANCH   1   2
ATOM      2  C   UNL     1      37.565   2.844 165.548  1.00  0.00     0.339 C 
ATOM      3  C   UNL     1      37.567   5.192 165.520  1.00  0.00     0.199 C 
ATOM      4  C   UNL     1      38.182   5.306 166.930  1.00  0.00     0.180 C 
ATOM      5  O   UNL     1      38.002   4.010 164.864  1.00  0.00    -0.328 OA
ATOM      6  C   UNL     1      37.796   4.060 167.752  1.00  0.00     0.181 C 
ATOM      7  C   UNL     1      38.165   2.790 166.975  1.00  0.00     0.214 C 
BRANCH   3   8
ATOM      8  C   UNL     1      37.943   6.385 164.690  1.00  0.00     0.073 C 
ATOM      9  O   UNL     1      38.145   6.265 163.453  1.00  0.00    -0.547 OA
ATOM     10  O   UNL     1      38.121   7.623 165.296  1.00  0.00    -0.547 OA
ENDBRANCH   3   8
BRANCH   4  11
ATOM     11  O   UNL     1      39.581   5.412 166.834  1.00  0.00    -0.387 OA
ATOM     12  H   UNL     1      39.904   4.584 166.392  1.00  0.00     0.211 HD
ENDBRANCH   4  11
BRANCH   6  13
ATOM     13  O   UNL     1      38.457   4.062 168.991  1.00  0.00    -0.387 OA
ATOM     14  H   UNL     1      37.777   3.833 169.678  1.00  0.00     0.211 HD
ENDBRANCH   6  13
BRANCH   7  15
ATOM     15  O   UNL     1      37.710   1.661 167.673  1.00  0.00    -0.384 OA
ATOM     16  H   UNL     1      37.418   1.977 168.568  1.00  0.00     0.211 HD
ENDBRANCH   7  15
ENDBRANCH   1   2
BRANCH   1  17
ATOM     17  C   UNL     1      35.362   1.774 164.978  1.00  0.00     0.172 A 
ATOM     18  C   UNL     1      35.712   1.181 163.753  1.00  0.00     0.201 A 
ATOM     19  C   UNL     1      34.210   1.362 165.641  1.00  0.00     0.098 A 
ATOM     20  C   UNL     1      34.939   0.127 163.224  1.00  0.00     0.176 A 
ATOM     21  C   UNL     1      33.404   0.354 165.115  1.00  0.00     0.146 A 
ATOM     22  C   UNL     1      33.740  -0.271 163.888  1.00  0.00     0.111 A 
ATOM     23  O   UNL     1      32.313  -0.001 165.786  1.00  0.00    -0.456 OA
ATOM     24  C   UNL     1      32.826  -1.233 163.392  1.00  0.00     0.197 A 
ATOM     25  C   UNL     1      31.460  -0.927 165.363  1.00  0.00     0.138 A 
ATOM     26  C   UNL     1      31.699  -1.573 164.142  1.00  0.00     0.100 A 
ATOM     27  O   UNL     1      32.978  -1.782 162.270  1.00  0.00    -0.289 OA
BRANCH  18  28
ATOM     28  O   UNL     1      36.826   1.653 163.056  1.00  0.00    -0.502 OA
ATOM     29  H   UNL     1      37.755   1.674 163.459  1.00  0.00     0.293 HD
ENDBRANCH  18  28
BRANCH  20  30
ATOM     30  O   UNL     1      35.414  -0.493 162.063  1.00  0.00    -0.504 OA
ATOM     31  H   UNL     1      35.174  -0.217 161.124  1.00  0.00     0.293 HD
ENDBRANCH  20  30
BRANCH  25  32
ATOM     32  C   UNL     1      30.280  -1.248 166.204  1.00  0.00     0.017 A 
ATOM     33  C   UNL     1      30.204  -0.855 167.556  1.00  0.00     0.012 A 
ATOM     34  C   UNL     1      29.219  -1.991 165.653  1.00  0.00     0.012 A 
ATOM     35  C   UNL     1      29.083  -1.182 168.326  1.00  0.00     0.001 A 
ATOM     36  C   UNL     1      28.101  -2.313 166.428  1.00  0.00     0.001 A 
ATOM     37  C   UNL     1      28.032  -1.907 167.762  1.00  0.00     0.000 A 
ENDBRANCH  25  32
ENDBRANCH   1  17
TORSDOF 9
ENDMDL
MODEL 5
REMARK VINA RESULT:    -6.399      1.193      2.358
REMARK INTER + INTRA:          -9.960
REMARK INTER:                  -9.560
REMARK INTRA:                  -0.400
REMARK UNBOUND:                -1.129
REMARK SMILES O=C([O-])[C@H]1O[C@H](Oc2cc3oc(-c4ccccc4)cc(=O)c3c(O)c2O)[C@H](O)[C@@H](O)[C@H]1O
REMARK SMILES IDX 7 1 6 2 4 3 31 4 5 5 29 6 27 7 2 8 1 9 3 10 32 11 30 13
REMARK SMILES IDX 28 15 8 17 25 18 9 19 23 20 10 21 22 22 11 23 20 24 12 25
REMARK SMILES IDX 19 26 21 27 26 28 24 30 13 32 14 33 18 34 15 35 17 36 16 37
REMARK H PARENT 32 12 30 14 28 16 26 29 24 31
REMARK Flexibility Score: inf
ROOT
ATOM      1  O   UNL     1      35.919   3.310 165.995  1.00  0.00    -0.458 OA
ENDROOT
BRANCH   1   2
ATOM      2  C   UNL     1      37.032   4.055 165.479  1.00  0.00     0.339 C 
ATOM      3  C   UNL     1      36.398   5.988 166.651  1.00  0.00     0.199 C 
ATOM      4  C   UNL     1      37.632   5.951 167.576  1.00  0.00     0.180 C 
ATOM      5  O   UNL     1      36.693   5.431 165.378  1.00  0.00    -0.328 OA
ATOM      6  C   UNL     1      38.110   4.493 167.723  1.00  0.00     0.181 C 
ATOM      7  C   UNL     1      38.309   3.868 166.336  1.00  0.00     0.214 C 
BRANCH   3   8
ATOM      8  C   UNL     1      35.922   7.401 166.474  1.00  0.00     0.073 C 
ATOM      9  O   UNL     1      36.409   8.331 167.169  1.00  0.00    -0.547 OA
ATOM     10  O   UNL     1      34.901   7.681 165.573  1.00  0.00    -0.547 OA
ENDBRANCH   3   8
BRANCH   4  11
ATOM     11  O   UNL     1      38.659   6.747 167.035  1.00  0.00    -0.387 OA
ATOM     12  H   UNL     1      38.402   7.694 167.189  1.00  0.00     0.211 HD
ENDBRANCH   4  11
BRANCH   6  13
ATOM     13  O   UNL     1      39.316   4.438 168.441  1.00  0.00    -0.387 OA
ATOM     14  H   UNL     1      39.441   3.493 168.718  1.00  0.00     0.211 HD
ENDBRANCH   6  13
BRANCH   7  15
ATOM     15  O   UNL     1      38.633   2.509 166.472  1.00  0.00    -0.384 OA
ATOM     16  H   UNL     1      39.404   2.338 165.871  1.00  0.00     0.211 HD
ENDBRANCH   7  15
ENDBRANCH   1   2
BRANCH   1  17
ATOM     17  C   UNL     1      35.314   2.225 165.346  1.00  0.00     0.172 A 
ATOM     18  C   UNL     1      35.850   1.657 164.178  1.00  0.00     0.201 A 
ATOM     19  C   UNL     1      34.133   1.719 165.882  1.00  0.00     0.098 A 
ATOM     20  C   UNL     1      35.236   0.536 163.584  1.00  0.00     0.176 A 
ATOM     21  C   UNL     1      33.482   0.640 165.287  1.00  0.00     0.146 A 
ATOM     22  C   UNL     1      34.008   0.038 164.116  1.00  0.00     0.111 A 
ATOM     23  O   UNL     1      32.357   0.196 165.837  1.00  0.00    -0.456 OA
ATOM     24  C   UNL     1      33.242  -1.004 163.536  1.00  0.00     0.197 A 
ATOM     25  C   UNL     1      31.640  -0.804 165.336  1.00  0.00     0.138 A 
ATOM     26  C   UNL     1      32.071  -1.435 164.161  1.00  0.00     0.100 A 
ATOM     27  O   UNL     1      33.567  -1.545 162.449  1.00  0.00    -0.289 OA
BRANCH  18  28
ATOM     28  O   UNL     1      36.991   2.220 163.603  1.00  0.00    -0.502 OA
ATOM     29  H   UNL     1      37.037   2.485 162.627  1.00  0.00     0.293 HD
ENDBRANCH  18  28
BRANCH  20  30
ATOM     30  O   UNL     1      35.890  -0.049 162.494  1.00  0.00    -0.504 OA
ATOM     31  H   UNL     1      35.532  -0.820 161.953  1.00  0.00     0.293 HD
ENDBRANCH  20  30
BRANCH  25  32
ATOM     32  C   UNL     1      30.405  -1.222 166.046  1.00  0.00     0.017 A 
ATOM     33  C   UNL     1      29.401  -1.979 165.406  1.00  0.00     0.012 A 
ATOM     34  C   UNL     1      30.210  -0.831 167.383  1.00  0.00     0.012 A 
ATOM     35  C   UNL     1      28.244  -2.348 166.098  1.00  0.00     0.001 A 
ATOM     36  C   UNL     1      29.051  -1.206 168.070  1.00  0.00     0.001 A 
ATOM     37  C   UNL     1      28.071  -1.965 167.429  1.00  0.00     0.000 A 
ENDBRANCH  25  32
ENDBRANCH   1  17
TORSDOF 9
ENDMDL
MODEL 6
REMARK VINA RESULT:    -6.279      2.639      3.924
REMARK INTER + INTRA:          -9.794
REMARK INTER:                  -8.686
REMARK INTRA:                  -1.108
REMARK UNBOUND:                -1.129
REMARK SMILES O=C([O-])[C@H]1O[C@H](Oc2cc3oc(-c4ccccc4)cc(=O)c3c(O)c2O)[C@H](O)[C@@H](O)[C@H]1O
REMARK SMILES IDX 7 1 6 2 4 3 31 4 5 5 29 6 27 7 2 8 1 9 3 10 32 11 30 13
REMARK SMILES IDX 28 15 8 17 25 18 9 19 23 20 10 21 22 22 11 23 20 24 12 25
REMARK SMILES IDX 19 26 21 27 26 28 24 30 13 32 14 33 18 34 15 35 17 36 16 37
REMARK H PARENT 32 12 30 14 28 16 26 29 24 31
REMARK Flexibility Score: inf
ROOT
ATOM      1  O   UNL     1      34.538   6.694 164.485  1.00  0.00    -0.458 OA
ENDROOT
BRANCH   1   2
ATOM      2  C   UNL     1      33.366   7.439 164.844  1.00  0.00     0.339 C 
ATOM      3  C   UNL     1      34.599   9.418 165.118  1.00  0.00     0.199 C 
ATOM      4  C   UNL     1      33.934  10.117 163.914  1.00  0.00     0.180 C 
ATOM      5  O   UNL     1      33.712   8.494 165.731  1.00  0.00    -0.328 OA
ATOM      6  C   UNL     1      33.481   9.049 162.898  1.00  0.00     0.181 C 
ATOM      7  C   UNL     1      32.621   7.992 163.603  1.00  0.00     0.214 C 
BRANCH   3   8
ATOM      8  C   UNL     1      35.033  10.435 166.135  1.00  0.00     0.073 C 
ATOM      9  O   UNL     1      35.314  10.084 167.311  1.00  0.00    -0.547 OA
ATOM     10  O   UNL     1      35.078  11.782 165.793  1.00  0.00    -0.547 OA
ENDBRANCH   3   8
BRANCH   4  11
ATOM     11  O   UNL     1      32.830  10.873 164.350  1.00  0.00    -0.387 OA
ATOM     12  H   UNL     1      32.680  10.641 165.304  1.00  0.00     0.211 HD
ENDBRANCH   4  11
BRANCH   6  13
ATOM     13  O   UNL     1      32.743   9.638 161.859  1.00  0.00    -0.387 OA
ATOM     14  H   UNL     1      31.787   9.441 162.040  1.00  0.00     0.211 HD
ENDBRANCH   6  13
BRANCH   7  15
ATOM     15  O   UNL     1      32.307   6.962 162.702  1.00  0.00    -0.384 OA
ATOM     16  H   UNL     1      31.319   6.964 162.601  1.00  0.00     0.211 HD
ENDBRANCH   7  15
ENDBRANCH   1   2
BRANCH   1  17
ATOM     17  C   UNL     1      34.640   5.296 164.527  1.00  0.00     0.172 A 
ATOM     18  C   UNL     1      35.685   4.602 163.893  1.00  0.00     0.201 A 
ATOM     19  C   UNL     1      33.655   4.589 165.211  1.00  0.00     0.098 A 
ATOM     20  C   UNL     1      35.777   3.199 164.001  1.00  0.00     0.176 A 
ATOM     21  C   UNL     1      33.699   3.199 165.293  1.00  0.00     0.146 A 
ATOM     22  C   UNL     1      34.749   2.474 164.674  1.00  0.00     0.111 A 
ATOM     23  O   UNL     1      32.734   2.572 165.955  1.00  0.00    -0.456 OA
ATOM     24  C   UNL     1      34.674   1.060 164.744  1.00  0.00     0.197 A 
ATOM     25  C   UNL     1      32.661   1.250 166.070  1.00  0.00     0.138 A 
ATOM     26  C   UNL     1      33.641   0.454 165.461  1.00  0.00     0.100 A 
ATOM     27  O   UNL     1      35.500   0.318 164.154  1.00  0.00    -0.289 OA
BRANCH  18  28
ATOM     28  O   UNL     1      36.624   5.313 163.144  1.00  0.00    -0.502 OA
ATOM     29  H   UNL     1      36.500   6.286 162.892  1.00  0.00     0.293 HD
ENDBRANCH  18  28
BRANCH  20  30
ATOM     30  O   UNL     1      36.907   2.589 163.445  1.00  0.00    -0.504 OA
ATOM     31  H   UNL     1      37.171   2.644 162.473  1.00  0.00     0.293 HD
ENDBRANCH  20  30
BRANCH  25  32
ATOM     32  C   UNL     1      31.541   0.661 166.846  1.00  0.00     0.017 A 
ATOM     33  C   UNL     1      30.992   1.315 167.968  1.00  0.00     0.012 A 
ATOM     34  C   UNL     1      31.028  -0.596 166.476  1.00  0.00     0.012 A 
ATOM     35  C   UNL     1      29.943   0.729 168.686  1.00  0.00     0.001 A 
ATOM     36  C   UNL     1      29.979  -1.175 167.197  1.00  0.00     0.001 A 
ATOM     37  C   UNL     1      29.436  -0.512 168.298  1.00  0.00     0.000 A 
ENDBRANCH  25  32
ENDBRANCH   1  17
TORSDOF 9
ENDMDL
MODEL 7
REMARK VINA RESULT:    -6.248      2.341      8.746
REMARK INTER + INTRA:          -9.752
REMARK INTER:                  -8.601
REMARK INTRA:                  -1.150
REMARK UNBOUND:                -1.129
REMARK SMILES O=C([O-])[C@H]1O[C@H](Oc2cc3oc(-c4ccccc4)cc(=O)c3c(O)c2O)[C@H](O)[C@@H](O)[C@H]1O
REMARK SMILES IDX 7 1 6 2 4 3 31 4 5 5 29 6 27 7 2 8 1 9 3 10 32 11 30 13
REMARK SMILES IDX 28 15 8 17 25 18 9 19 23 20 10 21 22 22 11 23 20 24 12 25
REMARK SMILES IDX 19 26 21 27 26 28 24 30 13 32 14 33 18 34 15 35 17 36 16 37
REMARK H PARENT 32 12 30 14 28 16 26 29 24 31
REMARK Flexibility Score: inf
ROOT
ATOM      1  O   UNL     1      34.288   1.562 166.126  1.00  0.00    -0.458 OA
ENDROOT
BRANCH   1   2
ATOM      2  C   UNL     1      33.040   1.697 165.431  1.00  0.00     0.339 C 
ATOM      3  C   UNL     1      33.135  -0.514 164.646  1.00  0.00     0.199 C 
ATOM      4  C   UNL     1      31.923  -0.968 165.485  1.00  0.00     0.180 C 
ATOM      5  O   UNL     1      33.026   0.856 164.286  1.00  0.00    -0.328 OA
ATOM      6  C   UNL     1      31.822  -0.086 166.745  1.00  0.00     0.181 C 
ATOM      7  C   UNL     1      31.826   1.395 166.345  1.00  0.00     0.214 C 
BRANCH   3   8
ATOM      8  C   UNL     1      33.247  -1.345 163.400  1.00  0.00     0.073 C 
ATOM      9  O   UNL     1      33.821  -0.889 162.377  1.00  0.00    -0.547 OA
ATOM     10  O   UNL     1      32.668  -2.607 163.355  1.00  0.00    -0.547 OA
ENDBRANCH   3   8
BRANCH   4  11
ATOM     11  O   UNL     1      30.746  -0.862 164.721  1.00  0.00    -0.387 OA
ATOM     12  H   UNL     1      30.123  -1.561 165.051  1.00  0.00     0.211 HD
ENDBRANCH   4  11
BRANCH   6  13
ATOM     13  O   UNL     1      30.647  -0.376 167.458  1.00  0.00    -0.387 OA
ATOM     14  H   UNL     1      30.107   0.457 167.470  1.00  0.00     0.211 HD
ENDBRANCH   6  13
BRANCH   7  15
ATOM     15  O   UNL     1      31.849   2.196 167.497  1.00  0.00    -0.384 OA
ATOM     16  H   UNL     1      32.250   3.065 167.233  1.00  0.00     0.211 HD
ENDBRANCH   7  15
ENDBRANCH   1   2
BRANCH   1  17
ATOM     17  C   UNL     1      35.232   2.588 166.281  1.00  0.00     0.172 A 
ATOM     18  C   UNL     1      36.565   2.330 166.641  1.00  0.00     0.201 A 
ATOM     19  C   UNL     1      34.809   3.899 166.084  1.00  0.00     0.098 A 
ATOM     20  C   UNL     1      37.493   3.387 166.739  1.00  0.00     0.176 A 
ATOM     21  C   UNL     1      35.697   4.965 166.220  1.00  0.00     0.146 A 
ATOM     22  C   UNL     1      37.052   4.733 166.569  1.00  0.00     0.111 A 
ATOM     23  O   UNL     1      35.244   6.198 166.024  1.00  0.00    -0.456 OA
ATOM     24  C   UNL     1      37.865   5.878 166.758  1.00  0.00     0.197 A 
ATOM     25  C   UNL     1      35.995   7.286 166.156  1.00  0.00     0.138 A 
ATOM     26  C   UNL     1      37.338   7.150 166.530  1.00  0.00     0.100 A 
ATOM     27  O   UNL     1      39.055   5.792 167.157  1.00  0.00    -0.289 OA
BRANCH  18  28
ATOM     28  O   UNL     1      36.961   1.019 166.913  1.00  0.00    -0.502 OA
ATOM     29  H   UNL     1      37.205   0.359 166.185  1.00  0.00     0.293 HD
ENDBRANCH  18  28
BRANCH  20  30
ATOM     30  O   UNL     1      38.828   3.043 166.984  1.00  0.00    -0.504 OA
ATOM     31  H   UNL     1      39.538   3.685 167.301  1.00  0.00     0.293 HD
ENDBRANCH  20  30
BRANCH  25  32
ATOM     32  C   UNL     1      35.380   8.613 165.898  1.00  0.00     0.017 A 
ATOM     33  C   UNL     1      35.493   9.674 166.820  1.00  0.00     0.012 A 
ATOM     34  C   UNL     1      34.640   8.814 164.719  1.00  0.00     0.012 A 
ATOM     35  C   UNL     1      34.894  10.910 166.552  1.00  0.00     0.001 A 
ATOM     36  C   UNL     1      34.045  10.052 164.457  1.00  0.00     0.001 A 
ATOM     37  C   UNL     1      34.174  11.099 165.372  1.00  0.00     0.000 A 
ENDBRANCH  25  32
ENDBRANCH   1  17
TORSDOF 9
ENDMDL
MODEL 8
REMARK VINA RESULT:    -6.198      1.477      2.890
REMARK INTER + INTRA:          -9.682
REMARK INTER:                  -8.866
REMARK INTRA:                  -0.817
REMARK UNBOUND:                -1.129
REMARK SMILES O=C([O-])[C@H]1O[C@H](Oc2cc3oc(-c4ccccc4)cc(=O)c3c(O)c2O)[C@H](O)[C@@H](O)[C@H]1O
REMARK SMILES IDX 7 1 6 2 4 3 31 4 5 5 29 6 27 7 2 8 1 9 3 10 32 11 30 13
REMARK SMILES IDX 28 15 8 17 25 18 9 19 23 20 10 21 22 22 11 23 20 24 12 25
REMARK SMILES IDX 19 26 21 27 26 28 24 30 13 32 14 33 18 34 15 35 17 36 16 37
REMARK H PARENT 32 12 30 14 28 16 26 29 24 31
REMARK Flexibility Score: inf
ROOT
ATOM      1  O   UNL     1      36.382   4.322 165.699  1.00  0.00    -0.458 OA
ENDROOT
BRANCH   1   2
ATOM      2  C   UNL     1      36.765   5.452 164.900  1.00  0.00     0.339 C 
ATOM      3  C   UNL     1      34.822   6.634 165.482  1.00  0.00     0.199 C 
ATOM      4  C   UNL     1      35.594   7.706 166.280  1.00  0.00     0.180 C 
ATOM      5  O   UNL     1      35.608   6.121 164.417  1.00  0.00    -0.328 OA
ATOM      6  C   UNL     1      36.898   7.089 166.822  1.00  0.00     0.181 C 
ATOM      7  C   UNL     1      37.679   6.433 165.676  1.00  0.00     0.214 C 
BRANCH   3   8
ATOM      8  C   UNL     1      33.553   7.214 164.925  1.00  0.00     0.073 C 
ATOM      9  O   UNL     1      33.013   8.212 165.471  1.00  0.00    -0.547 OA
ATOM     10  O   UNL     1      32.941   6.617 163.830  1.00  0.00    -0.547 OA
ENDBRANCH   3   8
BRANCH   4  11
ATOM     11  O   UNL     1      35.883   8.804 165.450  1.00  0.00    -0.387 OA
ATOM     12  H   UNL     1      35.013   9.192 165.170  1.00  0.00     0.211 HD
ENDBRANCH   4  11
BRANCH   6  13
ATOM     13  O   UNL     1      37.695   8.073 167.430  1.00  0.00    -0.387 OA
ATOM     14  H   UNL     1      37.758   8.826 166.786  1.00  0.00     0.211 HD
ENDBRANCH   6  13
BRANCH   7  15
ATOM     15  O   UNL     1      38.807   5.774 166.189  1.00  0.00    -0.384 OA
ATOM     16  H   UNL     1      39.293   5.393 165.411  1.00  0.00     0.211 HD
ENDBRANCH   7  15
ENDBRANCH   1   2
BRANCH   1  17
ATOM     17  C   UNL     1      35.815   3.143 165.195  1.00  0.00     0.172 A 
ATOM     18  C   UNL     1      36.344   2.475 164.078  1.00  0.00     0.201 A 
ATOM     19  C   UNL     1      34.680   2.643 165.827  1.00  0.00     0.098 A 
ATOM     20  C   UNL     1      35.771   1.266 163.634  1.00  0.00     0.176 A 
ATOM     21  C   UNL     1      34.068   1.474 165.378  1.00  0.00     0.146 A 
ATOM     22  C   UNL     1      34.588   0.772 164.261  1.00  0.00     0.111 A 
ATOM     23  O   UNL     1      32.986   1.040 166.014  1.00  0.00    -0.456 OA
ATOM     24  C   UNL     1      33.861  -0.365 163.828  1.00  0.00     0.197 A 
ATOM     25  C   UNL     1      32.307  -0.044 165.652  1.00  0.00     0.138 A 
ATOM     26  C   UNL     1      32.734  -0.780 164.539  1.00  0.00     0.100 A 
ATOM     27  O   UNL     1      34.180  -1.007 162.795  1.00  0.00    -0.289 OA
BRANCH  18  28
ATOM     28  O   UNL     1      37.435   3.026 163.403  1.00  0.00    -0.502 OA
ATOM     29  H   UNL     1      37.842   2.599 162.580  1.00  0.00     0.293 HD
ENDBRANCH  18  28
BRANCH  20  30
ATOM     30  O   UNL     1      36.422   0.596 162.592  1.00  0.00    -0.504 OA
ATOM     31  H   UNL     1      36.259   0.763 161.610  1.00  0.00     0.293 HD
ENDBRANCH  20  30
BRANCH  25  32
ATOM     32  C   UNL     1      31.118  -0.440 166.448  1.00  0.00     0.017 A 
ATOM     33  C   UNL     1      30.841   0.136 167.705  1.00  0.00     0.012 A 
ATOM     34  C   UNL     1      30.257  -1.437 165.955  1.00  0.00     0.012 A 
ATOM     35  C   UNL     1      29.718  -0.266 168.436  1.00  0.00     0.001 A 
ATOM     36  C   UNL     1      29.135  -1.833 166.689  1.00  0.00     0.001 A 
ATOM     37  C   UNL     1      28.864  -1.246 167.927  1.00  0.00     0.000 A 
ENDBRANCH  25  32
ENDBRANCH   1  17
TORSDOF 9
ENDMDL
MODEL 9
REMARK VINA RESULT:    -6.179      1.617      2.358
REMARK INTER + INTRA:          -9.655
REMARK INTER:                  -8.508
REMARK INTRA:                  -1.147
REMARK UNBOUND:                -1.129
REMARK SMILES O=C([O-])[C@H]1O[C@H](Oc2cc3oc(-c4ccccc4)cc(=O)c3c(O)c2O)[C@H](O)[C@@H](O)[C@H]1O
REMARK SMILES IDX 7 1 6 2 4 3 31 4 5 5 29 6 27 7 2 8 1 9 3 10 32 11 30 13
REMARK SMILES IDX 28 15 8 17 25 18 9 19 23 20 10 21 22 22 11 23 20 24 12 25
REMARK SMILES IDX 19 26 21 27 26 28 24 30 13 32 14 33 18 34 15 35 17 36 16 37
REMARK H PARENT 32 12 30 14 28 16 26 29 24 31
REMARK Flexibility Score: inf
ROOT
ATOM      1  O   UNL     1      36.861   4.899 166.719  1.00  0.00    -0.458 OA
ENDROOT
BRANCH   1   2
ATOM      2  C   UNL     1      36.311   5.593 167.849  1.00  0.00     0.339 C 
ATOM      3  C   UNL     1      38.382   5.616 168.956  1.00  0.00     0.199 C 
ATOM      4  C   UNL     1      38.531   7.148 168.855  1.00  0.00     0.180 C 
ATOM      5  O   UNL     1      37.015   5.236 169.030  1.00  0.00    -0.328 OA
ATOM      6  C   UNL     1      37.763   7.649 167.615  1.00  0.00     0.181 C 
ATOM      7  C   UNL     1      36.320   7.130 167.651  1.00  0.00     0.214 C 
BRANCH   3   8
ATOM      8  C   UNL     1      39.104   5.101 170.167  1.00  0.00     0.073 C 
ATOM      9  O   UNL     1      40.112   5.709 170.617  1.00  0.00    -0.547 OA
ATOM     10  O   UNL     1      38.692   3.919 170.770  1.00  0.00    -0.547 OA
ENDBRANCH   3   8
BRANCH   4  11
ATOM     11  O   UNL     1      38.024   7.755 170.019  1.00  0.00    -0.387 OA
ATOM     12  H   UNL     1      37.886   8.715 169.807  1.00  0.00     0.211 HD
ENDBRANCH   4  11
BRANCH   6  13
ATOM     13  O   UNL     1      37.757   9.053 167.573  1.00  0.00    -0.387 OA
ATOM     14  H   UNL     1      38.706   9.343 167.569  1.00  0.00     0.211 HD
ENDBRANCH   6  13
BRANCH   7  15
ATOM     15  O   UNL     1      35.659   7.492 166.468  1.00  0.00    -0.384 OA
ATOM     16  H   UNL     1      36.327   7.426 165.736  1.00  0.00     0.211 HD
ENDBRANCH   7  15
ENDBRANCH   1   2
BRANCH   1  17
ATOM     17  C   UNL     1      36.161   3.974 165.932  1.00  0.00     0.172 A 
ATOM     18  C   UNL     1      36.504   3.718 164.593  1.00  0.00     0.201 A 
ATOM     19  C   UNL     1      35.082   3.310 166.508  1.00  0.00     0.098 A 
ATOM     20  C   UNL     1      35.805   2.745 163.852  1.00  0.00     0.176 A 
ATOM     21  C   UNL     1      34.346   2.376 165.781  1.00  0.00     0.146 A 
ATOM     22  C   UNL     1      34.679   2.088 164.433  1.00  0.00     0.111 A 
ATOM     23  O   UNL     1      33.324   1.771 166.377  1.00  0.00    -0.456 OA
ATOM     24  C   UNL     1      33.832   1.182 163.748  1.00  0.00     0.197 A 
ATOM     25  C   UNL     1      32.538   0.889 165.769  1.00  0.00     0.138 A 
ATOM     26  C   UNL     1      32.777   0.569 164.425  1.00  0.00     0.100 A 
ATOM     27  O   UNL     1      33.980   0.925 162.526  1.00  0.00    -0.289 OA
BRANCH  18  28
ATOM     28  O   UNL     1      37.538   4.446 164.000  1.00  0.00    -0.502 OA
ATOM     29  H   UNL     1      37.783   4.349 163.022  1.00  0.00     0.293 HD
ENDBRANCH  18  28
BRANCH  20  30
ATOM     30  O   UNL     1      36.278   2.459 162.566  1.00  0.00    -0.504 OA
ATOM     31  H   UNL     1      35.932   1.718 161.977  1.00  0.00     0.293 HD
ENDBRANCH  20  30
BRANCH  25  32
ATOM     32  C   UNL     1      31.433   0.267 166.541  1.00  0.00     0.017 A 
ATOM     33  C   UNL     1      30.698  -0.826 166.036  1.00  0.00     0.012 A 
ATOM     34  C   UNL     1      31.083   0.796 167.797  1.00  0.00     0.012 A 
ATOM     35  C   UNL     1      29.655  -1.383 166.784  1.00  0.00     0.001 A 
ATOM     36  C   UNL     1      30.041   0.233 168.539  1.00  0.00     0.001 A 
ATOM     37  C   UNL     1      29.330  -0.856 168.035  1.00  0.00     0.000 A 
ENDBRANCH  25  32
ENDBRANCH   1  17
TORSDOF 9
ENDMDL
