MODEL 1
REMARK VINA RESULT:    -5.356      0.000      0.000
REMARK INTER + INTRA:          -7.183
REMARK INTER:                  -7.548
REMARK INTRA:                   0.366
REMARK UNBOUND:                 0.366
REMARK SMILES CC1=CCC(=C(C)C)C(=O)CC(C)=CCC1
REMARK SMILES IDX 12 1 14 2 13 3 15 4 16 5 2 6 1 7 3 8 11 10 9 11 10 12 5 13
REMARK SMILES IDX 6 14 7 15 8 16 4 17
REMARK H PARENT
REMARK Flexibility Score: 60.00
ROOT
ATOM      1  C   UNL     1      -3.168  12.975 -31.236  1.00  0.00    -0.070 C 
ATOM      2  C   UNL     1      -1.886  13.334 -31.457  1.00  0.00    -0.027 C 
ATOM      3  C   UNL     1      -4.243  14.001 -31.489  1.00  0.00     0.039 C 
ENDROOT
BRANCH   2   4
ATOM      4  C   UNL     1      -0.682  12.423 -31.355  1.00  0.00     0.032 C 
BRANCH   4   5
ATOM      5  C   UNL     1      -0.295  12.020 -29.916  1.00  0.00     0.034 C 
BRANCH   5   6
ATOM      6  C   UNL     1      -0.448  13.154 -28.917  1.00  0.00    -0.077 C 
ATOM      7  C   UNL     1       0.510  14.313 -29.020  1.00  0.00     0.039 C 
ATOM      8  C   UNL     1      -1.432  13.224 -27.987  1.00  0.00    -0.023 CG0
ATOM      9  G   UNL     1      -2.488  12.178 -27.692  1.00  0.00     0.000 G0
ENDBRANCH   5   6
ENDBRANCH   4   5
ENDBRANCH   2   4
BRANCH   1  10
ATOM     10  C   UNL     1      -3.582  11.573 -30.837  1.00  0.00     0.111 C 
BRANCH  10  11
ATOM     11  C   UNL     1      -4.226  11.549 -29.475  1.00  0.00     0.163 C 
ATOM     12  O   UNL     1      -5.110  10.679 -29.251  1.00  0.00    -0.294 OA
BRANCH  11  13
ATOM     13  C   UNL     1      -3.813  12.472 -28.376  1.00  0.00    -0.002 C 
ATOM     14  C   UNL     1      -4.637  13.483 -27.966  1.00  0.00    -0.069 C 
ATOM     15  C   UNL     1      -4.319  14.333 -26.756  1.00  0.00     0.039 C 
ATOM     16  C   UNL     1      -5.918  13.801 -28.706  1.00  0.00     0.039 C 
BRANCH  13  17
ATOM     17  C   UNL     1      -2.493  12.179 -27.682  1.00  0.00     0.066 CG0
ATOM     18  G   UNL     1      -1.438  13.225 -27.984  1.00  0.00     0.000 G0
ENDBRANCH  13  17
ENDBRANCH  11  13
ENDBRANCH  10  11
ENDBRANCH   1  10
TORSDOF 0
ENDMDL
MODEL 2
REMARK VINA RESULT:    -5.072      2.013      3.450
REMARK INTER + INTRA:          -6.782
REMARK INTER:                  -7.238
REMARK INTRA:                   0.456
REMARK UNBOUND:                 0.366
REMARK SMILES CC1=CCC(=C(C)C)C(=O)CC(C)=CCC1
REMARK SMILES IDX 12 1 14 2 13 3 15 4 16 5 2 6 1 7 3 8 11 10 9 11 10 12 5 13
REMARK SMILES IDX 6 14 7 15 8 16 4 17
REMARK H PARENT
REMARK Flexibility Score: 60.00
ROOT
ATOM      1  C   UNL     1      -3.190  11.177 -27.818  1.00  0.00    -0.070 C 
ATOM      2  C   UNL     1      -2.366  10.418 -28.572  1.00  0.00    -0.027 C 
ATOM      3  C   UNL     1      -2.819  11.400 -26.374  1.00  0.00     0.039 C 
ENDROOT
BRANCH   2   4
ATOM      4  C   UNL     1      -2.514  10.160 -30.056  1.00  0.00     0.032 C 
BRANCH   4   5
ATOM      5  C   UNL     1      -1.304  10.592 -30.912  1.00  0.00     0.034 C 
BRANCH   5   6
ATOM      6  C   UNL     1      -0.996  12.075 -30.806  1.00  0.00    -0.077 C 
ATOM      7  C   UNL     1       0.419  12.475 -30.474  1.00  0.00     0.039 C 
ATOM      8  C   UNL     1      -1.892  13.061 -31.057  1.00  0.00    -0.023 CG0
ATOM      9  G   UNL     1      -3.362  12.898 -31.389  1.00  0.00     0.000 G0
ENDBRANCH   5   6
ENDBRANCH   4   5
ENDBRANCH   2   4
BRANCH   1  10
ATOM     10  C   UNL     1      -4.410  11.884 -28.372  1.00  0.00     0.111 C 
BRANCH  10  11
ATOM     11  C   UNL     1      -4.059  13.237 -28.936  1.00  0.00     0.163 C 
ATOM     12  O   UNL     1      -3.518  14.078 -28.168  1.00  0.00    -0.294 OA
BRANCH  11  13
ATOM     13  C   UNL     1      -4.272  13.587 -30.372  1.00  0.00    -0.002 C 
ATOM     14  C   UNL     1      -5.191  14.533 -30.731  1.00  0.00    -0.069 C 
ATOM     15  C   UNL     1      -5.319  15.023 -32.157  1.00  0.00     0.039 C 
ATOM     16  C   UNL     1      -6.129  15.143 -29.713  1.00  0.00     0.039 C 
BRANCH  13  17
ATOM     17  C   UNL     1      -3.365  12.919 -31.392  1.00  0.00     0.066 CG0
ATOM     18  G   UNL     1      -1.897  13.071 -31.045  1.00  0.00     0.000 G0
ENDBRANCH  13  17
ENDBRANCH  11  13
ENDBRANCH  10  11
ENDBRANCH   1  10
TORSDOF 0
ENDMDL
MODEL 3
REMARK VINA RESULT:    -4.567      2.184      3.953
REMARK INTER + INTRA:          -6.071
REMARK INTER:                  -6.597
REMARK INTRA:                   0.526
REMARK UNBOUND:                 0.366
REMARK SMILES CC1=CCC(=C(C)C)C(=O)CC(C)=CCC1
REMARK SMILES IDX 12 1 14 2 13 3 15 4 16 5 2 6 1 7 3 8 11 10 9 11 10 12 5 13
REMARK SMILES IDX 6 14 7 15 8 16 4 17
REMARK H PARENT
REMARK Flexibility Score: 60.00
ROOT
ATOM      1  C   UNL     1      -2.284  11.267 -27.828  1.00  0.00    -0.070 C 
ATOM      2  C   UNL     1      -2.538  10.177 -28.584  1.00  0.00    -0.027 C 
ATOM      3  C   UNL     1      -2.912  11.340 -26.460  1.00  0.00     0.039 C 
ENDROOT
BRANCH   2   4
ATOM      4  C   UNL     1      -1.927   9.876 -29.936  1.00  0.00     0.032 C 
BRANCH   4   5
ATOM      5  C   UNL     1      -2.210  10.933 -31.024  1.00  0.00     0.034 C 
BRANCH   5   6
ATOM      6  C   UNL     1      -3.689  11.227 -31.202  1.00  0.00    -0.077 C 
ATOM      7  C   UNL     1      -4.580  10.096 -31.651  1.00  0.00     0.039 C 
ATOM      8  C   UNL     1      -4.272  12.417 -30.916  1.00  0.00    -0.023 CG0
ATOM      9  G   UNL     1      -3.579  13.690 -30.471  1.00  0.00     0.000 G0
ENDBRANCH   5   6
ENDBRANCH   4   5
ENDBRANCH   2   4
BRANCH   1  10
ATOM     10  C   UNL     1      -1.330  12.367 -28.250  1.00  0.00     0.111 C 
BRANCH  10  11
ATOM     11  C   UNL     1      -2.040  13.686 -28.412  1.00  0.00     0.163 C 
ATOM     12  O   UNL     1      -1.413  14.738 -28.116  1.00  0.00    -0.294 OA
BRANCH  11  13
ATOM     13  C   UNL     1      -3.424  13.790 -28.964  1.00  0.00    -0.002 C 
ATOM     14  C   UNL     1      -4.486  14.044 -28.144  1.00  0.00    -0.069 C 
ATOM     15  C   UNL     1      -5.872  14.311 -28.688  1.00  0.00     0.039 C 
ATOM     16  C   UNL     1      -4.327  14.073 -26.639  1.00  0.00     0.039 C 
BRANCH  13  17
ATOM     17  C   UNL     1      -3.578  13.695 -30.474  1.00  0.00     0.066 CG0
ATOM     18  G   UNL     1      -4.282  12.423 -30.903  1.00  0.00     0.000 G0
ENDBRANCH  13  17
ENDBRANCH  11  13
ENDBRANCH  10  11
ENDBRANCH   1  10
TORSDOF 0
ENDMDL
MODEL 4
REMARK VINA RESULT:    -4.557      1.348      3.550
REMARK INTER + INTRA:          -6.055
REMARK INTER:                  -6.951
REMARK INTRA:                   0.896
REMARK UNBOUND:                 0.366
REMARK SMILES CC1=CCC(=C(C)C)C(=O)CC(C)=CCC1
REMARK SMILES IDX 12 1 14 2 13 3 15 4 16 5 2 6 1 7 3 8 11 10 9 11 10 12 5 13
REMARK SMILES IDX 6 14 7 15 8 16 4 17
REMARK H PARENT
REMARK Flexibility Score: 60.00
ROOT
ATOM      1  C   UNL     1      -3.956  13.445 -31.061  1.00  0.00    -0.070 C 
ATOM      2  C   UNL     1      -4.704  14.317 -30.352  1.00  0.00    -0.027 C 
ATOM      3  C   UNL     1      -3.056  13.999 -32.137  1.00  0.00     0.039 C 
ENDROOT
BRANCH   2   4
ATOM      4  C   UNL     1      -5.589  13.969 -29.175  1.00  0.00     0.032 C 
BRANCH   4   5
ATOM      5  C   UNL     1      -5.032  12.866 -28.249  1.00  0.00     0.034 C 
BRANCH   5   6
ATOM      6  C   UNL     1      -3.932  13.360 -27.326  1.00  0.00    -0.077 C 
ATOM      7  C   UNL     1      -4.238  14.543 -26.443  1.00  0.00     0.039 C 
ATOM      8  C   UNL     1      -2.721  12.766 -27.194  1.00  0.00    -0.023 CG0
ATOM      9  G   UNL     1      -2.191  11.585 -27.984  1.00  0.00     0.000 G0
ENDBRANCH   5   6
ENDBRANCH   4   5
ENDBRANCH   2   4
BRANCH   1  10
ATOM     10  C   UNL     1      -3.907  11.960 -30.768  1.00  0.00     0.111 C 
BRANCH  10  11
ATOM     11  C   UNL     1      -2.498  11.487 -30.523  1.00  0.00     0.163 C 
ATOM     12  O   UNL     1      -1.979  10.707 -31.367  1.00  0.00    -0.294 OA
BRANCH  11  13
ATOM     13  C   UNL     1      -1.685  11.955 -29.361  1.00  0.00    -0.002 C 
ATOM     14  C   UNL     1      -0.595  12.757 -29.549  1.00  0.00    -0.069 C 
ATOM     15  C   UNL     1       0.153  13.375 -28.389  1.00  0.00     0.039 C 
ATOM     16  C   UNL     1      -0.081  13.070 -30.938  1.00  0.00     0.039 C 
BRANCH  13  17
ATOM     17  C   UNL     1      -2.177  11.580 -27.973  1.00  0.00     0.066 CG0
ATOM     18  G   UNL     1      -2.725  12.772 -27.213  1.00  0.00     0.000 G0
ENDBRANCH  13  17
ENDBRANCH  11  13
ENDBRANCH  10  11
ENDBRANCH   1  10
TORSDOF 0
ENDMDL
MODEL 5
REMARK VINA RESULT:    -4.358      1.783      4.713
REMARK INTER + INTRA:          -5.775
REMARK INTER:                  -7.174
REMARK INTRA:                   1.399
REMARK UNBOUND:                 0.366
REMARK SMILES CC1=CCC(=C(C)C)C(=O)CC(C)=CCC1
REMARK SMILES IDX 12 1 14 2 13 3 15 4 16 5 2 6 1 7 3 8 11 10 9 11 10 12 5 13
REMARK SMILES IDX 6 14 7 15 8 16 4 17
REMARK H PARENT
REMARK Flexibility Score: 60.00
ROOT
ATOM      1  C   UNL     1      -3.954  14.043 -27.230  1.00  0.00    -0.070 C 
ATOM      2  C   UNL     1      -5.080  13.662 -27.870  1.00  0.00    -0.027 C 
ATOM      3  C   UNL     1      -4.045  14.332 -25.753  1.00  0.00     0.039 C 
ENDROOT
BRANCH   2   4
ATOM      4  C   UNL     1      -5.172  13.236 -29.320  1.00  0.00     0.032 C 
BRANCH   4   5
ATOM      5  C   UNL     1      -5.113  14.393 -30.340  1.00  0.00     0.034 C 
BRANCH   5   6
ATOM      6  C   UNL     1      -4.348  14.038 -31.602  1.00  0.00    -0.077 C 
ATOM      7  C   UNL     1      -4.538  14.921 -32.810  1.00  0.00     0.039 C 
ATOM      8  C   UNL     1      -3.453  13.023 -31.693  1.00  0.00    -0.023 CG0
ATOM      9  G   UNL     1      -3.115  12.004 -30.623  1.00  0.00     0.000 G0
ENDBRANCH   5   6
ENDBRANCH   4   5
ENDBRANCH   2   4
BRANCH   1  10
ATOM     10  C   UNL     1      -2.596  14.102 -27.899  1.00  0.00     0.111 C 
BRANCH  10  11
ATOM     11  C   UNL     1      -2.144  12.741 -28.362  1.00  0.00     0.163 C 
ATOM     12  O   UNL     1      -2.031  11.828 -27.500  1.00  0.00    -0.294 OA
BRANCH  11  13
ATOM     13  C   UNL     1      -1.890  12.426 -29.799  1.00  0.00    -0.002 C 
ATOM     14  C   UNL     1      -0.620  12.438 -30.304  1.00  0.00    -0.069 C 
ATOM     15  C   UNL     1      -0.313  11.972 -31.709  1.00  0.00     0.039 C 
ATOM     16  C   UNL     1       0.550  12.919 -29.473  1.00  0.00     0.039 C 
BRANCH  13  17
ATOM     17  C   UNL     1      -3.085  12.005 -30.640  1.00  0.00     0.066 CG0
ATOM     18  G   UNL     1      -3.445  13.039 -31.689  1.00  0.00     0.000 G0
ENDBRANCH  13  17
ENDBRANCH  11  13
ENDBRANCH  10  11
ENDBRANCH   1  10
TORSDOF 0
ENDMDL
MODEL 6
REMARK VINA RESULT:    -4.301      1.938      3.790
REMARK INTER + INTRA:          -5.696
REMARK INTER:                  -6.210
REMARK INTRA:                   0.514
REMARK UNBOUND:                 0.366
REMARK SMILES CC1=CCC(=C(C)C)C(=O)CC(C)=CCC1
REMARK SMILES IDX 12 1 14 2 13 3 15 4 16 5 2 6 1 7 3 8 11 10 9 11 10 12 5 13
REMARK SMILES IDX 6 14 7 15 8 16 4 17
REMARK H PARENT
REMARK Flexibility Score: 60.00
ROOT
ATOM      1  C   UNL     1      -1.793  12.435 -30.937  1.00  0.00    -0.070 C 
ATOM      2  C   UNL     1      -2.899  13.052 -31.403  1.00  0.00    -0.027 C 
ATOM      3  C   UNL     1      -0.511  12.600 -31.713  1.00  0.00     0.039 C 
ENDROOT
BRANCH   2   4
ATOM      4  C   UNL     1      -4.248  13.086 -30.718  1.00  0.00     0.032 C 
BRANCH   4   5
ATOM      5  C   UNL     1      -4.661  14.469 -30.170  1.00  0.00     0.034 C 
BRANCH   5   6
ATOM      6  C   UNL     1      -5.366  14.393 -28.827  1.00  0.00    -0.077 C 
ATOM      7  C   UNL     1      -6.873  14.411 -28.824  1.00  0.00     0.039 C 
ATOM      8  C   UNL     1      -4.730  14.239 -27.639  1.00  0.00    -0.023 CG0
ATOM      9  G   UNL     1      -3.234  14.212 -27.399  1.00  0.00     0.000 G0
ENDBRANCH   5   6
ENDBRANCH   4   5
ENDBRANCH   2   4
BRANCH   1  10
ATOM     10  C   UNL     1      -1.757  11.668 -29.630  1.00  0.00     0.111 C 
BRANCH  10  11
ATOM     11  C   UNL     1      -1.567  12.586 -28.452  1.00  0.00     0.163 C 
ATOM     12  O   UNL     1      -0.475  13.210 -28.354  1.00  0.00    -0.294 OA
BRANCH  11  13
ATOM     13  C   UNL     1      -2.639  12.827 -27.441  1.00  0.00    -0.002 C 
ATOM     14  C   UNL     1      -3.002  11.847 -26.559  1.00  0.00    -0.069 C 
ATOM     15  C   UNL     1      -3.968  12.108 -25.426  1.00  0.00     0.039 C 
ATOM     16  C   UNL     1      -2.446  10.444 -26.674  1.00  0.00     0.039 C 
BRANCH  13  17
ATOM     17  C   UNL     1      -3.234  14.224 -27.378  1.00  0.00     0.066 CG0
ATOM     18  G   UNL     1      -4.726  14.228 -27.645  1.00  0.00     0.000 G0
ENDBRANCH  13  17
ENDBRANCH  11  13
ENDBRANCH  10  11
ENDBRANCH   1  10
TORSDOF 0
ENDMDL
MODEL 7
REMARK VINA RESULT:    -4.083      1.854      3.225
REMARK INTER + INTRA:          -5.388
REMARK INTER:                  -7.013
REMARK INTRA:                   1.624
REMARK UNBOUND:                 0.366
REMARK SMILES CC1=CCC(=C(C)C)C(=O)CC(C)=CCC1
REMARK SMILES IDX 12 1 14 2 13 3 15 4 16 5 2 6 1 7 3 8 11 10 9 11 10 12 5 13
REMARK SMILES IDX 6 14 7 15 8 16 4 17
REMARK H PARENT
REMARK Flexibility Score: 60.00
ROOT
ATOM      1  C   UNL     1      -5.695  14.576 -29.553  1.00  0.00    -0.070 C 
ATOM      2  C   UNL     1      -5.052  14.488 -30.737  1.00  0.00    -0.027 C 
ATOM      3  C   UNL     1      -6.596  15.763 -29.324  1.00  0.00     0.039 C 
ENDROOT
BRANCH   2   4
ATOM      4  C   UNL     1      -4.187  13.331 -31.190  1.00  0.00     0.032 C 
BRANCH   4   5
ATOM      5  C   UNL     1      -2.739  13.713 -31.564  1.00  0.00     0.034 C 
BRANCH   5   6
ATOM      6  C   UNL     1      -1.706  12.749 -31.009  1.00  0.00    -0.077 C 
ATOM      7  C   UNL     1      -0.281  12.902 -31.478  1.00  0.00     0.039 C 
ATOM      8  C   UNL     1      -1.966  11.808 -30.068  1.00  0.00    -0.023 CG0
ATOM      9  G   UNL     1      -3.315  11.465 -29.468  1.00  0.00     0.000 G0
ENDBRANCH   5   6
ENDBRANCH   4   5
ENDBRANCH   2   4
BRANCH   1  10
ATOM     10  C   UNL     1      -5.628  13.499 -28.489  1.00  0.00     0.111 C 
BRANCH  10  11
ATOM     11  C   UNL     1      -4.230  13.332 -27.954  1.00  0.00     0.163 C 
ATOM     12  O   UNL     1      -3.705  14.305 -27.348  1.00  0.00    -0.294 OA
BRANCH  11  13
ATOM     13  C   UNL     1      -3.477  12.046 -28.063  1.00  0.00    -0.002 C 
ATOM     14  C   UNL     1      -3.041  11.395 -26.944  1.00  0.00    -0.069 C 
ATOM     15  C   UNL     1      -2.418  10.018 -27.010  1.00  0.00     0.039 C 
ATOM     16  C   UNL     1      -3.164  12.023 -25.572  1.00  0.00     0.039 C 
BRANCH  13  17
ATOM     17  C   UNL     1      -3.306  11.457 -29.454  1.00  0.00     0.066 CG0
ATOM     18  G   UNL     1      -1.964  11.807 -30.067  1.00  0.00     0.000 G0
ENDBRANCH  13  17
ENDBRANCH  11  13
ENDBRANCH  10  11
ENDBRANCH   1  10
TORSDOF 0
ENDMDL
MODEL 8
REMARK VINA RESULT:    -4.082      1.523      3.721
REMARK INTER + INTRA:          -5.387
REMARK INTER:                  -6.328
REMARK INTRA:                   0.940
REMARK UNBOUND:                 0.366
REMARK SMILES CC1=CCC(=C(C)C)C(=O)CC(C)=CCC1
REMARK SMILES IDX 12 1 14 2 13 3 15 4 16 5 2 6 1 7 3 8 11 10 9 11 10 12 5 13
REMARK SMILES IDX 6 14 7 15 8 16 4 17
REMARK H PARENT
REMARK Flexibility Score: 60.00
ROOT
ATOM      1  C   UNL     1      -4.620  13.840 -28.866  1.00  0.00    -0.070 C 
ATOM      2  C   UNL     1      -3.874  13.975 -27.748  1.00  0.00    -0.027 C 
ATOM      3  C   UNL     1      -6.120  13.829 -28.716  1.00  0.00     0.039 C 
ENDROOT
BRANCH   2   4
ATOM      4  C   UNL     1      -2.367  14.105 -27.702  1.00  0.00     0.032 C 
BRANCH   4   5
ATOM      5  C   UNL     1      -1.602  12.765 -27.657  1.00  0.00     0.034 C 
BRANCH   5   6
ATOM      6  C   UNL     1      -2.502  11.573 -27.385  1.00  0.00    -0.077 C 
ATOM      7  C   UNL     1      -3.151  11.479 -26.028  1.00  0.00     0.039 C 
ATOM      8  C   UNL     1      -2.815  10.627 -28.305  1.00  0.00    -0.023 CG0
ATOM      9  G   UNL     1      -2.273  10.509 -29.716  1.00  0.00     0.000 G0
ENDBRANCH   5   6
ENDBRANCH   4   5
ENDBRANCH   2   4
BRANCH   1  10
ATOM     10  C   UNL     1      -4.029  13.794 -30.260  1.00  0.00     0.111 C 
BRANCH  10  11
ATOM     11  C   UNL     1      -3.709  12.384 -30.682  1.00  0.00     0.163 C 
ATOM     12  O   UNL     1      -4.615  11.711 -31.244  1.00  0.00    -0.294 OA
BRANCH  11  13
ATOM     13  C   UNL     1      -2.351  11.785 -30.515  1.00  0.00    -0.002 C 
ATOM     14  C   UNL     1      -1.241  12.426 -30.988  1.00  0.00    -0.069 C 
ATOM     15  C   UNL     1       0.157  11.927 -30.697  1.00  0.00     0.039 C 
ATOM     16  C   UNL     1      -1.357  13.678 -31.830  1.00  0.00     0.039 C 
BRANCH  13  17
ATOM     17  C   UNL     1      -2.255  10.492 -29.720  1.00  0.00     0.066 CG0
ATOM     18  G   UNL     1      -2.814  10.634 -28.318  1.00  0.00     0.000 G0
ENDBRANCH  13  17
ENDBRANCH  11  13
ENDBRANCH  10  11
ENDBRANCH   1  10
TORSDOF 0
ENDMDL
MODEL 9
REMARK VINA RESULT:    -4.035      1.701      3.944
REMARK INTER + INTRA:          -5.320
REMARK INTER:                  -6.407
REMARK INTRA:                   1.086
REMARK UNBOUND:                 0.366
REMARK SMILES CC1=CCC(=C(C)C)C(=O)CC(C)=CCC1
REMARK SMILES IDX 12 1 14 2 13 3 15 4 16 5 2 6 1 7 3 8 11 10 9 11 10 12 5 13
REMARK SMILES IDX 6 14 7 15 8 16 4 17
REMARK H PARENT
REMARK Flexibility Score: 60.00
ROOT
ATOM      1  C   UNL     1      -4.559  13.503 -28.541  1.00  0.00    -0.070 C 
ATOM      2  C   UNL     1      -4.754  14.047 -29.761  1.00  0.00    -0.027 C 
ATOM      3  C   UNL     1      -4.748  14.387 -27.334  1.00  0.00     0.039 C 
ENDROOT
BRANCH   2   4
ATOM      4  C   UNL     1      -4.708  13.303 -31.078  1.00  0.00     0.032 C 
BRANCH   4   5
ATOM      5  C   UNL     1      -3.359  12.622 -31.392  1.00  0.00     0.034 C 
BRANCH   5   6
ATOM      6  C   UNL     1      -3.415  11.109 -31.283  1.00  0.00    -0.077 C 
ATOM      7  C   UNL     1      -4.522  10.394 -32.015  1.00  0.00     0.039 C 
ATOM      8  C   UNL     1      -2.495  10.355 -30.632  1.00  0.00    -0.023 CG0
ATOM      9  G   UNL     1      -1.316  10.852 -29.819  1.00  0.00     0.000 G0
ENDBRANCH   5   6
ENDBRANCH   4   5
ENDBRANCH   2   4
BRANCH   1  10
ATOM     10  C   UNL     1      -4.253  12.034 -28.325  1.00  0.00     0.111 C 
BRANCH  10  11
ATOM     11  C   UNL     1      -2.812  11.816 -27.944  1.00  0.00     0.163 C 
ATOM     12  O   UNL     1      -2.562  11.395 -26.782  1.00  0.00    -0.294 OA
BRANCH  11  13
ATOM     13  C   UNL     1      -1.688  12.021 -28.906  1.00  0.00    -0.002 C 
ATOM     14  C   UNL     1      -0.977  13.187 -28.912  1.00  0.00    -0.069 C 
ATOM     15  C   UNL     1       0.262  13.365 -29.761  1.00  0.00     0.039 C 
ATOM     16  C   UNL     1      -1.396  14.366 -28.060  1.00  0.00     0.039 C 
BRANCH  13  17
ATOM     17  C   UNL     1      -1.318  10.849 -29.801  1.00  0.00     0.066 CG0
ATOM     18  G   UNL     1      -2.494  10.356 -30.621  1.00  0.00     0.000 G0
ENDBRANCH  13  17
ENDBRANCH  11  13
ENDBRANCH  10  11
ENDBRANCH   1  10
TORSDOF 0
ENDMDL
