MODEL 1
REMARK VINA RESULT:    -7.761      0.000      0.000
REMARK INTER + INTRA:          -8.435
REMARK INTER:                  -8.215
REMARK INTRA:                  -0.220
REMARK UNBOUND:                -0.220
REMARK SMILES O=c1cc(-c2ccccc2)oc2ccccc12
REMARK SMILES IDX 4 1 3 2 2 3 1 4 17 5 16 6 15 7 14 8 13 9 12 10 11 11 5 12
REMARK SMILES IDX 8 13 7 14 9 15 6 16 10 17
REMARK H PARENT
REMARK Flexibility Score: inf
ROOT
ATOM      1  C   UNL     1     165.082 155.857 151.628  1.00  0.00     0.138 A 
ATOM      2  C   UNL     1     165.599 156.351 152.844  1.00  0.00     0.100 A 
ATOM      3  C   UNL     1     165.813 157.722 152.994  1.00  0.00     0.193 A 
ATOM      4  O   UNL     1     166.276 158.163 154.082  1.00  0.00    -0.289 OA
ATOM      5  C   UNL     1     165.512 158.588 151.934  1.00  0.00     0.065 A 
ATOM      6  C   UNL     1     165.705 159.980 152.020  1.00  0.00     0.016 A 
ATOM      7  C   UNL     1     165.386 160.799 150.932  1.00  0.00     0.001 A 
ATOM      8  C   UNL     1     164.877 160.239 149.756  1.00  0.00     0.004 A 
ATOM      9  C   UNL     1     164.683 158.859 149.662  1.00  0.00     0.048 A 
ATOM     10  C   UNL     1     164.997 158.030 150.745  1.00  0.00     0.138 A 
ATOM     11  O   UNL     1     164.809 156.717 150.646  1.00  0.00    -0.456 OA
ENDROOT
BRANCH   1  12
ATOM     12  C   UNL     1     164.822 154.404 151.384  1.00  0.00     0.017 A 
ATOM     13  C   UNL     1     164.422 151.654 150.887  1.00  0.00     0.000 A 
ATOM     14  C   UNL     1     165.629 152.258 150.540  1.00  0.00     0.001 A 
ATOM     15  C   UNL     1     163.412 152.411 151.480  1.00  0.00     0.001 A 
ATOM     16  C   UNL     1     165.831 153.620 150.785  1.00  0.00     0.012 A 
ATOM     17  C   UNL     1     163.605 153.775 151.728  1.00  0.00     0.012 A 
ENDBRANCH   1  12
TORSDOF 1
ENDMDL
MODEL 2
REMARK VINA RESULT:    -7.646      1.637      6.126
REMARK INTER + INTRA:          -8.314
REMARK INTER:                  -8.085
REMARK INTRA:                  -0.229
REMARK UNBOUND:                -0.220
REMARK SMILES O=c1cc(-c2ccccc2)oc2ccccc12
REMARK SMILES IDX 4 1 3 2 2 3 1 4 17 5 16 6 15 7 14 8 13 9 12 10 11 11 5 12
REMARK SMILES IDX 8 13 7 14 9 15 6 16 10 17
REMARK H PARENT
REMARK Flexibility Score: inf
ROOT
ATOM      1  C   UNL     1     165.150 155.854 151.336  1.00  0.00     0.138 A 
ATOM      2  C   UNL     1     166.415 155.511 150.814  1.00  0.00     0.100 A 
ATOM      3  C   UNL     1     166.673 154.187 150.454  1.00  0.00     0.193 A 
ATOM      4  O   UNL     1     167.805 153.879 149.987  1.00  0.00    -0.289 OA
ATOM      5  C   UNL     1     165.673 153.218 150.617  1.00  0.00     0.065 A 
ATOM      6  C   UNL     1     165.870 151.867 150.274  1.00  0.00     0.016 A 
ATOM      7  C   UNL     1     164.836 150.942 150.457  1.00  0.00     0.001 A 
ATOM      8  C   UNL     1     163.607 151.355 150.980  1.00  0.00     0.004 A 
ATOM      9  C   UNL     1     163.405 152.694 151.323  1.00  0.00     0.048 A 
ATOM     10  C   UNL     1     164.430 153.629 151.144  1.00  0.00     0.138 A 
ATOM     11  O   UNL     1     164.227 154.901 151.473  1.00  0.00    -0.456 OA
ENDROOT
BRANCH   1  12
ATOM     12  C   UNL     1     164.789 157.247 151.745  1.00  0.00     0.017 A 
ATOM     13  C   UNL     1     164.106 159.846 152.610  1.00  0.00     0.000 A 
ATOM     14  C   UNL     1     164.224 158.810 153.536  1.00  0.00     0.001 A 
ATOM     15  C   UNL     1     164.327 159.596 151.256  1.00  0.00     0.001 A 
ATOM     16  C   UNL     1     164.563 157.522 153.110  1.00  0.00     0.012 A 
ATOM     17  C   UNL     1     164.665 158.310 150.822  1.00  0.00     0.012 A 
ENDBRANCH   1  12
TORSDOF 1
ENDMDL
MODEL 3
REMARK VINA RESULT:    -7.619      1.756      6.079
REMARK INTER + INTRA:          -8.285
REMARK INTER:                  -8.064
REMARK INTRA:                  -0.221
REMARK UNBOUND:                -0.220
REMARK SMILES O=c1cc(-c2ccccc2)oc2ccccc12
REMARK SMILES IDX 4 1 3 2 2 3 1 4 17 5 16 6 15 7 14 8 13 9 12 10 11 11 5 12
REMARK SMILES IDX 8 13 7 14 9 15 6 16 10 17
REMARK H PARENT
REMARK Flexibility Score: inf
ROOT
ATOM      1  C   UNL     1     165.073 155.684 151.484  1.00  0.00     0.138 A 
ATOM      2  C   UNL     1     164.038 154.726 151.508  1.00  0.00     0.100 A 
ATOM      3  C   UNL     1     164.308 153.411 151.122  1.00  0.00     0.193 A 
ATOM      4  O   UNL     1     163.382 152.555 151.142  1.00  0.00    -0.289 OA
ATOM      5  C   UNL     1     165.604 153.064 150.715  1.00  0.00     0.065 A 
ATOM      6  C   UNL     1     165.942 151.758 150.314  1.00  0.00     0.016 A 
ATOM      7  C   UNL     1     167.252 151.464 149.919  1.00  0.00     0.001 A 
ATOM      8  C   UNL     1     168.228 152.466 149.920  1.00  0.00     0.004 A 
ATOM      9  C   UNL     1     167.899 153.765 150.317  1.00  0.00     0.048 A 
ATOM     10  C   UNL     1     166.593 154.070 150.716  1.00  0.00     0.138 A 
ATOM     11  O   UNL     1     166.292 155.308 151.092  1.00  0.00    -0.456 OA
ENDROOT
BRANCH   1  12
ATOM     12  C   UNL     1     164.870 157.112 151.882  1.00  0.00     0.017 A 
ATOM     13  C   UNL     1     164.500 159.779 152.727  1.00  0.00     0.000 A 
ATOM     14  C   UNL     1     164.726 158.774 153.667  1.00  0.00     0.001 A 
ATOM     15  C   UNL     1     164.458 159.464 151.370  1.00  0.00     0.001 A 
ATOM     16  C   UNL     1     164.910 157.452 153.251  1.00  0.00     0.012 A 
ATOM     17  C   UNL     1     164.640 158.144 150.945  1.00  0.00     0.012 A 
ENDBRANCH   1  12
TORSDOF 1
ENDMDL
MODEL 4
REMARK VINA RESULT:    -7.222      3.985      6.563
REMARK INTER + INTRA:          -7.865
REMARK INTER:                  -7.599
REMARK INTRA:                  -0.265
REMARK UNBOUND:                -0.220
REMARK SMILES O=c1cc(-c2ccccc2)oc2ccccc12
REMARK SMILES IDX 4 1 3 2 2 3 1 4 17 5 16 6 15 7 14 8 13 9 12 10 11 11 5 12
REMARK SMILES IDX 8 13 7 14 9 15 6 16 10 17
REMARK H PARENT
REMARK Flexibility Score: inf
ROOT
ATOM      1  C   UNL     1     167.687 151.067 149.992  1.00  0.00     0.138 A 
ATOM      2  C   UNL     1     168.044 152.428 149.888  1.00  0.00     0.100 A 
ATOM      3  C   UNL     1     167.084 153.412 150.136  1.00  0.00     0.193 A 
ATOM      4  O   UNL     1     167.403 154.629 150.042  1.00  0.00    -0.289 OA
ATOM      5  C   UNL     1     165.780 153.032 150.483  1.00  0.00     0.065 A 
ATOM      6  C   UNL     1     164.766 153.973 150.746  1.00  0.00     0.016 A 
ATOM      7  C   UNL     1     163.482 153.539 151.090  1.00  0.00     0.001 A 
ATOM      8  C   UNL     1     163.200 152.172 151.174  1.00  0.00     0.004 A 
ATOM      9  C   UNL     1     164.201 151.232 150.915  1.00  0.00     0.048 A 
ATOM     10  C   UNL     1     165.490 151.654 150.571  1.00  0.00     0.138 A 
ATOM     11  O   UNL     1     166.435 150.752 150.327  1.00  0.00    -0.456 OA
ENDROOT
BRANCH   1  12
ATOM     12  C   UNL     1     168.652 149.951 149.744  1.00  0.00     0.017 A 
ATOM     13  C   UNL     1     170.546 147.912 149.273  1.00  0.00     0.000 A 
ATOM     14  C   UNL     1     170.951 149.246 149.313  1.00  0.00     0.001 A 
ATOM     15  C   UNL     1     169.204 147.588 149.466  1.00  0.00     0.001 A 
ATOM     16  C   UNL     1     170.016 150.258 149.547  1.00  0.00     0.012 A 
ATOM     17  C   UNL     1     168.261 148.594 149.699  1.00  0.00     0.012 A 
ENDBRANCH   1  12
TORSDOF 1
ENDMDL
MODEL 5
REMARK VINA RESULT:    -7.221      2.067      2.931
REMARK INTER + INTRA:          -7.864
REMARK INTER:                  -7.602
REMARK INTRA:                  -0.262
REMARK UNBOUND:                -0.220
REMARK SMILES O=c1cc(-c2ccccc2)oc2ccccc12
REMARK SMILES IDX 4 1 3 2 2 3 1 4 17 5 16 6 15 7 14 8 13 9 12 10 11 11 5 12
REMARK SMILES IDX 8 13 7 14 9 15 6 16 10 17
REMARK H PARENT
REMARK Flexibility Score: inf
ROOT
ATOM      1  C   UNL     1     164.714 156.344 152.185  1.00  0.00     0.138 A 
ATOM      2  C   UNL     1     165.556 157.344 151.652  1.00  0.00     0.100 A 
ATOM      3  C   UNL     1     165.498 158.639 152.170  1.00  0.00     0.193 A 
ATOM      4  O   UNL     1     166.251 159.532 151.693  1.00  0.00    -0.289 OA
ATOM      5  C   UNL     1     164.605 158.927 153.211  1.00  0.00     0.065 A 
ATOM      6  C   UNL     1     164.498 160.212 153.777  1.00  0.00     0.016 A 
ATOM      7  C   UNL     1     163.591 160.445 154.816  1.00  0.00     0.001 A 
ATOM      8  C   UNL     1     162.787 159.405 155.294  1.00  0.00     0.004 A 
ATOM      9  C   UNL     1     162.888 158.127 154.737  1.00  0.00     0.048 A 
ATOM     10  C   UNL     1     163.793 157.882 153.699  1.00  0.00     0.138 A 
ATOM     11  O   UNL     1     163.881 156.663 153.176  1.00  0.00    -0.456 OA
ENDROOT
BRANCH   1  12
ATOM     12  C   UNL     1     164.712 154.932 151.689  1.00  0.00     0.017 A 
ATOM     13  C   UNL     1     164.620 152.257 150.793  1.00  0.00     0.000 A 
ATOM     14  C   UNL     1     163.550 152.791 151.511  1.00  0.00     0.001 A 
ATOM     15  C   UNL     1     165.735 153.048 150.518  1.00  0.00     0.001 A 
ATOM     16  C   UNL     1     163.593 154.115 151.956  1.00  0.00     0.012 A 
ATOM     17  C   UNL     1     165.786 154.374 150.960  1.00  0.00     0.012 A 
ENDBRANCH   1  12
TORSDOF 1
ENDMDL
MODEL 6
REMARK VINA RESULT:    -7.195      3.910      7.545
REMARK INTER + INTRA:          -7.836
REMARK INTER:                  -7.576
REMARK INTRA:                  -0.260
REMARK UNBOUND:                -0.220
REMARK SMILES O=c1cc(-c2ccccc2)oc2ccccc12
REMARK SMILES IDX 4 1 3 2 2 3 1 4 17 5 16 6 15 7 14 8 13 9 12 10 11 11 5 12
REMARK SMILES IDX 8 13 7 14 9 15 6 16 10 17
REMARK H PARENT
REMARK Flexibility Score: inf
ROOT
ATOM      1  C   UNL     1     167.094 152.513 149.863  1.00  0.00     0.138 A 
ATOM      2  C   UNL     1     168.010 153.219 149.054  1.00  0.00     0.100 A 
ATOM      3  C   UNL     1     169.105 152.547 148.509  1.00  0.00     0.193 A 
ATOM      4  O   UNL     1     169.924 153.178 147.786  1.00  0.00    -0.289 OA
ATOM      5  C   UNL     1     169.280 151.182 148.774  1.00  0.00     0.065 A 
ATOM      6  C   UNL     1     170.363 150.447 148.256  1.00  0.00     0.016 A 
ATOM      7  C   UNL     1     170.489 149.085 148.552  1.00  0.00     0.001 A 
ATOM      8  C   UNL     1     169.542 148.451 149.362  1.00  0.00     0.004 A 
ATOM      9  C   UNL     1     168.465 149.174 149.880  1.00  0.00     0.048 A 
ATOM     10  C   UNL     1     168.328 150.536 149.590  1.00  0.00     0.138 A 
ATOM     11  O   UNL     1     167.299 151.215 150.088  1.00  0.00    -0.456 OA
ENDROOT
BRANCH   1  12
ATOM     12  C   UNL     1     165.894 153.156 150.484  1.00  0.00     0.017 A 
ATOM     13  C   UNL     1     163.589 154.278 151.665  1.00  0.00     0.000 A 
ATOM     14  C   UNL     1     163.660 152.904 151.441  1.00  0.00     0.001 A 
ATOM     15  C   UNL     1     164.659 155.097 151.305  1.00  0.00     0.001 A 
ATOM     16  C   UNL     1     164.801 152.345 150.857  1.00  0.00     0.012 A 
ATOM     17  C   UNL     1     165.804 154.546 150.719  1.00  0.00     0.012 A 
ENDBRANCH   1  12
TORSDOF 1
ENDMDL
MODEL 7
REMARK VINA RESULT:    -7.125      3.668      6.240
REMARK INTER + INTRA:          -7.762
REMARK INTER:                  -7.536
REMARK INTRA:                  -0.226
REMARK UNBOUND:                -0.220
REMARK SMILES O=c1cc(-c2ccccc2)oc2ccccc12
REMARK SMILES IDX 4 1 3 2 2 3 1 4 17 5 16 6 15 7 14 8 13 9 12 10 11 11 5 12
REMARK SMILES IDX 8 13 7 14 9 15 6 16 10 17
REMARK H PARENT
REMARK Flexibility Score: inf
ROOT
ATOM      1  C   UNL     1     167.239 151.495 149.612  1.00  0.00     0.138 A 
ATOM      2  C   UNL     1     166.105 150.708 149.903  1.00  0.00     0.100 A 
ATOM      3  C   UNL     1     164.984 151.305 150.483  1.00  0.00     0.193 A 
ATOM      4  O   UNL     1     163.970 150.600 150.744  1.00  0.00    -0.289 OA
ATOM      5  C   UNL     1     165.002 152.677 150.768  1.00  0.00     0.065 A 
ATOM      6  C   UNL     1     163.905 153.339 151.352  1.00  0.00     0.016 A 
ATOM      7  C   UNL     1     163.976 154.712 151.613  1.00  0.00     0.001 A 
ATOM      8  C   UNL     1     165.134 155.430 151.297  1.00  0.00     0.004 A 
ATOM      9  C   UNL     1     166.226 154.779 150.717  1.00  0.00     0.048 A 
ATOM     10  C   UNL     1     166.167 153.407 150.450  1.00  0.00     0.138 A 
ATOM     11  O   UNL     1     167.211 152.797 149.898  1.00  0.00    -0.456 OA
ENDROOT
BRANCH   1  12
ATOM     12  C   UNL     1     168.480 150.936 148.991  1.00  0.00     0.017 A 
ATOM     13  C   UNL     1     170.796 149.924 147.734  1.00  0.00     0.000 A 
ATOM     14  C   UNL     1     169.882 150.685 147.006  1.00  0.00     0.001 A 
ATOM     15  C   UNL     1     170.564 149.666 149.084  1.00  0.00     0.001 A 
ATOM     16  C   UNL     1     168.734 151.187 147.626  1.00  0.00     0.012 A 
ATOM     17  C   UNL     1     169.418 150.164 149.712  1.00  0.00     0.012 A 
ENDBRANCH   1  12
TORSDOF 1
ENDMDL
MODEL 8
REMARK VINA RESULT:    -7.097      3.048      4.986
REMARK INTER + INTRA:          -7.732
REMARK INTER:                  -7.490
REMARK INTRA:                  -0.241
REMARK UNBOUND:                -0.220
REMARK SMILES O=c1cc(-c2ccccc2)oc2ccccc12
REMARK SMILES IDX 4 1 3 2 2 3 1 4 17 5 16 6 15 7 14 8 13 9 12 10 11 11 5 12
REMARK SMILES IDX 8 13 7 14 9 15 6 16 10 17
REMARK H PARENT
REMARK Flexibility Score: inf
ROOT
ATOM      1  C   UNL     1     165.755 151.461 150.435  1.00  0.00     0.138 A 
ATOM      2  C   UNL     1     166.825 152.274 150.006  1.00  0.00     0.100 A 
ATOM      3  C   UNL     1     166.838 153.628 150.345  1.00  0.00     0.193 A 
ATOM      4  O   UNL     1     167.795 154.355 149.960  1.00  0.00    -0.289 OA
ATOM      5  C   UNL     1     165.788 154.161 151.105  1.00  0.00     0.065 A 
ATOM      6  C   UNL     1     165.741 155.517 151.479  1.00  0.00     0.016 A 
ATOM      7  C   UNL     1     164.669 155.995 152.240  1.00  0.00     0.001 A 
ATOM      8  C   UNL     1     163.642 155.130 152.631  1.00  0.00     0.004 A 
ATOM      9  C   UNL     1     163.681 153.783 152.263  1.00  0.00     0.048 A 
ATOM     10  C   UNL     1     164.749 153.292 151.503  1.00  0.00     0.138 A 
ATOM     11  O   UNL     1     164.777 152.009 151.158  1.00  0.00    -0.456 OA
ENDROOT
BRANCH   1  12
ATOM     12  C   UNL     1     165.663 150.001 150.118  1.00  0.00     0.017 A 
ATOM     13  C   UNL     1     165.583 147.237 149.552  1.00  0.00     0.000 A 
ATOM     14  C   UNL     1     166.743 147.810 150.071  1.00  0.00     0.001 A 
ATOM     15  C   UNL     1     164.462 148.032 149.314  1.00  0.00     0.001 A 
ATOM     16  C   UNL     1     166.786 149.179 150.352  1.00  0.00     0.012 A 
ATOM     17  C   UNL     1     164.496 149.403 149.592  1.00  0.00     0.012 A 
ENDBRANCH   1  12
TORSDOF 1
ENDMDL
MODEL 9
REMARK VINA RESULT:    -7.046      3.589      7.128
REMARK INTER + INTRA:          -7.678
REMARK INTER:                  -7.423
REMARK INTRA:                  -0.256
REMARK UNBOUND:                -0.220
REMARK SMILES O=c1cc(-c2ccccc2)oc2ccccc12
REMARK SMILES IDX 4 1 3 2 2 3 1 4 17 5 16 6 15 7 14 8 13 9 12 10 11 11 5 12
REMARK SMILES IDX 8 13 7 14 9 15 6 16 10 17
REMARK H PARENT
REMARK Flexibility Score: inf
ROOT
ATOM      1  C   UNL     1     165.863 152.753 149.504  1.00  0.00     0.138 A 
ATOM      2  C   UNL     1     165.094 152.016 148.578  1.00  0.00     0.100 A 
ATOM      3  C   UNL     1     165.740 151.256 147.600  1.00  0.00     0.193 A 
ATOM      4  O   UNL     1     165.052 150.598 146.772  1.00  0.00    -0.289 OA
ATOM      5  C   UNL     1     167.140 151.237 147.553  1.00  0.00     0.065 A 
ATOM      6  C   UNL     1     167.851 150.492 146.593  1.00  0.00     0.016 A 
ATOM      7  C   UNL     1     169.250 150.507 146.592  1.00  0.00     0.001 A 
ATOM      8  C   UNL     1     169.946 151.262 147.541  1.00  0.00     0.004 A 
ATOM      9  C   UNL     1     169.247 152.004 148.497  1.00  0.00     0.048 A 
ATOM     10  C   UNL     1     167.848 151.995 148.509  1.00  0.00     0.138 A 
ATOM     11  O   UNL     1     167.193 152.704 149.423  1.00  0.00    -0.456 OA
ENDROOT
BRANCH   1  12
ATOM     12  C   UNL     1     165.253 153.591 150.583  1.00  0.00     0.017 A 
ATOM     13  C   UNL     1     164.178 155.234 152.611  1.00  0.00     0.000 A 
ATOM     14  C   UNL     1     165.403 155.555 152.028  1.00  0.00     0.001 A 
ATOM     15  C   UNL     1     163.485 154.100 152.190  1.00  0.00     0.001 A 
ATOM     16  C   UNL     1     165.937 154.744 151.023  1.00  0.00     0.012 A 
ATOM     17  C   UNL     1     164.013 153.282 151.185  1.00  0.00     0.012 A 
ENDBRANCH   1  12
TORSDOF 1
ENDMDL
