MODEL 1
REMARK VINA RESULT:    17.815      0.000      0.000
REMARK INTER + INTRA:          18.336
REMARK INTER:                  18.336
REMARK INTRA:                   0.000
REMARK UNBOUND:                 0.000
REMARK SMILES C=C1[C@H](O)C[C@@]23C[C@@H]1C(C)(C)[C@H]2CC[C@H]3C
REMARK SMILES IDX 16 1 15 2 14 3 13 4 12 5 6 6 7 7 8 8 9 9 10 10 11 11 2 12
REMARK SMILES IDX 1 13 3 14 5 15 4 16
REMARK H PARENT 4 17
REMARK Flexibility Score: inf
ROOT
ATOM      1  C   UNL     1      97.125  10.401  61.990  1.00  0.00     0.008 C 
ATOM      2  C   UNL     1      96.272  10.147  63.241  1.00  0.00    -0.008 C 
ATOM      3  C   UNL     1      97.109   9.703  64.478  1.00  0.00     0.004 C 
ATOM      4  C   UNL     1      96.200   8.774  65.326  1.00  0.00     0.005 C 
ATOM      5  C   UNL     1      94.862   8.914  64.623  1.00  0.00     0.002 C 
ATOM      6  C   UNL     1      95.192   9.046  63.140  1.00  0.00    -0.020 C 
ATOM      7  C   UNL     1      93.796   9.333  62.610  1.00  0.00     0.016 C 
ATOM      8  C   UNL     1      93.018   8.160  63.272  1.00  0.00     0.023 C 
ATOM      9  C   UNL     1      93.621   8.007  64.727  1.00  0.00    -0.025 C 
ATOM     10  C   UNL     1      92.611   8.567  65.757  1.00  0.00     0.012 C 
ATOM     11  C   UNL     1      93.984   6.567  65.170  1.00  0.00     0.012 C 
ATOM     12  C   UNL     1      93.288   6.936  62.426  1.00  0.00    -0.045 C 
ATOM     13  C   UNL     1      92.301   6.073  62.136  1.00  0.00     0.011 C 
ATOM     14  C   UNL     1      94.686   6.724  61.876  1.00  0.00     0.140 C 
ATOM     15  C   UNL     1      95.744   7.717  62.461  1.00  0.00     0.044 C 
ENDROOT
BRANCH  14  16
ATOM     16  O   UNL     1      95.093   5.400  62.113  1.00  0.00    -0.389 OA
ATOM     17  H   UNL     1      96.070   5.428  62.284  1.00  0.00     0.211 HD
ENDBRANCH  14  16
TORSDOF 1
ENDMDL
MODEL 2
REMARK VINA RESULT:    18.564      1.734      2.876
REMARK INTER + INTRA:          19.107
REMARK INTER:                  19.107
REMARK INTRA:                   0.000
REMARK UNBOUND:                 0.000
REMARK SMILES C=C1[C@H](O)C[C@@]23C[C@@H]1C(C)(C)[C@H]2CC[C@H]3C
REMARK SMILES IDX 16 1 15 2 14 3 13 4 12 5 6 6 7 7 8 8 9 9 10 10 11 11 2 12
REMARK SMILES IDX 1 13 3 14 5 15 4 16
REMARK H PARENT 4 17
REMARK Flexibility Score: inf
ROOT
ATOM      1  C   UNL     1      96.689  11.002  63.846  1.00  0.00     0.008 C 
ATOM      2  C   UNL     1      96.561   9.485  63.650  1.00  0.00    -0.008 C 
ATOM      3  C   UNL     1      97.122   8.991  62.282  1.00  0.00     0.004 C 
ATOM      4  C   UNL     1      96.285   7.749  61.876  1.00  0.00     0.005 C 
ATOM      5  C   UNL     1      95.450   7.509  63.121  1.00  0.00     0.002 C 
ATOM      6  C   UNL     1      95.133   8.895  63.673  1.00  0.00    -0.020 C 
ATOM      7  C   UNL     1      94.451   8.485  64.968  1.00  0.00     0.016 C 
ATOM      8  C   UNL     1      93.418   7.465  64.410  1.00  0.00     0.023 C 
ATOM      9  C   UNL     1      94.173   6.662  63.276  1.00  0.00    -0.025 C 
ATOM     10  C   UNL     1      94.508   5.243  63.794  1.00  0.00     0.012 C 
ATOM     11  C   UNL     1      93.414   6.498  61.934  1.00  0.00     0.012 C 
ATOM     12  C   UNL     1      92.273   8.279  63.850  1.00  0.00    -0.045 C 
ATOM     13  C   UNL     1      91.001   7.899  64.052  1.00  0.00     0.011 C 
ATOM     14  C   UNL     1      92.589   9.554  63.091  1.00  0.00     0.140 C 
ATOM     15  C   UNL     1      94.113   9.743  62.794  1.00  0.00     0.044 C 
ENDROOT
BRANCH  14  16
ATOM     16  O   UNL     1      91.861   9.583  61.890  1.00  0.00    -0.389 OA
ATOM     17  H   UNL     1      91.228   8.820  61.921  1.00  0.00     0.211 HD
ENDBRANCH  14  16
TORSDOF 1
ENDMDL
