MODEL 1
REMARK VINA RESULT:    -3.382      0.000      0.000
REMARK INTER + INTRA:          -3.927
REMARK INTER:                  -3.678
REMARK INTRA:                  -0.249
REMARK UNBOUND:                -0.249
REMARK SMILES O=C([O-])c1ccccc1O
REMARK SMILES IDX 4 1 9 2 5 3 8 4 6 5 7 6 2 7 1 8 3 9 10 10
REMARK H PARENT 10 11
REMARK Flexibility Score: inf
ROOT
ATOM      1  C   UNL     1     134.348 125.941 100.610  1.00  0.00     0.039 A 
ATOM      2  C   UNL     1     134.214 127.331 100.376  1.00  0.00     0.124 A 
ATOM      3  C   UNL     1     134.694 125.101  99.533  1.00  0.00     0.014 A 
ATOM      4  C   UNL     1     134.425 127.846  99.088  1.00  0.00     0.047 A 
ATOM      5  C   UNL     1     134.901 125.628  98.256  1.00  0.00     0.001 A 
ATOM      6  C   UNL     1     134.767 126.997  98.034  1.00  0.00     0.004 A 
ENDROOT
BRANCH   1   7
ATOM      7  C   UNL     1     134.135 125.346 101.955  1.00  0.00     0.075 C 
ATOM      8  O   UNL     1     135.012 124.618 102.490  1.00  0.00    -0.545 OA
ATOM      9  O   UNL     1     132.955 125.589 102.649  1.00  0.00    -0.545 OA
ENDBRANCH   1   7
BRANCH   2  10
ATOM     10  O   UNL     1     133.874 128.199 101.413  1.00  0.00    -0.507 OA
ATOM     11  H   UNL     1     133.497 127.859 102.291  1.00  0.00     0.293 HD
ENDBRANCH   2  10
TORSDOF 2
ENDMDL
MODEL 2
REMARK VINA RESULT:    -3.301     16.605     17.207
REMARK INTER + INTRA:          -3.840
REMARK INTER:                  -3.592
REMARK INTRA:                  -0.247
REMARK UNBOUND:                -0.249
REMARK SMILES O=C([O-])c1ccccc1O
REMARK SMILES IDX 4 1 9 2 5 3 8 4 6 5 7 6 2 7 1 8 3 9 10 10
REMARK H PARENT 10 11
REMARK Flexibility Score: inf
ROOT
ATOM      1  C   UNL     1     117.350 125.324 100.807  1.00  0.00     0.039 A 
ATOM      2  C   UNL     1     117.538 123.962 100.469  1.00  0.00     0.124 A 
ATOM      3  C   UNL     1     116.897 126.214  99.814  1.00  0.00     0.014 A 
ATOM      4  C   UNL     1     117.273 123.523  99.163  1.00  0.00     0.047 A 
ATOM      5  C   UNL     1     116.637 125.764  98.518  1.00  0.00     0.001 A 
ATOM      6  C   UNL     1     116.825 124.421  98.193  1.00  0.00     0.004 A 
ENDROOT
BRANCH   1   7
ATOM      7  C   UNL     1     117.616 125.838 102.176  1.00  0.00     0.075 C 
ATOM      8  O   UNL     1     116.734 126.466 102.817  1.00  0.00    -0.545 OA
ATOM      9  O   UNL     1     118.855 125.629 102.774  1.00  0.00    -0.545 OA
ENDBRANCH   1   7
BRANCH   2  10
ATOM     10  O   UNL     1     117.985 123.046 101.421  1.00  0.00    -0.507 OA
ATOM     11  H   UNL     1     117.614 123.035 102.365  1.00  0.00     0.293 HD
ENDBRANCH   2  10
TORSDOF 2
ENDMDL
MODEL 3
REMARK VINA RESULT:    -3.222      3.030      3.823
REMARK INTER + INTRA:          -3.753
REMARK INTER:                  -3.499
REMARK INTRA:                  -0.254
REMARK UNBOUND:                -0.249
REMARK SMILES O=C([O-])c1ccccc1O
REMARK SMILES IDX 4 1 9 2 5 3 8 4 6 5 7 6 2 7 1 8 3 9 10 10
REMARK H PARENT 10 11
REMARK Flexibility Score: inf
ROOT
ATOM      1  C   UNL     1     134.840 125.758  98.327  1.00  0.00     0.039 A 
ATOM      2  C   UNL     1     134.722 127.168  98.280  1.00  0.00     0.124 A 
ATOM      3  C   UNL     1     134.636 125.099  99.555  1.00  0.00     0.014 A 
ATOM      4  C   UNL     1     134.407 127.882  99.447  1.00  0.00     0.047 A 
ATOM      5  C   UNL     1     134.323 125.823 100.708  1.00  0.00     0.001 A 
ATOM      6  C   UNL     1     134.209 127.211 100.654  1.00  0.00     0.004 A 
ENDROOT
BRANCH   1   7
ATOM      7  C   UNL     1     135.172 124.957  97.120  1.00  0.00     0.075 C 
ATOM      8  O   UNL     1     136.033 124.040  97.165  1.00  0.00    -0.545 OA
ATOM      9  O   UNL     1     134.528 125.210  95.913  1.00  0.00    -0.545 OA
ENDBRANCH   1   7
BRANCH   2  10
ATOM     10  O   UNL     1     134.915 127.861  97.085  1.00  0.00    -0.507 OA
ATOM     11  H   UNL     1     135.168 127.384  96.227  1.00  0.00     0.293 HD
ENDBRANCH   2  10
TORSDOF 2
ENDMDL
MODEL 4
REMARK VINA RESULT:    -3.206      2.472      3.826
REMARK INTER + INTRA:          -3.736
REMARK INTER:                  -3.502
REMARK INTRA:                  -0.234
REMARK UNBOUND:                -0.249
REMARK SMILES O=C([O-])c1ccccc1O
REMARK SMILES IDX 4 1 9 2 5 3 8 4 6 5 7 6 2 7 1 8 3 9 10 10
REMARK H PARENT 10 11
REMARK Flexibility Score: inf
ROOT
ATOM      1  C   UNL     1     134.225 127.127  98.212  1.00  0.00     0.039 A 
ATOM      2  C   UNL     1     134.941 127.204  96.993  1.00  0.00     0.124 A 
ATOM      3  C   UNL     1     134.346 125.966  98.999  1.00  0.00     0.014 A 
ATOM      4  C   UNL     1     135.752 126.131  96.591  1.00  0.00     0.047 A 
ATOM      5  C   UNL     1     135.157 124.906  98.586  1.00  0.00     0.001 A 
ATOM      6  C   UNL     1     135.858 124.989  97.384  1.00  0.00     0.004 A 
ENDROOT
BRANCH   1   7
ATOM      7  C   UNL     1     133.354 128.235  98.682  1.00  0.00     0.075 C 
ATOM      8  O   UNL     1     132.707 128.944  97.867  1.00  0.00    -0.545 OA
ATOM      9  O   UNL     1     133.238 128.507 100.041  1.00  0.00    -0.545 OA
ENDBRANCH   1   7
BRANCH   2  10
ATOM     10  O   UNL     1     134.852 128.336  96.182  1.00  0.00    -0.507 OA
ATOM     11  H   UNL     1     134.196 129.083  96.382  1.00  0.00     0.293 HD
ENDBRANCH   2  10
TORSDOF 2
ENDMDL
MODEL 5
REMARK VINA RESULT:    -3.181     17.588     18.071
REMARK INTER + INTRA:          -3.709
REMARK INTER:                  -3.486
REMARK INTRA:                  -0.223
REMARK UNBOUND:                -0.249
REMARK SMILES O=C([O-])c1ccccc1O
REMARK SMILES IDX 4 1 9 2 5 3 8 4 6 5 7 6 2 7 1 8 3 9 10 10
REMARK H PARENT 10 11
REMARK Flexibility Score: inf
ROOT
ATOM      1  C   UNL     1     116.790 125.645  98.458  1.00  0.00     0.039 A 
ATOM      2  C   UNL     1     116.845 124.230  98.442  1.00  0.00     0.124 A 
ATOM      3  C   UNL     1     117.016 126.320  99.673  1.00  0.00     0.014 A 
ATOM      4  C   UNL     1     117.120 123.528  99.626  1.00  0.00     0.047 A 
ATOM      5  C   UNL     1     117.289 125.608 100.844  1.00  0.00     0.001 A 
ATOM      6  C   UNL     1     117.340 124.215 100.820  1.00  0.00     0.004 A 
ENDROOT
BRANCH   1   7
ATOM      7  C   UNL     1     116.504 126.434  97.232  1.00  0.00     0.075 C 
ATOM      8  O   UNL     1     116.819 126.001  96.092  1.00  0.00    -0.545 OA
ATOM      9  O   UNL     1     115.877 127.672  97.326  1.00  0.00    -0.545 OA
ENDBRANCH   1   7
BRANCH   2  10
ATOM     10  O   UNL     1     116.629 123.520  97.261  1.00  0.00    -0.507 OA
ATOM     11  H   UNL     1     115.930 122.788  97.200  1.00  0.00     0.293 HD
ENDBRANCH   2  10
TORSDOF 2
ENDMDL
MODEL 6
REMARK VINA RESULT:    -3.082      2.943      4.600
REMARK INTER + INTRA:          -3.601
REMARK INTER:                  -3.355
REMARK INTRA:                  -0.246
REMARK UNBOUND:                -0.249
REMARK SMILES O=C([O-])c1ccccc1O
REMARK SMILES IDX 4 1 9 2 5 3 8 4 6 5 7 6 2 7 1 8 3 9 10 10
REMARK H PARENT 10 11
REMARK Flexibility Score: inf
ROOT
ATOM      1  C   UNL     1     134.677 126.819  98.239  1.00  0.00     0.039 A 
ATOM      2  C   UNL     1     134.709 125.450  98.601  1.00  0.00     0.124 A 
ATOM      3  C   UNL     1     134.455 127.781  99.243  1.00  0.00     0.014 A 
ATOM      4  C   UNL     1     134.522 125.077  99.941  1.00  0.00     0.047 A 
ATOM      5  C   UNL     1     134.270 127.395 100.573  1.00  0.00     0.001 A 
ATOM      6  C   UNL     1     134.304 126.045 100.921  1.00  0.00     0.004 A 
ENDROOT
BRANCH   1   7
ATOM      7  C   UNL     1     134.870 127.266  96.836  1.00  0.00     0.075 C 
ATOM      8  O   UNL     1     134.213 128.231  96.364  1.00  0.00    -0.545 OA
ATOM      9  O   UNL     1     135.788 126.619  96.015  1.00  0.00    -0.545 OA
ENDBRANCH   1   7
BRANCH   2  10
ATOM     10  O   UNL     1     134.927 124.463  97.639  1.00  0.00    -0.507 OA
ATOM     11  H   UNL     1     134.158 123.965  97.205  1.00  0.00     0.293 HD
ENDBRANCH   2  10
TORSDOF 2
ENDMDL
MODEL 7
REMARK VINA RESULT:    -3.022      4.595      6.288
REMARK INTER + INTRA:          -3.536
REMARK INTER:                  -3.283
REMARK INTRA:                  -0.253
REMARK UNBOUND:                -0.249
REMARK SMILES O=C([O-])c1ccccc1O
REMARK SMILES IDX 4 1 9 2 5 3 8 4 6 5 7 6 2 7 1 8 3 9 10 10
REMARK H PARENT 10 11
REMARK Flexibility Score: inf
ROOT
ATOM      1  C   UNL     1     133.881 124.880 105.378  1.00  0.00     0.039 A 
ATOM      2  C   UNL     1     135.249 125.241 105.326  1.00  0.00     0.124 A 
ATOM      3  C   UNL     1     133.427 124.090 106.452  1.00  0.00     0.014 A 
ATOM      4  C   UNL     1     136.125 124.809 106.335  1.00  0.00     0.047 A 
ATOM      5  C   UNL     1     134.310 123.668 107.449  1.00  0.00     0.001 A 
ATOM      6  C   UNL     1     135.656 124.026 107.390  1.00  0.00     0.004 A 
ENDROOT
BRANCH   1   7
ATOM      7  C   UNL     1     132.915 125.312 104.335  1.00  0.00     0.075 C 
ATOM      8  O   UNL     1     131.830 125.871 104.646  1.00  0.00    -0.545 OA
ATOM      9  O   UNL     1     133.197 125.105 102.989  1.00  0.00    -0.545 OA
ENDBRANCH   1   7
BRANCH   2  10
ATOM     10  O   UNL     1     135.742 126.023 104.281  1.00  0.00    -0.507 OA
ATOM     11  H   UNL     1     135.189 126.763 103.863  1.00  0.00     0.293 HD
ENDBRANCH   2  10
TORSDOF 2
ENDMDL
MODEL 8
REMARK VINA RESULT:    -2.379     17.114     17.520
REMARK INTER + INTRA:          -2.837
REMARK INTER:                  -2.586
REMARK INTRA:                  -0.251
REMARK UNBOUND:                -0.249
REMARK SMILES O=C([O-])c1ccccc1O
REMARK SMILES IDX 4 1 9 2 5 3 8 4 6 5 7 6 2 7 1 8 3 9 10 10
REMARK H PARENT 10 11
REMARK Flexibility Score: inf
ROOT
ATOM      1  C   UNL     1     117.585 123.995  98.159  1.00  0.00     0.039 A 
ATOM      2  C   UNL     1     116.870 123.845  96.946  1.00  0.00     0.124 A 
ATOM      3  C   UNL     1     117.424 125.182  98.900  1.00  0.00     0.014 A 
ATOM      4  C   UNL     1     116.021 124.871  96.503  1.00  0.00     0.047 A 
ATOM      5  C   UNL     1     116.575 126.195  98.447  1.00  0.00     0.001 A 
ATOM      6  C   UNL     1     115.875 126.040  97.252  1.00  0.00     0.004 A 
ENDROOT
BRANCH   1   7
ATOM      7  C   UNL     1     118.496 122.938  98.670  1.00  0.00     0.075 C 
ATOM      8  O   UNL     1     118.532 122.649  99.895  1.00  0.00    -0.545 OA
ATOM      9  O   UNL     1     119.327 122.247  97.796  1.00  0.00    -0.545 OA
ENDBRANCH   1   7
BRANCH   2  10
ATOM     10  O   UNL     1     116.999 122.686  96.181  1.00  0.00    -0.507 OA
ATOM     11  H   UNL     1     117.420 122.700  95.259  1.00  0.00     0.293 HD
ENDBRANCH   2  10
TORSDOF 2
ENDMDL
