MODEL 1
REMARK VINA RESULT:    -3.763      0.000      0.000
REMARK INTER + INTRA:          -6.334
REMARK INTER:                  -5.083
REMARK INTRA:                  -1.252
REMARK UNBOUND:                -1.252
REMARK SMILES CC(=O)CCC=C(C)CCC=C(C)C
REMARK SMILES IDX 7 1 6 2 8 3 9 4 10 5 11 6 13 7 12 8 14 9 5 10 4 11 2 12 3 13
REMARK SMILES IDX 1 14
REMARK H PARENT
REMARK Flexibility Score: inf
ROOT
ATOM      1  C   UNL     1      60.663 -19.204   2.096  1.00  0.00    -0.077 C 
ATOM      2  C   UNL     1      61.365 -20.136   2.781  1.00  0.00    -0.028 C 
ATOM      3  C   UNL     1      60.379 -17.837   2.673  1.00  0.00     0.039 C 
ENDROOT
BRANCH   1   4
ATOM      4  C   UNL     1      60.171 -19.534   0.704  1.00  0.00     0.034 C 
BRANCH   4   5
ATOM      5  C   UNL     1      58.659 -19.308   0.595  1.00  0.00     0.032 C 
BRANCH   5   6
ATOM      6  C   UNL     1      57.903 -20.337   1.399  1.00  0.00    -0.028 C 
ATOM      7  C   UNL     1      56.394 -21.152   3.183  1.00  0.00     0.039 C 
ATOM      8  C   UNL     1      57.080 -20.041   2.429  1.00  0.00    -0.080 C 
ATOM      9  C   UNL     1      56.777 -18.619   2.832  1.00  0.00     0.039 C 
ENDBRANCH   5   6
ENDBRANCH   4   5
ENDBRANCH   1   4
BRANCH   2  10
ATOM     10  C   UNL     1      61.872 -19.956   4.190  1.00  0.00     0.035 C 
BRANCH  10  11
ATOM     11  C   UNL     1      61.175 -20.931   5.143  1.00  0.00     0.079 C 
BRANCH  11  12
ATOM     12  C   UNL     1      60.241 -20.195   6.067  1.00  0.00     0.130 C 
ATOM     13  O   UNL     1      60.697 -19.582   7.021  1.00  0.00    -0.300 OA
ATOM     14  C   UNL     1      58.757 -20.204   5.846  1.00  0.00     0.087 C 
ENDBRANCH  11  12
ENDBRANCH  10  11
ENDBRANCH   2  10
TORSDOF 6
ENDMDL
MODEL 2
REMARK VINA RESULT:    -3.702      3.309      5.652
REMARK INTER + INTRA:          -6.252
REMARK INTER:                  -5.008
REMARK INTRA:                  -1.244
REMARK UNBOUND:                -1.252
REMARK SMILES CC(=O)CCC=C(C)CCC=C(C)C
REMARK SMILES IDX 7 1 6 2 8 3 9 4 10 5 11 6 13 7 12 8 14 9 5 10 4 11 2 12 3 13
REMARK SMILES IDX 1 14
REMARK H PARENT
REMARK Flexibility Score: inf
ROOT
ATOM      1  C   UNL     1      57.313 -18.161  -0.488  1.00  0.00    -0.077 C 
ATOM      2  C   UNL     1      57.987 -18.393  -1.637  1.00  0.00    -0.028 C 
ATOM      3  C   UNL     1      57.318 -16.806   0.180  1.00  0.00     0.039 C 
ENDROOT
BRANCH   1   4
ATOM      4  C   UNL     1      56.511 -19.285   0.130  1.00  0.00     0.034 C 
BRANCH   4   5
ATOM      5  C   UNL     1      57.435 -20.400   0.632  1.00  0.00     0.032 C 
BRANCH   5   6
ATOM      6  C   UNL     1      57.797 -20.184   2.081  1.00  0.00    -0.028 C 
ATOM      7  C   UNL     1      59.282 -19.644   3.986  1.00  0.00     0.039 C 
ATOM      8  C   UNL     1      59.022 -19.805   2.510  1.00  0.00    -0.080 C 
ATOM      9  C   UNL     1      60.144 -19.486   1.553  1.00  0.00     0.039 C 
ENDBRANCH   5   6
ENDBRANCH   4   5
ENDBRANCH   1   4
BRANCH   2  10
ATOM     10  C   UNL     1      58.860 -17.378  -2.333  1.00  0.00     0.035 C 
BRANCH  10  11
ATOM     11  C   UNL     1      60.206 -17.998  -2.719  1.00  0.00     0.079 C 
BRANCH  11  12
ATOM     12  C   UNL     1      61.213 -17.812  -1.614  1.00  0.00     0.130 C 
ATOM     13  O   UNL     1      62.016 -18.702  -1.375  1.00  0.00    -0.300 OA
ATOM     14  C   UNL     1      61.246 -16.558  -0.791  1.00  0.00     0.087 C 
ENDBRANCH  11  12
ENDBRANCH  10  11
ENDBRANCH   2  10
TORSDOF 6
ENDMDL
MODEL 3
REMARK VINA RESULT:    -3.673      3.982      5.656
REMARK INTER + INTRA:          -6.213
REMARK INTER:                  -5.711
REMARK INTRA:                  -0.502
REMARK UNBOUND:                -1.252
REMARK SMILES CC(=O)CCC=C(C)CCC=C(C)C
REMARK SMILES IDX 7 1 6 2 8 3 9 4 10 5 11 6 13 7 12 8 14 9 5 10 4 11 2 12 3 13
REMARK SMILES IDX 1 14
REMARK H PARENT
REMARK Flexibility Score: inf
ROOT
ATOM      1  C   UNL     1      58.628 -19.759   0.958  1.00  0.00    -0.077 C 
ATOM      2  C   UNL     1      59.587 -19.500   0.041  1.00  0.00    -0.028 C 
ATOM      3  C   UNL     1      58.922 -19.764   2.439  1.00  0.00     0.039 C 
ENDROOT
BRANCH   1   4
ATOM      4  C   UNL     1      57.215 -20.026   0.485  1.00  0.00     0.034 C 
BRANCH   4   5
ATOM      5  C   UNL     1      56.466 -18.710   0.245  1.00  0.00     0.032 C 
BRANCH   5   6
ATOM      6  C   UNL     1      56.383 -18.402  -1.229  1.00  0.00    -0.028 C 
ATOM      7  C   UNL     1      55.291 -18.197  -3.440  1.00  0.00     0.039 C 
ATOM      8  C   UNL     1      55.254 -18.506  -1.966  1.00  0.00    -0.080 C 
ATOM      9  C   UNL     1      53.928 -18.881  -1.352  1.00  0.00     0.039 C 
ENDBRANCH   5   6
ENDBRANCH   4   5
ENDBRANCH   1   4
BRANCH   2  10
ATOM     10  C   UNL     1      61.040 -19.264   0.371  1.00  0.00     0.035 C 
BRANCH  10  11
ATOM     11  C   UNL     1      61.863 -19.085  -0.909  1.00  0.00     0.079 C 
BRANCH  11  12
ATOM     12  C   UNL     1      61.326 -17.942  -1.731  1.00  0.00     0.130 C 
ATOM     13  O   UNL     1      60.739 -18.177  -2.776  1.00  0.00    -0.300 OA
ATOM     14  C   UNL     1      61.504 -16.518  -1.297  1.00  0.00     0.087 C 
ENDBRANCH  11  12
ENDBRANCH  10  11
ENDBRANCH   2  10
TORSDOF 6
ENDMDL
MODEL 4
REMARK VINA RESULT:    -3.659      5.628      7.795
REMARK INTER + INTRA:          -6.194
REMARK INTER:                  -5.176
REMARK INTRA:                  -1.018
REMARK UNBOUND:                -1.252
REMARK SMILES CC(=O)CCC=C(C)CCC=C(C)C
REMARK SMILES IDX 7 1 6 2 8 3 9 4 10 5 11 6 13 7 12 8 14 9 5 10 4 11 2 12 3 13
REMARK SMILES IDX 1 14
REMARK H PARENT
REMARK Flexibility Score: inf
ROOT
ATOM      1  C   UNL     1      56.541 -17.283  -1.983  1.00  0.00    -0.077 C 
ATOM      2  C   UNL     1      57.463 -18.272  -2.009  1.00  0.00    -0.028 C 
ATOM      3  C   UNL     1      56.813 -15.956  -1.314  1.00  0.00     0.039 C 
ENDROOT
BRANCH   1   4
ATOM      4  C   UNL     1      55.209 -17.505  -2.667  1.00  0.00     0.034 C 
BRANCH   4   5
ATOM      5  C   UNL     1      55.374 -17.506  -4.191  1.00  0.00     0.032 C 
BRANCH   5   6
ATOM      6  C   UNL     1      55.350 -16.098  -4.733  1.00  0.00    -0.028 C 
ATOM      7  C   UNL     1      56.310 -14.014  -5.661  1.00  0.00     0.039 C 
ATOM      8  C   UNL     1      56.444 -15.430  -5.161  1.00  0.00    -0.080 C 
ATOM      9  C   UNL     1      57.810 -16.070  -5.205  1.00  0.00     0.039 C 
ENDBRANCH   5   6
ENDBRANCH   4   5
ENDBRANCH   1   4
BRANCH   2  10
ATOM     10  C   UNL     1      58.808 -18.200  -1.330  1.00  0.00     0.035 C 
BRANCH  10  11
ATOM     11  C   UNL     1      59.909 -17.880  -2.345  1.00  0.00     0.079 C 
BRANCH  11  12
ATOM     12  C   UNL     1      61.245 -17.757  -1.659  1.00  0.00     0.130 C 
ATOM     13  O   UNL     1      61.803 -16.671  -1.619  1.00  0.00    -0.300 OA
ATOM     14  C   UNL     1      61.911 -18.945  -1.030  1.00  0.00     0.087 C 
ENDBRANCH  11  12
ENDBRANCH  10  11
ENDBRANCH   2  10
TORSDOF 6
ENDMDL
MODEL 5
REMARK VINA RESULT:    -3.638      3.082      5.961
REMARK INTER + INTRA:          -6.166
REMARK INTER:                  -5.656
REMARK INTRA:                  -0.510
REMARK UNBOUND:                -1.252
REMARK SMILES CC(=O)CCC=C(C)CCC=C(C)C
REMARK SMILES IDX 7 1 6 2 8 3 9 4 10 5 11 6 13 7 12 8 14 9 5 10 4 11 2 12 3 13
REMARK SMILES IDX 1 14
REMARK H PARENT
REMARK Flexibility Score: inf
ROOT
ATOM      1  C   UNL     1      59.376 -19.754   2.352  1.00  0.00    -0.077 C 
ATOM      2  C   UNL     1      60.377 -19.443   1.498  1.00  0.00    -0.028 C 
ATOM      3  C   UNL     1      58.002 -20.145   1.861  1.00  0.00     0.039 C 
ENDROOT
BRANCH   1   4
ATOM      4  C   UNL     1      59.649 -19.734   3.840  1.00  0.00     0.034 C 
BRANCH   4   5
ATOM      5  C   UNL     1      61.053 -19.188   4.127  1.00  0.00     0.032 C 
BRANCH   5   6
ATOM      6  C   UNL     1      61.931 -20.257   4.726  1.00  0.00    -0.028 C 
ATOM      7  C   UNL     1      63.086 -21.483   6.540  1.00  0.00     0.039 C 
ATOM      8  C   UNL     1      62.169 -20.393   6.050  1.00  0.00    -0.080 C 
ATOM      9  C   UNL     1      61.504 -19.511   7.079  1.00  0.00     0.039 C 
ENDBRANCH   5   6
ENDBRANCH   4   5
ENDBRANCH   1   4
BRANCH   2  10
ATOM     10  C   UNL     1      60.229 -19.379  -0.002  1.00  0.00     0.035 C 
BRANCH  10  11
ATOM     11  C   UNL     1      61.497 -18.811  -0.646  1.00  0.00     0.079 C 
BRANCH  11  12
ATOM     12  C   UNL     1      61.149 -17.742  -1.649  1.00  0.00     0.130 C 
ATOM     13  O   UNL     1      61.810 -16.715  -1.687  1.00  0.00    -0.300 OA
ATOM     14  C   UNL     1      60.001 -17.907  -2.600  1.00  0.00     0.087 C 
ENDBRANCH  11  12
ENDBRANCH  10  11
ENDBRANCH   2  10
TORSDOF 6
ENDMDL
MODEL 6
REMARK VINA RESULT:    -3.615      3.237      5.631
REMARK INTER + INTRA:          -6.135
REMARK INTER:                  -4.783
REMARK INTRA:                  -1.352
REMARK UNBOUND:                -1.252
REMARK SMILES CC(=O)CCC=C(C)CCC=C(C)C
REMARK SMILES IDX 7 1 6 2 8 3 9 4 10 5 11 6 13 7 12 8 14 9 5 10 4 11 2 12 3 13
REMARK SMILES IDX 1 14
REMARK H PARENT
REMARK Flexibility Score: inf
ROOT
ATOM      1  C   UNL     1      59.302 -19.689   1.613  1.00  0.00    -0.077 C 
ATOM      2  C   UNL     1      58.526 -20.151   0.606  1.00  0.00    -0.028 C 
ATOM      3  C   UNL     1      58.736 -19.382   2.979  1.00  0.00     0.039 C 
ENDROOT
BRANCH   1   4
ATOM      4  C   UNL     1      60.783 -19.498   1.367  1.00  0.00     0.034 C 
BRANCH   4   5
ATOM      5  C   UNL     1      61.059 -19.243  -0.119  1.00  0.00     0.032 C 
BRANCH   5   6
ATOM      6  C   UNL     1      61.071 -17.764  -0.415  1.00  0.00    -0.028 C 
ATOM      7  C   UNL     1      60.484 -15.697  -1.643  1.00  0.00     0.039 C 
ATOM      8  C   UNL     1      60.378 -17.184  -1.420  1.00  0.00    -0.080 C 
ATOM      9  C   UNL     1      59.451 -17.971  -2.314  1.00  0.00     0.039 C 
ENDBRANCH   5   6
ENDBRANCH   4   5
ENDBRANCH   1   4
BRANCH   2  10
ATOM     10  C   UNL     1      57.032 -20.342   0.701  1.00  0.00     0.035 C 
BRANCH  10  11
ATOM     11  C   UNL     1      56.304 -19.376  -0.238  1.00  0.00     0.079 C 
BRANCH  11  12
ATOM     12  C   UNL     1      56.018 -18.072   0.460  1.00  0.00     0.130 C 
ATOM     13  O   UNL     1      55.010 -17.962   1.141  1.00  0.00    -0.300 OA
ATOM     14  C   UNL     1      56.943 -16.898   0.330  1.00  0.00     0.087 C 
ENDBRANCH  11  12
ENDBRANCH  10  11
ENDBRANCH   2  10
TORSDOF 6
ENDMDL
MODEL 7
REMARK VINA RESULT:    -3.609      7.618     10.332
REMARK INTER + INTRA:          -6.127
REMARK INTER:                  -5.495
REMARK INTRA:                  -0.632
REMARK UNBOUND:                -1.252
REMARK SMILES CC(=O)CCC=C(C)CCC=C(C)C
REMARK SMILES IDX 7 1 6 2 8 3 9 4 10 5 11 6 13 7 12 8 14 9 5 10 4 11 2 12 3 13
REMARK SMILES IDX 1 14
REMARK H PARENT
REMARK Flexibility Score: inf
ROOT
ATOM      1  C   UNL     1      58.068 -15.875  -3.665  1.00  0.00    -0.077 C 
ATOM      2  C   UNL     1      57.805 -15.899  -4.991  1.00  0.00    -0.028 C 
ATOM      3  C   UNL     1      58.508 -14.612  -2.963  1.00  0.00     0.039 C 
ENDROOT
BRANCH   1   4
ATOM      4  C   UNL     1      57.891 -17.144  -2.860  1.00  0.00     0.034 C 
BRANCH   4   5
ATOM      5  C   UNL     1      58.544 -17.006  -1.480  1.00  0.00     0.032 C 
BRANCH   5   6
ATOM      6  C   UNL     1      59.613 -18.052  -1.286  1.00  0.00    -0.028 C 
ATOM      7  C   UNL     1      61.924 -18.924  -1.130  1.00  0.00     0.039 C 
ATOM      8  C   UNL     1      60.941 -17.797  -1.309  1.00  0.00    -0.080 C 
ATOM      9  C   UNL     1      61.485 -16.398  -1.464  1.00  0.00     0.039 C 
ENDBRANCH   5   6
ENDBRANCH   4   5
ENDBRANCH   1   4
BRANCH   2  10
ATOM     10  C   UNL     1      57.984 -14.722  -5.917  1.00  0.00     0.035 C 
BRANCH  10  11
ATOM     11  C   UNL     1      57.309 -14.988  -7.266  1.00  0.00     0.079 C 
BRANCH  11  12
ATOM     12  C   UNL     1      56.443 -13.822  -7.666  1.00  0.00     0.130 C 
ATOM     13  O   UNL     1      55.699 -13.315  -6.842  1.00  0.00    -0.300 OA
ATOM     14  C   UNL     1      56.467 -13.275  -9.063  1.00  0.00     0.087 C 
ENDBRANCH  11  12
ENDBRANCH  10  11
ENDBRANCH   2  10
TORSDOF 6
ENDMDL
MODEL 8
REMARK VINA RESULT:    -3.607      2.585      5.635
REMARK INTER + INTRA:          -6.125
REMARK INTER:                  -5.409
REMARK INTRA:                  -0.715
REMARK UNBOUND:                -1.252
REMARK SMILES CC(=O)CCC=C(C)CCC=C(C)C
REMARK SMILES IDX 7 1 6 2 8 3 9 4 10 5 11 6 13 7 12 8 14 9 5 10 4 11 2 12 3 13
REMARK SMILES IDX 1 14
REMARK H PARENT
REMARK Flexibility Score: inf
ROOT
ATOM      1  C   UNL     1      57.804 -20.017   3.084  1.00  0.00    -0.077 C 
ATOM      2  C   UNL     1      58.851 -19.574   2.351  1.00  0.00    -0.028 C 
ATOM      3  C   UNL     1      56.711 -20.866   2.479  1.00  0.00     0.039 C 
ENDROOT
BRANCH   1   4
ATOM      4  C   UNL     1      57.743 -19.674   4.556  1.00  0.00     0.034 C 
BRANCH   4   5
ATOM      5  C   UNL     1      58.470 -20.733   5.392  1.00  0.00     0.032 C 
BRANCH   5   6
ATOM      6  C   UNL     1      59.478 -20.090   6.312  1.00  0.00    -0.028 C 
ATOM      7  C   UNL     1      61.733 -19.439   7.097  1.00  0.00     0.039 C 
ATOM      8  C   UNL     1      60.813 -20.090   6.097  1.00  0.00    -0.080 C 
ATOM      9  C   UNL     1      61.425 -20.685   4.853  1.00  0.00     0.039 C 
ENDBRANCH   5   6
ENDBRANCH   4   5
ENDBRANCH   1   4
BRANCH   2  10
ATOM     10  C   UNL     1      59.012 -19.804   0.869  1.00  0.00     0.035 C 
BRANCH  10  11
ATOM     11  C   UNL     1      60.437 -19.463   0.421  1.00  0.00     0.079 C 
BRANCH  11  12
ATOM     12  C   UNL     1      60.414 -18.476  -0.716  1.00  0.00     0.130 C 
ATOM     13  O   UNL     1      59.394 -17.845  -0.946  1.00  0.00    -0.300 OA
ATOM     14  C   UNL     1      61.619 -18.255  -1.582  1.00  0.00     0.087 C 
ENDBRANCH  11  12
ENDBRANCH  10  11
ENDBRANCH   2  10
TORSDOF 6
ENDMDL
MODEL 9
REMARK VINA RESULT:    -3.603      7.582      9.944
REMARK INTER + INTRA:          -6.119
REMARK INTER:                  -4.981
REMARK INTRA:                  -1.137
REMARK UNBOUND:                -1.252
REMARK SMILES CC(=O)CCC=C(C)CCC=C(C)C
REMARK SMILES IDX 7 1 6 2 8 3 9 4 10 5 11 6 13 7 12 8 14 9 5 10 4 11 2 12 3 13
REMARK SMILES IDX 1 14
REMARK H PARENT
REMARK Flexibility Score: inf
ROOT
ATOM      1  C   UNL     1      56.219 -16.154  -3.581  1.00  0.00    -0.077 C 
ATOM      2  C   UNL     1      55.245 -16.836  -4.226  1.00  0.00    -0.028 C 
ATOM      3  C   UNL     1      55.920 -15.267  -2.396  1.00  0.00     0.039 C 
ENDROOT
BRANCH   1   4
ATOM      4  C   UNL     1      57.651 -16.307  -4.046  1.00  0.00     0.034 C 
BRANCH   4   5
ATOM      5  C   UNL     1      58.109 -15.061  -4.812  1.00  0.00     0.032 C 
BRANCH   5   6
ATOM      6  C   UNL     1      57.827 -15.203  -6.286  1.00  0.00    -0.028 C 
ATOM      7  C   UNL     1      56.637 -14.775  -8.414  1.00  0.00     0.039 C 
ATOM      8  C   UNL     1      56.850 -14.537  -6.941  1.00  0.00    -0.080 C 
ATOM      9  C   UNL     1      55.979 -13.512  -6.255  1.00  0.00     0.039 C 
ENDBRANCH   5   6
ENDBRANCH   4   5
ENDBRANCH   1   4
BRANCH   2  10
ATOM     10  C   UNL     1      53.776 -16.738  -3.897  1.00  0.00     0.035 C 
BRANCH  10  11
ATOM     11  C   UNL     1      53.235 -18.095  -3.436  1.00  0.00     0.079 C 
BRANCH  11  12
ATOM     12  C   UNL     1      53.662 -18.384  -2.020  1.00  0.00     0.130 C 
ATOM     13  O   UNL     1      53.130 -17.786  -1.097  1.00  0.00    -0.300 OA
ATOM     14  C   UNL     1      54.736 -19.386  -1.719  1.00  0.00     0.087 C 
ENDBRANCH  11  12
ENDBRANCH  10  11
ENDBRANCH   2  10
TORSDOF 6
ENDMDL
