MODEL 1
REMARK VINA RESULT:    -5.289      0.000      0.000
REMARK INTER + INTRA:          -5.742
REMARK INTER:                  -5.752
REMARK INTRA:                   0.010
REMARK UNBOUND:                 0.010
REMARK SMILES C=C(C)[C@@H]1CC[C@H](C)C[C@H]1O
REMARK SMILES IDX 8 1 7 2 6 3 5 4 4 5 10 6 9 7 11 8 2 10 1 11 3 12
REMARK H PARENT 11 9
REMARK Flexibility Score: inf
ROOT
ATOM      1  C   UNL     1     135.497 122.717 138.142  1.00  0.00     0.008 C 
ATOM      2  C   UNL     1     136.062 124.113 138.451  1.00  0.00    -0.012 C 
ATOM      3  C   UNL     1     134.969 125.086 138.940  1.00  0.00     0.004 C 
ATOM      4  C   UNL     1     134.513 124.789 140.376  1.00  0.00     0.011 C 
ATOM      5  C   UNL     1     135.709 124.780 141.348  1.00  0.00     0.043 C 
ATOM      6  C   UNL     1     136.786 123.765 140.891  1.00  0.00     0.121 C 
ATOM      7  C   UNL     1     137.242 124.056 139.446  1.00  0.00     0.035 C 
ENDROOT
BRANCH   6   8
ATOM      8  O   UNL     1     137.892 123.782 141.761  1.00  0.00    -0.392 OA
ATOM      9  H   UNL     1     137.634 124.302 142.566  1.00  0.00     0.210 HD
ENDBRANCH   6   8
BRANCH   5  10
ATOM     10  C   UNL     1     135.246 124.499 142.774  1.00  0.00    -0.075 C 
ATOM     11  C   UNL     1     134.133 123.789 143.014  1.00  0.00     0.008 C 
ATOM     12  C   UNL     1     136.013 125.008 143.965  1.00  0.00     0.039 C 
ENDBRANCH   5  10
TORSDOF 2
ENDMDL
MODEL 2
REMARK VINA RESULT:    -4.990      1.696      2.120
REMARK INTER + INTRA:          -5.417
REMARK INTER:                  -5.403
REMARK INTRA:                  -0.014
REMARK UNBOUND:                 0.010
REMARK SMILES C=C(C)[C@@H]1CC[C@H](C)C[C@H]1O
REMARK SMILES IDX 8 1 7 2 6 3 5 4 4 5 10 6 9 7 11 8 2 10 1 11 3 12
REMARK H PARENT 11 9
REMARK Flexibility Score: inf
ROOT
ATOM      1  C   UNL     1     135.992 124.107 137.531  1.00  0.00     0.008 C 
ATOM      2  C   UNL     1     136.732 123.145 138.475  1.00  0.00    -0.012 C 
ATOM      3  C   UNL     1     137.688 123.890 139.430  1.00  0.00     0.004 C 
ATOM      4  C   UNL     1     136.942 124.645 140.541  1.00  0.00     0.011 C 
ATOM      5  C   UNL     1     136.014 123.700 141.328  1.00  0.00     0.043 C 
ATOM      6  C   UNL     1     135.015 122.989 140.379  1.00  0.00     0.121 C 
ATOM      7  C   UNL     1     135.760 122.235 139.258  1.00  0.00     0.035 C 
ENDROOT
BRANCH   6   8
ATOM      8  O   UNL     1     134.191 122.101 141.094  1.00  0.00    -0.392 OA
ATOM      9  H   UNL     1     134.636 121.214 141.101  1.00  0.00     0.210 HD
ENDBRANCH   6   8
BRANCH   5  10
ATOM     10  C   UNL     1     135.288 124.453 142.438  1.00  0.00    -0.075 C 
ATOM     11  C   UNL     1     134.124 125.078 142.205  1.00  0.00     0.008 C 
ATOM     12  C   UNL     1     135.849 124.530 143.833  1.00  0.00     0.039 C 
ENDBRANCH   5  10
TORSDOF 2
ENDMDL
MODEL 3
REMARK VINA RESULT:    -4.972      1.788      2.639
REMARK INTER + INTRA:          -5.398
REMARK INTER:                  -5.199
REMARK INTRA:                  -0.199
REMARK UNBOUND:                 0.010
REMARK SMILES C=C(C)[C@@H]1CC[C@H](C)C[C@H]1O
REMARK SMILES IDX 8 1 7 2 6 3 5 4 4 5 10 6 9 7 11 8 2 10 1 11 3 12
REMARK H PARENT 11 9
REMARK Flexibility Score: inf
ROOT
ATOM      1  C   UNL     1     137.505 124.496 138.127  1.00  0.00     0.008 C 
ATOM      2  C   UNL     1     136.193 123.701 138.021  1.00  0.00    -0.012 C 
ATOM      3  C   UNL     1     136.215 122.424 138.888  1.00  0.00     0.004 C 
ATOM      4  C   UNL     1     136.084 122.727 140.387  1.00  0.00     0.011 C 
ATOM      5  C   UNL     1     134.821 123.561 140.677  1.00  0.00     0.043 C 
ATOM      6  C   UNL     1     134.819 124.870 139.849  1.00  0.00     0.121 C 
ATOM      7  C   UNL     1     134.958 124.570 138.342  1.00  0.00     0.035 C 
ENDROOT
BRANCH   6   8
ATOM      8  O   UNL     1     133.650 125.614 140.089  1.00  0.00    -0.392 OA
ATOM      9  H   UNL     1     132.959 125.308 139.445  1.00  0.00     0.210 HD
ENDBRANCH   6   8
BRANCH   5  10
ATOM     10  C   UNL     1     134.690 123.845 142.170  1.00  0.00    -0.075 C 
ATOM     11  C   UNL     1     135.645 124.513 142.835  1.00  0.00     0.008 C 
ATOM     12  C   UNL     1     133.491 123.385 142.957  1.00  0.00     0.039 C 
ENDBRANCH   5  10
TORSDOF 2
ENDMDL
MODEL 4
REMARK VINA RESULT:    -4.882      1.673      3.972
REMARK INTER + INTRA:          -5.301
REMARK INTER:                  -5.108
REMARK INTRA:                  -0.193
REMARK UNBOUND:                 0.010
REMARK SMILES C=C(C)[C@@H]1CC[C@H](C)C[C@H]1O
REMARK SMILES IDX 8 1 7 2 6 3 5 4 4 5 10 6 9 7 11 8 2 10 1 11 3 12
REMARK H PARENT 11 9
REMARK Flexibility Score: inf
ROOT
ATOM      1  C   UNL     1     134.939 124.037 143.290  1.00  0.00     0.008 C 
ATOM      2  C   UNL     1     134.060 123.947 142.032  1.00  0.00    -0.012 C 
ATOM      3  C   UNL     1     134.257 125.159 141.098  1.00  0.00     0.004 C 
ATOM      4  C   UNL     1     135.596 125.114 140.347  1.00  0.00     0.011 C 
ATOM      5  C   UNL     1     135.752 123.794 139.567  1.00  0.00     0.043 C 
ATOM      6  C   UNL     1     135.608 122.574 140.511  1.00  0.00     0.121 C 
ATOM      7  C   UNL     1     134.267 122.619 141.272  1.00  0.00     0.035 C 
ENDROOT
BRANCH   6   8
ATOM      8  O   UNL     1     135.717 121.369 139.792  1.00  0.00    -0.392 OA
ATOM      9  H   UNL     1     136.169 121.571 138.932  1.00  0.00     0.210 HD
ENDBRANCH   6   8
BRANCH   5  10
ATOM     10  C   UNL     1     137.077 123.764 138.813  1.00  0.00    -0.075 C 
ATOM     11  C   UNL     1     137.111 123.709 137.473  1.00  0.00     0.008 C 
ATOM     12  C   UNL     1     138.396 123.788 139.539  1.00  0.00     0.039 C 
ENDBRANCH   5  10
TORSDOF 2
ENDMDL
MODEL 5
REMARK VINA RESULT:    -4.505      1.521      3.735
REMARK INTER + INTRA:          -4.890
REMARK INTER:                  -4.904
REMARK INTRA:                   0.014
REMARK UNBOUND:                 0.010
REMARK SMILES C=C(C)[C@@H]1CC[C@H](C)C[C@H]1O
REMARK SMILES IDX 8 1 7 2 6 3 5 4 4 5 10 6 9 7 11 8 2 10 1 11 3 12
REMARK H PARENT 11 9
REMARK Flexibility Score: inf
ROOT
ATOM      1  C   UNL     1     133.205 125.248 142.242  1.00  0.00     0.008 C 
ATOM      2  C   UNL     1     133.800 123.895 142.665  1.00  0.00    -0.012 C 
ATOM      3  C   UNL     1     133.963 122.934 141.469  1.00  0.00     0.004 C 
ATOM      4  C   UNL     1     135.128 123.328 140.550  1.00  0.00     0.011 C 
ATOM      5  C   UNL     1     136.446 123.442 141.341  1.00  0.00     0.043 C 
ATOM      6  C   UNL     1     136.304 124.447 142.511  1.00  0.00     0.121 C 
ATOM      7  C   UNL     1     135.129 124.058 143.433  1.00  0.00     0.035 C 
ENDROOT
BRANCH   6   8
ATOM      8  O   UNL     1     137.497 124.525 143.253  1.00  0.00    -0.392 OA
ATOM      9  H   UNL     1     137.334 125.128 144.024  1.00  0.00     0.210 HD
ENDBRANCH   6   8
BRANCH   5  10
ATOM     10  C   UNL     1     137.601 123.819 140.419  1.00  0.00    -0.075 C 
ATOM     11  C   UNL     1     137.387 124.510 139.288  1.00  0.00     0.008 C 
ATOM     12  C   UNL     1     139.020 123.429 140.735  1.00  0.00     0.039 C 
ENDBRANCH   5  10
TORSDOF 2
ENDMDL
MODEL 6
REMARK VINA RESULT:    -4.375      1.737      4.233
REMARK INTER + INTRA:          -4.748
REMARK INTER:                  -4.634
REMARK INTRA:                  -0.114
REMARK UNBOUND:                 0.010
REMARK SMILES C=C(C)[C@@H]1CC[C@H](C)C[C@H]1O
REMARK SMILES IDX 8 1 7 2 6 3 5 4 4 5 10 6 9 7 11 8 2 10 1 11 3 12
REMARK H PARENT 11 9
REMARK Flexibility Score: inf
ROOT
ATOM      1  C   UNL     1     133.750 123.341 142.946  1.00  0.00     0.008 C 
ATOM      2  C   UNL     1     134.482 124.657 142.637  1.00  0.00    -0.012 C 
ATOM      3  C   UNL     1     136.016 124.490 142.671  1.00  0.00     0.004 C 
ATOM      4  C   UNL     1     136.553 123.731 141.449  1.00  0.00     0.011 C 
ATOM      5  C   UNL     1     136.107 124.403 140.136  1.00  0.00     0.043 C 
ATOM      6  C   UNL     1     134.564 124.525 140.073  1.00  0.00     0.121 C 
ATOM      7  C   UNL     1     134.019 125.281 141.303  1.00  0.00     0.035 C 
ENDROOT
BRANCH   6   8
ATOM      8  O   UNL     1     134.160 125.170 138.890  1.00  0.00    -0.392 OA
ATOM      9  H   UNL     1     134.962 125.595 138.489  1.00  0.00     0.210 HD
ENDBRANCH   6   8
BRANCH   5  10
ATOM     10  C   UNL     1     136.657 123.652 138.928  1.00  0.00    -0.075 C 
ATOM     11  C   UNL     1     136.101 122.503 138.515  1.00  0.00     0.008 C 
ATOM     12  C   UNL     1     137.844 124.164 138.156  1.00  0.00     0.039 C 
ENDBRANCH   5  10
TORSDOF 2
ENDMDL
MODEL 7
REMARK VINA RESULT:    -4.287      1.980      2.900
REMARK INTER + INTRA:          -4.653
REMARK INTER:                  -4.729
REMARK INTRA:                   0.076
REMARK UNBOUND:                 0.010
REMARK SMILES C=C(C)[C@@H]1CC[C@H](C)C[C@H]1O
REMARK SMILES IDX 8 1 7 2 6 3 5 4 4 5 10 6 9 7 11 8 2 10 1 11 3 12
REMARK H PARENT 11 9
REMARK Flexibility Score: inf
ROOT
ATOM      1  C   UNL     1     134.336 125.243 138.163  1.00  0.00     0.008 C 
ATOM      2  C   UNL     1     135.189 124.046 137.712  1.00  0.00    -0.012 C 
ATOM      3  C   UNL     1     136.689 124.403 137.623  1.00  0.00     0.004 C 
ATOM      4  C   UNL     1     137.345 124.543 139.004  1.00  0.00     0.011 C 
ATOM      5  C   UNL     1     137.138 123.271 139.849  1.00  0.00     0.043 C 
ATOM      6  C   UNL     1     135.630 122.938 139.987  1.00  0.00     0.121 C 
ATOM      7  C   UNL     1     134.966 122.804 138.601  1.00  0.00     0.035 C 
ENDROOT
BRANCH   6   8
ATOM      8  O   UNL     1     135.444 121.758 140.730  1.00  0.00    -0.392 OA
ATOM      9  H   UNL     1     136.340 121.432 141.008  1.00  0.00     0.210 HD
ENDBRANCH   6   8
BRANCH   5  10
ATOM     10  C   UNL     1     137.805 123.411 141.213  1.00  0.00    -0.075 C 
ATOM     11  C   UNL     1     137.112 123.830 142.284  1.00  0.00     0.008 C 
ATOM     12  C   UNL     1     139.263 123.093 141.413  1.00  0.00     0.039 C 
ENDBRANCH   5  10
TORSDOF 2
ENDMDL
MODEL 8
REMARK VINA RESULT:    -4.246      1.036      3.946
REMARK INTER + INTRA:          -4.609
REMARK INTER:                  -4.467
REMARK INTRA:                  -0.141
REMARK UNBOUND:                 0.010
REMARK SMILES C=C(C)[C@@H]1CC[C@H](C)C[C@H]1O
REMARK SMILES IDX 8 1 7 2 6 3 5 4 4 5 10 6 9 7 11 8 2 10 1 11 3 12
REMARK H PARENT 11 9
REMARK Flexibility Score: inf
ROOT
ATOM      1  C   UNL     1     135.641 125.977 143.935  1.00  0.00     0.008 C 
ATOM      2  C   UNL     1     135.656 124.442 143.850  1.00  0.00    -0.012 C 
ATOM      3  C   UNL     1     134.405 123.888 143.135  1.00  0.00     0.004 C 
ATOM      4  C   UNL     1     134.442 124.121 141.618  1.00  0.00     0.011 C 
ATOM      5  C   UNL     1     135.727 123.540 140.997  1.00  0.00     0.043 C 
ATOM      6  C   UNL     1     136.987 124.134 141.675  1.00  0.00     0.121 C 
ATOM      7  C   UNL     1     136.951 123.908 143.201  1.00  0.00     0.035 C 
ENDROOT
BRANCH   6   8
ATOM      8  O   UNL     1     138.158 123.578 141.131  1.00  0.00    -0.392 OA
ATOM      9  H   UNL     1     138.136 123.729 140.149  1.00  0.00     0.210 HD
ENDBRANCH   6   8
BRANCH   5  10
ATOM     10  C   UNL     1     135.748 123.763 139.488  1.00  0.00    -0.075 C 
ATOM     11  C   UNL     1     135.430 122.775 138.637  1.00  0.00     0.008 C 
ATOM     12  C   UNL     1     136.131 125.092 138.894  1.00  0.00     0.039 C 
ENDBRANCH   5  10
TORSDOF 2
ENDMDL
MODEL 9
REMARK VINA RESULT:    -4.019      2.070      2.851
REMARK INTER + INTRA:          -4.361
REMARK INTER:                  -4.169
REMARK INTRA:                  -0.192
REMARK UNBOUND:                 0.010
REMARK SMILES C=C(C)[C@@H]1CC[C@H](C)C[C@H]1O
REMARK SMILES IDX 8 1 7 2 6 3 5 4 4 5 10 6 9 7 11 8 2 10 1 11 3 12
REMARK H PARENT 11 9
REMARK Flexibility Score: inf
ROOT
ATOM      1  C   UNL     1     138.292 125.241 138.823  1.00  0.00     0.008 C 
ATOM      2  C   UNL     1     138.164 123.743 139.143  1.00  0.00    -0.012 C 
ATOM      3  C   UNL     1     138.229 123.465 140.660  1.00  0.00     0.004 C 
ATOM      4  C   UNL     1     136.945 123.883 141.391  1.00  0.00     0.011 C 
ATOM      5  C   UNL     1     135.706 123.212 140.767  1.00  0.00     0.043 C 
ATOM      6  C   UNL     1     135.607 123.532 139.254  1.00  0.00     0.121 C 
ATOM      7  C   UNL     1     136.898 123.120 138.517  1.00  0.00     0.035 C 
ENDROOT
BRANCH   6   8
ATOM      8  O   UNL     1     134.494 122.891 138.679  1.00  0.00    -0.392 OA
ATOM      9  H   UNL     1     133.683 123.394 138.951  1.00  0.00     0.210 HD
ENDBRANCH   6   8
BRANCH   5  10
ATOM     10  C   UNL     1     134.437 123.621 141.508  1.00  0.00    -0.075 C 
ATOM     11  C   UNL     1     133.685 122.712 142.148  1.00  0.00     0.008 C 
ATOM     12  C   UNL     1     133.976 125.054 141.548  1.00  0.00     0.039 C 
ENDBRANCH   5  10
TORSDOF 2
ENDMDL
