MODEL 1
REMARK VINA RESULT:    -5.508      0.000      0.000
REMARK INTER + INTRA:          -6.628
REMARK INTER:                  -6.474
REMARK INTRA:                  -0.154
REMARK UNBOUND:                -0.154
REMARK SMILES COc1ccc(C=CC(=O)[O-])cc1
REMARK SMILES IDX 6 1 5 2 12 3 4 4 13 5 3 6 7 7 8 8 9 9 10 10 11 11 2 12 1 13
REMARK H PARENT
REMARK Flexibility Score: inf
ROOT
ATOM      1  C   UNL     1     -33.637  11.039 -35.526  1.00  0.00    -0.025 A 
ATOM      2  C   UNL     1     -33.854   9.809 -36.168  1.00  0.00     0.012 A 
ATOM      3  C   UNL     1     -34.106  12.216 -36.141  1.00  0.00     0.012 A 
ATOM      4  C   UNL     1     -34.500   9.753 -37.405  1.00  0.00     0.047 A 
ATOM      5  C   UNL     1     -34.754  12.159 -37.379  1.00  0.00     0.047 A 
ATOM      6  C   UNL     1     -34.955  10.932 -38.022  1.00  0.00     0.118 A 
ENDROOT
BRANCH   1   7
ATOM      7  C   UNL     1     -32.953  11.043 -34.208  1.00  0.00     0.010 C 
ATOM      8  C   UNL     1     -33.582  11.247 -33.043  1.00  0.00     0.025 C 
BRANCH   8   9
ATOM      9  C   UNL     1     -32.868  11.255 -31.755  1.00  0.00     0.064 C 
ATOM     10  O   UNL     1     -32.936  12.244 -30.977  1.00  0.00    -0.545 OA
ATOM     11  O   UNL     1     -32.104  10.154 -31.392  1.00  0.00    -0.545 OA
ENDBRANCH   8   9
ENDBRANCH   1   7
BRANCH   6  12
ATOM     12  O   UNL     1     -35.608  10.930 -39.263  1.00  0.00    -0.497 OA
ATOM     13  C   UNL     1     -36.872  10.322 -39.505  1.00  0.00     0.278 C 
ENDBRANCH   6  12
TORSDOF 3
ENDMDL
MODEL 2
REMARK VINA RESULT:    -5.215      1.404      6.475
REMARK INTER + INTRA:          -6.283
REMARK INTER:                  -6.107
REMARK INTRA:                  -0.176
REMARK UNBOUND:                -0.154
REMARK SMILES COc1ccc(C=CC(=O)[O-])cc1
REMARK SMILES IDX 6 1 5 2 12 3 4 4 13 5 3 6 7 7 8 8 9 9 10 10 11 11 2 12 1 13
REMARK H PARENT
REMARK Flexibility Score: inf
ROOT
ATOM      1  C   UNL     1     -33.238  10.176 -34.241  1.00  0.00    -0.025 A 
ATOM      2  C   UNL     1     -33.704  11.408 -33.756  1.00  0.00     0.012 A 
ATOM      3  C   UNL     1     -32.460   9.365 -33.394  1.00  0.00     0.012 A 
ATOM      4  C   UNL     1     -33.382  11.836 -32.464  1.00  0.00     0.047 A 
ATOM      5  C   UNL     1     -32.139   9.793 -32.101  1.00  0.00     0.047 A 
ATOM      6  C   UNL     1     -32.593  11.028 -31.627  1.00  0.00     0.118 A 
ENDROOT
BRANCH   1   7
ATOM      7  C   UNL     1     -33.616   9.765 -35.617  1.00  0.00     0.010 C 
ATOM      8  C   UNL     1     -33.981  10.625 -36.577  1.00  0.00     0.025 C 
BRANCH   8   9
ATOM      9  C   UNL     1     -34.361  10.179 -37.928  1.00  0.00     0.064 C 
ATOM     10  O   UNL     1     -33.744   9.242 -38.504  1.00  0.00    -0.545 OA
ATOM     11  O   UNL     1     -35.415  10.803 -38.582  1.00  0.00    -0.545 OA
ENDBRANCH   8   9
ENDBRANCH   1   7
BRANCH   6  12
ATOM     12  O   UNL     1     -32.241  11.411 -30.324  1.00  0.00    -0.497 OA
ATOM     13  C   UNL     1     -32.564  12.670 -29.742  1.00  0.00     0.278 C 
ENDBRANCH   6  12
TORSDOF 3
ENDMDL
MODEL 3
REMARK VINA RESULT:    -5.194      1.456      6.327
REMARK INTER + INTRA:          -6.259
REMARK INTER:                  -6.091
REMARK INTRA:                  -0.168
REMARK UNBOUND:                -0.154
REMARK SMILES COc1ccc(C=CC(=O)[O-])cc1
REMARK SMILES IDX 6 1 5 2 12 3 4 4 13 5 3 6 7 7 8 8 9 9 10 10 11 11 2 12 1 13
REMARK H PARENT
REMARK Flexibility Score: inf
ROOT
ATOM      1  C   UNL     1     -33.274  10.357 -34.056  1.00  0.00    -0.025 A 
ATOM      2  C   UNL     1     -32.365   9.588 -33.311  1.00  0.00     0.012 A 
ATOM      3  C   UNL     1     -33.819  11.516 -33.471  1.00  0.00     0.012 A 
ATOM      4  C   UNL     1     -32.025   9.950 -32.005  1.00  0.00     0.047 A 
ATOM      5  C   UNL     1     -33.478  11.878 -32.164  1.00  0.00     0.047 A 
ATOM      6  C   UNL     1     -32.584  11.101 -31.420  1.00  0.00     0.118 A 
ENDROOT
BRANCH   1   7
ATOM      7  C   UNL     1     -33.594   9.934 -35.442  1.00  0.00     0.010 C 
ATOM      8  C   UNL     1     -33.932  10.784 -36.421  1.00  0.00     0.025 C 
BRANCH   8   9
ATOM      9  C   UNL     1     -34.254  10.326 -37.783  1.00  0.00     0.064 C 
ATOM     10  O   UNL     1     -35.151  10.889 -38.466  1.00  0.00    -0.545 OA
ATOM     11  O   UNL     1     -33.559   9.252 -38.324  1.00  0.00    -0.545 OA
ENDBRANCH   8   9
ENDBRANCH   1   7
BRANCH   6  12
ATOM     12  O   UNL     1     -32.277  11.507 -30.113  1.00  0.00    -0.497 OA
ATOM     13  C   UNL     1     -32.577  12.792 -29.579  1.00  0.00     0.278 C 
ENDBRANCH   6  12
TORSDOF 3
ENDMDL
MODEL 4
REMARK VINA RESULT:    -5.020      2.153      2.746
REMARK INTER + INTRA:          -6.054
REMARK INTER:                  -5.892
REMARK INTRA:                  -0.162
REMARK UNBOUND:                -0.154
REMARK SMILES COc1ccc(C=CC(=O)[O-])cc1
REMARK SMILES IDX 6 1 5 2 12 3 4 4 13 5 3 6 7 7 8 8 9 9 10 10 11 11 2 12 1 13
REMARK H PARENT
REMARK Flexibility Score: inf
ROOT
ATOM      1  C   UNL     1     -33.623  11.131 -33.394  1.00  0.00    -0.025 A 
ATOM      2  C   UNL     1     -34.000   9.780 -33.335  1.00  0.00     0.012 A 
ATOM      3  C   UNL     1     -33.379  11.712 -34.653  1.00  0.00     0.012 A 
ATOM      4  C   UNL     1     -34.106   9.016 -34.501  1.00  0.00     0.047 A 
ATOM      5  C   UNL     1     -33.487  10.948 -35.819  1.00  0.00     0.047 A 
ATOM      6  C   UNL     1     -33.847   9.598 -35.755  1.00  0.00     0.118 A 
ENDROOT
BRANCH   1   7
ATOM      7  C   UNL     1     -33.534  11.900 -32.127  1.00  0.00     0.010 C 
ATOM      8  C   UNL     1     -32.495  11.828 -31.284  1.00  0.00     0.025 C 
BRANCH   8   9
ATOM      9  C   UNL     1     -32.446  12.598 -30.029  1.00  0.00     0.064 C 
ATOM     10  O   UNL     1     -33.401  12.568 -29.207  1.00  0.00    -0.545 OA
ATOM     11  O   UNL     1     -31.329  13.373 -29.748  1.00  0.00    -0.545 OA
ENDBRANCH   8   9
ENDBRANCH   1   7
BRANCH   6  12
ATOM     12  O   UNL     1     -33.938   8.875 -36.953  1.00  0.00    -0.497 OA
ATOM     13  C   UNL     1     -33.357   9.287 -38.186  1.00  0.00     0.278 C 
ENDBRANCH   6  12
TORSDOF 3
ENDMDL
MODEL 5
REMARK VINA RESULT:    -4.967      1.290      6.452
REMARK INTER + INTRA:          -5.992
REMARK INTER:                  -5.825
REMARK INTRA:                  -0.167
REMARK UNBOUND:                -0.154
REMARK SMILES COc1ccc(C=CC(=O)[O-])cc1
REMARK SMILES IDX 6 1 5 2 12 3 4 4 13 5 3 6 7 7 8 8 9 9 10 10 11 11 2 12 1 13
REMARK H PARENT
REMARK Flexibility Score: inf
ROOT
ATOM      1  C   UNL     1     -34.164  10.372 -36.729  1.00  0.00    -0.025 A 
ATOM      2  C   UNL     1     -33.924  11.690 -36.310  1.00  0.00     0.012 A 
ATOM      3  C   UNL     1     -33.999   9.326 -35.802  1.00  0.00     0.012 A 
ATOM      4  C   UNL     1     -33.504  11.960 -35.004  1.00  0.00     0.047 A 
ATOM      5  C   UNL     1     -33.580   9.596 -34.496  1.00  0.00     0.047 A 
ATOM      6  C   UNL     1     -33.327  10.909 -34.086  1.00  0.00     0.118 A 
ENDROOT
BRANCH   1   7
ATOM      7  C   UNL     1     -34.617  10.142 -38.124  1.00  0.00     0.010 C 
ATOM      8  C   UNL     1     -35.822  10.502 -38.585  1.00  0.00     0.025 C 
BRANCH   8   9
ATOM      9  C   UNL     1     -36.241  10.246 -39.974  1.00  0.00     0.064 C 
ATOM     10  O   UNL     1     -36.922   9.229 -40.274  1.00  0.00    -0.545 OA
ATOM     11  O   UNL     1     -35.876  11.140 -40.972  1.00  0.00    -0.545 OA
ENDBRANCH   8   9
ENDBRANCH   1   7
BRANCH   6  12
ATOM     12  O   UNL     1     -32.907  11.126 -32.765  1.00  0.00    -0.497 OA
ATOM     13  C   UNL     1     -32.373  10.115 -31.916  1.00  0.00     0.278 C 
ENDBRANCH   6  12
TORSDOF 3
ENDMDL
MODEL 6
REMARK VINA RESULT:    -4.359      2.387      6.590
REMARK INTER + INTRA:          -5.277
REMARK INTER:                  -5.112
REMARK INTRA:                  -0.165
REMARK UNBOUND:                -0.154
REMARK SMILES COc1ccc(C=CC(=O)[O-])cc1
REMARK SMILES IDX 6 1 5 2 12 3 4 4 13 5 3 6 7 7 8 8 9 9 10 10 11 11 2 12 1 13
REMARK H PARENT
REMARK Flexibility Score: inf
ROOT
ATOM      1  C   UNL     1     -34.797  10.468 -38.119  1.00  0.00    -0.025 A 
ATOM      2  C   UNL     1     -34.750  11.592 -37.278  1.00  0.00     0.012 A 
ATOM      3  C   UNL     1     -33.863   9.434 -37.921  1.00  0.00     0.012 A 
ATOM      4  C   UNL     1     -33.778  11.696 -36.279  1.00  0.00     0.047 A 
ATOM      5  C   UNL     1     -32.891   9.538 -36.920  1.00  0.00     0.047 A 
ATOM      6  C   UNL     1     -32.838  10.667 -36.094  1.00  0.00     0.118 A 
ENDROOT
BRANCH   1   7
ATOM      7  C   UNL     1     -35.854  10.402 -39.159  1.00  0.00     0.010 C 
ATOM      8  C   UNL     1     -37.158  10.257 -38.887  1.00  0.00     0.025 C 
BRANCH   8   9
ATOM      9  C   UNL     1     -38.179  10.185 -39.947  1.00  0.00     0.064 C 
ATOM     10  O   UNL     1     -39.309  10.724 -39.803  1.00  0.00    -0.545 OA
ATOM     11  O   UNL     1     -37.892   9.508 -41.125  1.00  0.00    -0.545 OA
ENDBRANCH   8   9
ENDBRANCH   1   7
BRANCH   6  12
ATOM     12  O   UNL     1     -31.843  10.723 -35.107  1.00  0.00    -0.497 OA
ATOM     13  C   UNL     1     -31.439   9.615 -34.308  1.00  0.00     0.278 C 
ENDBRANCH   6  12
TORSDOF 3
ENDMDL
MODEL 7
REMARK VINA RESULT:    -3.881      2.107      6.596
REMARK INTER + INTRA:          -4.715
REMARK INTER:                  -4.563
REMARK INTRA:                  -0.153
REMARK UNBOUND:                -0.154
REMARK SMILES COc1ccc(C=CC(=O)[O-])cc1
REMARK SMILES IDX 6 1 5 2 12 3 4 4 13 5 3 6 7 7 8 8 9 9 10 10 11 11 2 12 1 13
REMARK H PARENT
REMARK Flexibility Score: inf
ROOT
ATOM      1  C   UNL     1     -33.212  10.807 -33.006  1.00  0.00    -0.025 A 
ATOM      2  C   UNL     1     -32.149  10.432 -32.170  1.00  0.00     0.012 A 
ATOM      3  C   UNL     1     -34.003  11.913 -32.642  1.00  0.00     0.012 A 
ATOM      4  C   UNL     1     -31.893  11.126 -30.984  1.00  0.00     0.047 A 
ATOM      5  C   UNL     1     -33.746  12.608 -31.456  1.00  0.00     0.047 A 
ATOM      6  C   UNL     1     -32.694  12.222 -30.618  1.00  0.00     0.118 A 
ENDROOT
BRANCH   1   7
ATOM      7  C   UNL     1     -33.436  10.041 -34.258  1.00  0.00     0.010 C 
ATOM      8  C   UNL     1     -33.488  10.601 -35.474  1.00  0.00     0.025 C 
BRANCH   8   9
ATOM      9  C   UNL     1     -33.722   9.810 -36.695  1.00  0.00     0.064 C 
ATOM     10  O   UNL     1     -34.767   9.965 -37.382  1.00  0.00    -0.545 OA
ATOM     11  O   UNL     1     -32.777   8.875 -37.094  1.00  0.00    -0.545 OA
ENDBRANCH   8   9
ENDBRANCH   1   7
BRANCH   6  12
ATOM     12  O   UNL     1     -32.480  12.951 -29.439  1.00  0.00    -0.497 OA
ATOM     13  C   UNL     1     -32.830  12.495 -28.136  1.00  0.00     0.278 C 
ENDBRANCH   6  12
TORSDOF 3
ENDMDL
MODEL 8
REMARK VINA RESULT:    -3.740     16.834     19.024
REMARK INTER + INTRA:          -4.550
REMARK INTER:                  -4.391
REMARK INTRA:                  -0.159
REMARK UNBOUND:                -0.154
REMARK SMILES COc1ccc(C=CC(=O)[O-])cc1
REMARK SMILES IDX 6 1 5 2 12 3 4 4 13 5 3 6 7 7 8 8 9 9 10 10 11 11 2 12 1 13
REMARK H PARENT
REMARK Flexibility Score: inf
ROOT
ATOM      1  C   UNL     1     -24.053  25.396 -31.002  1.00  0.00    -0.025 A 
ATOM      2  C   UNL     1     -23.148  24.700 -30.186  1.00  0.00     0.012 A 
ATOM      3  C   UNL     1     -23.936  26.795 -31.105  1.00  0.00     0.012 A 
ATOM      4  C   UNL     1     -22.163  25.383 -29.467  1.00  0.00     0.047 A 
ATOM      5  C   UNL     1     -22.949  27.477 -30.387  1.00  0.00     0.047 A 
ATOM      6  C   UNL     1     -22.058  26.782 -29.562  1.00  0.00     0.118 A 
ENDROOT
BRANCH   1   7
ATOM      7  C   UNL     1     -25.075  24.621 -31.751  1.00  0.00     0.010 C 
ATOM      8  C   UNL     1     -26.268  24.278 -31.246  1.00  0.00     0.025 C 
BRANCH   8   9
ATOM      9  C   UNL     1     -27.253  23.499 -32.015  1.00  0.00     0.064 C 
ATOM     10  O   UNL     1     -27.238  23.491 -33.275  1.00  0.00    -0.545 OA
ATOM     11  O   UNL     1     -28.217  22.763 -31.340  1.00  0.00    -0.545 OA
ENDBRANCH   8   9
ENDBRANCH   1   7
BRANCH   6  12
ATOM     12  O   UNL     1     -21.089  27.514 -28.862  1.00  0.00    -0.497 OA
ATOM     13  C   UNL     1     -21.345  28.734 -28.173  1.00  0.00     0.278 C 
ENDBRANCH   6  12
TORSDOF 3
ENDMDL
MODEL 9
REMARK VINA RESULT:    -3.468     17.642     18.784
REMARK INTER + INTRA:          -4.230
REMARK INTER:                  -4.071
REMARK INTRA:                  -0.159
REMARK UNBOUND:                -0.154
REMARK SMILES COc1ccc(C=CC(=O)[O-])cc1
REMARK SMILES IDX 6 1 5 2 12 3 4 4 13 5 3 6 7 7 8 8 9 9 10 10 11 11 2 12 1 13
REMARK H PARENT
REMARK Flexibility Score: inf
ROOT
ATOM      1  C   UNL     1     -23.774  25.920 -32.388  1.00  0.00    -0.025 A 
ATOM      2  C   UNL     1     -23.334  27.243 -32.221  1.00  0.00     0.012 A 
ATOM      3  C   UNL     1     -23.881  25.401 -33.692  1.00  0.00     0.012 A 
ATOM      4  C   UNL     1     -23.032  28.040 -33.329  1.00  0.00     0.047 A 
ATOM      5  C   UNL     1     -23.577  26.199 -34.800  1.00  0.00     0.047 A 
ATOM      6  C   UNL     1     -23.154  27.521 -34.630  1.00  0.00     0.118 A 
ENDROOT
BRANCH   1   7
ATOM      7  C   UNL     1     -24.073  25.113 -31.178  1.00  0.00     0.010 C 
ATOM      8  C   UNL     1     -23.133  24.574 -30.391  1.00  0.00     0.025 C 
BRANCH   8   9
ATOM      9  C   UNL     1     -23.468  23.769 -29.204  1.00  0.00     0.064 C 
ATOM     10  O   UNL     1     -24.644  23.727 -28.755  1.00  0.00    -0.545 OA
ATOM     11  O   UNL     1     -22.469  23.044 -28.567  1.00  0.00    -0.545 OA
ENDBRANCH   8   9
ENDBRANCH   1   7
BRANCH   6  12
ATOM     12  O   UNL     1     -22.865  28.280 -35.774  1.00  0.00    -0.497 OA
ATOM     13  C   UNL     1     -23.836  28.994 -36.532  1.00  0.00     0.278 C 
ENDBRANCH   6  12
TORSDOF 3
ENDMDL
