MODEL 1
REMARK VINA RESULT:    -6.975      0.000      0.000
REMARK INTER + INTRA:          -8.697
REMARK INTER:                  -8.402
REMARK INTRA:                  -0.295
REMARK UNBOUND:                -0.295
REMARK SMILES O=c1c(O)c(-c2ccc(O)c(O)c2)oc2cc(O)cc(O)c12
REMARK SMILES IDX 5 1 3 2 2 3 1 4 22 5 20 6 19 7 17 8 16 9 15 10 14 11 6 12
REMARK SMILES IDX 7 13 8 14 9 15 13 16 11 17 10 18 12 20 4 22 21 24 18 26
REMARK H PARENT 10 19 12 21 4 23 21 25 18 27
REMARK Flexibility Score: inf
ROOT
ATOM      1  C   UNL     1      32.893  42.984  84.605  1.00  0.00     0.180 A 
ATOM      2  C   UNL     1      33.330  43.231  85.917  1.00  0.00     0.208 A 
ATOM      3  C   UNL     1      34.305  42.392  86.480  1.00  0.00     0.238 A 
ATOM      4  O   UNL     1      34.745  42.663  87.627  1.00  0.00    -0.285 OA
ATOM      5  C   UNL     1      34.792  41.284  85.745  1.00  0.00     0.111 A 
ATOM      6  C   UNL     1      35.747  40.341  86.233  1.00  0.00     0.134 A 
ATOM      7  C   UNL     1      36.233  39.345  85.376  1.00  0.00     0.093 A 
ATOM      8  C   UNL     1      35.754  39.216  84.074  1.00  0.00     0.123 A 
ATOM      9  C   UNL     1      34.779  40.099  83.605  1.00  0.00     0.094 A 
ATOM     10  C   UNL     1      34.303  41.126  84.421  1.00  0.00     0.146 A 
ATOM     11  O   UNL     1      33.391  41.956  83.927  1.00  0.00    -0.452 OA
ENDROOT
BRANCH   1  12
ATOM     12  C   UNL     1      31.879  43.832  83.938  1.00  0.00     0.025 A 
ATOM     13  C   UNL     1      32.267  45.059  83.380  1.00  0.00     0.016 A 
ATOM     14  C   UNL     1      31.323  45.884  82.765  1.00  0.00     0.051 A 
ATOM     15  C   UNL     1      29.976  45.511  82.708  1.00  0.00     0.157 A 
ATOM     16  C   UNL     1      30.523  43.463  83.903  1.00  0.00     0.062 A 
ATOM     17  C   UNL     1      29.570  44.287  83.291  1.00  0.00     0.158 A 
BRANCH  15  18
ATOM     18  O   UNL     1      29.085  46.377  82.071  1.00  0.00    -0.504 OA
ATOM     19  H   UNL     1      28.082  46.342  82.188  1.00  0.00     0.293 HD
ENDBRANCH  15  18
BRANCH  17  20
ATOM     20  O   UNL     1      28.241  43.857  83.291  1.00  0.00    -0.504 OA
ATOM     21  H   UNL     1      27.492  44.338  83.767  1.00  0.00     0.293 HD
ENDBRANCH  17  20
ENDBRANCH   1  12
BRANCH   2  22
ATOM     22  O   UNL     1      32.782  44.284  86.655  1.00  0.00    -0.502 OA
ATOM     23  H   UNL     1      33.147  45.227  86.610  1.00  0.00     0.293 HD
ENDBRANCH   2  22
BRANCH   6  24
ATOM     24  O   UNL     1      36.229  40.322  87.545  1.00  0.00    -0.507 OA
ATOM     25  H   UNL     1      36.348  39.493  88.104  1.00  0.00     0.293 HD
ENDBRANCH   6  24
BRANCH   8  26
ATOM     26  O   UNL     1      36.248  38.203  83.256  1.00  0.00    -0.508 OA
ATOM     27  H   UNL     1      37.023  38.363  82.622  1.00  0.00     0.293 HD
ENDBRANCH   8  26
TORSDOF 6
ENDMDL
MODEL 2
REMARK VINA RESULT:    -6.885      1.950      6.971
REMARK INTER + INTRA:          -8.589
REMARK INTER:                  -8.281
REMARK INTRA:                  -0.308
REMARK UNBOUND:                -0.295
REMARK SMILES O=c1c(O)c(-c2ccc(O)c(O)c2)oc2cc(O)cc(O)c12
REMARK SMILES IDX 5 1 3 2 2 3 1 4 22 5 20 6 19 7 17 8 16 9 15 10 14 11 6 12
REMARK SMILES IDX 7 13 8 14 9 15 13 16 11 17 10 18 12 20 4 22 21 24 18 26
REMARK H PARENT 10 19 12 21 4 23 21 25 18 27
REMARK Flexibility Score: inf
ROOT
ATOM      1  C   UNL     1      33.182  43.002  83.641  1.00  0.00     0.180 A 
ATOM      2  C   UNL     1      31.779  43.074  83.656  1.00  0.00     0.208 A 
ATOM      3  C   UNL     1      31.156  44.294  83.347  1.00  0.00     0.238 A 
ATOM      4  O   UNL     1      29.900  44.333  83.289  1.00  0.00    -0.285 OA
ATOM      5  C   UNL     1      31.944  45.440  83.080  1.00  0.00     0.111 A 
ATOM      6  C   UNL     1      31.420  46.739  82.798  1.00  0.00     0.134 A 
ATOM      7  C   UNL     1      32.295  47.774  82.445  1.00  0.00     0.093 A 
ATOM      8  C   UNL     1      33.675  47.578  82.426  1.00  0.00     0.123 A 
ATOM      9  C   UNL     1      34.201  46.326  82.753  1.00  0.00     0.094 A 
ATOM     10  C   UNL     1      33.353  45.263  83.071  1.00  0.00     0.146 A 
ATOM     11  O   UNL     1      33.894  44.085  83.355  1.00  0.00    -0.452 OA
ENDROOT
BRANCH   1  12
ATOM     12  C   UNL     1      33.910  41.748  83.942  1.00  0.00     0.025 A 
ATOM     13  C   UNL     1      34.317  40.918  82.888  1.00  0.00     0.016 A 
ATOM     14  C   UNL     1      34.987  39.721  83.150  1.00  0.00     0.051 A 
ATOM     15  C   UNL     1      35.250  39.322  84.465  1.00  0.00     0.157 A 
ATOM     16  C   UNL     1      34.151  41.340  85.265  1.00  0.00     0.062 A 
ATOM     17  C   UNL     1      34.820  40.140  85.537  1.00  0.00     0.158 A 
BRANCH  15  18
ATOM     18  O   UNL     1      35.930  38.118  84.658  1.00  0.00    -0.504 OA
ATOM     19  H   UNL     1      36.239  37.783  85.559  1.00  0.00     0.293 HD
ENDBRANCH  15  18
BRANCH  17  20
ATOM     20  O   UNL     1      35.027  39.798  86.875  1.00  0.00    -0.504 OA
ATOM     21  H   UNL     1      35.651  39.065  87.181  1.00  0.00     0.293 HD
ENDBRANCH  17  20
ENDBRANCH   1  12
BRANCH   2  22
ATOM     22  O   UNL     1      31.019  41.951  83.996  1.00  0.00    -0.502 OA
ATOM     23  H   UNL     1      30.302  41.575  83.389  1.00  0.00     0.293 HD
ENDBRANCH   2  22
BRANCH   6  24
ATOM     24  O   UNL     1      30.064  47.070  82.875  1.00  0.00    -0.507 OA
ATOM     25  H   UNL     1      29.565  47.620  82.194  1.00  0.00     0.293 HD
ENDBRANCH   6  24
BRANCH   8  26
ATOM     26  O   UNL     1      34.516  48.635  82.087  1.00  0.00    -0.508 OA
ATOM     27  H   UNL     1      34.749  48.839  81.122  1.00  0.00     0.293 HD
ENDBRANCH   8  26
TORSDOF 6
ENDMDL
MODEL 3
REMARK VINA RESULT:    -6.709      1.814      3.055
REMARK INTER + INTRA:          -8.377
REMARK INTER:                  -8.062
REMARK INTRA:                  -0.315
REMARK UNBOUND:                -0.295
REMARK SMILES O=c1c(O)c(-c2ccc(O)c(O)c2)oc2cc(O)cc(O)c12
REMARK SMILES IDX 5 1 3 2 2 3 1 4 22 5 20 6 19 7 17 8 16 9 15 10 14 11 6 12
REMARK SMILES IDX 7 13 8 14 9 15 13 16 11 17 10 18 12 20 4 22 21 24 18 26
REMARK H PARENT 10 19 12 21 4 23 21 25 18 27
REMARK Flexibility Score: inf
ROOT
ATOM      1  C   UNL     1      32.116  43.067  84.544  1.00  0.00     0.180 A 
ATOM      2  C   UNL     1      32.240  42.400  83.314  1.00  0.00     0.208 A 
ATOM      3  C   UNL     1      33.204  41.387  83.182  1.00  0.00     0.238 A 
ATOM      4  O   UNL     1      33.259  40.744  82.102  1.00  0.00    -0.285 OA
ATOM      5  C   UNL     1      34.068  41.090  84.264  1.00  0.00     0.111 A 
ATOM      6  C   UNL     1      35.110  40.115  84.228  1.00  0.00     0.134 A 
ATOM      7  C   UNL     1      35.833  39.834  85.394  1.00  0.00     0.093 A 
ATOM      8  C   UNL     1      35.598  40.535  86.576  1.00  0.00     0.123 A 
ATOM      9  C   UNL     1      34.618  41.529  86.607  1.00  0.00     0.094 A 
ATOM     10  C   UNL     1      33.854  41.806  85.472  1.00  0.00     0.146 A 
ATOM     11  O   UNL     1      32.919  42.745  85.552  1.00  0.00    -0.452 OA
ENDROOT
BRANCH   1  12
ATOM     12  C   UNL     1      31.115  44.135  84.765  1.00  0.00     0.025 A 
ATOM     13  C   UNL     1      31.428  45.456  84.413  1.00  0.00     0.016 A 
ATOM     14  C   UNL     1      30.506  46.482  84.631  1.00  0.00     0.051 A 
ATOM     15  C   UNL     1      29.264  46.215  85.216  1.00  0.00     0.157 A 
ATOM     16  C   UNL     1      29.877  43.865  85.373  1.00  0.00     0.062 A 
ATOM     17  C   UNL     1      28.948  44.889  85.598  1.00  0.00     0.158 A 
BRANCH  15  18
ATOM     18  O   UNL     1      28.385  47.284  85.399  1.00  0.00    -0.504 OA
ATOM     19  H   UNL     1      28.589  48.235  85.128  1.00  0.00     0.293 HD
ENDBRANCH  15  18
BRANCH  17  20
ATOM     20  O   UNL     1      27.737  44.549  86.206  1.00  0.00    -0.504 OA
ATOM     21  H   UNL     1      26.965  44.115  85.722  1.00  0.00     0.293 HD
ENDBRANCH  17  20
ENDBRANCH   1  12
BRANCH   2  22
ATOM     22  O   UNL     1      31.429  42.759  82.234  1.00  0.00    -0.502 OA
ATOM     23  H   UNL     1      31.069  43.697  82.112  1.00  0.00     0.293 HD
ENDBRANCH   2  22
BRANCH   6  24
ATOM     24  O   UNL     1      35.490  39.417  83.077  1.00  0.00    -0.507 OA
ATOM     25  H   UNL     1      34.880  39.201  82.305  1.00  0.00     0.293 HD
ENDBRANCH   6  24
BRANCH   8  26
ATOM     26  O   UNL     1      36.348  40.240  87.711  1.00  0.00    -0.508 OA
ATOM     27  H   UNL     1      36.591  40.955  88.387  1.00  0.00     0.293 HD
ENDBRANCH   8  26
TORSDOF 6
ENDMDL
MODEL 4
REMARK VINA RESULT:    -6.646      1.958      6.651
REMARK INTER + INTRA:          -8.302
REMARK INTER:                  -7.982
REMARK INTRA:                  -0.320
REMARK UNBOUND:                -0.295
REMARK SMILES O=c1c(O)c(-c2ccc(O)c(O)c2)oc2cc(O)cc(O)c12
REMARK SMILES IDX 5 1 3 2 2 3 1 4 22 5 20 6 19 7 17 8 16 9 15 10 14 11 6 12
REMARK SMILES IDX 7 13 8 14 9 15 13 16 11 17 10 18 12 20 4 22 21 24 18 26
REMARK H PARENT 10 19 12 21 4 23 21 25 18 27
REMARK Flexibility Score: inf
ROOT
ATOM      1  C   UNL     1      33.038  42.128  85.591  1.00  0.00     0.180 A 
ATOM      2  C   UNL     1      32.956  42.553  86.928  1.00  0.00     0.208 A 
ATOM      3  C   UNL     1      31.827  43.279  87.343  1.00  0.00     0.238 A 
ATOM      4  O   UNL     1      31.726  43.592  88.558  1.00  0.00    -0.285 OA
ATOM      5  C   UNL     1      30.821  43.617  86.406  1.00  0.00     0.111 A 
ATOM      6  C   UNL     1      29.657  44.387  86.706  1.00  0.00     0.134 A 
ATOM      7  C   UNL     1      28.677  44.569  85.722  1.00  0.00     0.093 A 
ATOM      8  C   UNL     1      28.847  44.066  84.433  1.00  0.00     0.123 A 
ATOM      9  C   UNL     1      30.008  43.359  84.113  1.00  0.00     0.094 A 
ATOM     10  C   UNL     1      30.985  43.127  85.083  1.00  0.00     0.146 A 
ATOM     11  O   UNL     1      32.063  42.432  84.742  1.00  0.00    -0.452 OA
ENDROOT
BRANCH   1  12
ATOM     12  C   UNL     1      34.188  41.347  85.082  1.00  0.00     0.025 A 
ATOM     13  C   UNL     1      34.136  39.946  85.110  1.00  0.00     0.016 A 
ATOM     14  C   UNL     1      35.218  39.190  84.654  1.00  0.00     0.051 A 
ATOM     15  C   UNL     1      36.375  39.814  84.175  1.00  0.00     0.157 A 
ATOM     16  C   UNL     1      35.357  41.978  84.623  1.00  0.00     0.062 A 
ATOM     17  C   UNL     1      36.448  41.228  84.167  1.00  0.00     0.158 A 
BRANCH  15  18
ATOM     18  O   UNL     1      37.417  39.001  83.726  1.00  0.00    -0.504 OA
ATOM     19  H   UNL     1      37.869  38.298  84.293  1.00  0.00     0.293 HD
ENDBRANCH  15  18
BRANCH  17  20
ATOM     20  O   UNL     1      37.576  41.921  83.724  1.00  0.00    -0.504 OA
ATOM     21  H   UNL     1      38.396  42.087  84.290  1.00  0.00     0.293 HD
ENDBRANCH  17  20
ENDBRANCH   1  12
BRANCH   2  22
ATOM     22  O   UNL     1      33.995  42.275  87.820  1.00  0.00    -0.502 OA
ATOM     23  H   UNL     1      34.023  41.430  88.376  1.00  0.00     0.293 HD
ENDBRANCH   2  22
BRANCH   6  24
ATOM     24  O   UNL     1      29.426  45.011  87.936  1.00  0.00    -0.507 OA
ATOM     25  H   UNL     1      28.787  44.679  88.641  1.00  0.00     0.293 HD
ENDBRANCH   6  24
BRANCH   8  26
ATOM     26  O   UNL     1      27.860  44.281  83.475  1.00  0.00    -0.508 OA
ATOM     27  H   UNL     1      27.958  43.940  82.525  1.00  0.00     0.293 HD
ENDBRANCH   8  26
TORSDOF 6
ENDMDL
MODEL 5
REMARK VINA RESULT:    -6.616      2.063      7.178
REMARK INTER + INTRA:          -8.266
REMARK INTER:                  -7.937
REMARK INTRA:                  -0.329
REMARK UNBOUND:                -0.295
REMARK SMILES O=c1c(O)c(-c2ccc(O)c(O)c2)oc2cc(O)cc(O)c12
REMARK SMILES IDX 5 1 3 2 2 3 1 4 22 5 20 6 19 7 17 8 16 9 15 10 14 11 6 12
REMARK SMILES IDX 7 13 8 14 9 15 13 16 11 17 10 18 12 20 4 22 21 24 18 26
REMARK H PARENT 10 19 12 21 4 23 21 25 18 27
REMARK Flexibility Score: inf
ROOT
ATOM      1  C   UNL     1      33.063  42.308  84.559  1.00  0.00     0.180 A 
ATOM      2  C   UNL     1      32.574  42.727  83.310  1.00  0.00     0.208 A 
ATOM      3  C   UNL     1      31.434  43.546  83.266  1.00  0.00     0.238 A 
ATOM      4  O   UNL     1      31.045  43.978  82.149  1.00  0.00    -0.285 OA
ATOM      5  C   UNL     1      30.766  43.892  84.466  1.00  0.00     0.111 A 
ATOM      6  C   UNL     1      29.577  44.680  84.535  1.00  0.00     0.134 A 
ATOM      7  C   UNL     1      29.065  45.046  85.787  1.00  0.00     0.093 A 
ATOM      8  C   UNL     1      29.658  44.602  86.967  1.00  0.00     0.123 A 
ATOM      9  C   UNL     1      30.789  43.786  86.909  1.00  0.00     0.094 A 
ATOM     10  C   UNL     1      31.346  43.435  85.678  1.00  0.00     0.146 A 
ATOM     11  O   UNL     1      32.435  42.674  85.670  1.00  0.00    -0.452 OA
ENDROOT
BRANCH   1  12
ATOM     12  C   UNL     1      34.267  41.456  84.688  1.00  0.00     0.025 A 
ATOM     13  C   UNL     1      34.126  40.061  84.691  1.00  0.00     0.016 A 
ATOM     14  C   UNL     1      35.246  39.238  84.831  1.00  0.00     0.051 A 
ATOM     15  C   UNL     1      36.523  39.789  84.987  1.00  0.00     0.157 A 
ATOM     16  C   UNL     1      35.544  42.014  84.867  1.00  0.00     0.062 A 
ATOM     17  C   UNL     1      36.673  41.196  85.012  1.00  0.00     0.158 A 
BRANCH  15  18
ATOM     18  O   UNL     1      37.601  38.912  85.115  1.00  0.00    -0.504 OA
ATOM     19  H   UNL     1      38.554  39.208  85.271  1.00  0.00     0.293 HD
ENDBRANCH  15  18
BRANCH  17  20
ATOM     20  O   UNL     1      37.911  41.819  85.184  1.00  0.00    -0.504 OA
ATOM     21  H   UNL     1      38.229  42.211  86.058  1.00  0.00     0.293 HD
ENDBRANCH  17  20
ENDBRANCH   1  12
BRANCH   2  22
ATOM     22  O   UNL     1      33.202  42.313  82.133  1.00  0.00    -0.502 OA
ATOM     23  H   UNL     1      33.120  42.825  81.263  1.00  0.00     0.293 HD
ENDBRANCH   2  22
BRANCH   6  24
ATOM     24  O   UNL     1      28.851  45.104  83.418  1.00  0.00    -0.507 OA
ATOM     25  H   UNL     1      29.179  45.769  82.736  1.00  0.00     0.293 HD
ENDBRANCH   6  24
BRANCH   8  26
ATOM     26  O   UNL     1      29.111  44.971  88.193  1.00  0.00    -0.508 OA
ATOM     27  H   UNL     1      28.174  44.692  88.463  1.00  0.00     0.293 HD
ENDBRANCH   8  26
TORSDOF 6
ENDMDL
MODEL 6
REMARK VINA RESULT:    -6.584      1.735      2.246
REMARK INTER + INTRA:          -8.227
REMARK INTER:                  -8.038
REMARK INTRA:                  -0.189
REMARK UNBOUND:                -0.295
REMARK SMILES O=c1c(O)c(-c2ccc(O)c(O)c2)oc2cc(O)cc(O)c12
REMARK SMILES IDX 5 1 3 2 2 3 1 4 22 5 20 6 19 7 17 8 16 9 15 10 14 11 6 12
REMARK SMILES IDX 7 13 8 14 9 15 13 16 11 17 10 18 12 20 4 22 21 24 18 26
REMARK H PARENT 10 19 12 21 4 23 21 25 18 27
REMARK Flexibility Score: inf
ROOT
ATOM      1  C   UNL     1      33.032  42.709  85.197  1.00  0.00     0.180 A 
ATOM      2  C   UNL     1      34.107  43.541  85.551  1.00  0.00     0.208 A 
ATOM      3  C   UNL     1      35.419  43.069  85.382  1.00  0.00     0.238 A 
ATOM      4  O   UNL     1      36.376  43.847  85.631  1.00  0.00    -0.285 OA
ATOM      5  C   UNL     1      35.639  41.752  84.912  1.00  0.00     0.111 A 
ATOM      6  C   UNL     1      36.925  41.154  84.744  1.00  0.00     0.134 A 
ATOM      7  C   UNL     1      37.024  39.880  84.172  1.00  0.00     0.093 A 
ATOM      8  C   UNL     1      35.885  39.156  83.821  1.00  0.00     0.123 A 
ATOM      9  C   UNL     1      34.621  39.709  84.032  1.00  0.00     0.094 A 
ATOM     10  C   UNL     1      34.491  40.993  84.564  1.00  0.00     0.146 A 
ATOM     11  O   UNL     1      33.270  41.489  84.729  1.00  0.00    -0.452 OA
ENDROOT
BRANCH   1  12
ATOM     12  C   UNL     1      31.622  43.140  85.334  1.00  0.00     0.025 A 
ATOM     13  C   UNL     1      31.076  43.314  86.613  1.00  0.00     0.016 A 
ATOM     14  C   UNL     1      29.743  43.701  86.765  1.00  0.00     0.051 A 
ATOM     15  C   UNL     1      28.926  43.907  85.647  1.00  0.00     0.157 A 
ATOM     16  C   UNL     1      30.800  43.324  84.209  1.00  0.00     0.062 A 
ATOM     17  C   UNL     1      29.461  43.709  84.352  1.00  0.00     0.158 A 
BRANCH  15  18
ATOM     18  O   UNL     1      27.605  44.301  85.868  1.00  0.00    -0.504 OA
ATOM     19  H   UNL     1      26.801  43.795  85.525  1.00  0.00     0.293 HD
ENDBRANCH  15  18
BRANCH  17  20
ATOM     20  O   UNL     1      28.703  43.875  83.191  1.00  0.00    -0.504 OA
ATOM     21  H   UNL     1      27.905  44.489  83.120  1.00  0.00     0.293 HD
ENDBRANCH  17  20
ENDBRANCH   1  12
BRANCH   2  22
ATOM     22  O   UNL     1      33.868  44.811  86.085  1.00  0.00    -0.502 OA
ATOM     23  H   UNL     1      34.090  45.049  87.043  1.00  0.00     0.293 HD
ENDBRANCH   2  22
BRANCH   6  24
ATOM     24  O   UNL     1      38.125  41.751  85.142  1.00  0.00    -0.507 OA
ATOM     25  H   UNL     1      38.228  42.369  85.931  1.00  0.00     0.293 HD
ENDBRANCH   6  24
BRANCH   8  26
ATOM     26  O   UNL     1      36.021  37.884  83.270  1.00  0.00    -0.508 OA
ATOM     27  H   UNL     1      36.844  37.621  82.739  1.00  0.00     0.293 HD
ENDBRANCH   8  26
TORSDOF 6
ENDMDL
MODEL 7
REMARK VINA RESULT:    -6.534      1.825      6.507
REMARK INTER + INTRA:          -8.167
REMARK INTER:                  -7.853
REMARK INTRA:                  -0.314
REMARK UNBOUND:                -0.295
REMARK SMILES O=c1c(O)c(-c2ccc(O)c(O)c2)oc2cc(O)cc(O)c12
REMARK SMILES IDX 5 1 3 2 2 3 1 4 22 5 20 6 19 7 17 8 16 9 15 10 14 11 6 12
REMARK SMILES IDX 7 13 8 14 9 15 13 16 11 17 10 18 12 20 4 22 21 24 18 26
REMARK H PARENT 10 19 12 21 4 23 21 25 18 27
REMARK Flexibility Score: inf
ROOT
ATOM      1  C   UNL     1      33.354  42.221  85.644  1.00  0.00     0.180 A 
ATOM      2  C   UNL     1      33.178  42.602  86.985  1.00  0.00     0.208 A 
ATOM      3  C   UNL     1      31.979  43.227  87.364  1.00  0.00     0.238 A 
ATOM      4  O   UNL     1      31.798  43.498  88.579  1.00  0.00    -0.285 OA
ATOM      5  C   UNL     1      30.992  43.511  86.388  1.00  0.00     0.111 A 
ATOM      6  C   UNL     1      29.759  44.180  86.651  1.00  0.00     0.134 A 
ATOM      7  C   UNL     1      28.813  44.312  85.626  1.00  0.00     0.093 A 
ATOM      8  C   UNL     1      29.081  43.860  84.335  1.00  0.00     0.123 A 
ATOM      9  C   UNL     1      30.306  43.254  84.054  1.00  0.00     0.094 A 
ATOM     10  C   UNL     1      31.254  43.072  85.063  1.00  0.00     0.146 A 
ATOM     11  O   UNL     1      32.398  42.472  84.757  1.00  0.00    -0.452 OA
ENDROOT
BRANCH   1  12
ATOM     12  C   UNL     1      34.584  41.546  85.171  1.00  0.00     0.025 A 
ATOM     13  C   UNL     1      35.694  42.318  84.800  1.00  0.00     0.016 A 
ATOM     14  C   UNL     1      36.858  41.703  84.333  1.00  0.00     0.051 A 
ATOM     15  C   UNL     1      36.931  40.311  84.211  1.00  0.00     0.157 A 
ATOM     16  C   UNL     1      34.645  40.149  85.029  1.00  0.00     0.062 A 
ATOM     17  C   UNL     1      35.807  39.524  84.557  1.00  0.00     0.158 A 
BRANCH  15  18
ATOM     18  O   UNL     1      38.125  39.758  83.744  1.00  0.00    -0.504 OA
ATOM     19  H   UNL     1      38.176  39.038  83.039  1.00  0.00     0.293 HD
ENDBRANCH  15  18
BRANCH  17  20
ATOM     20  O   UNL     1      35.797  38.132  84.443  1.00  0.00    -0.504 OA
ATOM     21  H   UNL     1      36.612  37.550  84.571  1.00  0.00     0.293 HD
ENDBRANCH  17  20
ENDBRANCH   1  12
BRANCH   2  22
ATOM     22  O   UNL     1      34.195  42.382  87.918  1.00  0.00    -0.502 OA
ATOM     23  H   UNL     1      34.683  43.138  88.380  1.00  0.00     0.293 HD
ENDBRANCH   2  22
BRANCH   6  24
ATOM     24  O   UNL     1      29.424  44.750  87.883  1.00  0.00    -0.507 OA
ATOM     25  H   UNL     1      28.513  45.108  88.125  1.00  0.00     0.293 HD
ENDBRANCH   6  24
BRANCH   8  26
ATOM     26  O   UNL     1      28.124  44.024  83.337  1.00  0.00    -0.508 OA
ATOM     27  H   UNL     1      28.385  44.237  82.381  1.00  0.00     0.293 HD
ENDBRANCH   8  26
TORSDOF 6
ENDMDL
MODEL 8
REMARK VINA RESULT:    -6.532      2.862      4.623
REMARK INTER + INTRA:          -8.164
REMARK INTER:                  -7.895
REMARK INTRA:                  -0.269
REMARK UNBOUND:                -0.295
REMARK SMILES O=c1c(O)c(-c2ccc(O)c(O)c2)oc2cc(O)cc(O)c12
REMARK SMILES IDX 5 1 3 2 2 3 1 4 22 5 20 6 19 7 17 8 16 9 15 10 14 11 6 12
REMARK SMILES IDX 7 13 8 14 9 15 13 16 11 17 10 18 12 20 4 22 21 24 18 26
REMARK H PARENT 10 19 12 21 4 23 21 25 18 27
REMARK Flexibility Score: inf
ROOT
ATOM      1  C   UNL     1      32.233  42.566  86.316  1.00  0.00     0.180 A 
ATOM      2  C   UNL     1      31.785  42.964  85.045  1.00  0.00     0.208 A 
ATOM      3  C   UNL     1      32.350  42.366  83.907  1.00  0.00     0.238 A 
ATOM      4  O   UNL     1      31.893  42.673  82.775  1.00  0.00    -0.285 OA
ATOM      5  C   UNL     1      33.393  41.419  84.051  1.00  0.00     0.111 A 
ATOM      6  C   UNL     1      34.068  40.783  82.965  1.00  0.00     0.134 A 
ATOM      7  C   UNL     1      35.012  39.783  83.232  1.00  0.00     0.093 A 
ATOM      8  C   UNL     1      35.352  39.440  84.539  1.00  0.00     0.123 A 
ATOM      9  C   UNL     1      34.737  40.095  85.608  1.00  0.00     0.094 A 
ATOM     10  C   UNL     1      33.764  41.069  85.376  1.00  0.00     0.146 A 
ATOM     11  O   UNL     1      33.189  41.651  86.422  1.00  0.00    -0.452 OA
ENDROOT
BRANCH   1  12
ATOM     12  C   UNL     1      31.676  43.139  87.563  1.00  0.00     0.025 A 
ATOM     13  C   UNL     1      32.077  44.419  87.972  1.00  0.00     0.016 A 
ATOM     14  C   UNL     1      31.580  44.971  89.154  1.00  0.00     0.051 A 
ATOM     15  C   UNL     1      30.687  44.253  89.958  1.00  0.00     0.157 A 
ATOM     16  C   UNL     1      30.797  42.405  88.378  1.00  0.00     0.062 A 
ATOM     17  C   UNL     1      30.296  42.950  89.568  1.00  0.00     0.158 A 
BRANCH  15  18
ATOM     18  O   UNL     1      30.222  44.865  91.123  1.00  0.00    -0.504 OA
ATOM     19  H   UNL     1      30.503  44.593  92.055  1.00  0.00     0.293 HD
ENDBRANCH  15  18
BRANCH  17  20
ATOM     20  O   UNL     1      29.426  42.165  90.328  1.00  0.00    -0.504 OA
ATOM     21  H   UNL     1      28.420  42.198  90.247  1.00  0.00     0.293 HD
ENDBRANCH  17  20
ENDBRANCH   1  12
BRANCH   2  22
ATOM     22  O   UNL     1      30.809  43.956  84.921  1.00  0.00    -0.502 OA
ATOM     23  H   UNL     1      29.842  43.803  85.178  1.00  0.00     0.293 HD
ENDBRANCH   2  22
BRANCH   6  24
ATOM     24  O   UNL     1      33.871  41.110  81.621  1.00  0.00    -0.507 OA
ATOM     25  H   UNL     1      33.298  40.587  80.977  1.00  0.00     0.293 HD
ENDBRANCH   6  24
BRANCH   8  26
ATOM     26  O   UNL     1      36.307  38.453  84.766  1.00  0.00    -0.508 OA
ATOM     27  H   UNL     1      36.389  37.644  84.161  1.00  0.00     0.293 HD
ENDBRANCH   8  26
TORSDOF 6
ENDMDL
MODEL 9
REMARK VINA RESULT:    -6.479      6.636      9.413
REMARK INTER + INTRA:          -8.101
REMARK INTER:                  -7.783
REMARK INTRA:                  -0.318
REMARK UNBOUND:                -0.295
REMARK SMILES O=c1c(O)c(-c2ccc(O)c(O)c2)oc2cc(O)cc(O)c12
REMARK SMILES IDX 5 1 3 2 2 3 1 4 22 5 20 6 19 7 17 8 16 9 15 10 14 11 6 12
REMARK SMILES IDX 7 13 8 14 9 15 13 16 11 17 10 18 12 20 4 22 21 24 18 26
REMARK H PARENT 10 19 12 21 4 23 21 25 18 27
REMARK Flexibility Score: inf
ROOT
ATOM      1  C   UNL     1      25.376  44.684  84.231  1.00  0.00     0.180 A 
ATOM      2  C   UNL     1      24.868  45.368  85.348  1.00  0.00     0.208 A 
ATOM      3  C   UNL     1      23.973  44.703  86.204  1.00  0.00     0.238 A 
ATOM      4  O   UNL     1      23.580  45.295  87.242  1.00  0.00    -0.285 OA
ATOM      5  C   UNL     1      23.558  43.383  85.902  1.00  0.00     0.111 A 
ATOM      6  C   UNL     1      22.621  42.630  86.674  1.00  0.00     0.134 A 
ATOM      7  C   UNL     1      22.366  41.295  86.338  1.00  0.00     0.093 A 
ATOM      8  C   UNL     1      22.960  40.705  85.223  1.00  0.00     0.123 A 
ATOM      9  C   UNL     1      23.835  41.450  84.430  1.00  0.00     0.094 A 
ATOM     10  C   UNL     1      24.140  42.771  84.761  1.00  0.00     0.146 A 
ATOM     11  O   UNL     1      24.993  43.436  83.991  1.00  0.00    -0.452 OA
ENDROOT
BRANCH   1  12
ATOM     12  C   UNL     1      26.333  45.313  83.291  1.00  0.00     0.025 A 
ATOM     13  C   UNL     1      25.847  46.078  82.222  1.00  0.00     0.016 A 
ATOM     14  C   UNL     1      26.731  46.663  81.313  1.00  0.00     0.051 A 
ATOM     15  C   UNL     1      28.112  46.483  81.443  1.00  0.00     0.157 A 
ATOM     16  C   UNL     1      27.719  45.110  83.413  1.00  0.00     0.062 A 
ATOM     17  C   UNL     1      28.612  45.690  82.503  1.00  0.00     0.158 A 
BRANCH  15  18
ATOM     18  O   UNL     1      28.942  47.101  80.505  1.00  0.00    -0.504 OA
ATOM     19  H   UNL     1      29.938  47.217  80.622  1.00  0.00     0.293 HD
ENDBRANCH  15  18
BRANCH  17  20
ATOM     20  O   UNL     1      29.976  45.449  82.685  1.00  0.00    -0.504 OA
ATOM     21  H   UNL     1      30.702  45.852  82.111  1.00  0.00     0.293 HD
ENDBRANCH  17  20
ENDBRANCH   1  12
BRANCH   2  22
ATOM     22  O   UNL     1      25.231  46.696  85.587  1.00  0.00    -0.502 OA
ATOM     23  H   UNL     1      25.772  47.239  84.926  1.00  0.00     0.293 HD
ENDBRANCH   2  22
BRANCH   6  24
ATOM     24  O   UNL     1      21.902  43.147  87.756  1.00  0.00    -0.507 OA
ATOM     25  H   UNL     1      21.803  44.128  87.967  1.00  0.00     0.293 HD
ENDBRANCH   6  24
BRANCH   8  26
ATOM     26  O   UNL     1      22.670  39.380  84.909  1.00  0.00    -0.508 OA
ATOM     27  H   UNL     1      21.764  38.972  85.114  1.00  0.00     0.293 HD
ENDBRANCH   8  26
TORSDOF 6
ENDMDL
