MODEL 1
REMARK VINA RESULT:     2.975      0.000      0.000
REMARK INTER + INTRA:           4.868
REMARK INTER:                   5.583
REMARK INTRA:                  -0.715
REMARK UNBOUND:                -0.715
REMARK SMILES O=C([O-])CCCCCCCCCCCCCCC(=O)[O-]
REMARK SMILES IDX 10 1 9 2 8 3 7 4 6 5 5 6 4 7 2 8 1 9 3 10 11 11 12 12 13 13
REMARK SMILES IDX 14 14 15 15 16 16 17 17 18 18 19 19 20 20
REMARK H PARENT
REMARK Flexibility Score: inf
ROOT
ATOM      1  C   UNL     1     -17.258  33.383 -19.079  1.00  0.00     0.000 C 
ENDROOT
BRANCH   1   2
ATOM      2  C   UNL     1     -17.129  34.248 -20.339  1.00  0.00     0.000 C 
BRANCH   2   3
ATOM      3  C   UNL     1     -18.464  34.322 -21.094  1.00  0.00     0.000 C 
BRANCH   3   4
ATOM      4  C   UNL     1     -19.233  35.622 -20.812  1.00  0.00     0.000 C 
BRANCH   4   5
ATOM      5  C   UNL     1     -20.715  35.376 -20.486  1.00  0.00     0.000 C 
BRANCH   5   6
ATOM      6  C   UNL     1     -21.115  36.082 -19.183  1.00  0.00     0.006 C 
BRANCH   6   7
ATOM      7  C   UNL     1     -20.954  35.174 -17.957  1.00  0.00     0.053 C 
BRANCH   7   8
ATOM      8  C   UNL     1     -20.049  35.781 -16.929  1.00  0.00     0.041 C 
ATOM      9  O   UNL     1     -18.860  36.070 -17.225  1.00  0.00    -0.550 OA
ATOM     10  O   UNL     1     -20.528  36.060 -15.656  1.00  0.00    -0.550 OA
ENDBRANCH   7   8
ENDBRANCH   6   7
ENDBRANCH   5   6
ENDBRANCH   4   5
ENDBRANCH   3   4
ENDBRANCH   2   3
ENDBRANCH   1   2
BRANCH   1  11
ATOM     11  C   UNL     1     -15.985  32.557 -18.845  1.00  0.00     0.000 C 
BRANCH  11  12
ATOM     12  C   UNL     1     -14.801  33.043 -19.695  1.00  0.00     0.000 C 
BRANCH  12  13
ATOM     13  C   UNL     1     -13.978  34.137 -18.994  1.00  0.00     0.000 C 
BRANCH  13  14
ATOM     14  C   UNL     1     -14.639  35.522 -19.081  1.00  0.00     0.000 C 
BRANCH  14  15
ATOM     15  C   UNL     1     -15.098  36.044 -17.710  1.00  0.00     0.000 C 
BRANCH  15  16
ATOM     16  C   UNL     1     -13.935  36.056 -16.711  1.00  0.00     0.006 C 
BRANCH  16  17
ATOM     17  C   UNL     1     -14.082  34.931 -15.683  1.00  0.00     0.053 C 
BRANCH  17  18
ATOM     18  C   UNL     1     -13.087  35.099 -14.578  1.00  0.00     0.041 C 
ATOM     19  O   UNL     1     -12.360  36.125 -14.530  1.00  0.00    -0.550 OA
ATOM     20  O   UNL     1     -12.997  34.144 -13.572  1.00  0.00    -0.550 OA
ENDBRANCH  17  18
ENDBRANCH  16  17
ENDBRANCH  15  16
ENDBRANCH  14  15
ENDBRANCH  13  14
ENDBRANCH  12  13
ENDBRANCH  11  12
ENDBRANCH   1  11
TORSDOF 15
ENDMDL
MODEL 2
REMARK VINA RESULT:     3.502      1.073      6.490
REMARK INTER + INTRA:           5.857
REMARK INTER:                   6.704
REMARK INTRA:                  -0.847
REMARK UNBOUND:                -0.715
REMARK SMILES O=C([O-])CCCCCCCCCCCCCCC(=O)[O-]
REMARK SMILES IDX 10 1 9 2 8 3 7 4 6 5 5 6 4 7 2 8 1 9 3 10 11 11 12 12 13 13
REMARK SMILES IDX 14 14 15 15 16 16 17 17 18 18 19 19 20 20
REMARK H PARENT
REMARK Flexibility Score: inf
ROOT
ATOM      1  C   UNL     1     -17.135  34.535 -18.750  1.00  0.00     0.000 C 
ENDROOT
BRANCH   1   2
ATOM      2  C   UNL     1     -15.759  33.971 -18.372  1.00  0.00     0.000 C 
BRANCH   2   3
ATOM      3  C   UNL     1     -14.658  34.563 -19.264  1.00  0.00     0.000 C 
BRANCH   3   4
ATOM      4  C   UNL     1     -13.555  35.263 -18.456  1.00  0.00     0.000 C 
BRANCH   4   5
ATOM      5  C   UNL     1     -14.111  36.089 -17.285  1.00  0.00     0.000 C 
BRANCH   5   6
ATOM      6  C   UNL     1     -14.042  35.296 -15.972  1.00  0.00     0.006 C 
BRANCH   6   7
ATOM      7  C   UNL     1     -13.458  36.125 -14.821  1.00  0.00     0.053 C 
BRANCH   7   8
ATOM      8  C   UNL     1     -12.383  35.382 -14.088  1.00  0.00     0.041 C 
ATOM      9  O   UNL     1     -11.287  35.944 -13.830  1.00  0.00    -0.550 OA
ATOM     10  O   UNL     1     -12.607  34.080 -13.657  1.00  0.00    -0.550 OA
ENDBRANCH   7   8
ENDBRANCH   6   7
ENDBRANCH   5   6
ENDBRANCH   4   5
ENDBRANCH   3   4
ENDBRANCH   2   3
ENDBRANCH   1   2
BRANCH   1  11
ATOM     11  C   UNL     1     -17.970  33.491 -19.504  1.00  0.00     0.000 C 
BRANCH  11  12
ATOM     12  C   UNL     1     -18.812  34.109 -20.631  1.00  0.00     0.000 C 
BRANCH  12  13
ATOM     13  C   UNL     1     -20.325  33.996 -20.370  1.00  0.00     0.000 C 
BRANCH  13  14
ATOM     14  C   UNL     1     -21.008  35.367 -20.247  1.00  0.00     0.000 C 
BRANCH  14  15
ATOM     15  C   UNL     1     -20.586  36.125 -18.979  1.00  0.00     0.000 C 
BRANCH  15  16
ATOM     16  C   UNL     1     -20.643  35.211 -17.749  1.00  0.00     0.006 C 
BRANCH  16  17
ATOM     17  C   UNL     1     -21.125  35.979 -16.515  1.00  0.00     0.053 C 
BRANCH  17  18
ATOM     18  C   UNL     1     -20.082  35.952 -15.442  1.00  0.00     0.041 C 
ATOM     19  O   UNL     1     -18.865  36.076 -15.737  1.00  0.00    -0.550 OA
ATOM     20  O   UNL     1     -20.459  35.839 -14.109  1.00  0.00    -0.550 OA
ENDBRANCH  17  18
ENDBRANCH  16  17
ENDBRANCH  15  16
ENDBRANCH  14  15
ENDBRANCH  13  14
ENDBRANCH  12  13
ENDBRANCH  11  12
ENDBRANCH   1  11
TORSDOF 15
ENDMDL
MODEL 3
REMARK VINA RESULT:     5.133      1.597      2.599
REMARK INTER + INTRA:           8.920
REMARK INTER:                   6.417
REMARK INTRA:                   2.503
REMARK UNBOUND:                -0.715
REMARK SMILES O=C([O-])CCCCCCCCCCCCCCC(=O)[O-]
REMARK SMILES IDX 10 1 9 2 8 3 7 4 6 5 5 6 4 7 2 8 1 9 3 10 11 11 12 12 13 13
REMARK SMILES IDX 14 14 15 15 16 16 17 17 18 18 19 19 20 20
REMARK H PARENT
REMARK Flexibility Score: inf
ROOT
ATOM      1  C   UNL     1     -18.558  34.914 -19.557  1.00  0.00     0.000 C 
ENDROOT
BRANCH   1   2
ATOM      2  C   UNL     1     -18.781  33.608 -20.331  1.00  0.00     0.000 C 
BRANCH   2   3
ATOM      3  C   UNL     1     -20.246  33.157 -20.236  1.00  0.00     0.000 C 
BRANCH   3   4
ATOM      4  C   UNL     1     -21.025  33.902 -19.141  1.00  0.00     0.000 C 
BRANCH   4   5
ATOM      5  C   UNL     1     -20.922  35.429 -19.275  1.00  0.00     0.000 C 
BRANCH   5   6
ATOM      6  C   UNL     1     -20.992  36.107 -17.898  1.00  0.00     0.006 C 
BRANCH   6   7
ATOM      7  C   UNL     1     -21.125  35.092 -16.756  1.00  0.00     0.053 C 
BRANCH   7   8
ATOM      8  C   UNL     1     -20.425  35.555 -15.515  1.00  0.00     0.041 C 
ATOM      9  O   UNL     1     -19.305  36.124 -15.594  1.00  0.00    -0.550 OA
ATOM     10  O   UNL     1     -21.028  35.392 -14.274  1.00  0.00    -0.550 OA
ENDBRANCH   7   8
ENDBRANCH   6   7
ENDBRANCH   5   6
ENDBRANCH   4   5
ENDBRANCH   3   4
ENDBRANCH   2   3
ENDBRANCH   1   2
BRANCH   1  11
ATOM     11  C   UNL     1     -17.078  35.323 -19.584  1.00  0.00     0.000 C 
BRANCH  11  12
ATOM     12  C   UNL     1     -16.396  34.986 -20.919  1.00  0.00     0.000 C 
BRANCH  12  13
ATOM     13  C   UNL     1     -15.770  33.580 -20.925  1.00  0.00     0.000 C 
BRANCH  13  14
ATOM     14  C   UNL     1     -16.066  32.795 -19.637  1.00  0.00     0.000 C 
BRANCH  14  15
ATOM     15  C   UNL     1     -14.805  32.541 -18.797  1.00  0.00     0.000 C 
BRANCH  15  16
ATOM     16  C   UNL     1     -13.836  33.727 -18.889  1.00  0.00     0.006 C 
BRANCH  16  17
ATOM     17  C   UNL     1     -13.477  34.253 -17.497  1.00  0.00     0.053 C 
BRANCH  17  18
ATOM     18  C   UNL     1     -14.303  35.455 -17.163  1.00  0.00     0.041 C 
ATOM     19  O   UNL     1     -15.211  35.838 -17.946  1.00  0.00    -0.550 OA
ATOM     20  O   UNL     1     -14.103  36.124 -15.962  1.00  0.00    -0.550 OA
ENDBRANCH  17  18
ENDBRANCH  16  17
ENDBRANCH  15  16
ENDBRANCH  14  15
ENDBRANCH  13  14
ENDBRANCH  12  13
ENDBRANCH  11  12
ENDBRANCH   1  11
TORSDOF 15
ENDMDL
MODEL 4
REMARK VINA RESULT:     5.232      0.939      6.134
REMARK INTER + INTRA:           9.104
REMARK INTER:                   9.495
REMARK INTRA:                  -0.390
REMARK UNBOUND:                -0.715
REMARK SMILES O=C([O-])CCCCCCCCCCCCCCC(=O)[O-]
REMARK SMILES IDX 10 1 9 2 8 3 7 4 6 5 5 6 4 7 2 8 1 9 3 10 11 11 12 12 13 13
REMARK SMILES IDX 14 14 15 15 16 16 17 17 18 18 19 19 20 20
REMARK H PARENT
REMARK Flexibility Score: inf
ROOT
ATOM      1  C   UNL     1     -15.017  32.817 -18.986  1.00  0.00     0.000 C 
ENDROOT
BRANCH   1   2
ATOM      2  C   UNL     1     -13.869  33.626 -18.370  1.00  0.00     0.000 C 
BRANCH   2   3
ATOM      3  C   UNL     1     -13.676  34.958 -19.111  1.00  0.00     0.000 C 
BRANCH   3   4
ATOM      4  C   UNL     1     -14.550  36.085 -18.539  1.00  0.00     0.000 C 
BRANCH   4   5
ATOM      5  C   UNL     1     -14.902  35.870 -17.059  1.00  0.00     0.000 C 
BRANCH   5   6
ATOM      6  C   UNL     1     -13.681  36.123 -16.162  1.00  0.00     0.006 C 
BRANCH   6   7
ATOM      7  C   UNL     1     -13.900  35.626 -14.728  1.00  0.00     0.053 C 
BRANCH   7   8
ATOM      8  C   UNL     1     -12.650  35.046 -14.142  1.00  0.00     0.041 C 
ATOM      9  O   UNL     1     -12.689  33.948 -13.527  1.00  0.00    -0.550 OA
ATOM     10  O   UNL     1     -11.435  35.698 -14.307  1.00  0.00    -0.550 OA
ENDBRANCH   7   8
ENDBRANCH   6   7
ENDBRANCH   5   6
ENDBRANCH   4   5
ENDBRANCH   3   4
ENDBRANCH   2   3
ENDBRANCH   1   2
BRANCH   1  11
ATOM     11  C   UNL     1     -15.535  33.485 -20.268  1.00  0.00     0.000 C 
BRANCH  11  12
ATOM     12  C   UNL     1     -16.923  34.119 -20.085  1.00  0.00     0.000 C 
BRANCH  12  13
ATOM     13  C   UNL     1     -17.211  35.222 -21.118  1.00  0.00     0.000 C 
BRANCH  13  14
ATOM     14  C   UNL     1     -18.671  35.701 -21.079  1.00  0.00     0.000 C 
BRANCH  14  15
ATOM     15  C   UNL     1     -19.572  34.782 -20.241  1.00  0.00     0.000 C 
BRANCH  15  16
ATOM     16  C   UNL     1     -20.444  35.598 -19.278  1.00  0.00     0.006 C 
BRANCH  16  17
ATOM     17  C   UNL     1     -20.473  34.958 -17.887  1.00  0.00     0.053 C 
BRANCH  17  18
ATOM     18  C   UNL     1     -19.221  35.284 -17.136  1.00  0.00     0.041 C 
ATOM     19  O   UNL     1     -19.244  36.125 -16.199  1.00  0.00    -0.550 OA
ATOM     20  O   UNL     1     -18.036  34.623 -17.437  1.00  0.00    -0.550 OA
ENDBRANCH  17  18
ENDBRANCH  16  17
ENDBRANCH  15  16
ENDBRANCH  14  15
ENDBRANCH  13  14
ENDBRANCH  12  13
ENDBRANCH  11  12
ENDBRANCH   1  11
TORSDOF 15
ENDMDL
MODEL 5
REMARK VINA RESULT:     5.805      1.385      2.004
REMARK INTER + INTRA:          10.180
REMARK INTER:                  10.930
REMARK INTRA:                  -0.750
REMARK UNBOUND:                -0.715
REMARK SMILES O=C([O-])CCCCCCCCCCCCCCC(=O)[O-]
REMARK SMILES IDX 10 1 9 2 8 3 7 4 6 5 5 6 4 7 2 8 1 9 3 10 11 11 12 12 13 13
REMARK SMILES IDX 14 14 15 15 16 16 17 17 18 18 19 19 20 20
REMARK H PARENT
REMARK Flexibility Score: inf
ROOT
ATOM      1  C   UNL     1     -16.153  34.231 -19.365  1.00  0.00     0.000 C 
ENDROOT
BRANCH   1   2
ATOM      2  C   UNL     1     -16.459  34.266 -20.868  1.00  0.00     0.000 C 
BRANCH   2   3
ATOM      3  C   UNL     1     -17.968  34.405 -21.118  1.00  0.00     0.000 C 
BRANCH   3   4
ATOM      4  C   UNL     1     -18.495  35.811 -20.794  1.00  0.00     0.000 C 
BRANCH   4   5
ATOM      5  C   UNL     1     -20.002  35.956 -21.060  1.00  0.00     0.000 C 
BRANCH   5   6
ATOM      6  C   UNL     1     -20.789  36.009 -19.742  1.00  0.00     0.006 C 
BRANCH   6   7
ATOM      7  C   UNL     1     -20.239  35.033 -18.696  1.00  0.00     0.053 C 
BRANCH   7   8
ATOM      8  C   UNL     1     -19.654  35.750 -17.518  1.00  0.00     0.041 C 
ATOM      9  O   UNL     1     -18.437  36.072 -17.512  1.00  0.00    -0.550 OA
ATOM     10  O   UNL     1     -20.462  36.095 -16.442  1.00  0.00    -0.550 OA
ENDBRANCH   7   8
ENDBRANCH   6   7
ENDBRANCH   5   6
ENDBRANCH   4   5
ENDBRANCH   3   4
ENDBRANCH   2   3
ENDBRANCH   1   2
BRANCH   1  11
ATOM     11  C   UNL     1     -14.695  33.821 -19.110  1.00  0.00     0.000 C 
BRANCH  11  12
ATOM     12  C   UNL     1     -13.890  34.916 -18.393  1.00  0.00     0.000 C 
BRANCH  12  13
ATOM     13  C   UNL     1     -14.786  35.895 -17.614  1.00  0.00     0.000 C 
BRANCH  13  14
ATOM     14  C   UNL     1     -14.311  36.108 -16.168  1.00  0.00     0.000 C 
BRANCH  14  15
ATOM     15  C   UNL     1     -13.029  35.325 -15.845  1.00  0.00     0.000 C 
BRANCH  15  16
ATOM     16  C   UNL     1     -12.616  35.526 -14.382  1.00  0.00     0.006 C 
BRANCH  16  17
ATOM     17  C   UNL     1     -12.123  34.214 -13.765  1.00  0.00     0.053 C 
BRANCH  17  18
ATOM     18  C   UNL     1     -10.628  34.197 -13.700  1.00  0.00     0.041 C 
ATOM     19  O   UNL     1      -9.971  35.244 -13.936  1.00  0.00    -0.550 OA
ATOM     20  O   UNL     1      -9.961  33.036 -13.329  1.00  0.00    -0.550 OA
ENDBRANCH  17  18
ENDBRANCH  16  17
ENDBRANCH  15  16
ENDBRANCH  14  15
ENDBRANCH  13  14
ENDBRANCH  12  13
ENDBRANCH  11  12
ENDBRANCH   1  11
TORSDOF 15
ENDMDL
MODEL 6
REMARK VINA RESULT:     5.948      2.705      6.812
REMARK INTER + INTRA:          10.448
REMARK INTER:                  10.295
REMARK INTRA:                   0.153
REMARK UNBOUND:                -0.715
REMARK SMILES O=C([O-])CCCCCCCCCCCCCCC(=O)[O-]
REMARK SMILES IDX 10 1 9 2 8 3 7 4 6 5 5 6 4 7 2 8 1 9 3 10 11 11 12 12 13 13
REMARK SMILES IDX 14 14 15 15 16 16 17 17 18 18 19 19 20 20
REMARK H PARENT
REMARK Flexibility Score: inf
ROOT
ATOM      1  C   UNL     1     -16.288  35.802 -18.865  1.00  0.00     0.000 C 
ENDROOT
BRANCH   1   2
ATOM      2  C   UNL     1     -15.205  34.726 -18.707  1.00  0.00     0.000 C 
BRANCH   2   3
ATOM      3  C   UNL     1     -14.959  33.995 -20.035  1.00  0.00     0.000 C 
BRANCH   3   4
ATOM      4  C   UNL     1     -15.055  32.468 -19.896  1.00  0.00     0.000 C 
BRANCH   4   5
ATOM      5  C   UNL     1     -15.116  32.008 -18.431  1.00  0.00     0.000 C 
BRANCH   5   6
ATOM      6  C   UNL     1     -14.146  30.844 -18.179  1.00  0.00     0.006 C 
BRANCH   6   7
ATOM      7  C   UNL     1     -13.993  30.527 -16.687  1.00  0.00     0.053 C 
BRANCH   7   8
ATOM      8  C   UNL     1     -13.468  29.143 -16.462  1.00  0.00     0.041 C 
ATOM      9  O   UNL     1     -12.867  28.535 -17.387  1.00  0.00    -0.550 OA
ATOM     10  O   UNL     1     -13.610  28.537 -15.220  1.00  0.00    -0.550 OA
ENDBRANCH   7   8
ENDBRANCH   6   7
ENDBRANCH   5   6
ENDBRANCH   4   5
ENDBRANCH   3   4
ENDBRANCH   2   3
ENDBRANCH   1   2
BRANCH   1  11
ATOM     11  C   UNL     1     -17.023  35.650 -20.204  1.00  0.00     0.000 C 
BRANCH  11  12
ATOM     12  C   UNL     1     -18.505  36.046 -20.113  1.00  0.00     0.000 C 
BRANCH  12  13
ATOM     13  C   UNL     1     -19.431  35.042 -20.822  1.00  0.00     0.000 C 
BRANCH  13  14
ATOM     14  C   UNL     1     -19.849  33.878 -19.910  1.00  0.00     0.000 C 
BRANCH  14  15
ATOM     15  C   UNL     1     -20.927  34.283 -18.892  1.00  0.00     0.000 C 
BRANCH  15  16
ATOM     16  C   UNL     1     -20.918  35.798 -18.657  1.00  0.00     0.006 C 
BRANCH  16  17
ATOM     17  C   UNL     1     -21.061  36.124 -17.168  1.00  0.00     0.053 C 
BRANCH  17  18
ATOM     18  C   UNL     1     -19.808  35.766 -16.432  1.00  0.00     0.041 C 
ATOM     19  O   UNL     1     -18.868  35.180 -17.029  1.00  0.00    -0.550 OA
ATOM     20  O   UNL     1     -19.659  36.125 -15.098  1.00  0.00    -0.550 OA
ENDBRANCH  17  18
ENDBRANCH  16  17
ENDBRANCH  15  16
ENDBRANCH  14  15
ENDBRANCH  13  14
ENDBRANCH  12  13
ENDBRANCH  11  12
ENDBRANCH   1  11
TORSDOF 15
ENDMDL
