MODEL 1
REMARK VINA RESULT:    -3.242      0.000      0.000
REMARK INTER + INTRA:          -3.890
REMARK INTER:                  -3.811
REMARK INTRA:                  -0.079
REMARK UNBOUND:                -0.079
REMARK SMILES O=C([O-])CCC(=O)[O-]
REMARK SMILES IDX 4 1 2 2 1 3 3 4 5 5 6 6 7 7 8 8
REMARK H PARENT
REMARK Flexibility Score: inf
ROOT
ATOM      1  C   UNL     1      22.071   8.902  -5.996  1.00  0.00     0.059 C 
ENDROOT
BRANCH   1   2
ATOM      2  C   UNL     1      22.020  10.077  -6.923  1.00  0.00     0.042 C 
ATOM      3  O   UNL     1      22.965  10.293  -7.726  1.00  0.00    -0.550 OA
ATOM      4  O   UNL     1      20.947  10.958  -6.872  1.00  0.00    -0.550 OA
ENDBRANCH   1   2
BRANCH   1   5
ATOM      5  C   UNL     1      22.407   7.608  -6.744  1.00  0.00     0.059 C 
BRANCH   5   6
ATOM      6  C   UNL     1      21.220   6.698  -6.837  1.00  0.00     0.042 C 
ATOM      7  O   UNL     1      21.192   5.624  -6.180  1.00  0.00    -0.550 OA
ATOM      8  O   UNL     1      20.127   7.058  -7.615  1.00  0.00    -0.550 OA
ENDBRANCH   5   6
ENDBRANCH   1   5
TORSDOF 3
ENDMDL
MODEL 2
REMARK VINA RESULT:    -3.225      0.065      3.801
REMARK INTER + INTRA:          -3.869
REMARK INTER:                  -3.784
REMARK INTRA:                  -0.085
REMARK UNBOUND:                -0.079
REMARK SMILES O=C([O-])CCC(=O)[O-]
REMARK SMILES IDX 4 1 2 2 1 3 3 4 5 5 6 6 7 7 8 8
REMARK H PARENT
REMARK Flexibility Score: inf
ROOT
ATOM      1  C   UNL     1      22.434   7.615  -6.727  1.00  0.00     0.059 C 
ENDROOT
BRANCH   1   2
ATOM      2  C   UNL     1      21.220   6.740  -6.796  1.00  0.00     0.042 C 
ATOM      3  O   UNL     1      21.190   5.647  -6.171  1.00  0.00    -0.550 OA
ATOM      4  O   UNL     1      20.138   7.112  -7.582  1.00  0.00    -0.550 OA
ENDBRANCH   1   2
BRANCH   1   5
ATOM      5  C   UNL     1      22.153   8.909  -5.956  1.00  0.00     0.059 C 
BRANCH   5   6
ATOM      6  C   UNL     1      22.056  10.090  -6.873  1.00  0.00     0.042 C 
ATOM      7  O   UNL     1      22.931  10.278  -7.758  1.00  0.00    -0.550 OA
ATOM      8  O   UNL     1      20.976  10.958  -6.777  1.00  0.00    -0.550 OA
ENDBRANCH   5   6
ENDBRANCH   1   5
TORSDOF 3
ENDMDL
MODEL 3
REMARK VINA RESULT:    -3.189      1.391      4.057
REMARK INTER + INTRA:          -3.827
REMARK INTER:                  -3.709
REMARK INTRA:                  -0.119
REMARK UNBOUND:                -0.079
REMARK SMILES O=C([O-])CCC(=O)[O-]
REMARK SMILES IDX 4 1 2 2 1 3 3 4 5 5 6 6 7 7 8 8
REMARK H PARENT
REMARK Flexibility Score: inf
ROOT
ATOM      1  C   UNL     1      23.108   6.985  -6.358  1.00  0.00     0.059 C 
ENDROOT
BRANCH   1   2
ATOM      2  C   UNL     1      22.439   5.691  -6.011  1.00  0.00     0.042 C 
ATOM      3  O   UNL     1      21.198   5.554  -6.178  1.00  0.00    -0.550 OA
ATOM      4  O   UNL     1      23.178   4.649  -5.465  1.00  0.00    -0.550 OA
ENDBRANCH   1   2
BRANCH   1   5
ATOM      5  C   UNL     1      22.386   8.180  -5.727  1.00  0.00     0.059 C 
BRANCH   5   6
ATOM      6  C   UNL     1      21.685   9.011  -6.758  1.00  0.00     0.042 C 
ATOM      7  O   UNL     1      21.447  10.227  -6.537  1.00  0.00    -0.550 OA
ATOM      8  O   UNL     1      21.333   8.451  -7.980  1.00  0.00    -0.550 OA
ENDBRANCH   5   6
ENDBRANCH   1   5
TORSDOF 3
ENDMDL
MODEL 4
REMARK VINA RESULT:    -3.174      1.319      1.837
REMARK INTER + INTRA:          -3.810
REMARK INTER:                  -3.701
REMARK INTRA:                  -0.109
REMARK UNBOUND:                -0.079
REMARK SMILES O=C([O-])CCC(=O)[O-]
REMARK SMILES IDX 4 1 2 2 1 3 3 4 5 5 6 6 7 7 8 8
REMARK H PARENT
REMARK Flexibility Score: inf
ROOT
ATOM      1  C   UNL     1      22.776   9.089  -6.153  1.00  0.00     0.059 C 
ENDROOT
BRANCH   1   2
ATOM      2  C   UNL     1      21.834   9.737  -7.121  1.00  0.00     0.042 C 
ATOM      3  O   UNL     1      21.194  10.769  -6.788  1.00  0.00    -0.550 OA
ATOM      4  O   UNL     1      21.631   9.177  -8.376  1.00  0.00    -0.550 OA
ENDBRANCH   1   2
BRANCH   1   5
ATOM      5  C   UNL     1      22.114   7.917  -5.421  1.00  0.00     0.059 C 
BRANCH   5   6
ATOM      6  C   UNL     1      22.360   6.617  -6.123  1.00  0.00     0.042 C 
ATOM      7  O   UNL     1      23.426   6.436  -6.767  1.00  0.00    -0.550 OA
ATOM      8  O   UNL     1      21.428   5.590  -6.031  1.00  0.00    -0.550 OA
ENDBRANCH   5   6
ENDBRANCH   1   5
TORSDOF 3
ENDMDL
MODEL 5
REMARK VINA RESULT:    -3.151      1.347      3.636
REMARK INTER + INTRA:          -3.782
REMARK INTER:                  -3.669
REMARK INTRA:                  -0.113
REMARK UNBOUND:                -0.079
REMARK SMILES O=C([O-])CCC(=O)[O-]
REMARK SMILES IDX 4 1 2 2 1 3 3 4 5 5 6 6 7 7 8 8
REMARK H PARENT
REMARK Flexibility Score: inf
ROOT
ATOM      1  C   UNL     1      22.207   7.867  -5.400  1.00  0.00     0.059 C 
ENDROOT
BRANCH   1   2
ATOM      2  C   UNL     1      22.380   6.553  -6.099  1.00  0.00     0.042 C 
ATOM      3  O   UNL     1      23.414   6.331  -6.783  1.00  0.00    -0.550 OA
ATOM      4  O   UNL     1      21.383   5.590  -6.028  1.00  0.00    -0.550 OA
ENDBRANCH   1   2
BRANCH   1   5
ATOM      5  C   UNL     1      22.826   9.017  -6.200  1.00  0.00     0.059 C 
BRANCH   5   6
ATOM      6  C   UNL     1      21.830   9.644  -7.129  1.00  0.00     0.042 C 
ATOM      7  O   UNL     1      21.220  10.691  -6.790  1.00  0.00    -0.550 OA
ATOM      8  O   UNL     1      21.609   9.094  -8.385  1.00  0.00    -0.550 OA
ENDBRANCH   5   6
ENDBRANCH   1   5
TORSDOF 3
ENDMDL
MODEL 6
REMARK VINA RESULT:    -3.137      0.318      3.979
REMARK INTER + INTRA:          -3.766
REMARK INTER:                  -3.686
REMARK INTRA:                  -0.080
REMARK UNBOUND:                -0.079
REMARK SMILES O=C([O-])CCC(=O)[O-]
REMARK SMILES IDX 4 1 2 2 1 3 3 4 5 5 6 6 7 7 8 8
REMARK H PARENT
REMARK Flexibility Score: inf
ROOT
ATOM      1  C   UNL     1      22.413   7.756  -6.682  1.00  0.00     0.059 C 
ENDROOT
BRANCH   1   2
ATOM      2  C   UNL     1      21.245   6.831  -6.836  1.00  0.00     0.042 C 
ATOM      3  O   UNL     1      20.263   7.163  -7.551  1.00  0.00    -0.550 OA
ATOM      4  O   UNL     1      21.222   5.620  -6.157  1.00  0.00    -0.550 OA
ENDBRANCH   1   2
BRANCH   1   5
ATOM      5  C   UNL     1      21.979   9.130  -6.161  1.00  0.00     0.059 C 
BRANCH   5   6
ATOM      6  C   UNL     1      22.131  10.192  -7.208  1.00  0.00     0.042 C 
ATOM      7  O   UNL     1      21.193  11.002  -7.429  1.00  0.00    -0.550 OA
ATOM      8  O   UNL     1      23.324  10.312  -7.909  1.00  0.00    -0.550 OA
ENDBRANCH   5   6
ENDBRANCH   1   5
TORSDOF 3
ENDMDL
MODEL 7
REMARK VINA RESULT:    -2.947     20.908     21.551
REMARK INTER + INTRA:          -3.543
REMARK INTER:                  -3.403
REMARK INTRA:                  -0.140
REMARK UNBOUND:                -0.079
REMARK SMILES O=C([O-])CCC(=O)[O-]
REMARK SMILES IDX 4 1 2 2 1 3 3 4 5 5 6 6 7 7 8 8
REMARK H PARENT
REMARK Flexibility Score: inf
ROOT
ATOM      1  C   UNL     1       7.069  12.432   9.943  1.00  0.00     0.059 C 
ENDROOT
BRANCH   1   2
ATOM      2  C   UNL     1       8.245  11.621  10.393  1.00  0.00     0.042 C 
ATOM      3  O   UNL     1       9.370  12.166  10.546  1.00  0.00    -0.550 OA
ATOM      4  O   UNL     1       8.109  10.255  10.603  1.00  0.00    -0.550 OA
ENDBRANCH   1   2
BRANCH   1   5
ATOM      5  C   UNL     1       7.363  13.174   8.634  1.00  0.00     0.059 C 
BRANCH   5   6
ATOM      6  C   UNL     1       7.232  12.270   7.446  1.00  0.00     0.042 C 
ATOM      7  O   UNL     1       8.212  12.088   6.678  1.00  0.00    -0.550 OA
ATOM      8  O   UNL     1       6.039  11.597   7.212  1.00  0.00    -0.550 OA
ENDBRANCH   5   6
ENDBRANCH   1   5
TORSDOF 3
ENDMDL
MODEL 8
REMARK VINA RESULT:    -2.924     20.905     21.507
REMARK INTER + INTRA:          -3.516
REMARK INTER:                  -3.407
REMARK INTRA:                  -0.109
REMARK UNBOUND:                -0.079
REMARK SMILES O=C([O-])CCC(=O)[O-]
REMARK SMILES IDX 4 1 2 2 1 3 3 4 5 5 6 6 7 7 8 8
REMARK H PARENT
REMARK Flexibility Score: inf
ROOT
ATOM      1  C   UNL     1       7.540  13.086   8.680  1.00  0.00     0.059 C 
ENDROOT
BRANCH   1   2
ATOM      2  C   UNL     1       7.277  12.236   7.475  1.00  0.00     0.042 C 
ATOM      3  O   UNL     1       8.173  12.074   6.606  1.00  0.00    -0.550 OA
ATOM      4  O   UNL     1       6.029  11.655   7.292  1.00  0.00    -0.550 OA
ENDBRANCH   1   2
BRANCH   1   5
ATOM      5  C   UNL     1       7.189  12.350   9.977  1.00  0.00     0.059 C 
BRANCH   5   6
ATOM      6  C   UNL     1       8.339  11.530  10.476  1.00  0.00     0.042 C 
ATOM      7  O   UNL     1       9.436  12.080  10.754  1.00  0.00    -0.550 OA
ATOM      8  O   UNL     1       8.184  10.163  10.674  1.00  0.00    -0.550 OA
ENDBRANCH   5   6
ENDBRANCH   1   5
TORSDOF 3
ENDMDL
MODEL 9
REMARK VINA RESULT:    -2.907     20.618     21.254
REMARK INTER + INTRA:          -3.496
REMARK INTER:                  -3.421
REMARK INTRA:                  -0.075
REMARK UNBOUND:                -0.079
REMARK SMILES O=C([O-])CCC(=O)[O-]
REMARK SMILES IDX 4 1 2 2 1 3 3 4 5 5 6 6 7 7 8 8
REMARK H PARENT
REMARK Flexibility Score: inf
ROOT
ATOM      1  C   UNL     1       6.170  14.113   6.639  1.00  0.00     0.059 C 
ENDROOT
BRANCH   1   2
ATOM      2  C   UNL     1       6.788  15.157   7.518  1.00  0.00     0.042 C 
ATOM      3  O   UNL     1       7.479  16.082   7.015  1.00  0.00    -0.550 OA
ATOM      4  O   UNL     1       6.635  15.086   8.896  1.00  0.00    -0.550 OA
ENDBRANCH   1   2
BRANCH   1   5
ATOM      5  C   UNL     1       6.005  12.781   7.377  1.00  0.00     0.059 C 
BRANCH   5   6
ATOM      6  C   UNL     1       7.321  12.092   7.576  1.00  0.00     0.042 C 
ATOM      7  O   UNL     1       8.180  12.089   6.656  1.00  0.00    -0.550 OA
ATOM      8  O   UNL     1       7.614  11.491   8.794  1.00  0.00    -0.550 OA
ENDBRANCH   5   6
ENDBRANCH   1   5
TORSDOF 3
ENDMDL
