MODEL 1
REMARK VINA RESULT:    -3.222      0.000      0.000
REMARK INTER + INTRA:          -4.134
REMARK INTER:                  -4.540
REMARK INTRA:                   0.407
REMARK UNBOUND:                 0.407
REMARK SMILES CC1=CCC(=C(C)C)C(=O)CC(C)=CCC1
REMARK SMILES IDX 12 1 14 2 13 3 15 4 16 5 2 6 1 7 3 8 11 10 9 11 10 12 5 13
REMARK SMILES IDX 6 14 7 15 8 16 4 17
REMARK H PARENT
REMARK Flexibility Score: 60.00
ROOT
ATOM      1  C   UNL     1      27.628 -30.783 -12.327  1.00  0.00    -0.070 C 
ATOM      2  C   UNL     1      26.958 -30.074 -11.388  1.00  0.00    -0.027 C 
ATOM      3  C   UNL     1      28.853 -30.159 -12.945  1.00  0.00     0.039 C 
ENDROOT
BRANCH   2   4
ATOM      4  C   UNL     1      25.751 -30.567 -10.623  1.00  0.00     0.032 C 
BRANCH   4   5
ATOM      5  C   UNL     1      24.484 -30.556 -11.492  1.00  0.00     0.034 C 
BRANCH   5   6
ATOM      6  C   UNL     1      23.765 -31.897 -11.533  1.00  0.00    -0.077 C 
ATOM      7  C   UNL     1      23.273 -32.499 -10.241  1.00  0.00     0.039 C 
ATOM      8  C   UNL     1      23.524 -32.578 -12.678  1.00  0.00    -0.023 CG0
ATOM      9  G   UNL     1      23.998 -32.173 -14.054  1.00  0.00     0.000 G0
ENDBRANCH   5   6
ENDBRANCH   4   5
ENDBRANCH   2   4
BRANCH   1  10
ATOM     10  C   UNL     1      27.199 -32.164 -12.781  1.00  0.00     0.111 C 
BRANCH  10  11
ATOM     11  C   UNL     1      26.589 -32.118 -14.154  1.00  0.00     0.163 C 
ATOM     12  O   UNL     1      27.174 -31.478 -15.069  1.00  0.00    -0.294 OA
BRANCH  11  13
ATOM     13  C   UNL     1      25.321 -32.829 -14.460  1.00  0.00    -0.002 C 
ATOM     14  C   UNL     1      25.346 -34.036 -15.087  1.00  0.00    -0.069 C 
ATOM     15  C   UNL     1      24.065 -34.750 -15.454  1.00  0.00     0.039 C 
ATOM     16  C   UNL     1      26.653 -34.729 -15.401  1.00  0.00     0.039 C 
BRANCH  13  17
ATOM     17  C   UNL     1      23.996 -32.188 -14.063  1.00  0.00     0.066 CG0
ATOM     18  G   UNL     1      23.508 -32.598 -12.692  1.00  0.00     0.000 G0
ENDBRANCH  13  17
ENDBRANCH  11  13
ENDBRANCH  10  11
ENDBRANCH   1  10
TORSDOF 0
ENDMDL
MODEL 2
REMARK VINA RESULT:    -3.046     12.490     14.138
REMARK INTER + INTRA:          -3.885
REMARK INTER:                  -4.195
REMARK INTRA:                   0.310
REMARK UNBOUND:                 0.407
REMARK SMILES CC1=CCC(=C(C)C)C(=O)CC(C)=CCC1
REMARK SMILES IDX 12 1 14 2 13 3 15 4 16 5 2 6 1 7 3 8 11 10 9 11 10 12 5 13
REMARK SMILES IDX 6 14 7 15 8 16 4 17
REMARK H PARENT
REMARK Flexibility Score: 60.00
ROOT
ATOM      1  C   UNL     1      25.201 -44.290  -8.594  1.00  0.00    -0.070 C 
ATOM      2  C   UNL     1      25.561 -43.031  -8.934  1.00  0.00    -0.027 C 
ATOM      3  C   UNL     1      24.572 -44.506  -7.241  1.00  0.00     0.039 C 
ENDROOT
BRANCH   2   4
ATOM      4  C   UNL     1      26.146 -42.623 -10.267  1.00  0.00     0.032 C 
BRANCH   4   5
ATOM      5  C   UNL     1      27.681 -42.670 -10.252  1.00  0.00     0.034 C 
BRANCH   5   6
ATOM      6  C   UNL     1      28.276 -43.465 -11.406  1.00  0.00    -0.077 C 
ATOM      7  C   UNL     1      28.304 -42.843 -12.780  1.00  0.00     0.039 C 
ATOM      8  C   UNL     1      28.802 -44.704 -11.264  1.00  0.00    -0.023 CG0
ATOM      9  G   UNL     1      28.801 -45.514  -9.989  1.00  0.00     0.000 G0
ENDBRANCH   5   6
ENDBRANCH   4   5
ENDBRANCH   2   4
BRANCH   1  10
ATOM     10  C   UNL     1      25.404 -45.483  -9.507  1.00  0.00     0.111 C 
BRANCH  10  11
ATOM     11  C   UNL     1      26.547 -46.338  -9.035  1.00  0.00     0.163 C 
ATOM     12  O   UNL     1      26.490 -46.872  -7.894  1.00  0.00    -0.294 OA
BRANCH  11  13
ATOM     13  C   UNL     1      27.734 -46.584  -9.894  1.00  0.00    -0.002 C 
ATOM     14  C   UNL     1      27.842 -47.744 -10.598  1.00  0.00    -0.069 C 
ATOM     15  C   UNL     1      29.066 -48.036 -11.435  1.00  0.00     0.039 C 
ATOM     16  C   UNL     1      26.725 -48.764 -10.602  1.00  0.00     0.039 C 
BRANCH  13  17
ATOM     17  C   UNL     1      28.825 -45.523  -9.976  1.00  0.00     0.066 CG0
ATOM     18  G   UNL     1      28.798 -44.720 -11.255  1.00  0.00     0.000 G0
ENDBRANCH  13  17
ENDBRANCH  11  13
ENDBRANCH  10  11
ENDBRANCH   1  10
TORSDOF 0
ENDMDL
MODEL 3
REMARK VINA RESULT:    -2.880     11.953     13.690
REMARK INTER + INTRA:          -3.651
REMARK INTER:                  -3.951
REMARK INTRA:                   0.300
REMARK UNBOUND:                 0.407
REMARK SMILES CC1=CCC(=C(C)C)C(=O)CC(C)=CCC1
REMARK SMILES IDX 12 1 14 2 13 3 15 4 16 5 2 6 1 7 3 8 11 10 9 11 10 12 5 13
REMARK SMILES IDX 6 14 7 15 8 16 4 17
REMARK H PARENT
REMARK Flexibility Score: 60.00
ROOT
ATOM      1  C   UNL     1      25.400 -44.748  -8.111  1.00  0.00    -0.070 C 
ATOM      2  C   UNL     1      26.043 -45.792  -7.538  1.00  0.00    -0.027 C 
ATOM      3  C   UNL     1      24.647 -43.799  -7.214  1.00  0.00     0.039 C 
ENDROOT
BRANCH   2   4
ATOM      4  C   UNL     1      26.893 -46.802  -8.274  1.00  0.00     0.032 C 
BRANCH   4   5
ATOM      5  C   UNL     1      28.287 -46.243  -8.598  1.00  0.00     0.034 C 
BRANCH   5   6
ATOM      6  C   UNL     1      28.742 -46.532 -10.021  1.00  0.00    -0.077 C 
ATOM      7  C   UNL     1      29.010 -47.961 -10.423  1.00  0.00     0.039 C 
ATOM      8  C   UNL     1      28.903 -45.572 -10.961  1.00  0.00    -0.023 CG0
ATOM      9  G   UNL     1      28.750 -44.087 -10.731  1.00  0.00     0.000 G0
ENDBRANCH   5   6
ENDBRANCH   4   5
ENDBRANCH   2   4
BRANCH   1  10
ATOM     10  C   UNL     1      25.403 -44.497  -9.607  1.00  0.00     0.111 C 
BRANCH  10  11
ATOM     11  C   UNL     1      26.359 -43.395  -9.970  1.00  0.00     0.163 C 
ATOM     12  O   UNL     1      26.342 -42.320  -9.311  1.00  0.00    -0.294 OA
BRANCH  11  13
ATOM     13  C   UNL     1      27.340 -43.556 -11.074  1.00  0.00    -0.002 C 
ATOM     14  C   UNL     1      26.991 -43.245 -12.352  1.00  0.00    -0.069 C 
ATOM     15  C   UNL     1      27.958 -43.453 -13.495  1.00  0.00     0.039 C 
ATOM     16  C   UNL     1      25.642 -42.643 -12.671  1.00  0.00     0.039 C 
BRANCH  13  17
ATOM     17  C   UNL     1      28.738 -44.073 -10.755  1.00  0.00     0.066 CG0
ATOM     18  G   UNL     1      28.899 -45.561 -10.963  1.00  0.00     0.000 G0
ENDBRANCH  13  17
ENDBRANCH  11  13
ENDBRANCH  10  11
ENDBRANCH   1  10
TORSDOF 0
ENDMDL
MODEL 4
REMARK VINA RESULT:    -2.749      1.437      4.003
REMARK INTER + INTRA:          -3.467
REMARK INTER:                  -4.207
REMARK INTRA:                   0.739
REMARK UNBOUND:                 0.407
REMARK SMILES CC1=CCC(=C(C)C)C(=O)CC(C)=CCC1
REMARK SMILES IDX 12 1 14 2 13 3 15 4 16 5 2 6 1 7 3 8 11 10 9 11 10 12 5 13
REMARK SMILES IDX 6 14 7 15 8 16 4 17
REMARK H PARENT
REMARK Flexibility Score: 60.00
ROOT
ATOM      1  C   UNL     1      28.003 -33.327 -13.184  1.00  0.00    -0.070 C 
ATOM      2  C   UNL     1      27.964 -34.388 -14.023  1.00  0.00    -0.027 C 
ATOM      3  C   UNL     1      28.267 -33.586 -11.723  1.00  0.00     0.039 C 
ENDROOT
BRANCH   2   4
ATOM      4  C   UNL     1      27.773 -34.309 -15.520  1.00  0.00     0.032 C 
BRANCH   4   5
ATOM      5  C   UNL     1      26.487 -33.554 -15.889  1.00  0.00     0.034 C 
BRANCH   5   6
ATOM      6  C   UNL     1      25.239 -34.125 -15.232  1.00  0.00    -0.077 C 
ATOM      7  C   UNL     1      24.865 -35.561 -15.504  1.00  0.00     0.039 C 
ATOM      8  C   UNL     1      24.447 -33.416 -14.395  1.00  0.00    -0.023 CG0
ATOM      9  G   UNL     1      24.618 -31.953 -14.058  1.00  0.00     0.000 G0
ENDBRANCH   5   6
ENDBRANCH   4   5
ENDBRANCH   2   4
BRANCH   1  10
ATOM     10  C   UNL     1      27.788 -31.900 -13.649  1.00  0.00     0.111 C 
BRANCH  10  11
ATOM     11  C   UNL     1      26.761 -31.203 -12.801  1.00  0.00     0.163 C 
ATOM     12  O   UNL     1      27.095 -30.182 -12.139  1.00  0.00    -0.294 OA
BRANCH  11  13
ATOM     13  C   UNL     1      25.355 -31.678 -12.745  1.00  0.00    -0.002 C 
ATOM     14  C   UNL     1      24.744 -31.872 -11.545  1.00  0.00    -0.069 C 
ATOM     15  C   UNL     1      23.332 -32.407 -11.467  1.00  0.00     0.039 C 
ATOM     16  C   UNL     1      25.438 -31.524 -10.247  1.00  0.00     0.039 C 
BRANCH  13  17
ATOM     17  C   UNL     1      24.608 -31.943 -14.047  1.00  0.00     0.066 CG0
ATOM     18  G   UNL     1      24.469 -33.410 -14.381  1.00  0.00     0.000 G0
ENDBRANCH  13  17
ENDBRANCH  11  13
ENDBRANCH  10  11
ENDBRANCH   1  10
TORSDOF 0
ENDMDL
MODEL 5
REMARK VINA RESULT:    -2.681     11.978     13.412
REMARK INTER + INTRA:          -3.371
REMARK INTER:                  -4.008
REMARK INTRA:                   0.638
REMARK UNBOUND:                 0.407
REMARK SMILES CC1=CCC(=C(C)C)C(=O)CC(C)=CCC1
REMARK SMILES IDX 12 1 14 2 13 3 15 4 16 5 2 6 1 7 3 8 11 10 9 11 10 12 5 13
REMARK SMILES IDX 6 14 7 15 8 16 4 17
REMARK H PARENT
REMARK Flexibility Score: 60.00
ROOT
ATOM      1  C   UNL     1      26.489 -43.128 -12.045  1.00  0.00    -0.070 C 
ATOM      2  C   UNL     1      25.883 -42.757 -10.893  1.00  0.00    -0.027 C 
ATOM      3  C   UNL     1      25.755 -42.895 -13.340  1.00  0.00     0.039 C 
ENDROOT
BRANCH   2   4
ATOM      4  C   UNL     1      26.495 -42.860  -9.515  1.00  0.00     0.032 C 
BRANCH   4   5
ATOM      5  C   UNL     1      25.654 -43.748  -8.585  1.00  0.00     0.034 C 
BRANCH   5   6
ATOM      6  C   UNL     1      26.300 -45.092  -8.280  1.00  0.00    -0.077 C 
ATOM      7  C   UNL     1      27.015 -45.274  -6.964  1.00  0.00     0.039 C 
ATOM      8  C   UNL     1      26.254 -46.148  -9.124  1.00  0.00    -0.023 CG0
ATOM      9  G   UNL     1      25.648 -46.138 -10.508  1.00  0.00     0.000 G0
ENDBRANCH   5   6
ENDBRANCH   4   5
ENDBRANCH   2   4
BRANCH   1  10
ATOM     10  C   UNL     1      27.863 -43.768 -12.086  1.00  0.00     0.111 C 
BRANCH  10  11
ATOM     11  C   UNL     1      27.838 -45.145 -11.484  1.00  0.00     0.163 C 
ATOM     12  O   UNL     1      28.824 -45.543 -10.807  1.00  0.00    -0.294 OA
BRANCH  11  13
ATOM     13  C   UNL     1      26.663 -46.039 -11.652  1.00  0.00    -0.002 C 
ATOM     14  C   UNL     1      26.505 -46.755 -12.798  1.00  0.00    -0.069 C 
ATOM     15  C   UNL     1      25.289 -47.629 -13.009  1.00  0.00     0.039 C 
ATOM     16  C   UNL     1      27.555 -46.737 -13.885  1.00  0.00     0.039 C 
BRANCH  13  17
ATOM     17  C   UNL     1      25.642 -46.143 -10.525  1.00  0.00     0.066 CG0
ATOM     18  G   UNL     1      26.257 -46.136  -9.144  1.00  0.00     0.000 G0
ENDBRANCH  13  17
ENDBRANCH  11  13
ENDBRANCH  10  11
ENDBRANCH   1  10
TORSDOF 0
ENDMDL
MODEL 6
REMARK VINA RESULT:    -2.648     20.276     22.238
REMARK INTER + INTRA:          -3.325
REMARK INTER:                  -4.161
REMARK INTRA:                   0.836
REMARK UNBOUND:                 0.407
REMARK SMILES CC1=CCC(=C(C)C)C(=O)CC(C)=CCC1
REMARK SMILES IDX 12 1 14 2 13 3 15 4 16 5 2 6 1 7 3 8 11 10 9 11 10 12 5 13
REMARK SMILES IDX 6 14 7 15 8 16 4 17
REMARK H PARENT
REMARK Flexibility Score: 60.00
ROOT
ATOM      1  C   UNL     1      12.238 -46.482  -6.389  1.00  0.00    -0.070 C 
ATOM      2  C   UNL     1      10.887 -46.520  -6.468  1.00  0.00    -0.027 C 
ATOM      3  C   UNL     1      12.996 -45.834  -7.519  1.00  0.00     0.039 C 
ENDROOT
BRANCH   2   4
ATOM      4  C   UNL     1       9.968 -47.073  -5.403  1.00  0.00     0.032 C 
BRANCH   4   5
ATOM      5  C   UNL     1       9.619 -48.546  -5.664  1.00  0.00     0.034 C 
BRANCH   5   6
ATOM      6  C   UNL     1      10.516 -49.524  -4.918  1.00  0.00    -0.077 C 
ATOM      7  C   UNL     1      10.175 -49.885  -3.494  1.00  0.00     0.039 C 
ATOM      8  C   UNL     1      11.603 -50.109  -5.473  1.00  0.00    -0.023 CG0
ATOM      9  G   UNL     1      12.141 -49.822  -6.856  1.00  0.00     0.000 G0
ENDBRANCH   5   6
ENDBRANCH   4   5
ENDBRANCH   2   4
BRANCH   1  10
ATOM     10  C   UNL     1      13.014 -47.063  -5.223  1.00  0.00     0.111 C 
BRANCH  10  11
ATOM     11  C   UNL     1      13.825 -48.253  -5.652  1.00  0.00     0.163 C 
ATOM     12  O   UNL     1      14.825 -48.600  -4.966  1.00  0.00    -0.294 OA
BRANCH  11  13
ATOM     13  C   UNL     1      13.460 -49.044  -6.855  1.00  0.00    -0.002 C 
ATOM     14  C   UNL     1      14.282 -49.062  -7.939  1.00  0.00    -0.069 C 
ATOM     15  C   UNL     1      13.901 -49.817  -9.193  1.00  0.00     0.039 C 
ATOM     16  C   UNL     1      15.623 -48.364  -7.917  1.00  0.00     0.039 C 
BRANCH  13  17
ATOM     17  C   UNL     1      12.155 -49.832  -6.858  1.00  0.00     0.066 CG0
ATOM     18  G   UNL     1      11.610 -50.110  -5.476  1.00  0.00     0.000 G0
ENDBRANCH  13  17
ENDBRANCH  11  13
ENDBRANCH  10  11
ENDBRANCH   1  10
TORSDOF 0
ENDMDL
MODEL 7
REMARK VINA RESULT:    -2.575     11.867     13.510
REMARK INTER + INTRA:          -3.223
REMARK INTER:                  -3.795
REMARK INTRA:                   0.573
REMARK UNBOUND:                 0.407
REMARK SMILES CC1=CCC(=C(C)C)C(=O)CC(C)=CCC1
REMARK SMILES IDX 12 1 14 2 13 3 15 4 16 5 2 6 1 7 3 8 11 10 9 11 10 12 5 13
REMARK SMILES IDX 6 14 7 15 8 16 4 17
REMARK H PARENT
REMARK Flexibility Score: 60.00
ROOT
ATOM      1  C   UNL     1      26.409 -47.575 -10.128  1.00  0.00    -0.070 C 
ATOM      2  C   UNL     1      26.540 -47.305  -8.809  1.00  0.00    -0.027 C 
ATOM      3  C   UNL     1      26.897 -48.909 -10.632  1.00  0.00     0.039 C 
ENDROOT
BRANCH   2   4
ATOM      4  C   UNL     1      26.053 -46.049  -8.124  1.00  0.00     0.032 C 
BRANCH   4   5
ATOM      5  C   UNL     1      26.837 -44.811  -8.583  1.00  0.00     0.034 C 
BRANCH   5   6
ATOM      6  C   UNL     1      25.949 -43.673  -9.065  1.00  0.00    -0.077 C 
ATOM      7  C   UNL     1      24.816 -43.211  -8.182  1.00  0.00     0.039 C 
ATOM      8  C   UNL     1      26.130 -43.034 -10.243  1.00  0.00    -0.023 CG0
ATOM      9  G   UNL     1      27.161 -43.397 -11.287  1.00  0.00     0.000 G0
ENDBRANCH   5   6
ENDBRANCH   4   5
ENDBRANCH   2   4
BRANCH   1  10
ATOM     10  C   UNL     1      25.799 -46.597 -11.114  1.00  0.00     0.111 C 
BRANCH  10  11
ATOM     11  C   UNL     1      26.865 -45.879 -11.893  1.00  0.00     0.163 C 
ATOM     12  O   UNL     1      27.897 -46.507 -12.254  1.00  0.00    -0.294 OA
BRANCH  11  13
ATOM     13  C   UNL     1      26.717 -44.448 -12.267  1.00  0.00    -0.002 C 
ATOM     14  C   UNL     1      26.188 -44.106 -13.473  1.00  0.00    -0.069 C 
ATOM     15  C   UNL     1      26.079 -42.658 -13.893  1.00  0.00     0.039 C 
ATOM     16  C   UNL     1      25.652 -45.156 -14.420  1.00  0.00     0.039 C 
BRANCH  13  17
ATOM     17  C   UNL     1      27.164 -43.374 -11.283  1.00  0.00     0.066 CG0
ATOM     18  G   UNL     1      26.122 -43.027 -10.245  1.00  0.00     0.000 G0
ENDBRANCH  13  17
ENDBRANCH  11  13
ENDBRANCH  10  11
ENDBRANCH   1  10
TORSDOF 0
ENDMDL
MODEL 8
REMARK VINA RESULT:    -2.559     13.361     14.859
REMARK INTER + INTRA:          -3.199
REMARK INTER:                  -3.907
REMARK INTRA:                   0.708
REMARK UNBOUND:                 0.407
REMARK SMILES CC1=CCC(=C(C)C)C(=O)CC(C)=CCC1
REMARK SMILES IDX 12 1 14 2 13 3 15 4 16 5 2 6 1 7 3 8 11 10 9 11 10 12 5 13
REMARK SMILES IDX 6 14 7 15 8 16 4 17
REMARK H PARENT
REMARK Flexibility Score: 60.00
ROOT
ATOM      1  C   UNL     1      26.365 -44.670  -7.985  1.00  0.00    -0.070 C 
ATOM      2  C   UNL     1      26.981 -45.542  -7.155  1.00  0.00    -0.027 C 
ATOM      3  C   UNL     1      24.941 -44.282  -7.678  1.00  0.00     0.039 C 
ENDROOT
BRANCH   2   4
ATOM      4  C   UNL     1      28.419 -45.992  -7.275  1.00  0.00     0.032 C 
BRANCH   4   5
ATOM      5  C   UNL     1      28.526 -47.515  -7.443  1.00  0.00     0.034 C 
BRANCH   5   6
ATOM      6  C   UNL     1      27.515 -48.090  -8.425  1.00  0.00    -0.077 C 
ATOM      7  C   UNL     1      26.509 -49.098  -7.927  1.00  0.00     0.039 C 
ATOM      8  C   UNL     1      27.456 -47.731  -9.728  1.00  0.00    -0.023 CG0
ATOM      9  G   UNL     1      28.417 -46.795 -10.423  1.00  0.00     0.000 G0
ENDBRANCH   5   6
ENDBRANCH   4   5
ENDBRANCH   2   4
BRANCH   1  10
ATOM     10  C   UNL     1      27.040 -44.074  -9.205  1.00  0.00     0.111 C 
BRANCH  10  11
ATOM     11  C   UNL     1      26.689 -44.842 -10.448  1.00  0.00     0.163 C 
ATOM     12  O   UNL     1      25.514 -44.780 -10.902  1.00  0.00    -0.294 OA
BRANCH  11  13
ATOM     13  C   UNL     1      27.704 -45.655 -11.167  1.00  0.00    -0.002 C 
ATOM     14  C   UNL     1      28.003 -45.386 -12.466  1.00  0.00    -0.069 C 
ATOM     15  C   UNL     1      28.994 -46.236 -13.230  1.00  0.00     0.039 C 
ATOM     16  C   UNL     1      27.390 -44.204 -13.183  1.00  0.00     0.039 C 
BRANCH  13  17
ATOM     17  C   UNL     1      28.402 -46.791 -10.429  1.00  0.00     0.066 CG0
ATOM     18  G   UNL     1      27.454 -47.735  -9.727  1.00  0.00     0.000 G0
ENDBRANCH  13  17
ENDBRANCH  11  13
ENDBRANCH  10  11
ENDBRANCH   1  10
TORSDOF 0
ENDMDL
MODEL 9
REMARK VINA RESULT:    -2.542     20.692     22.564
REMARK INTER + INTRA:          -3.175
REMARK INTER:                  -3.683
REMARK INTRA:                   0.507
REMARK UNBOUND:                 0.407
REMARK SMILES CC1=CCC(=C(C)C)C(=O)CC(C)=CCC1
REMARK SMILES IDX 12 1 14 2 13 3 15 4 16 5 2 6 1 7 3 8 11 10 9 11 10 12 5 13
REMARK SMILES IDX 6 14 7 15 8 16 4 17
REMARK H PARENT
REMARK Flexibility Score: 60.00
ROOT
ATOM      1  C   UNL     1      12.078 -50.023  -3.299  1.00  0.00    -0.070 C 
ATOM      2  C   UNL     1      11.993 -49.885  -4.643  1.00  0.00    -0.027 C 
ATOM      3  C   UNL     1      10.795 -50.073  -2.509  1.00  0.00     0.039 C 
ENDROOT
BRANCH   2   4
ATOM      4  C   UNL     1      13.169 -49.878  -5.593  1.00  0.00     0.032 C 
BRANCH   4   5
ATOM      5  C   UNL     1      13.186 -48.613  -6.466  1.00  0.00     0.034 C 
BRANCH   5   6
ATOM      6  C   UNL     1      13.126 -47.321  -5.664  1.00  0.00    -0.077 C 
ATOM      7  C   UNL     1      12.008 -46.346  -5.937  1.00  0.00     0.039 C 
ATOM      8  C   UNL     1      14.017 -47.003  -4.697  1.00  0.00    -0.023 CG0
ATOM      9  G   UNL     1      15.238 -47.815  -4.330  1.00  0.00     0.000 G0
ENDBRANCH   5   6
ENDBRANCH   4   5
ENDBRANCH   2   4
BRANCH   1  10
ATOM     10  C   UNL     1      13.399 -50.125  -2.561  1.00  0.00     0.111 C 
BRANCH  10  11
ATOM     11  C   UNL     1      13.960 -48.762  -2.266  1.00  0.00     0.163 C 
ATOM     12  O   UNL     1      13.348 -48.001  -1.469  1.00  0.00    -0.294 OA
BRANCH  11  13
ATOM     13  C   UNL     1      15.234 -48.303  -2.876  1.00  0.00    -0.002 C 
ATOM     14  C   UNL     1      16.385 -48.315  -2.151  1.00  0.00    -0.069 C 
ATOM     15  C   UNL     1      17.681 -47.801  -2.737  1.00  0.00     0.039 C 
ATOM     16  C   UNL     1      16.422 -48.881  -0.749  1.00  0.00     0.039 C 
BRANCH  13  17
ATOM     17  C   UNL     1      15.233 -47.819  -4.322  1.00  0.00     0.066 CG0
ATOM     18  G   UNL     1      14.019 -46.996  -4.687  1.00  0.00     0.000 G0
ENDBRANCH  13  17
ENDBRANCH  11  13
ENDBRANCH  10  11
ENDBRANCH   1  10
TORSDOF 0
ENDMDL
