MODEL 1
REMARK VINA RESULT:    -6.463      0.000      0.000
REMARK INTER + INTRA:          -7.913
REMARK INTER:                  -7.596
REMARK INTRA:                  -0.316
REMARK UNBOUND:                -0.316
REMARK SMILES O=c1cc(-c2ccc(O)c(O)c2)oc2cc(O)cc(O)c12
REMARK SMILES IDX 4 1 3 2 2 3 1 4 21 5 19 6 18 7 16 8 15 9 14 10 13 11 5 12
REMARK SMILES IDX 6 13 7 14 8 15 12 16 10 17 9 18 11 20 20 22 17 24
REMARK H PARENT 9 19 11 21 20 23 17 25
REMARK Flexibility Score: inf
ROOT
ATOM      1  C   UNL     1     173.299 175.326 176.705  1.00  0.00     0.138 A 
ATOM      2  C   UNL     1     174.365 175.558 175.825  1.00  0.00     0.100 A 
ATOM      3  C   UNL     1     174.166 176.349 174.693  1.00  0.00     0.197 A 
ATOM      4  O   UNL     1     175.124 176.488 173.890  1.00  0.00    -0.289 OA
ATOM      5  C   UNL     1     172.900 176.936 174.459  1.00  0.00     0.107 A 
ATOM      6  C   UNL     1     172.592 177.794 173.361  1.00  0.00     0.134 A 
ATOM      7  C   UNL     1     171.273 178.222 173.168  1.00  0.00     0.093 A 
ATOM      8  C   UNL     1     170.262 177.873 174.068  1.00  0.00     0.123 A 
ATOM      9  C   UNL     1     170.563 177.081 175.174  1.00  0.00     0.094 A 
ATOM     10  C   UNL     1     171.864 176.609 175.373  1.00  0.00     0.146 A 
ATOM     11  O   UNL     1     172.105 175.844 176.433  1.00  0.00    -0.456 OA
ENDROOT
BRANCH   1  12
ATOM     12  C   UNL     1     173.455 174.493 177.924  1.00  0.00     0.021 A 
ATOM     13  C   UNL     1     174.622 173.728 178.094  1.00  0.00     0.016 A 
ATOM     14  C   UNL     1     174.790 172.931 179.229  1.00  0.00     0.051 A 
ATOM     15  C   UNL     1     173.794 172.875 180.208  1.00  0.00     0.157 A 
ATOM     16  C   UNL     1     172.448 174.423 178.907  1.00  0.00     0.062 A 
ATOM     17  C   UNL     1     172.616 173.621 180.046  1.00  0.00     0.158 A 
BRANCH  15  18
ATOM     18  O   UNL     1     173.991 172.072 181.331  1.00  0.00    -0.504 OA
ATOM     19  H   UNL     1     174.762 172.222 181.971  1.00  0.00     0.293 HD
ENDBRANCH  15  18
BRANCH  17  20
ATOM     20  O   UNL     1     171.614 173.561 181.013  1.00  0.00    -0.504 OA
ATOM     21  H   UNL     1     171.646 174.136 181.848  1.00  0.00     0.293 HD
ENDBRANCH  17  20
ENDBRANCH   1  12
BRANCH   6  22
ATOM     22  O   UNL     1     173.542 178.271 172.453  1.00  0.00    -0.507 OA
ATOM     23  H   UNL     1     173.490 178.158 171.452  1.00  0.00     0.293 HD
ENDBRANCH   6  22
BRANCH   8  24
ATOM     24  O   UNL     1     168.956 178.317 173.877  1.00  0.00    -0.508 OA
ATOM     25  H   UNL     1     168.171 177.868 174.334  1.00  0.00     0.293 HD
ENDBRANCH   8  24
TORSDOF 5
ENDMDL
MODEL 2
REMARK VINA RESULT:    -6.385      1.451      6.678
REMARK INTER + INTRA:          -7.821
REMARK INTER:                  -7.504
REMARK INTRA:                  -0.317
REMARK UNBOUND:                -0.316
REMARK SMILES O=c1cc(-c2ccc(O)c(O)c2)oc2cc(O)cc(O)c12
REMARK SMILES IDX 4 1 3 2 2 3 1 4 21 5 19 6 18 7 16 8 15 9 14 10 13 11 5 12
REMARK SMILES IDX 6 13 7 14 8 15 12 16 10 17 9 18 11 20 20 22 17 24
REMARK H PARENT 9 19 11 21 20 23 17 25
REMARK Flexibility Score: inf
ROOT
ATOM      1  C   UNL     1     172.665 175.840 176.087  1.00  0.00     0.138 A 
ATOM      2  C   UNL     1     174.040 175.761 175.828  1.00  0.00     0.100 A 
ATOM      3  C   UNL     1     174.855 174.989 176.655  1.00  0.00     0.197 A 
ATOM      4  O   UNL     1     176.093 174.987 176.435  1.00  0.00    -0.289 OA
ATOM      5  C   UNL     1     174.283 174.266 177.730  1.00  0.00     0.107 A 
ATOM      6  C   UNL     1     175.010 173.413 178.614  1.00  0.00     0.134 A 
ATOM      7  C   UNL     1     174.357 172.842 179.712  1.00  0.00     0.093 A 
ATOM      8  C   UNL     1     172.990 173.043 179.924  1.00  0.00     0.123 A 
ATOM      9  C   UNL     1     172.260 173.829 179.036  1.00  0.00     0.094 A 
ATOM     10  C   UNL     1     172.891 174.442 177.950  1.00  0.00     0.146 A 
ATOM     11  O   UNL     1     172.161 175.196 177.135  1.00  0.00    -0.456 OA
ENDROOT
BRANCH   1  12
ATOM     12  C   UNL     1     171.752 176.647 175.238  1.00  0.00     0.021 A 
ATOM     13  C   UNL     1     172.291 177.506 174.265  1.00  0.00     0.016 A 
ATOM     14  C   UNL     1     171.453 178.281 173.458  1.00  0.00     0.051 A 
ATOM     15  C   UNL     1     170.066 178.219 173.615  1.00  0.00     0.157 A 
ATOM     16  C   UNL     1     170.353 176.598 175.400  1.00  0.00     0.062 A 
ATOM     17  C   UNL     1     169.512 177.376 174.592  1.00  0.00     0.158 A 
BRANCH  15  18
ATOM     18  O   UNL     1     169.256 179.002 172.794  1.00  0.00    -0.504 OA
ATOM     19  H   UNL     1     168.408 178.641 172.372  1.00  0.00     0.293 HD
ENDBRANCH  15  18
BRANCH  17  20
ATOM     20  O   UNL     1     168.129 177.319 174.760  1.00  0.00    -0.504 OA
ATOM     21  H   UNL     1     167.639 176.434 174.832  1.00  0.00     0.293 HD
ENDBRANCH  17  20
ENDBRANCH   1  12
BRANCH   6  22
ATOM     22  O   UNL     1     176.356 173.079 178.445  1.00  0.00    -0.507 OA
ATOM     23  H   UNL     1     176.795 172.880 177.559  1.00  0.00     0.293 HD
ENDBRANCH   6  22
BRANCH   8  24
ATOM     24  O   UNL     1     172.346 172.457 181.012  1.00  0.00    -0.508 OA
ATOM     25  H   UNL     1     172.023 173.009 181.798  1.00  0.00     0.293 HD
ENDBRANCH   8  24
TORSDOF 5
ENDMDL
MODEL 3
REMARK VINA RESULT:    -6.382      4.929      7.377
REMARK INTER + INTRA:          -7.817
REMARK INTER:                  -7.499
REMARK INTRA:                  -0.318
REMARK UNBOUND:                -0.316
REMARK SMILES O=c1cc(-c2ccc(O)c(O)c2)oc2cc(O)cc(O)c12
REMARK SMILES IDX 4 1 3 2 2 3 1 4 21 5 19 6 18 7 16 8 15 9 14 10 13 11 5 12
REMARK SMILES IDX 6 13 7 14 8 15 12 16 10 17 9 18 11 20 20 22 17 24
REMARK H PARENT 9 19 11 21 20 23 17 25
REMARK Flexibility Score: inf
ROOT
ATOM      1  C   UNL     1     173.694 170.529 176.120  1.00  0.00     0.138 A 
ATOM      2  C   UNL     1     172.333 170.641 175.805  1.00  0.00     0.100 A 
ATOM      3  C   UNL     1     171.504 171.434 176.598  1.00  0.00     0.197 A 
ATOM      4  O   UNL     1     170.276 171.465 176.327  1.00  0.00    -0.289 OA
ATOM      5  C   UNL     1     172.048 172.144 177.695  1.00  0.00     0.107 A 
ATOM      6  C   UNL     1     171.307 173.015 178.548  1.00  0.00     0.134 A 
ATOM      7  C   UNL     1     171.928 173.572 179.672  1.00  0.00     0.093 A 
ATOM      8  C   UNL     1     173.280 173.339 179.940  1.00  0.00     0.123 A 
ATOM      9  C   UNL     1     174.026 172.534 179.083  1.00  0.00     0.094 A 
ATOM     10  C   UNL     1     173.425 171.935 177.972  1.00  0.00     0.146 A 
ATOM     11  O   UNL     1     174.170 171.162 177.188  1.00  0.00    -0.456 OA
ENDROOT
BRANCH   1  12
ATOM     12  C   UNL     1     174.622 169.700 175.310  1.00  0.00     0.021 A 
ATOM     13  C   UNL     1     174.114 168.932 174.247  1.00  0.00     0.016 A 
ATOM     14  C   UNL     1     174.965 168.138 173.474  1.00  0.00     0.051 A 
ATOM     15  C   UNL     1     176.334 168.089 173.753  1.00  0.00     0.157 A 
ATOM     16  C   UNL     1     176.000 169.637 175.595  1.00  0.00     0.062 A 
ATOM     17  C   UNL     1     176.854 168.839 174.820  1.00  0.00     0.158 A 
BRANCH  15  18
ATOM     18  O   UNL     1     177.158 167.289 172.963  1.00  0.00    -0.504 OA
ATOM     19  H   UNL     1     176.824 166.844 172.116  1.00  0.00     0.293 HD
ENDBRANCH  15  18
BRANCH  17  20
ATOM     20  O   UNL     1     178.217 168.786 175.110  1.00  0.00    -0.504 OA
ATOM     21  H   UNL     1     178.782 167.981 174.862  1.00  0.00     0.293 HD
ENDBRANCH  17  20
ENDBRANCH   1  12
BRANCH   6  22
ATOM     22  O   UNL     1     169.977 173.381 178.324  1.00  0.00    -0.507 OA
ATOM     23  H   UNL     1     169.174 172.859 178.639  1.00  0.00     0.293 HD
ENDBRANCH   6  22
BRANCH   8  24
ATOM     24  O   UNL     1     173.893 173.911 181.053  1.00  0.00    -0.508 OA
ATOM     25  H   UNL     1     174.439 174.761 180.979  1.00  0.00     0.293 HD
ENDBRANCH   8  24
TORSDOF 5
ENDMDL
MODEL 4
REMARK VINA RESULT:    -6.198      1.519      2.827
REMARK INTER + INTRA:          -7.601
REMARK INTER:                  -7.310
REMARK INTRA:                  -0.291
REMARK UNBOUND:                -0.316
REMARK SMILES O=c1cc(-c2ccc(O)c(O)c2)oc2cc(O)cc(O)c12
REMARK SMILES IDX 4 1 3 2 2 3 1 4 21 5 19 6 18 7 16 8 15 9 14 10 13 11 5 12
REMARK SMILES IDX 6 13 7 14 8 15 12 16 10 17 9 18 11 20 20 22 17 24
REMARK H PARENT 9 19 11 21 20 23 17 25
REMARK Flexibility Score: inf
ROOT
ATOM      1  C   UNL     1     173.382 175.183 177.003  1.00  0.00     0.138 A 
ATOM      2  C   UNL     1     172.570 176.324 176.951  1.00  0.00     0.100 A 
ATOM      3  C   UNL     1     172.532 177.092 175.788  1.00  0.00     0.197 A 
ATOM      4  O   UNL     1     171.843 178.144 175.792  1.00  0.00    -0.289 OA
ATOM      5  C   UNL     1     173.287 176.695 174.658  1.00  0.00     0.107 A 
ATOM      6  C   UNL     1     173.293 177.377 173.404  1.00  0.00     0.134 A 
ATOM      7  C   UNL     1     174.170 176.958 172.396  1.00  0.00     0.093 A 
ATOM      8  C   UNL     1     174.996 175.845 172.575  1.00  0.00     0.123 A 
ATOM      9  C   UNL     1     174.958 175.140 173.775  1.00  0.00     0.094 A 
ATOM     10  C   UNL     1     174.119 175.555 174.813  1.00  0.00     0.146 A 
ATOM     11  O   UNL     1     174.124 174.862 175.948  1.00  0.00    -0.456 OA
ENDROOT
BRANCH   1  12
ATOM     12  C   UNL     1     173.459 174.330 178.216  1.00  0.00     0.021 A 
ATOM     13  C   UNL     1     174.591 173.522 178.422  1.00  0.00     0.016 A 
ATOM     14  C   UNL     1     174.685 172.705 179.552  1.00  0.00     0.051 A 
ATOM     15  C   UNL     1     173.649 172.672 180.489  1.00  0.00     0.157 A 
ATOM     16  C   UNL     1     172.412 174.282 179.157  1.00  0.00     0.062 A 
ATOM     17  C   UNL     1     172.505 173.461 180.290  1.00  0.00     0.158 A 
BRANCH  15  18
ATOM     18  O   UNL     1     173.772 171.848 181.607  1.00  0.00    -0.504 OA
ATOM     19  H   UNL     1     174.591 171.871 182.204  1.00  0.00     0.293 HD
ENDBRANCH  15  18
BRANCH  17  20
ATOM     20  O   UNL     1     171.463 173.424 181.216  1.00  0.00    -0.504 OA
ATOM     21  H   UNL     1     170.720 172.737 181.152  1.00  0.00     0.293 HD
ENDBRANCH  17  20
ENDBRANCH   1  12
BRANCH   6  22
ATOM     22  O   UNL     1     172.449 178.445 173.092  1.00  0.00    -0.507 OA
ATOM     23  H   UNL     1     172.682 179.203 172.469  1.00  0.00     0.293 HD
ENDBRANCH   6  22
BRANCH   8  24
ATOM     24  O   UNL     1     175.854 175.427 171.560  1.00  0.00    -0.508 OA
ATOM     25  H   UNL     1     176.287 176.087 170.925  1.00  0.00     0.293 HD
ENDBRANCH   8  24
TORSDOF 5
ENDMDL
MODEL 5
REMARK VINA RESULT:    -6.169      1.758      6.749
REMARK INTER + INTRA:          -7.567
REMARK INTER:                  -7.298
REMARK INTRA:                  -0.269
REMARK UNBOUND:                -0.316
REMARK SMILES O=c1cc(-c2ccc(O)c(O)c2)oc2cc(O)cc(O)c12
REMARK SMILES IDX 4 1 3 2 2 3 1 4 21 5 19 6 18 7 16 8 15 9 14 10 13 11 5 12
REMARK SMILES IDX 6 13 7 14 8 15 12 16 10 17 9 18 11 20 20 22 17 24
REMARK H PARENT 9 19 11 21 20 23 17 25
REMARK Flexibility Score: inf
ROOT
ATOM      1  C   UNL     1     172.295 175.384 176.047  1.00  0.00     0.138 A 
ATOM      2  C   UNL     1     173.655 175.454 175.713  1.00  0.00     0.100 A 
ATOM      3  C   UNL     1     174.599 174.835 176.531  1.00  0.00     0.197 A 
ATOM      4  O   UNL     1     175.816 174.967 176.239  1.00  0.00    -0.289 OA
ATOM      5  C   UNL     1     174.176 174.113 177.673  1.00  0.00     0.107 A 
ATOM      6  C   UNL     1     175.046 173.406 178.557  1.00  0.00     0.134 A 
ATOM      7  C   UNL     1     174.525 172.826 179.719  1.00  0.00     0.093 A 
ATOM      8  C   UNL     1     173.157 172.875 179.999  1.00  0.00     0.123 A 
ATOM      9  C   UNL     1     172.292 173.515 179.115  1.00  0.00     0.094 A 
ATOM     10  C   UNL     1     172.787 174.134 177.964  1.00  0.00     0.146 A 
ATOM     11  O   UNL     1     171.928 174.747 177.154  1.00  0.00    -0.456 OA
ENDROOT
BRANCH   1  12
ATOM     12  C   UNL     1     171.248 176.025 175.212  1.00  0.00     0.021 A 
ATOM     13  C   UNL     1     171.148 177.426 175.183  1.00  0.00     0.016 A 
ATOM     14  C   UNL     1     170.167 178.053 174.411  1.00  0.00     0.051 A 
ATOM     15  C   UNL     1     169.263 177.293 173.663  1.00  0.00     0.157 A 
ATOM     16  C   UNL     1     170.327 175.263 174.466  1.00  0.00     0.062 A 
ATOM     17  C   UNL     1     169.341 175.891 173.692  1.00  0.00     0.158 A 
BRANCH  15  18
ATOM     18  O   UNL     1     168.296 177.947 172.900  1.00  0.00    -0.504 OA
ATOM     19  H   UNL     1     168.369 178.931 172.668  1.00  0.00     0.293 HD
ENDBRANCH  15  18
BRANCH  17  20
ATOM     20  O   UNL     1     168.435 175.128 172.957  1.00  0.00    -0.504 OA
ATOM     21  H   UNL     1     167.824 174.453 173.402  1.00  0.00     0.293 HD
ENDBRANCH  17  20
ENDBRANCH   1  12
BRANCH   6  22
ATOM     22  O   UNL     1     176.413 173.226 178.327  1.00  0.00    -0.507 OA
ATOM     23  H   UNL     1     176.887 173.445 177.465  1.00  0.00     0.293 HD
ENDBRANCH   6  22
BRANCH   8  24
ATOM     24  O   UNL     1     172.646 172.281 181.152  1.00  0.00    -0.508 OA
ATOM     25  H   UNL     1     171.835 172.658 181.628  1.00  0.00     0.293 HD
ENDBRANCH   8  24
TORSDOF 5
ENDMDL
MODEL 6
REMARK VINA RESULT:    -6.140      4.963      6.607
REMARK INTER + INTRA:          -7.533
REMARK INTER:                  -7.227
REMARK INTRA:                  -0.307
REMARK UNBOUND:                -0.316
REMARK SMILES O=c1cc(-c2ccc(O)c(O)c2)oc2cc(O)cc(O)c12
REMARK SMILES IDX 4 1 3 2 2 3 1 4 21 5 19 6 18 7 16 8 15 9 14 10 13 11 5 12
REMARK SMILES IDX 6 13 7 14 8 15 12 16 10 17 9 18 11 20 20 22 17 24
REMARK H PARENT 9 19 11 21 20 23 17 25
REMARK Flexibility Score: inf
ROOT
ATOM      1  C   UNL     1     173.226 171.333 176.690  1.00  0.00     0.138 A 
ATOM      2  C   UNL     1     172.144 170.773 175.998  1.00  0.00     0.100 A 
ATOM      3  C   UNL     1     172.369 170.086 174.805  1.00  0.00     0.197 A 
ATOM      4  O   UNL     1     171.372 169.648 174.175  1.00  0.00    -0.289 OA
ATOM      5  C   UNL     1     173.689 169.932 174.320  1.00  0.00     0.107 A 
ATOM      6  C   UNL     1     174.042 169.215 173.137  1.00  0.00     0.134 A 
ATOM      7  C   UNL     1     175.370 169.229 172.693  1.00  0.00     0.093 A 
ATOM      8  C   UNL     1     176.368 169.882 173.422  1.00  0.00     0.123 A 
ATOM      9  C   UNL     1     176.043 170.539 174.606  1.00  0.00     0.094 A 
ATOM     10  C   UNL     1     174.720 170.572 175.057  1.00  0.00     0.146 A 
ATOM     11  O   UNL     1     174.451 171.222 176.185  1.00  0.00    -0.456 OA
ENDROOT
BRANCH   1  12
ATOM     12  C   UNL     1     173.044 172.074 177.964  1.00  0.00     0.021 A 
ATOM     13  C   UNL     1     171.833 172.746 178.206  1.00  0.00     0.016 A 
ATOM     14  C   UNL     1     171.640 173.456 179.394  1.00  0.00     0.051 A 
ATOM     15  C   UNL     1     172.653 173.516 180.355  1.00  0.00     0.157 A 
ATOM     16  C   UNL     1     174.067 172.149 178.930  1.00  0.00     0.062 A 
ATOM     17  C   UNL     1     173.874 172.863 180.121  1.00  0.00     0.158 A 
BRANCH  15  18
ATOM     18  O   UNL     1     172.430 174.231 181.531  1.00  0.00    -0.504 OA
ATOM     19  H   UNL     1     173.175 174.721 182.013  1.00  0.00     0.293 HD
ENDBRANCH  15  18
BRANCH  17  20
ATOM     20  O   UNL     1     174.892 172.928 181.072  1.00  0.00    -0.504 OA
ATOM     21  H   UNL     1     175.172 173.808 181.491  1.00  0.00     0.293 HD
ENDBRANCH  17  20
ENDBRANCH   1  12
BRANCH   6  22
ATOM     22  O   UNL     1     173.140 168.461 172.383  1.00  0.00    -0.507 OA
ATOM     23  H   UNL     1     172.143 168.610 172.358  1.00  0.00     0.293 HD
ENDBRANCH   6  22
BRANCH   8  24
ATOM     24  O   UNL     1     177.689 169.877 172.980  1.00  0.00    -0.508 OA
ATOM     25  H   UNL     1     178.457 170.103 173.601  1.00  0.00     0.293 HD
ENDBRANCH   8  24
TORSDOF 5
ENDMDL
MODEL 7
REMARK VINA RESULT:    -6.090      4.568      6.192
REMARK INTER + INTRA:          -7.475
REMARK INTER:                  -7.210
REMARK INTRA:                  -0.265
REMARK UNBOUND:                -0.316
REMARK SMILES O=c1cc(-c2ccc(O)c(O)c2)oc2cc(O)cc(O)c12
REMARK SMILES IDX 4 1 3 2 2 3 1 4 21 5 19 6 18 7 16 8 15 9 14 10 13 11 5 12
REMARK SMILES IDX 6 13 7 14 8 15 12 16 10 17 9 18 11 20 20 22 17 24
REMARK H PARENT 9 19 11 21 20 23 17 25
REMARK Flexibility Score: inf
ROOT
ATOM      1  C   UNL     1     173.954 171.474 176.840  1.00  0.00     0.138 A 
ATOM      2  C   UNL     1     173.691 170.154 176.452  1.00  0.00     0.100 A 
ATOM      3  C   UNL     1     174.314 169.630 175.319  1.00  0.00     0.197 A 
ATOM      4  O   UNL     1     174.011 168.463 174.960  1.00  0.00    -0.289 OA
ATOM      5  C   UNL     1     175.230 170.424 174.589  1.00  0.00     0.107 A 
ATOM      6  C   UNL     1     175.956 169.982 173.443  1.00  0.00     0.134 A 
ATOM      7  C   UNL     1     176.747 170.894 172.734  1.00  0.00     0.093 A 
ATOM      8  C   UNL     1     176.887 172.216 173.165  1.00  0.00     0.123 A 
ATOM      9  C   UNL     1     176.226 172.643 174.314  1.00  0.00     0.094 A 
ATOM     10  C   UNL     1     175.401 171.766 175.023  1.00  0.00     0.146 A 
ATOM     11  O   UNL     1     174.777 172.218 176.106  1.00  0.00    -0.456 OA
ENDROOT
BRANCH   1  12
ATOM     12  C   UNL     1     173.319 172.082 178.037  1.00  0.00     0.021 A 
ATOM     13  C   UNL     1     172.048 172.671 177.922  1.00  0.00     0.016 A 
ATOM     14  C   UNL     1     171.433 173.255 179.032  1.00  0.00     0.051 A 
ATOM     15  C   UNL     1     172.078 173.271 180.271  1.00  0.00     0.157 A 
ATOM     16  C   UNL     1     173.971 172.112 179.286  1.00  0.00     0.062 A 
ATOM     17  C   UNL     1     173.354 172.699 180.400  1.00  0.00     0.158 A 
BRANCH  15  18
ATOM     18  O   UNL     1     171.438 173.859 181.361  1.00  0.00    -0.504 OA
ATOM     19  H   UNL     1     171.914 174.503 181.982  1.00  0.00     0.293 HD
ENDBRANCH  15  18
BRANCH  17  20
ATOM     20  O   UNL     1     174.007 172.721 181.632  1.00  0.00    -0.504 OA
ATOM     21  H   UNL     1     174.954 172.375 181.737  1.00  0.00     0.293 HD
ENDBRANCH  17  20
ENDBRANCH   1  12
BRANCH   6  22
ATOM     22  O   UNL     1     175.954 168.664 172.978  1.00  0.00    -0.507 OA
ATOM     23  H   UNL     1     175.533 168.358 172.114  1.00  0.00     0.293 HD
ENDBRANCH   6  22
BRANCH   8  24
ATOM     24  O   UNL     1     177.689 173.112 172.461  1.00  0.00    -0.508 OA
ATOM     25  H   UNL     1     177.296 173.920 171.992  1.00  0.00     0.293 HD
ENDBRANCH   8  24
TORSDOF 5
ENDMDL
MODEL 8
REMARK VINA RESULT:    -6.087      2.054      2.331
REMARK INTER + INTRA:          -7.470
REMARK INTER:                  -7.204
REMARK INTRA:                  -0.267
REMARK UNBOUND:                -0.316
REMARK SMILES O=c1cc(-c2ccc(O)c(O)c2)oc2cc(O)cc(O)c12
REMARK SMILES IDX 4 1 3 2 2 3 1 4 21 5 19 6 18 7 16 8 15 9 14 10 13 11 5 12
REMARK SMILES IDX 6 13 7 14 8 15 12 16 10 17 9 18 11 20 20 22 17 24
REMARK H PARENT 9 19 11 21 20 23 17 25
REMARK Flexibility Score: inf
ROOT
ATOM      1  C   UNL     1     172.380 174.881 176.822  1.00  0.00     0.138 A 
ATOM      2  C   UNL     1     172.660 176.209 176.473  1.00  0.00     0.100 A 
ATOM      3  C   UNL     1     172.094 176.754 175.321  1.00  0.00     0.197 A 
ATOM      4  O   UNL     1     172.413 177.928 175.001  1.00  0.00    -0.289 OA
ATOM      5  C   UNL     1     171.217 175.973 174.530  1.00  0.00     0.107 A 
ATOM      6  C   UNL     1     170.550 176.437 173.357  1.00  0.00     0.134 A 
ATOM      7  C   UNL     1     169.797 175.538 172.591  1.00  0.00     0.093 A 
ATOM      8  C   UNL     1     169.638 174.208 172.989  1.00  0.00     0.123 A 
ATOM      9  C   UNL     1     170.241 173.759 174.162  1.00  0.00     0.094 A 
ATOM     10  C   UNL     1     171.027 174.624 174.929  1.00  0.00     0.146 A 
ATOM     11  O   UNL     1     171.597 174.151 176.033  1.00  0.00    -0.456 OA
ENDROOT
BRANCH   1  12
ATOM     12  C   UNL     1     172.954 174.251 178.038  1.00  0.00     0.021 A 
ATOM     13  C   UNL     1     174.274 173.769 178.009  1.00  0.00     0.016 A 
ATOM     14  C   UNL     1     174.835 173.166 179.137  1.00  0.00     0.051 A 
ATOM     15  C   UNL     1     174.086 173.024 180.309  1.00  0.00     0.157 A 
ATOM     16  C   UNL     1     172.199 174.093 179.217  1.00  0.00     0.062 A 
ATOM     17  C   UNL     1     172.762 173.487 180.349  1.00  0.00     0.158 A 
BRANCH  15  18
ATOM     18  O   UNL     1     174.674 172.420 181.420  1.00  0.00    -0.504 OA
ATOM     19  H   UNL     1     174.392 171.502 181.746  1.00  0.00     0.293 HD
ENDBRANCH  15  18
BRANCH  17  20
ATOM     20  O   UNL     1     172.006 173.338 181.512  1.00  0.00    -0.504 OA
ATOM     21  H   UNL     1     171.049 173.005 181.485  1.00  0.00     0.293 HD
ENDBRANCH  17  20
ENDBRANCH   1  12
BRANCH   6  22
ATOM     22  O   UNL     1     170.573 177.764 172.918  1.00  0.00    -0.507 OA
ATOM     23  H   UNL     1     170.507 178.054 171.955  1.00  0.00     0.293 HD
ENDBRANCH   6  22
BRANCH   8  24
ATOM     24  O   UNL     1     168.875 173.325 172.228  1.00  0.00    -0.508 OA
ATOM     25  H   UNL     1     168.065 172.855 172.615  1.00  0.00     0.293 HD
ENDBRANCH   8  24
TORSDOF 5
ENDMDL
MODEL 9
REMARK VINA RESULT:    -6.021      4.837      6.029
REMARK INTER + INTRA:          -7.393
REMARK INTER:                  -7.099
REMARK INTRA:                  -0.294
REMARK UNBOUND:                -0.316
REMARK SMILES O=c1cc(-c2ccc(O)c(O)c2)oc2cc(O)cc(O)c12
REMARK SMILES IDX 4 1 3 2 2 3 1 4 21 5 19 6 18 7 16 8 15 9 14 10 13 11 5 12
REMARK SMILES IDX 6 13 7 14 8 15 12 16 10 17 9 18 11 20 20 22 17 24
REMARK H PARENT 9 19 11 21 20 23 17 25
REMARK Flexibility Score: inf
ROOT
ATOM      1  C   UNL     1     173.150 171.195 177.012  1.00  0.00     0.138 A 
ATOM      2  C   UNL     1     174.073 170.143 176.942  1.00  0.00     0.100 A 
ATOM      3  C   UNL     1     174.152 169.369 175.784  1.00  0.00     0.197 A 
ATOM      4  O   UNL     1     174.946 168.394 175.775  1.00  0.00    -0.289 OA
ATOM      5  C   UNL     1     173.323 169.672 174.678  1.00  0.00     0.107 A 
ATOM      6  C   UNL     1     173.346 168.979 173.430  1.00  0.00     0.134 A 
ATOM      7  C   UNL     1     172.399 169.293 172.449  1.00  0.00     0.093 A 
ATOM      8  C   UNL     1     171.468 170.317 172.646  1.00  0.00     0.123 A 
ATOM      9  C   UNL     1     171.473 171.037 173.838  1.00  0.00     0.094 A 
ATOM     10  C   UNL     1     172.383 170.723 174.851  1.00  0.00     0.146 A 
ATOM     11  O   UNL     1     172.345 171.425 175.979  1.00  0.00    -0.456 OA
ENDROOT
BRANCH   1  12
ATOM     12  C   UNL     1     173.024 172.050 178.219  1.00  0.00     0.021 A 
ATOM     13  C   UNL     1     171.885 172.858 178.379  1.00  0.00     0.016 A 
ATOM     14  C   UNL     1     171.746 173.677 179.502  1.00  0.00     0.051 A 
ATOM     15  C   UNL     1     172.745 173.712 180.479  1.00  0.00     0.157 A 
ATOM     16  C   UNL     1     174.034 172.100 179.200  1.00  0.00     0.062 A 
ATOM     17  C   UNL     1     173.896 172.923 180.327  1.00  0.00     0.158 A 
BRANCH  15  18
ATOM     18  O   UNL     1     172.577 174.538 181.590  1.00  0.00    -0.504 OA
ATOM     19  H   UNL     1     171.783 175.161 181.683  1.00  0.00     0.293 HD
ENDBRANCH  15  18
BRANCH  17  20
ATOM     20  O   UNL     1     174.901 172.962 181.293  1.00  0.00    -0.504 OA
ATOM     21  H   UNL     1     175.855 173.210 181.057  1.00  0.00     0.293 HD
ENDBRANCH  17  20
ENDBRANCH   1  12
BRANCH   6  22
ATOM     22  O   UNL     1     174.286 167.999 173.100  1.00  0.00    -0.507 OA
ATOM     23  H   UNL     1     174.516 167.202 173.674  1.00  0.00     0.293 HD
ENDBRANCH   6  22
BRANCH   8  24
ATOM     24  O   UNL     1     170.539 170.633 171.657  1.00  0.00    -0.508 OA
ATOM     25  H   UNL     1     169.582 170.873 171.886  1.00  0.00     0.293 HD
ENDBRANCH   8  24
TORSDOF 5
ENDMDL
