MODEL 1
REMARK VINA RESULT:    -3.567      0.000      0.000
REMARK INTER + INTRA:          -8.918
REMARK INTER:                  -6.486
REMARK INTRA:                  -2.432
REMARK UNBOUND:                -2.432
REMARK SMILES CCCCCC=CCC=CCCCCCCCC(=O)[O-]
REMARK SMILES IDX 11 1 12 2 13 3 14 4 15 5 16 6 17 7 18 8 19 9 20 10 10 11
REMARK SMILES IDX 9 12 8 13 7 14 6 15 5 16 4 17 3 18 2 19 1 20
REMARK H PARENT
REMARK Flexibility Score: inf
ROOT
ATOM      1  C   UNL     1      61.419  30.268  58.657  1.00  0.00     0.027 C 
ENDROOT
BRANCH   1   2
ATOM      2  C   UNL     1      61.665  28.930  59.372  1.00  0.00     0.004 C 
BRANCH   2   3
ATOM      3  C   UNL     1      61.388  28.957  60.886  1.00  0.00     0.000 C 
BRANCH   3   4
ATOM      4  C   UNL     1      62.674  29.002  61.727  1.00  0.00     0.000 C 
BRANCH   4   5
ATOM      5  C   UNL     1      63.868  28.348  61.012  1.00  0.00     0.000 C 
BRANCH   5   6
ATOM      6  C   UNL     1      65.110  29.252  60.982  1.00  0.00     0.006 C 
BRANCH   6   7
ATOM      7  C   UNL     1      66.109  28.774  59.923  1.00  0.00     0.053 C 
BRANCH   7   8
ATOM      8  C   UNL     1      67.512  28.918  60.422  1.00  0.00     0.041 C 
ATOM      9  O   UNL     1      68.375  29.513  59.725  1.00  0.00    -0.550 OA
ATOM     10  O   UNL     1      67.880  28.349  61.635  1.00  0.00    -0.550 OA
ENDBRANCH   7   8
ENDBRANCH   6   7
ENDBRANCH   5   6
ENDBRANCH   4   5
ENDBRANCH   3   4
ENDBRANCH   2   3
ENDBRANCH   1   2
BRANCH   1  11
ATOM     11  C   UNL     1      62.699  31.032  58.448  1.00  0.00    -0.031 C 
ATOM     12  C   UNL     1      63.171  31.881  59.372  1.00  0.00    -0.027 C 
BRANCH  12  13
ATOM     13  C   UNL     1      64.484  32.590  59.193  1.00  0.00     0.054 C 
BRANCH  13  14
ATOM     14  C   UNL     1      65.086  32.928  60.530  1.00  0.00    -0.027 C 
ATOM     15  C   UNL     1      65.015  34.139  61.114  1.00  0.00    -0.031 C 
BRANCH  15  16
ATOM     16  C   UNL     1      64.382  35.356  60.487  1.00  0.00     0.027 C 
BRANCH  16  17
ATOM     17  C   UNL     1      63.217  35.897  61.330  1.00  0.00     0.004 C 
BRANCH  17  18
ATOM     18  C   UNL     1      61.950  36.125  60.487  1.00  0.00     0.000 C 
BRANCH  18  19
ATOM     19  C   UNL     1      62.011  35.412  59.127  1.00  0.00    -0.003 C 
ATOM     20  C   UNL     1      60.740  34.621  58.817  1.00  0.00     0.004 C 
ENDBRANCH  18  19
ENDBRANCH  17  18
ENDBRANCH  16  17
ENDBRANCH  15  16
ENDBRANCH  13  14
ENDBRANCH  12  13
ENDBRANCH   1  11
TORSDOF 14
ENDMDL
MODEL 2
REMARK VINA RESULT:    -3.142      4.682      7.033
REMARK INTER + INTRA:          -8.145
REMARK INTER:                  -5.616
REMARK INTRA:                  -2.528
REMARK UNBOUND:                -2.432
REMARK SMILES CCCCCC=CCC=CCCCCCCCC(=O)[O-]
REMARK SMILES IDX 11 1 12 2 13 3 14 4 15 5 16 6 17 7 18 8 19 9 20 10 10 11
REMARK SMILES IDX 9 12 8 13 7 14 6 15 5 16 4 17 3 18 2 19 1 20
REMARK H PARENT
REMARK Flexibility Score: inf
ROOT
ATOM      1  C   UNL     1      63.765  25.567  59.825  1.00  0.00     0.027 C 
ENDROOT
BRANCH   1   2
ATOM      2  C   UNL     1      63.886  24.687  61.079  1.00  0.00     0.004 C 
BRANCH   2   3
ATOM      3  C   UNL     1      62.573  24.012  61.512  1.00  0.00     0.000 C 
BRANCH   3   4
ATOM      4  C   UNL     1      62.206  24.305  62.976  1.00  0.00     0.000 C 
BRANCH   4   5
ATOM      5  C   UNL     1      61.099  25.364  63.106  1.00  0.00     0.000 C 
BRANCH   5   6
ATOM      6  C   UNL     1      60.153  25.385  61.895  1.00  0.00     0.006 C 
BRANCH   6   7
ATOM      7  C   UNL     1      59.467  26.747  61.760  1.00  0.00     0.053 C 
BRANCH   7   8
ATOM      8  C   UNL     1      57.981  26.597  61.841  1.00  0.00     0.041 C 
ATOM      9  O   UNL     1      57.278  27.510  62.351  1.00  0.00    -0.550 OA
ATOM     10  O   UNL     1      57.375  25.427  61.400  1.00  0.00    -0.550 OA
ENDBRANCH   7   8
ENDBRANCH   6   7
ENDBRANCH   5   6
ENDBRANCH   4   5
ENDBRANCH   3   4
ENDBRANCH   2   3
ENDBRANCH   1   2
BRANCH   1  11
ATOM     11  C   UNL     1      63.151  26.905  60.140  1.00  0.00    -0.031 C 
ATOM     12  C   UNL     1      63.393  27.535  61.299  1.00  0.00    -0.027 C 
BRANCH  12  13
ATOM     13  C   UNL     1      62.835  28.901  61.584  1.00  0.00     0.054 C 
BRANCH  13  14
ATOM     14  C   UNL     1      62.858  29.748  60.340  1.00  0.00    -0.027 C 
ATOM     15  C   UNL     1      63.898  30.510  59.954  1.00  0.00    -0.031 C 
BRANCH  15  16
ATOM     16  C   UNL     1      65.171  30.685  60.747  1.00  0.00     0.027 C 
BRANCH  16  17
ATOM     17  C   UNL     1      66.411  30.272  59.940  1.00  0.00     0.004 C 
BRANCH  17  18
ATOM     18  C   UNL     1      66.425  28.765  59.631  1.00  0.00     0.000 C 
BRANCH  18  19
ATOM     19  C   UNL     1      66.909  27.924  60.822  1.00  0.00    -0.003 C 
ATOM     20  C   UNL     1      68.195  28.466  61.444  1.00  0.00     0.004 C 
ENDBRANCH  18  19
ENDBRANCH  17  18
ENDBRANCH  16  17
ENDBRANCH  15  16
ENDBRANCH  13  14
ENDBRANCH  12  13
ENDBRANCH   1  11
TORSDOF 14
ENDMDL
MODEL 3
REMARK VINA RESULT:    -3.103      2.382      4.108
REMARK INTER + INTRA:          -8.075
REMARK INTER:                  -5.605
REMARK INTRA:                  -2.471
REMARK UNBOUND:                -2.432
REMARK SMILES CCCCCC=CCC=CCCCCCCCC(=O)[O-]
REMARK SMILES IDX 11 1 12 2 13 3 14 4 15 5 16 6 17 7 18 8 19 9 20 10 10 11
REMARK SMILES IDX 9 12 8 13 7 14 6 15 5 16 4 17 3 18 2 19 1 20
REMARK H PARENT
REMARK Flexibility Score: inf
ROOT
ATOM      1  C   UNL     1      64.521  26.021  60.385  1.00  0.00     0.027 C 
ENDROOT
BRANCH   1   2
ATOM      2  C   UNL     1      63.211  25.757  61.144  1.00  0.00     0.004 C 
BRANCH   2   3
ATOM      3  C   UNL     1      62.603  27.002  61.814  1.00  0.00     0.000 C 
BRANCH   3   4
ATOM      4  C   UNL     1      61.473  27.633  60.985  1.00  0.00     0.000 C 
BRANCH   4   5
ATOM      5  C   UNL     1      61.515  29.170  61.005  1.00  0.00     0.000 C 
BRANCH   5   6
ATOM      6  C   UNL     1      62.006  29.768  59.677  1.00  0.00     0.006 C 
BRANCH   6   7
ATOM      7  C   UNL     1      61.936  28.732  58.552  1.00  0.00     0.053 C 
BRANCH   7   8
ATOM      8  C   UNL     1      63.126  28.853  57.653  1.00  0.00     0.041 C 
ATOM      9  O   UNL     1      63.680  29.971  57.481  1.00  0.00    -0.550 OA
ATOM     10  O   UNL     1      63.593  27.740  56.963  1.00  0.00    -0.550 OA
ENDBRANCH   7   8
ENDBRANCH   6   7
ENDBRANCH   5   6
ENDBRANCH   4   5
ENDBRANCH   3   4
ENDBRANCH   2   3
ENDBRANCH   1   2
BRANCH   1  11
ATOM     11  C   UNL     1      65.051  27.404  60.652  1.00  0.00    -0.031 C 
ATOM     12  C   UNL     1      65.790  28.062  59.746  1.00  0.00    -0.027 C 
BRANCH  12  13
ATOM     13  C   UNL     1      66.260  29.469  59.986  1.00  0.00     0.054 C 
BRANCH  13  14
ATOM     14  C   UNL     1      65.452  30.114  61.080  1.00  0.00    -0.027 C 
ATOM     15  C   UNL     1      64.965  31.368  61.030  1.00  0.00    -0.031 C 
BRANCH  15  16
ATOM     16  C   UNL     1      65.215  32.339  59.903  1.00  0.00     0.027 C 
BRANCH  16  17
ATOM     17  C   UNL     1      63.973  33.188  59.589  1.00  0.00     0.004 C 
BRANCH  17  18
ATOM     18  C   UNL     1      64.200  34.679  59.893  1.00  0.00     0.000 C 
BRANCH  18  19
ATOM     19  C   UNL     1      64.473  34.941  61.382  1.00  0.00    -0.003 C 
ATOM     20  C   UNL     1      65.829  35.601  61.627  1.00  0.00     0.004 C 
ENDBRANCH  18  19
ENDBRANCH  17  18
ENDBRANCH  16  17
ENDBRANCH  15  16
ENDBRANCH  13  14
ENDBRANCH  12  13
ENDBRANCH   1  11
TORSDOF 14
ENDMDL
MODEL 4
REMARK VINA RESULT:    -3.100     10.444     12.784
REMARK INTER + INTRA:          -8.069
REMARK INTER:                  -5.546
REMARK INTRA:                  -2.523
REMARK UNBOUND:                -2.432
REMARK SMILES CCCCCC=CCC=CCCCCCCCC(=O)[O-]
REMARK SMILES IDX 11 1 12 2 13 3 14 4 15 5 16 6 17 7 18 8 19 9 20 10 10 11
REMARK SMILES IDX 9 12 8 13 7 14 6 15 5 16 4 17 3 18 2 19 1 20
REMARK H PARENT
REMARK Flexibility Score: inf
ROOT
ATOM      1  C   UNL     1      56.391  25.566  50.351  1.00  0.00     0.027 C 
ENDROOT
BRANCH   1   2
ATOM      2  C   UNL     1      55.050  26.126  50.851  1.00  0.00     0.004 C 
BRANCH   2   3
ATOM      3  C   UNL     1      54.475  27.265  49.989  1.00  0.00     0.000 C 
BRANCH   3   4
ATOM      4  C   UNL     1      54.207  28.546  50.796  1.00  0.00     0.000 C 
BRANCH   4   5
ATOM      5  C   UNL     1      54.170  28.291  52.312  1.00  0.00     0.000 C 
BRANCH   5   6
ATOM      6  C   UNL     1      54.984  29.323  53.107  1.00  0.00     0.006 C 
BRANCH   6   7
ATOM      7  C   UNL     1      55.683  30.310  52.168  1.00  0.00     0.053 C 
BRANCH   7   8
ATOM      8  C   UNL     1      55.353  31.719  52.547  1.00  0.00     0.041 C 
ATOM      9  O   UNL     1      54.188  32.019  52.920  1.00  0.00    -0.550 OA
ATOM     10  O   UNL     1      56.318  32.713  52.439  1.00  0.00    -0.550 OA
ENDBRANCH   7   8
ENDBRANCH   6   7
ENDBRANCH   5   6
ENDBRANCH   4   5
ENDBRANCH   3   4
ENDBRANCH   2   3
ENDBRANCH   1   2
BRANCH   1  11
ATOM     11  C   UNL     1      57.559  26.323  50.924  1.00  0.00    -0.031 C 
ATOM     12  C   UNL     1      57.549  26.786  52.183  1.00  0.00    -0.027 C 
BRANCH  12  13
ATOM     13  C   UNL     1      58.743  27.480  52.776  1.00  0.00     0.054 C 
BRANCH  13  14
ATOM     14  C   UNL     1      58.835  28.894  52.268  1.00  0.00    -0.027 C 
ATOM     15  C   UNL     1      59.922  29.422  51.675  1.00  0.00    -0.031 C 
BRANCH  15  16
ATOM     16  C   UNL     1      61.234  28.699  51.493  1.00  0.00     0.027 C 
BRANCH  16  17
ATOM     17  C   UNL     1      61.518  28.387  50.016  1.00  0.00     0.004 C 
BRANCH  17  18
ATOM     18  C   UNL     1      60.797  27.112  49.545  1.00  0.00     0.000 C 
BRANCH  18  19
ATOM     19  C   UNL     1      61.529  25.830  49.970  1.00  0.00    -0.003 C 
ATOM     20  C   UNL     1      60.598  24.621  50.063  1.00  0.00     0.004 C 
ENDBRANCH  18  19
ENDBRANCH  17  18
ENDBRANCH  16  17
ENDBRANCH  15  16
ENDBRANCH  13  14
ENDBRANCH  12  13
ENDBRANCH   1  11
TORSDOF 14
ENDMDL
MODEL 5
REMARK VINA RESULT:    -3.081      2.862      6.305
REMARK INTER + INTRA:          -8.035
REMARK INTER:                  -5.644
REMARK INTRA:                  -2.391
REMARK UNBOUND:                -2.432
REMARK SMILES CCCCCC=CCC=CCCCCCCCC(=O)[O-]
REMARK SMILES IDX 11 1 12 2 13 3 14 4 15 5 16 6 17 7 18 8 19 9 20 10 10 11
REMARK SMILES IDX 9 12 8 13 7 14 6 15 5 16 4 17 3 18 2 19 1 20
REMARK H PARENT
REMARK Flexibility Score: inf
ROOT
ATOM      1  C   UNL     1      65.966  28.938  58.170  1.00  0.00     0.027 C 
ENDROOT
BRANCH   1   2
ATOM      2  C   UNL     1      66.572  29.846  59.252  1.00  0.00     0.004 C 
BRANCH   2   3
ATOM      3  C   UNL     1      65.856  29.777  60.613  1.00  0.00     0.000 C 
BRANCH   3   4
ATOM      4  C   UNL     1      65.166  31.097  60.991  1.00  0.00     0.000 C 
BRANCH   4   5
ATOM      5  C   UNL     1      65.285  32.162  59.888  1.00  0.00     0.000 C 
BRANCH   5   6
ATOM      6  C   UNL     1      63.990  32.965  59.695  1.00  0.00     0.006 C 
BRANCH   6   7
ATOM      7  C   UNL     1      64.272  34.469  59.703  1.00  0.00     0.053 C 
BRANCH   7   8
ATOM      8  C   UNL     1      64.148  35.020  61.088  1.00  0.00     0.041 C 
ATOM      9  O   UNL     1      63.122  35.670  61.422  1.00  0.00    -0.550 OA
ATOM     10  O   UNL     1      65.187  34.860  61.996  1.00  0.00    -0.550 OA
ENDBRANCH   7   8
ENDBRANCH   6   7
ENDBRANCH   5   6
ENDBRANCH   4   5
ENDBRANCH   3   4
ENDBRANCH   2   3
ENDBRANCH   1   2
BRANCH   1  11
ATOM     11  C   UNL     1      64.513  29.250  57.931  1.00  0.00    -0.031 C 
ATOM     12  C   UNL     1      63.577  28.289  57.934  1.00  0.00    -0.027 C 
BRANCH  12  13
ATOM     13  C   UNL     1      62.118  28.610  57.765  1.00  0.00     0.054 C 
BRANCH  13  14
ATOM     14  C   UNL     1      61.797  29.941  58.389  1.00  0.00    -0.027 C 
ATOM     15  C   UNL     1      61.427  30.113  59.671  1.00  0.00    -0.031 C 
BRANCH  15  16
ATOM     16  C   UNL     1      61.210  28.991  60.657  1.00  0.00     0.027 C 
BRANCH  16  17
ATOM     17  C   UNL     1      62.399  28.832  61.617  1.00  0.00     0.004 C 
BRANCH  17  18
ATOM     18  C   UNL     1      63.139  27.500  61.405  1.00  0.00     0.000 C 
BRANCH  18  19
ATOM     19  C   UNL     1      62.543  26.356  62.240  1.00  0.00    -0.003 C 
ATOM     20  C   UNL     1      63.074  24.984  61.826  1.00  0.00     0.004 C 
ENDBRANCH  18  19
ENDBRANCH  17  18
ENDBRANCH  16  17
ENDBRANCH  15  16
ENDBRANCH  13  14
ENDBRANCH  12  13
ENDBRANCH   1  11
TORSDOF 14
ENDMDL
MODEL 6
REMARK VINA RESULT:    -3.065      9.918     11.605
REMARK INTER + INTRA:          -8.006
REMARK INTER:                  -5.371
REMARK INTRA:                  -2.635
REMARK UNBOUND:                -2.432
REMARK SMILES CCCCCC=CCC=CCCCCCCCC(=O)[O-]
REMARK SMILES IDX 11 1 12 2 13 3 14 4 15 5 16 6 17 7 18 8 19 9 20 10 10 11
REMARK SMILES IDX 9 12 8 13 7 14 6 15 5 16 4 17 3 18 2 19 1 20
REMARK H PARENT
REMARK Flexibility Score: inf
ROOT
ATOM      1  C   UNL     1      58.829  25.187  50.042  1.00  0.00     0.027 C 
ENDROOT
BRANCH   1   2
ATOM      2  C   UNL     1      59.544  23.957  50.622  1.00  0.00     0.004 C 
BRANCH   2   3
ATOM      3  C   UNL     1      60.946  23.703  50.039  1.00  0.00     0.000 C 
BRANCH   3   4
ATOM      4  C   UNL     1      62.039  23.642  51.119  1.00  0.00     0.000 C 
BRANCH   4   5
ATOM      5  C   UNL     1      62.764  24.985  51.300  1.00  0.00     0.000 C 
BRANCH   5   6
ATOM      6  C   UNL     1      62.792  25.823  50.013  1.00  0.00     0.006 C 
BRANCH   6   7
ATOM      7  C   UNL     1      62.703  27.318  50.331  1.00  0.00     0.053 C 
BRANCH   7   8
ATOM      8  C   UNL     1      63.365  28.124  49.257  1.00  0.00     0.041 C 
ATOM      9  O   UNL     1      63.403  29.380  49.339  1.00  0.00    -0.550 OA
ATOM     10  O   UNL     1      63.895  27.490  48.139  1.00  0.00    -0.550 OA
ENDBRANCH   7   8
ENDBRANCH   6   7
ENDBRANCH   5   6
ENDBRANCH   4   5
ENDBRANCH   3   4
ENDBRANCH   2   3
ENDBRANCH   1   2
BRANCH   1  11
ATOM     11  C   UNL     1      59.196  26.445  50.783  1.00  0.00    -0.031 C 
ATOM     12  C   UNL     1      59.385  26.450  52.111  1.00  0.00    -0.027 C 
BRANCH  12  13
ATOM     13  C   UNL     1      59.819  27.691  52.839  1.00  0.00     0.054 C 
BRANCH  13  14
ATOM     14  C   UNL     1      59.607  28.908  51.978  1.00  0.00    -0.027 C 
ATOM     15  C   UNL     1      58.550  29.735  52.075  1.00  0.00    -0.031 C 
BRANCH  15  16
ATOM     16  C   UNL     1      57.385  29.530  53.011  1.00  0.00     0.027 C 
BRANCH  16  17
ATOM     17  C   UNL     1      56.106  29.133  52.258  1.00  0.00     0.004 C 
BRANCH  17  18
ATOM     18  C   UNL     1      55.816  27.626  52.365  1.00  0.00     0.000 C 
BRANCH  18  19
ATOM     19  C   UNL     1      55.503  26.988  51.003  1.00  0.00    -0.003 C 
ATOM     20  C   UNL     1      54.470  27.781  50.203  1.00  0.00     0.004 C 
ENDBRANCH  18  19
ENDBRANCH  17  18
ENDBRANCH  16  17
ENDBRANCH  15  16
ENDBRANCH  13  14
ENDBRANCH  12  13
ENDBRANCH   1  11
TORSDOF 14
ENDMDL
MODEL 7
REMARK VINA RESULT:    -3.045     12.096     14.132
REMARK INTER + INTRA:          -7.969
REMARK INTER:                  -6.416
REMARK INTRA:                  -1.553
REMARK UNBOUND:                -2.432
REMARK SMILES CCCCCC=CCC=CCCCCCCCC(=O)[O-]
REMARK SMILES IDX 11 1 12 2 13 3 14 4 15 5 16 6 17 7 18 8 19 9 20 10 10 11
REMARK SMILES IDX 9 12 8 13 7 14 6 15 5 16 4 17 3 18 2 19 1 20
REMARK H PARENT
REMARK Flexibility Score: inf
ROOT
ATOM      1  C   UNL     1      60.756  22.935  50.763  1.00  0.00     0.027 C 
ENDROOT
BRANCH   1   2
ATOM      2  C   UNL     1      61.047  22.266  49.410  1.00  0.00     0.004 C 
BRANCH   2   3
ATOM      3  C   UNL     1      60.703  20.767  49.355  1.00  0.00     0.000 C 
BRANCH   3   4
ATOM      4  C   UNL     1      60.243  20.211  50.712  1.00  0.00     0.000 C 
BRANCH   4   5
ATOM      5  C   UNL     1      59.832  18.731  50.635  1.00  0.00     0.000 C 
BRANCH   5   6
ATOM      6  C   UNL     1      58.741  18.472  49.584  1.00  0.00     0.006 C 
BRANCH   6   7
ATOM      7  C   UNL     1      57.685  17.502  50.120  1.00  0.00     0.053 C 
BRANCH   7   8
ATOM      8  C   UNL     1      56.562  18.253  50.763  1.00  0.00     0.041 C 
ATOM      9  O   UNL     1      55.579  18.635  50.074  1.00  0.00    -0.550 OA
ATOM     10  O   UNL     1      56.624  18.577  52.113  1.00  0.00    -0.550 OA
ENDBRANCH   7   8
ENDBRANCH   6   7
ENDBRANCH   5   6
ENDBRANCH   4   5
ENDBRANCH   3   4
ENDBRANCH   2   3
ENDBRANCH   1   2
BRANCH   1  11
ATOM     11  C   UNL     1      61.109  24.398  50.748  1.00  0.00    -0.031 C 
ATOM     12  C   UNL     1      62.255  24.841  50.210  1.00  0.00    -0.027 C 
BRANCH  12  13
ATOM     13  C   UNL     1      62.574  26.307  50.133  1.00  0.00     0.054 C 
BRANCH  13  14
ATOM     14  C   UNL     1      61.453  27.055  49.462  1.00  0.00    -0.027 C 
ATOM     15  C   UNL     1      60.585  27.861  50.101  1.00  0.00    -0.031 C 
BRANCH  15  16
ATOM     16  C   UNL     1      60.560  28.081  51.594  1.00  0.00     0.027 C 
BRANCH  16  17
ATOM     17  C   UNL     1      59.480  27.233  52.282  1.00  0.00     0.004 C 
BRANCH  17  18
ATOM     18  C   UNL     1      58.061  27.653  51.864  1.00  0.00     0.000 C 
BRANCH  18  19
ATOM     19  C   UNL     1      57.143  26.449  51.600  1.00  0.00    -0.003 C 
ATOM     20  C   UNL     1      57.704  25.500  50.541  1.00  0.00     0.004 C 
ENDBRANCH  18  19
ENDBRANCH  17  18
ENDBRANCH  16  17
ENDBRANCH  15  16
ENDBRANCH  13  14
ENDBRANCH  12  13
ENDBRANCH   1  11
TORSDOF 14
ENDMDL
MODEL 8
REMARK VINA RESULT:    -3.030      3.201      5.727
REMARK INTER + INTRA:          -7.942
REMARK INTER:                  -5.321
REMARK INTRA:                  -2.622
REMARK UNBOUND:                -2.432
REMARK SMILES CCCCCC=CCC=CCCCCCCCC(=O)[O-]
REMARK SMILES IDX 11 1 12 2 13 3 14 4 15 5 16 6 17 7 18 8 19 9 20 10 10 11
REMARK SMILES IDX 9 12 8 13 7 14 6 15 5 16 4 17 3 18 2 19 1 20
REMARK H PARENT
REMARK Flexibility Score: inf
ROOT
ATOM      1  C   UNL     1      66.611  29.924  56.988  1.00  0.00     0.027 C 
ENDROOT
BRANCH   1   2
ATOM      2  C   UNL     1      67.682  28.960  57.523  1.00  0.00     0.004 C 
BRANCH   2   3
ATOM      3  C   UNL     1      67.120  27.732  58.262  1.00  0.00     0.000 C 
BRANCH   3   4
ATOM      4  C   UNL     1      68.001  27.291  59.442  1.00  0.00     0.000 C 
BRANCH   4   5
ATOM      5  C   UNL     1      67.578  27.940  60.769  1.00  0.00     0.000 C 
BRANCH   5   6
ATOM      6  C   UNL     1      68.750  28.607  61.505  1.00  0.00     0.006 C 
BRANCH   6   7
ATOM      7  C   UNL     1      69.672  29.333  60.521  1.00  0.00     0.053 C 
BRANCH   7   8
ATOM      8  C   UNL     1      71.102  29.183  60.934  1.00  0.00     0.041 C 
ATOM      9  O   UNL     1      71.673  30.098  61.584  1.00  0.00    -0.550 OA
ATOM     10  O   UNL     1      71.821  28.057  60.554  1.00  0.00    -0.550 OA
ENDBRANCH   7   8
ENDBRANCH   6   7
ENDBRANCH   5   6
ENDBRANCH   4   5
ENDBRANCH   3   4
ENDBRANCH   2   3
ENDBRANCH   1   2
BRANCH   1  11
ATOM     11  C   UNL     1      65.678  30.381  58.078  1.00  0.00    -0.031 C 
ATOM     12  C   UNL     1      66.120  31.073  59.139  1.00  0.00    -0.027 C 
BRANCH  12  13
ATOM     13  C   UNL     1      65.178  31.588  60.190  1.00  0.00     0.054 C 
BRANCH  13  14
ATOM     14  C   UNL     1      65.111  30.632  61.350  1.00  0.00    -0.027 C 
ATOM     15  C   UNL     1      64.233  29.617  61.453  1.00  0.00    -0.031 C 
BRANCH  15  16
ATOM     16  C   UNL     1      63.138  29.329  60.455  1.00  0.00     0.027 C 
BRANCH  16  17
ATOM     17  C   UNL     1      63.333  27.970  59.764  1.00  0.00     0.004 C 
BRANCH  17  18
ATOM     18  C   UNL     1      64.075  26.966  60.662  1.00  0.00     0.000 C 
BRANCH  18  19
ATOM     19  C   UNL     1      63.152  25.863  61.202  1.00  0.00    -0.003 C 
ATOM     20  C   UNL     1      62.424  26.275  62.481  1.00  0.00     0.004 C 
ENDBRANCH  18  19
ENDBRANCH  17  18
ENDBRANCH  16  17
ENDBRANCH  15  16
ENDBRANCH  13  14
ENDBRANCH  12  13
ENDBRANCH   1  11
TORSDOF 14
ENDMDL
MODEL 9
REMARK VINA RESULT:    -3.025     10.029     12.505
REMARK INTER + INTRA:          -7.933
REMARK INTER:                  -5.342
REMARK INTRA:                  -2.591
REMARK UNBOUND:                -2.432
REMARK SMILES CCCCCC=CCC=CCCCCCCCC(=O)[O-]
REMARK SMILES IDX 11 1 12 2 13 3 14 4 15 5 16 6 17 7 18 8 19 9 20 10 10 11
REMARK SMILES IDX 9 12 8 13 7 14 6 15 5 16 4 17 3 18 2 19 1 20
REMARK H PARENT
REMARK Flexibility Score: inf
ROOT
ATOM      1  C   UNL     1      64.168  25.132  51.131  1.00  0.00     0.027 C 
ENDROOT
BRANCH   1   2
ATOM      2  C   UNL     1      64.796  26.366  50.463  1.00  0.00     0.004 C 
BRANCH   2   3
ATOM      3  C   UNL     1      64.608  26.428  48.936  1.00  0.00     0.000 C 
BRANCH   3   4
ATOM      4  C   UNL     1      64.549  27.868  48.401  1.00  0.00     0.000 C 
BRANCH   4   5
ATOM      5  C   UNL     1      65.239  28.873  49.337  1.00  0.00     0.000 C 
BRANCH   5   6
ATOM      6  C   UNL     1      64.897  30.332  48.998  1.00  0.00     0.006 C 
BRANCH   6   7
ATOM      7  C   UNL     1      64.554  31.123  50.263  1.00  0.00     0.053 C 
BRANCH   7   8
ATOM      8  C   UNL     1      63.400  32.042  50.012  1.00  0.00     0.041 C 
ATOM      9  O   UNL     1      62.877  32.677  50.965  1.00  0.00    -0.550 OA
ATOM     10  O   UNL     1      62.868  32.157  48.734  1.00  0.00    -0.550 OA
ENDBRANCH   7   8
ENDBRANCH   6   7
ENDBRANCH   5   6
ENDBRANCH   4   5
ENDBRANCH   3   4
ENDBRANCH   2   3
ENDBRANCH   1   2
BRANCH   1  11
ATOM     11  C   UNL     1      62.921  24.686  50.416  1.00  0.00    -0.031 C 
ATOM     12  C   UNL     1      62.417  23.454  50.581  1.00  0.00    -0.027 C 
BRANCH  12  13
ATOM     13  C   UNL     1      61.134  23.033  49.921  1.00  0.00     0.054 C 
BRANCH  13  14
ATOM     14  C   UNL     1      59.961  23.328  50.816  1.00  0.00    -0.027 C 
ATOM     15  C   UNL     1      59.174  24.415  50.708  1.00  0.00    -0.031 C 
BRANCH  15  16
ATOM     16  C   UNL     1      59.391  25.534  49.719  1.00  0.00     0.027 C 
BRANCH  16  17
ATOM     17  C   UNL     1      60.002  26.777  50.384  1.00  0.00     0.004 C 
BRANCH  17  18
ATOM     18  C   UNL     1      60.932  27.545  49.429  1.00  0.00     0.000 C 
BRANCH  18  19
ATOM     19  C   UNL     1      61.436  28.865  50.033  1.00  0.00    -0.003 C 
ATOM     20  C   UNL     1      61.995  28.695  51.445  1.00  0.00     0.004 C 
ENDBRANCH  18  19
ENDBRANCH  17  18
ENDBRANCH  16  17
ENDBRANCH  15  16
ENDBRANCH  13  14
ENDBRANCH  12  13
ENDBRANCH   1  11
TORSDOF 14
ENDMDL
