MODEL 1
REMARK VINA RESULT:    -4.449      0.000      0.000
REMARK INTER + INTRA:          -5.183
REMARK INTER:                  -4.970
REMARK INTRA:                  -0.214
REMARK UNBOUND:                -0.214
REMARK SMILES CC(C)c1ccc(C(=O)[O-])cc1
REMARK SMILES IDX 7 1 6 2 11 3 5 4 12 5 4 6 8 7 9 8 10 9 2 10 1 11 3 12
REMARK H PARENT
REMARK Flexibility Score: inf
ROOT
ATOM      1  C   UNL     1      24.608   4.160   1.607  1.00  0.00    -0.003 A 
ATOM      2  C   UNL     1      25.713   3.752   0.841  1.00  0.00     0.010 A 
ATOM      3  C   UNL     1      23.417   4.510   0.949  1.00  0.00     0.010 A 
ATOM      4  C   UNL     1      25.628   3.694  -0.553  1.00  0.00     0.004 A 
ATOM      5  C   UNL     1      23.332   4.452  -0.445  1.00  0.00     0.004 A 
ATOM      6  C   UNL     1      24.438   4.043  -1.213  1.00  0.00    -0.045 A 
ENDROOT
BRANCH   1   7
ATOM      7  C   UNL     1      24.693   4.222   3.082  1.00  0.00     0.071 C 
ATOM      8  O   UNL     1      24.014   3.437   3.797  1.00  0.00    -0.545 OA
ATOM      9  O   UNL     1      25.524   5.148   3.701  1.00  0.00    -0.545 OA
ENDBRANCH   1   7
BRANCH   6  10
ATOM     10  C   UNL     1      24.361   3.976  -2.726  1.00  0.00     0.013 C 
ATOM     11  C   UNL     1      23.484   5.103  -3.285  1.00  0.00     0.012 C 
ATOM     12  C   UNL     1      25.761   4.004  -3.352  1.00  0.00     0.012 C 
ENDBRANCH   6  10
TORSDOF 2
ENDMDL
MODEL 2
REMARK VINA RESULT:    -4.442      0.082      1.681
REMARK INTER + INTRA:          -5.175
REMARK INTER:                  -4.962
REMARK INTRA:                  -0.213
REMARK UNBOUND:                -0.214
REMARK SMILES CC(C)c1ccc(C(=O)[O-])cc1
REMARK SMILES IDX 7 1 6 2 11 3 5 4 12 5 4 6 8 7 9 8 10 9 2 10 1 11 3 12
REMARK H PARENT
REMARK Flexibility Score: inf
ROOT
ATOM      1  C   UNL     1      24.627   4.195   1.630  1.00  0.00    -0.003 A 
ATOM      2  C   UNL     1      23.428   4.558   0.992  1.00  0.00     0.010 A 
ATOM      3  C   UNL     1      25.711   3.768   0.845  1.00  0.00     0.010 A 
ATOM      4  C   UNL     1      23.317   4.496  -0.400  1.00  0.00     0.004 A 
ATOM      5  C   UNL     1      25.600   3.706  -0.547  1.00  0.00     0.004 A 
ATOM      6  C   UNL     1      24.400   4.070  -1.185  1.00  0.00    -0.045 A 
ENDROOT
BRANCH   1   7
ATOM      7  C   UNL     1      24.749   4.259   3.102  1.00  0.00     0.071 C 
ATOM      8  O   UNL     1      25.507   5.105   3.647  1.00  0.00    -0.545 OA
ATOM      9  O   UNL     1      24.026   3.385   3.908  1.00  0.00    -0.545 OA
ENDBRANCH   1   7
BRANCH   6  10
ATOM     10  C   UNL     1      24.265   4.008  -2.694  1.00  0.00     0.013 C 
ATOM     11  C   UNL     1      23.395   5.157  -3.219  1.00  0.00     0.012 C 
ATOM     12  C   UNL     1      25.640   4.003  -3.373  1.00  0.00     0.012 C 
ENDBRANCH   6  10
TORSDOF 2
ENDMDL
MODEL 3
REMARK VINA RESULT:    -4.361      3.838      5.613
REMARK INTER + INTRA:          -5.085
REMARK INTER:                  -4.871
REMARK INTRA:                  -0.214
REMARK UNBOUND:                -0.214
REMARK SMILES CC(C)c1ccc(C(=O)[O-])cc1
REMARK SMILES IDX 7 1 6 2 11 3 5 4 12 5 4 6 8 7 9 8 10 9 2 10 1 11 3 12
REMARK H PARENT
REMARK Flexibility Score: inf
ROOT
ATOM      1  C   UNL     1      24.055   4.952  -3.243  1.00  0.00    -0.003 A 
ATOM      2  C   UNL     1      23.339   5.122  -2.046  1.00  0.00     0.010 A 
ATOM      3  C   UNL     1      25.288   4.280  -3.208  1.00  0.00     0.010 A 
ATOM      4  C   UNL     1      23.846   4.631  -0.839  1.00  0.00     0.004 A 
ATOM      5  C   UNL     1      25.795   3.789  -2.001  1.00  0.00     0.004 A 
ATOM      6  C   UNL     1      25.079   3.959  -0.802  1.00  0.00    -0.045 A 
ENDROOT
BRANCH   1   7
ATOM      7  C   UNL     1      23.523   5.470  -4.522  1.00  0.00     0.071 C 
ATOM      8  O   UNL     1      24.273   6.084  -5.327  1.00  0.00    -0.545 OA
ATOM      9  O   UNL     1      22.185   5.286  -4.854  1.00  0.00    -0.545 OA
ENDBRANCH   1   7
BRANCH   6  10
ATOM     10  C   UNL     1      25.616   3.431   0.514  1.00  0.00     0.013 C 
ATOM     11  C   UNL     1      27.024   2.846   0.342  1.00  0.00     0.012 C 
ATOM     12  C   UNL     1      25.600   4.519   1.594  1.00  0.00     0.012 C 
ENDBRANCH   6  10
TORSDOF 2
ENDMDL
MODEL 4
REMARK VINA RESULT:    -4.320      1.821      2.907
REMARK INTER + INTRA:          -5.038
REMARK INTER:                  -4.818
REMARK INTRA:                  -0.220
REMARK UNBOUND:                -0.214
REMARK SMILES CC(C)c1ccc(C(=O)[O-])cc1
REMARK SMILES IDX 7 1 6 2 11 3 5 4 12 5 4 6 8 7 9 8 10 9 2 10 1 11 3 12
REMARK H PARENT
REMARK Flexibility Score: inf
ROOT
ATOM      1  C   UNL     1      25.525   3.881  -0.641  1.00  0.00    -0.003 A 
ATOM      2  C   UNL     1      24.218   4.391  -0.568  1.00  0.00     0.010 A 
ATOM      3  C   UNL     1      26.138   3.762  -1.900  1.00  0.00     0.010 A 
ATOM      4  C   UNL     1      23.538   4.774  -1.728  1.00  0.00     0.004 A 
ATOM      5  C   UNL     1      25.458   4.145  -3.060  1.00  0.00     0.004 A 
ATOM      6  C   UNL     1      24.149   4.655  -2.986  1.00  0.00    -0.045 A 
ENDROOT
BRANCH   1   7
ATOM      7  C   UNL     1      26.248   3.475   0.583  1.00  0.00     0.071 C 
ATOM      8  O   UNL     1      25.878   3.891   1.714  1.00  0.00    -0.545 OA
ATOM      9  O   UNL     1      27.348   2.628   0.504  1.00  0.00    -0.545 OA
ENDBRANCH   1   7
BRANCH   6  10
ATOM     10  C   UNL     1      23.400   5.074  -4.236  1.00  0.00     0.013 C 
ATOM     11  C   UNL     1      22.270   6.056  -3.900  1.00  0.00     0.012 C 
ATOM     12  C   UNL     1      24.353   5.668  -5.280  1.00  0.00     0.012 C 
ENDBRANCH   6  10
TORSDOF 2
ENDMDL
MODEL 5
REMARK VINA RESULT:    -4.317      3.080      5.223
REMARK INTER + INTRA:          -5.036
REMARK INTER:                  -4.824
REMARK INTRA:                  -0.212
REMARK UNBOUND:                -0.214
REMARK SMILES CC(C)c1ccc(C(=O)[O-])cc1
REMARK SMILES IDX 7 1 6 2 11 3 5 4 12 5 4 6 8 7 9 8 10 9 2 10 1 11 3 12
REMARK H PARENT
REMARK Flexibility Score: inf
ROOT
ATOM      1  C   UNL     1      24.769   4.092  -1.360  1.00  0.00    -0.003 A 
ATOM      2  C   UNL     1      23.654   4.485  -0.599  1.00  0.00     0.010 A 
ATOM      3  C   UNL     1      25.938   3.687  -0.694  1.00  0.00     0.010 A 
ATOM      4  C   UNL     1      23.709   4.473   0.798  1.00  0.00     0.004 A 
ATOM      5  C   UNL     1      25.992   3.676   0.703  1.00  0.00     0.004 A 
ATOM      6  C   UNL     1      24.877   4.069   1.465  1.00  0.00    -0.045 A 
ENDROOT
BRANCH   1   7
ATOM      7  C   UNL     1      24.716   4.102  -2.838  1.00  0.00     0.071 C 
ATOM      8  O   UNL     1      23.683   4.501  -3.440  1.00  0.00    -0.545 OA
ATOM      9  O   UNL     1      25.807   3.672  -3.585  1.00  0.00    -0.545 OA
ENDBRANCH   1   7
BRANCH   6  10
ATOM     10  C   UNL     1      24.921   4.062   2.981  1.00  0.00     0.013 C 
ATOM     11  C   UNL     1      25.292   5.445   3.529  1.00  0.00     0.012 C 
ATOM     12  C   UNL     1      23.593   3.573   3.570  1.00  0.00     0.012 C 
ENDBRANCH   6  10
TORSDOF 2
ENDMDL
MODEL 6
REMARK VINA RESULT:    -4.311      3.697      5.296
REMARK INTER + INTRA:          -5.029
REMARK INTER:                  -4.815
REMARK INTRA:                  -0.214
REMARK UNBOUND:                -0.214
REMARK SMILES CC(C)c1ccc(C(=O)[O-])cc1
REMARK SMILES IDX 7 1 6 2 11 3 5 4 12 5 4 6 8 7 9 8 10 9 2 10 1 11 3 12
REMARK H PARENT
REMARK Flexibility Score: inf
ROOT
ATOM      1  C   UNL     1      24.889   4.696  -2.792  1.00  0.00    -0.003 A 
ATOM      2  C   UNL     1      25.933   4.088  -2.074  1.00  0.00     0.010 A 
ATOM      3  C   UNL     1      23.665   4.930  -2.143  1.00  0.00     0.010 A 
ATOM      4  C   UNL     1      25.758   3.724  -0.736  1.00  0.00     0.004 A 
ATOM      5  C   UNL     1      23.490   4.566  -0.804  1.00  0.00     0.004 A 
ATOM      6  C   UNL     1      24.535   3.958  -0.086  1.00  0.00    -0.045 A 
ENDROOT
BRANCH   1   7
ATOM      7  C   UNL     1      25.070   5.083  -4.207  1.00  0.00     0.071 C 
ATOM      8  O   UNL     1      26.158   4.854  -4.800  1.00  0.00    -0.545 OA
ATOM      9  O   UNL     1      24.041   5.705  -4.905  1.00  0.00    -0.545 OA
ENDBRANCH   1   7
BRANCH   6  10
ATOM     10  C   UNL     1      24.359   3.557   1.366  1.00  0.00     0.013 C 
ATOM     11  C   UNL     1      25.129   4.502   2.298  1.00  0.00     0.012 C 
ATOM     12  C   UNL     1      22.875   3.496   1.747  1.00  0.00     0.012 C 
ENDBRANCH   6  10
TORSDOF 2
ENDMDL
MODEL 7
REMARK VINA RESULT:    -4.191      3.057      5.044
REMARK INTER + INTRA:          -4.895
REMARK INTER:                  -4.687
REMARK INTRA:                  -0.208
REMARK UNBOUND:                -0.214
REMARK SMILES CC(C)c1ccc(C(=O)[O-])cc1
REMARK SMILES IDX 7 1 6 2 11 3 5 4 12 5 4 6 8 7 9 8 10 9 2 10 1 11 3 12
REMARK H PARENT
REMARK Flexibility Score: inf
ROOT
ATOM      1  C   UNL     1      24.770   4.154  -1.303  1.00  0.00    -0.003 A 
ATOM      2  C   UNL     1      25.892   3.713  -0.580  1.00  0.00     0.010 A 
ATOM      3  C   UNL     1      23.645   4.614  -0.599  1.00  0.00     0.010 A 
ATOM      4  C   UNL     1      25.887   3.733   0.818  1.00  0.00     0.004 A 
ATOM      5  C   UNL     1      23.641   4.634   0.798  1.00  0.00     0.004 A 
ATOM      6  C   UNL     1      24.763   4.193   1.523  1.00  0.00    -0.045 A 
ENDROOT
BRANCH   1   7
ATOM      7  C   UNL     1      24.771   4.135  -2.782  1.00  0.00     0.071 C 
ATOM      8  O   UNL     1      25.800   3.783  -3.419  1.00  0.00    -0.545 OA
ATOM      9  O   UNL     1      23.633   4.504  -3.492  1.00  0.00    -0.545 OA
ENDBRANCH   1   7
BRANCH   6  10
ATOM     10  C   UNL     1      24.773   4.209   3.040  1.00  0.00     0.013 C 
ATOM     11  C   UNL     1      24.652   5.640   3.578  1.00  0.00     0.012 C 
ATOM     12  C   UNL     1      23.668   3.310   3.609  1.00  0.00     0.012 C 
ENDBRANCH   6  10
TORSDOF 2
ENDMDL
MODEL 8
REMARK VINA RESULT:    -4.091      4.034      5.583
REMARK INTER + INTRA:          -4.784
REMARK INTER:                  -4.577
REMARK INTRA:                  -0.207
REMARK UNBOUND:                -0.214
REMARK SMILES CC(C)c1ccc(C(=O)[O-])cc1
REMARK SMILES IDX 7 1 6 2 11 3 5 4 12 5 4 6 8 7 9 8 10 9 2 10 1 11 3 12
REMARK H PARENT
REMARK Flexibility Score: inf
ROOT
ATOM      1  C   UNL     1      23.127   5.308  -3.399  1.00  0.00    -0.003 A 
ATOM      2  C   UNL     1      24.177   4.380  -3.292  1.00  0.00     0.010 A 
ATOM      3  C   UNL     1      22.590   5.865  -2.227  1.00  0.00     0.010 A 
ATOM      4  C   UNL     1      24.680   4.019  -2.038  1.00  0.00     0.004 A 
ATOM      5  C   UNL     1      23.093   5.504  -0.973  1.00  0.00     0.004 A 
ATOM      6  C   UNL     1      24.145   4.576  -0.865  1.00  0.00    -0.045 A 
ENDROOT
BRANCH   1   7
ATOM      7  C   UNL     1      22.592   5.693  -4.723  1.00  0.00     0.071 C 
ATOM      8  O   UNL     1      23.004   6.733  -5.303  1.00  0.00    -0.545 OA
ATOM      9  O   UNL     1      21.626   4.911  -5.347  1.00  0.00    -0.545 OA
ENDBRANCH   1   7
BRANCH   6  10
ATOM     10  C   UNL     1      24.700   4.175   0.487  1.00  0.00     0.013 C 
ATOM     11  C   UNL     1      23.664   3.387   1.299  1.00  0.00     0.012 C 
ATOM     12  C   UNL     1      26.003   3.379   0.336  1.00  0.00     0.012 C 
ENDBRANCH   6  10
TORSDOF 2
ENDMDL
MODEL 9
REMARK VINA RESULT:    -4.076      1.991      3.085
REMARK INTER + INTRA:          -4.766
REMARK INTER:                  -4.548
REMARK INTRA:                  -0.219
REMARK UNBOUND:                -0.214
REMARK SMILES CC(C)c1ccc(C(=O)[O-])cc1
REMARK SMILES IDX 7 1 6 2 11 3 5 4 12 5 4 6 8 7 9 8 10 9 2 10 1 11 3 12
REMARK H PARENT
REMARK Flexibility Score: inf
ROOT
ATOM      1  C   UNL     1      25.003   4.116  -1.127  1.00  0.00    -0.003 A 
ATOM      2  C   UNL     1      25.763   4.059  -2.308  1.00  0.00     0.010 A 
ATOM      3  C   UNL     1      23.738   4.725  -1.162  1.00  0.00     0.010 A 
ATOM      4  C   UNL     1      25.267   4.599  -3.498  1.00  0.00     0.004 A 
ATOM      5  C   UNL     1      23.242   5.265  -2.352  1.00  0.00     0.004 A 
ATOM      6  C   UNL     1      24.002   5.208  -3.535  1.00  0.00    -0.045 A 
ENDROOT
BRANCH   1   7
ATOM      7  C   UNL     1      25.524   3.545   0.134  1.00  0.00     0.071 C 
ATOM      8  O   UNL     1      24.817   3.544   1.177  1.00  0.00    -0.545 OA
ATOM      9  O   UNL     1      26.802   3.002   0.186  1.00  0.00    -0.545 OA
ENDBRANCH   1   7
BRANCH   6  10
ATOM     10  C   UNL     1      23.478   5.790  -4.833  1.00  0.00     0.013 C 
ATOM     11  C   UNL     1      24.477   5.579  -5.977  1.00  0.00     0.012 C 
ATOM     12  C   UNL     1      22.104   5.206  -5.185  1.00  0.00     0.012 C 
ENDBRANCH   6  10
TORSDOF 2
ENDMDL
