MODEL 1
REMARK VINA RESULT:    -3.949      0.000      0.000
REMARK INTER + INTRA:          -5.177
REMARK INTER:                  -4.872
REMARK INTRA:                  -0.305
REMARK UNBOUND:                -0.305
REMARK SMILES C=CCc1ccc(OC)c(OC)c1
REMARK SMILES IDX 7 1 10 2 13 3 4 4 5 5 6 6 8 7 9 8 11 9 12 10 3 11 2 12 1 13
REMARK H PARENT
REMARK Flexibility Score: inf
ROOT
ATOM      1  C   UNL     1     159.086 164.831 167.509  1.00  0.00     0.160 A 
ATOM      2  C   UNL     1     159.187 164.965 168.903  1.00  0.00     0.160 A 
ATOM      3  C   UNL     1     160.447 164.874 169.524  1.00  0.00     0.054 A 
ATOM      4  C   UNL     1     161.603 164.644 168.761  1.00  0.00    -0.040 A 
ATOM      5  C   UNL     1     161.496 164.523 167.370  1.00  0.00     0.008 A 
ATOM      6  C   UNL     1     160.250 164.611 166.747  1.00  0.00     0.051 A 
ENDROOT
BRANCH   1   7
ATOM      7  O   UNL     1     157.816 164.924 166.919  1.00  0.00    -0.493 OA
ATOM      8  C   UNL     1     157.465 165.859 165.904  1.00  0.00     0.278 C 
ENDBRANCH   1   7
BRANCH   2   9
ATOM      9  O   UNL     1     158.010 165.190 169.636  1.00  0.00    -0.493 OA
ATOM     10  C   UNL     1     157.931 165.179 171.058  1.00  0.00     0.278 C 
ENDBRANCH   2   9
BRANCH   4  11
ATOM     11  C   UNL     1     162.954 164.580 169.424  1.00  0.00     0.062 C 
BRANCH  11  12
ATOM     12  C   UNL     1     164.030 165.051 168.487  1.00  0.00    -0.030 C 
ATOM     13  C   UNL     1     164.546 166.281 168.572  1.00  0.00     0.004 C 
ENDBRANCH  11  12
ENDBRANCH   4  11
TORSDOF 4
ENDMDL
MODEL 2
REMARK VINA RESULT:    -3.918      8.504     11.594
REMARK INTER + INTRA:          -5.140
REMARK INTER:                  -4.833
REMARK INTRA:                  -0.307
REMARK UNBOUND:                -0.305
REMARK SMILES C=CCc1ccc(OC)c(OC)c1
REMARK SMILES IDX 7 1 10 2 13 3 4 4 5 5 6 6 8 7 9 8 11 9 12 10 3 11 2 12 1 13
REMARK H PARENT
REMARK Flexibility Score: inf
ROOT
ATOM      1  C   UNL     1     172.155 166.367 167.585  1.00  0.00     0.160 A 
ATOM      2  C   UNL     1     172.076 166.246 168.981  1.00  0.00     0.160 A 
ATOM      3  C   UNL     1     170.827 166.362 169.622  1.00  0.00     0.054 A 
ATOM      4  C   UNL     1     169.663 166.605 168.877  1.00  0.00    -0.040 A 
ATOM      5  C   UNL     1     169.749 166.715 167.484  1.00  0.00     0.008 A 
ATOM      6  C   UNL     1     170.983 166.602 166.841  1.00  0.00     0.051 A 
ENDROOT
BRANCH   1   7
ATOM      7  O   UNL     1     173.413 166.249 166.974  1.00  0.00    -0.493 OA
ATOM      8  C   UNL     1     173.711 165.352 165.909  1.00  0.00     0.278 C 
ENDBRANCH   1   7
BRANCH   2   9
ATOM      9  O   UNL     1     173.261 166.007 169.696  1.00  0.00    -0.493 OA
ATOM     10  C   UNL     1     173.449 166.317 171.073  1.00  0.00     0.278 C 
ENDBRANCH   2   9
BRANCH   4  11
ATOM     11  C   UNL     1     168.325 166.697 169.562  1.00  0.00     0.062 C 
BRANCH  11  12
ATOM     12  C   UNL     1     167.225 166.236 168.647  1.00  0.00    -0.030 C 
ATOM     13  C   UNL     1     166.672 165.027 168.768  1.00  0.00     0.004 C 
ENDBRANCH  11  12
ENDBRANCH   4  11
TORSDOF 4
ENDMDL
MODEL 3
REMARK VINA RESULT:    -3.905      6.973      8.244
REMARK INTER + INTRA:          -5.124
REMARK INTER:                  -4.846
REMARK INTRA:                  -0.278
REMARK UNBOUND:                -0.305
REMARK SMILES C=CCc1ccc(OC)c(OC)c1
REMARK SMILES IDX 7 1 10 2 13 3 4 4 5 5 6 6 8 7 9 8 11 9 12 10 3 11 2 12 1 13
REMARK H PARENT
REMARK Flexibility Score: inf
ROOT
ATOM      1  C   UNL     1     166.421 159.076 167.594  1.00  0.00     0.160 A 
ATOM      2  C   UNL     1     166.297 159.141 168.991  1.00  0.00     0.160 A 
ATOM      3  C   UNL     1     166.386 160.387 169.642  1.00  0.00     0.054 A 
ATOM      4  C   UNL     1     166.605 161.562 168.906  1.00  0.00    -0.040 A 
ATOM      5  C   UNL     1     166.717 161.489 167.512  1.00  0.00     0.008 A 
ATOM      6  C   UNL     1     166.630 160.259 166.859  1.00  0.00     0.051 A 
ENDROOT
BRANCH   1   7
ATOM      7  O   UNL     1     166.329 157.820 166.974  1.00  0.00    -0.493 OA
ATOM      8  C   UNL     1     165.372 157.482 165.976  1.00  0.00     0.278 C 
ENDBRANCH   1   7
BRANCH   2   9
ATOM      9  O   UNL     1     166.083 157.946 169.697  1.00  0.00    -0.493 OA
ATOM     10  C   UNL     1     166.302 157.784 171.094  1.00  0.00     0.278 C 
ENDBRANCH   2   9
BRANCH   4  11
ATOM     11  C   UNL     1     166.668 162.897 169.602  1.00  0.00     0.062 C 
BRANCH  11  12
ATOM     12  C   UNL     1     166.039 163.969 168.756  1.00  0.00    -0.030 C 
ATOM     13  C   UNL     1     166.674 165.112 168.485  1.00  0.00     0.004 C 
ENDBRANCH  11  12
ENDBRANCH   4  11
TORSDOF 4
ENDMDL
MODEL 4
REMARK VINA RESULT:    -3.862      0.953      2.705
REMARK INTER + INTRA:          -5.071
REMARK INTER:                  -4.770
REMARK INTRA:                  -0.301
REMARK UNBOUND:                -0.305
REMARK SMILES C=CCc1ccc(OC)c(OC)c1
REMARK SMILES IDX 7 1 10 2 13 3 4 4 5 5 6 6 8 7 9 8 11 9 12 10 3 11 2 12 1 13
REMARK H PARENT
REMARK Flexibility Score: inf
ROOT
ATOM      1  C   UNL     1     159.103 164.386 169.156  1.00  0.00     0.160 A 
ATOM      2  C   UNL     1     159.194 164.592 167.770  1.00  0.00     0.160 A 
ATOM      3  C   UNL     1     160.459 164.715 167.164  1.00  0.00     0.054 A 
ATOM      4  C   UNL     1     161.629 164.640 167.935  1.00  0.00    -0.040 A 
ATOM      5  C   UNL     1     161.530 164.424 169.316  1.00  0.00     0.008 A 
ATOM      6  C   UNL     1     160.280 164.302 169.924  1.00  0.00     0.051 A 
ENDROOT
BRANCH   1   7
ATOM      7  O   UNL     1     157.828 164.269 169.731  1.00  0.00    -0.493 OA
ATOM      8  C   UNL     1     157.225 163.036 170.112  1.00  0.00     0.278 C 
ENDBRANCH   1   7
BRANCH   2   9
ATOM      9  O   UNL     1     158.003 164.666 167.029  1.00  0.00    -0.493 OA
ATOM     10  C   UNL     1     157.657 165.742 166.164  1.00  0.00     0.278 C 
ENDBRANCH   2   9
BRANCH   4  11
ATOM     11  C   UNL     1     162.982 164.740 167.280  1.00  0.00     0.062 C 
BRANCH  11  12
ATOM     12  C   UNL     1     164.006 165.263 168.249  1.00  0.00    -0.030 C 
ATOM     13  C   UNL     1     164.675 166.396 168.020  1.00  0.00     0.004 C 
ENDBRANCH  11  12
ENDBRANCH   4  11
TORSDOF 4
ENDMDL
MODEL 5
REMARK VINA RESULT:    -3.858      6.879      8.984
REMARK INTER + INTRA:          -5.066
REMARK INTER:                  -4.763
REMARK INTRA:                  -0.303
REMARK UNBOUND:                -0.305
REMARK SMILES C=CCc1ccc(OC)c(OC)c1
REMARK SMILES IDX 7 1 10 2 13 3 4 4 5 5 6 6 8 7 9 8 11 9 12 10 3 11 2 12 1 13
REMARK H PARENT
REMARK Flexibility Score: inf
ROOT
ATOM      1  C   UNL     1     166.808 159.005 169.110  1.00  0.00     0.160 A 
ATOM      2  C   UNL     1     166.561 159.063 167.729  1.00  0.00     0.160 A 
ATOM      3  C   UNL     1     166.453 160.315 167.092  1.00  0.00     0.054 A 
ATOM      4  C   UNL     1     166.583 161.503 167.826  1.00  0.00    -0.040 A 
ATOM      5  C   UNL     1     166.840 161.437 169.202  1.00  0.00     0.008 A 
ATOM      6  C   UNL     1     166.948 160.201 169.841  1.00  0.00     0.051 A 
ENDROOT
BRANCH   1   7
ATOM      7  O   UNL     1     166.909 157.744 169.718  1.00  0.00    -0.493 OA
ATOM      8  C   UNL     1     168.050 157.284 170.435  1.00  0.00     0.278 C 
ENDBRANCH   1   7
BRANCH   2   9
ATOM      9  O   UNL     1     166.432 157.855 167.025  1.00  0.00    -0.493 OA
ATOM     10  C   UNL     1     165.432 157.595 166.046  1.00  0.00     0.278 C 
ENDBRANCH   2   9
BRANCH   4  11
ATOM     11  C   UNL     1     166.499 162.839 167.136  1.00  0.00     0.062 C 
BRANCH  11  12
ATOM     12  C   UNL     1     166.115 163.918 168.110  1.00  0.00    -0.030 C 
ATOM     13  C   UNL     1     164.913 164.501 168.075  1.00  0.00     0.004 C 
ENDBRANCH  11  12
ENDBRANCH   4  11
TORSDOF 4
ENDMDL
MODEL 6
REMARK VINA RESULT:    -3.852      6.625      8.318
REMARK INTER + INTRA:          -5.058
REMARK INTER:                  -4.772
REMARK INTRA:                  -0.286
REMARK UNBOUND:                -0.305
REMARK SMILES C=CCc1ccc(OC)c(OC)c1
REMARK SMILES IDX 7 1 10 2 13 3 4 4 5 5 6 6 8 7 9 8 11 9 12 10 3 11 2 12 1 13
REMARK H PARENT
REMARK Flexibility Score: inf
ROOT
ATOM      1  C   UNL     1     164.351 172.132 169.207  1.00  0.00     0.160 A 
ATOM      2  C   UNL     1     164.570 172.025 167.824  1.00  0.00     0.160 A 
ATOM      3  C   UNL     1     164.705 170.753 167.235  1.00  0.00     0.054 A 
ATOM      4  C   UNL     1     164.629 169.592 168.020  1.00  0.00    -0.040 A 
ATOM      5  C   UNL     1     164.400 169.707 169.397  1.00  0.00     0.008 A 
ATOM      6  C   UNL     1     164.266 170.964 169.988  1.00  0.00     0.051 A 
ENDROOT
BRANCH   1   7
ATOM      7  O   UNL     1     164.222 173.413 169.765  1.00  0.00    -0.493 OA
ATOM      8  C   UNL     1     162.984 174.014 170.127  1.00  0.00     0.278 C 
ENDBRANCH   1   7
BRANCH   2   9
ATOM      9  O   UNL     1     164.645 173.207 167.069  1.00  0.00    -0.493 OA
ATOM     10  C   UNL     1     165.739 173.559 166.228  1.00  0.00     0.278 C 
ENDBRANCH   2   9
BRANCH   4  11
ATOM     11  C   UNL     1     164.741 168.232 167.383  1.00  0.00     0.062 C 
BRANCH  11  12
ATOM     12  C   UNL     1     165.457 167.274 168.294  1.00  0.00    -0.030 C 
ATOM     13  C   UNL     1     166.411 166.455 167.843  1.00  0.00     0.004 C 
ENDBRANCH  11  12
ENDBRANCH   4  11
TORSDOF 4
ENDMDL
MODEL 7
REMARK VINA RESULT:    -3.801      8.557     11.971
REMARK INTER + INTRA:          -4.995
REMARK INTER:                  -4.716
REMARK INTRA:                  -0.279
REMARK UNBOUND:                -0.305
REMARK SMILES C=CCc1ccc(OC)c(OC)c1
REMARK SMILES IDX 7 1 10 2 13 3 4 4 5 5 6 6 8 7 9 8 11 9 12 10 3 11 2 12 1 13
REMARK H PARENT
REMARK Flexibility Score: inf
ROOT
ATOM      1  C   UNL     1     172.216 166.921 169.199  1.00  0.00     0.160 A 
ATOM      2  C   UNL     1     172.093 166.636 167.830  1.00  0.00     0.160 A 
ATOM      3  C   UNL     1     170.814 166.468 167.264  1.00  0.00     0.054 A 
ATOM      4  C   UNL     1     169.663 166.575 168.059  1.00  0.00    -0.040 A 
ATOM      5  C   UNL     1     169.794 166.870 169.422  1.00  0.00     0.008 A 
ATOM      6  C   UNL     1     171.058 167.037 169.991  1.00  0.00     0.051 A 
ENDROOT
BRANCH   1   7
ATOM      7  O   UNL     1     173.504 167.081 169.735  1.00  0.00    -0.493 OA
ATOM      8  C   UNL     1     174.009 168.301 170.268  1.00  0.00     0.278 C 
ENDBRANCH   1   7
BRANCH   2   9
ATOM      9  O   UNL     1     173.266 166.531 167.064  1.00  0.00    -0.493 OA
ATOM     10  C   UNL     1     173.537 165.479 166.143  1.00  0.00     0.278 C 
ENDBRANCH   2   9
BRANCH   4  11
ATOM     11  C   UNL     1     168.296 166.427 167.445  1.00  0.00     0.062 C 
BRANCH  11  12
ATOM     12  C   UNL     1     167.232 166.428 168.507  1.00  0.00    -0.030 C 
ATOM     13  C   UNL     1     165.956 166.704 168.223  1.00  0.00     0.004 C 
ENDBRANCH  11  12
ENDBRANCH   4  11
TORSDOF 4
ENDMDL
MODEL 8
REMARK VINA RESULT:    -3.649      5.707      8.064
REMARK INTER + INTRA:          -4.808
REMARK INTER:                  -4.460
REMARK INTRA:                  -0.348
REMARK UNBOUND:                -0.305
REMARK SMILES C=CCc1ccc(OC)c(OC)c1
REMARK SMILES IDX 7 1 10 2 13 3 4 4 5 5 6 6 8 7 9 8 11 9 12 10 3 11 2 12 1 13
REMARK H PARENT
REMARK Flexibility Score: inf
ROOT
ATOM      1  C   UNL     1     166.928 161.037 169.389  1.00  0.00     0.160 A 
ATOM      2  C   UNL     1     166.818 161.002 167.989  1.00  0.00     0.160 A 
ATOM      3  C   UNL     1     166.451 162.168 167.290  1.00  0.00     0.054 A 
ATOM      4  C   UNL     1     166.186 163.361 167.980  1.00  0.00    -0.040 A 
ATOM      5  C   UNL     1     166.308 163.389 169.375  1.00  0.00     0.008 A 
ATOM      6  C   UNL     1     166.671 162.238 170.076  1.00  0.00     0.051 A 
ENDROOT
BRANCH   1   7
ATOM      7  O   UNL     1     167.294 159.859 170.059  1.00  0.00    -0.493 OA
ATOM      8  C   UNL     1     166.375 158.965 170.679  1.00  0.00     0.278 C 
ENDBRANCH   1   7
BRANCH   2   9
ATOM      9  O   UNL     1     167.086 159.791 167.331  1.00  0.00    -0.493 OA
ATOM     10  C   UNL     1     166.097 158.831 166.974  1.00  0.00     0.278 C 
ENDBRANCH   2   9
BRANCH   4  11
ATOM     11  C   UNL     1     165.825 164.614 167.226  1.00  0.00     0.062 C 
BRANCH  11  12
ATOM     12  C   UNL     1     164.696 165.337 167.906  1.00  0.00    -0.030 C 
ATOM     13  C   UNL     1     163.419 165.023 167.673  1.00  0.00     0.004 C 
ENDBRANCH  11  12
ENDBRANCH   4  11
TORSDOF 4
ENDMDL
