MODEL 1
REMARK VINA RESULT:    -7.532      0.000      0.000
REMARK INTER + INTRA:          -8.940
REMARK INTER:                  -9.294
REMARK INTRA:                   0.354
REMARK UNBOUND:                 0.354
REMARK SMILES O=c1c(O)c(-c2cc(O)c(O)c(O)c2)oc2cc(O)cc(O)c12
REMARK SMILES IDX 5 1 3 2 2 3 1 4 23 5 21 6 20 7 18 8 17 9 16 10 15 11 6 12
REMARK SMILES IDX 7 13 8 14 14 15 10 16 12 17 9 18 11 20 13 22 4 24 22 26
REMARK SMILES IDX 19 28
REMARK H PARENT 9 19 11 21 13 23 4 25 22 27 19 29
REMARK Flexibility Score: inf
ROOT
ATOM      1  C   UNL     1     -23.025  84.990 -23.358  1.00  0.00     0.180 A 
ATOM      2  C   UNL     1     -23.836  84.346 -24.308  1.00  0.00     0.208 A 
ATOM      3  C   UNL     1     -24.287  85.072 -25.423  1.00  0.00     0.238 A 
ATOM      4  O   UNL     1     -24.967  84.475 -26.297  1.00  0.00    -0.285 OA
ATOM      5  C   UNL     1     -23.934  86.435 -25.564  1.00  0.00     0.111 A 
ATOM      6  C   UNL     1     -24.367  87.278 -26.632  1.00  0.00     0.134 A 
ATOM      7  C   UNL     1     -23.852  88.575 -26.742  1.00  0.00     0.093 A 
ATOM      8  C   UNL     1     -22.970  89.083 -25.788  1.00  0.00     0.123 A 
ATOM      9  C   UNL     1     -22.586  88.287 -24.707  1.00  0.00     0.094 A 
ATOM     10  C   UNL     1     -23.056  86.977 -24.590  1.00  0.00     0.146 A 
ATOM     11  O   UNL     1     -22.658  86.252 -23.553  1.00  0.00    -0.452 OA
ENDROOT
BRANCH   1  12
ATOM     12  C   UNL     1     -22.532  84.298 -22.145  1.00  0.00     0.029 A 
ATOM     13  C   UNL     1     -22.480  82.897 -22.073  1.00  0.00     0.062 A 
ATOM     14  C   UNL     1     -22.033  82.261 -20.909  1.00  0.00     0.162 A 
ATOM     15  C   UNL     1     -22.164  85.052 -21.021  1.00  0.00     0.062 A 
ATOM     16  C   UNL     1     -21.642  83.017 -19.794  1.00  0.00     0.200 A 
ATOM     17  C   UNL     1     -21.714  84.430 -19.851  1.00  0.00     0.162 A 
BRANCH  14  18
ATOM     18  O   UNL     1     -21.977  80.870 -20.848  1.00  0.00    -0.504 OA
ATOM     19  H   UNL     1     -21.707  80.313 -21.651  1.00  0.00     0.293 HD
ENDBRANCH  14  18
BRANCH  16  20
ATOM     20  O   UNL     1     -21.198  82.333 -18.660  1.00  0.00    -0.502 OA
ATOM     21  H   UNL     1     -20.554  82.716 -17.984  1.00  0.00     0.293 HD
ENDBRANCH  16  20
BRANCH  17  22
ATOM     22  O   UNL     1     -21.353  85.247 -18.777  1.00  0.00    -0.504 OA
ATOM     23  H   UNL     1     -20.782  86.074 -18.864  1.00  0.00     0.293 HD
ENDBRANCH  17  22
ENDBRANCH   1  12
BRANCH   2  24
ATOM     24  O   UNL     1     -24.155  82.993 -24.160  1.00  0.00    -0.502 OA
ATOM     25  H   UNL     1     -23.460  82.259 -24.234  1.00  0.00     0.293 HD
ENDBRANCH   2  24
BRANCH   6  26
ATOM     26  O   UNL     1     -25.316  86.901 -27.587  1.00  0.00    -0.507 OA
ATOM     27  H   UNL     1     -25.366  87.269 -28.525  1.00  0.00     0.293 HD
ENDBRANCH   6  26
BRANCH   8  28
ATOM     28  O   UNL     1     -22.488  90.383 -25.920  1.00  0.00    -0.508 OA
ATOM     29  H   UNL     1     -22.569  90.891 -26.793  1.00  0.00     0.293 HD
ENDBRANCH   8  28
TORSDOF 7
ENDMDL
MODEL 2
REMARK VINA RESULT:    -7.529      0.139      1.764
REMARK INTER + INTRA:          -8.936
REMARK INTER:                  -9.353
REMARK INTRA:                   0.417
REMARK UNBOUND:                 0.354
REMARK SMILES O=c1c(O)c(-c2cc(O)c(O)c(O)c2)oc2cc(O)cc(O)c12
REMARK SMILES IDX 5 1 3 2 2 3 1 4 23 5 21 6 20 7 18 8 17 9 16 10 15 11 6 12
REMARK SMILES IDX 7 13 8 14 14 15 10 16 12 17 9 18 11 20 13 22 4 24 22 26
REMARK SMILES IDX 19 28
REMARK H PARENT 9 19 11 21 13 23 4 25 22 27 19 29
REMARK Flexibility Score: inf
ROOT
ATOM      1  C   UNL     1     -23.153  85.038 -23.399  1.00  0.00     0.180 A 
ATOM      2  C   UNL     1     -23.946  84.382 -24.357  1.00  0.00     0.208 A 
ATOM      3  C   UNL     1     -24.369  85.092 -25.493  1.00  0.00     0.238 A 
ATOM      4  O   UNL     1     -25.033  84.485 -26.373  1.00  0.00    -0.285 OA
ATOM      5  C   UNL     1     -24.006  86.451 -25.649  1.00  0.00     0.111 A 
ATOM      6  C   UNL     1     -24.411  87.279 -26.739  1.00  0.00     0.134 A 
ATOM      7  C   UNL     1     -23.887  88.571 -26.859  1.00  0.00     0.093 A 
ATOM      8  C   UNL     1     -23.023  89.090 -25.894  1.00  0.00     0.123 A 
ATOM      9  C   UNL     1     -22.668  88.310 -24.792  1.00  0.00     0.094 A 
ATOM     10  C   UNL     1     -23.146  87.005 -24.664  1.00  0.00     0.146 A 
ATOM     11  O   UNL     1     -22.775  86.294 -23.606  1.00  0.00    -0.452 OA
ENDROOT
BRANCH   1  12
ATOM     12  C   UNL     1     -22.691  84.363 -22.165  1.00  0.00     0.029 A 
ATOM     13  C   UNL     1     -22.235  85.097 -21.058  1.00  0.00     0.062 A 
ATOM     14  C   UNL     1     -21.780  84.439 -19.909  1.00  0.00     0.162 A 
ATOM     15  C   UNL     1     -22.651  82.962 -22.117  1.00  0.00     0.062 A 
ATOM     16  C   UNL     1     -21.764  83.038 -19.854  1.00  0.00     0.200 A 
ATOM     17  C   UNL     1     -22.200  82.292 -20.974  1.00  0.00     0.162 A 
BRANCH  14  18
ATOM     18  O   UNL     1     -21.337  85.175 -18.811  1.00  0.00    -0.504 OA
ATOM     19  H   UNL     1     -20.910  86.088 -18.920  1.00  0.00     0.293 HD
ENDBRANCH  14  18
BRANCH  16  20
ATOM     20  O   UNL     1     -21.307  82.433 -18.680  1.00  0.00    -0.502 OA
ATOM     21  H   UNL     1     -21.060  82.938 -17.842  1.00  0.00     0.293 HD
ENDBRANCH  16  20
BRANCH  17  22
ATOM     22  O   UNL     1     -22.202  80.895 -20.997  1.00  0.00    -0.504 OA
ATOM     23  H   UNL     1     -21.481  80.335 -21.427  1.00  0.00     0.293 HD
ENDBRANCH  17  22
ENDBRANCH   1  12
BRANCH   2  24
ATOM     24  O   UNL     1     -24.275  83.034 -24.194  1.00  0.00    -0.502 OA
ATOM     25  H   UNL     1     -23.698  82.393 -23.662  1.00  0.00     0.293 HD
ENDBRANCH   2  24
BRANCH   6  26
ATOM     26  O   UNL     1     -25.341  86.891 -27.709  1.00  0.00    -0.507 OA
ATOM     27  H   UNL     1     -25.526  87.395 -28.563  1.00  0.00     0.293 HD
ENDBRANCH   6  26
BRANCH   8  28
ATOM     28  O   UNL     1     -22.532  90.385 -26.036  1.00  0.00    -0.508 OA
ATOM     29  H   UNL     1     -21.551  90.564 -26.212  1.00  0.00     0.293 HD
ENDBRANCH   8  28
TORSDOF 7
ENDMDL
MODEL 3
REMARK VINA RESULT:    -7.404      1.603      3.328
REMARK INTER + INTRA:          -8.781
REMARK INTER:                  -8.426
REMARK INTRA:                  -0.354
REMARK UNBOUND:                 0.354
REMARK SMILES O=c1c(O)c(-c2cc(O)c(O)c(O)c2)oc2cc(O)cc(O)c12
REMARK SMILES IDX 5 1 3 2 2 3 1 4 23 5 21 6 20 7 18 8 17 9 16 10 15 11 6 12
REMARK SMILES IDX 7 13 8 14 14 15 10 16 12 17 9 18 11 20 13 22 4 24 22 26
REMARK SMILES IDX 19 28
REMARK H PARENT 9 19 11 21 13 23 4 25 22 27 19 29
REMARK Flexibility Score: inf
ROOT
ATOM      1  C   UNL     1     -22.696  85.435 -23.833  1.00  0.00     0.180 A 
ATOM      2  C   UNL     1     -21.907  86.583 -23.645  1.00  0.00     0.208 A 
ATOM      3  C   UNL     1     -22.208  87.744 -24.376  1.00  0.00     0.238 A 
ATOM      4  O   UNL     1     -21.533  88.785 -24.162  1.00  0.00    -0.285 OA
ATOM      5  C   UNL     1     -23.284  87.738 -25.295  1.00  0.00     0.111 A 
ATOM      6  C   UNL     1     -23.654  88.845 -26.117  1.00  0.00     0.134 A 
ATOM      7  C   UNL     1     -24.815  88.770 -26.896  1.00  0.00     0.093 A 
ATOM      8  C   UNL     1     -25.584  87.606 -26.933  1.00  0.00     0.123 A 
ATOM      9  C   UNL     1     -25.198  86.498 -26.178  1.00  0.00     0.094 A 
ATOM     10  C   UNL     1     -24.064  86.554 -25.364  1.00  0.00     0.146 A 
ATOM     11  O   UNL     1     -23.738  85.481 -24.655  1.00  0.00    -0.452 OA
ENDROOT
BRANCH   1  12
ATOM     12  C   UNL     1     -22.424  84.167 -23.118  1.00  0.00     0.029 A 
ATOM     13  C   UNL     1     -22.959  83.917 -21.845  1.00  0.00     0.062 A 
ATOM     14  C   UNL     1     -22.670  82.722 -21.176  1.00  0.00     0.162 A 
ATOM     15  C   UNL     1     -21.568  83.219 -23.697  1.00  0.00     0.062 A 
ATOM     16  C   UNL     1     -21.834  81.763 -21.766  1.00  0.00     0.200 A 
ATOM     17  C   UNL     1     -21.273  82.019 -23.040  1.00  0.00     0.162 A 
BRANCH  14  18
ATOM     18  O   UNL     1     -23.212  82.477 -19.915  1.00  0.00    -0.504 OA
ATOM     19  H   UNL     1     -22.626  82.388 -19.092  1.00  0.00     0.293 HD
ENDBRANCH  14  18
BRANCH  16  20
ATOM     20  O   UNL     1     -21.585  80.585 -21.058  1.00  0.00    -0.502 OA
ATOM     21  H   UNL     1     -20.717  80.381 -20.586  1.00  0.00     0.293 HD
ENDBRANCH  16  20
BRANCH  17  22
ATOM     22  O   UNL     1     -20.422  81.117 -23.684  1.00  0.00    -0.504 OA
ATOM     23  H   UNL     1     -20.433  80.941 -24.678  1.00  0.00     0.293 HD
ENDBRANCH  17  22
ENDBRANCH   1  12
BRANCH   2  24
ATOM     24  O   UNL     1     -20.862  86.574 -22.716  1.00  0.00    -0.502 OA
ATOM     25  H   UNL     1     -20.861  85.968 -21.904  1.00  0.00     0.293 HD
ENDBRANCH   2  24
BRANCH   6  26
ATOM     26  O   UNL     1     -22.905  90.021 -26.226  1.00  0.00    -0.507 OA
ATOM     27  H   UNL     1     -22.056  90.115 -26.762  1.00  0.00     0.293 HD
ENDBRANCH   6  26
BRANCH   8  28
ATOM     28  O   UNL     1     -26.725  87.561 -27.730  1.00  0.00    -0.508 OA
ATOM     29  H   UNL     1     -27.585  87.141 -27.401  1.00  0.00     0.293 HD
ENDBRANCH   8  28
TORSDOF 7
ENDMDL
MODEL 4
REMARK VINA RESULT:    -7.369      1.803      3.144
REMARK INTER + INTRA:          -8.738
REMARK INTER:                  -8.370
REMARK INTRA:                  -0.368
REMARK UNBOUND:                 0.354
REMARK SMILES O=c1c(O)c(-c2cc(O)c(O)c(O)c2)oc2cc(O)cc(O)c12
REMARK SMILES IDX 5 1 3 2 2 3 1 4 23 5 21 6 20 7 18 8 17 9 16 10 15 11 6 12
REMARK SMILES IDX 7 13 8 14 14 15 10 16 12 17 9 18 11 20 13 22 4 24 22 26
REMARK SMILES IDX 19 28
REMARK H PARENT 9 19 11 21 13 23 4 25 22 27 19 29
REMARK Flexibility Score: inf
ROOT
ATOM      1  C   UNL     1     -22.785  85.404 -24.021  1.00  0.00     0.180 A 
ATOM      2  C   UNL     1     -22.037  86.565 -23.762  1.00  0.00     0.208 A 
ATOM      3  C   UNL     1     -22.291  87.722 -24.517  1.00  0.00     0.238 A 
ATOM      4  O   UNL     1     -21.656  88.774 -24.242  1.00  0.00    -0.285 OA
ATOM      5  C   UNL     1     -23.278  87.698 -25.530  1.00  0.00     0.111 A 
ATOM      6  C   UNL     1     -23.591  88.800 -26.383  1.00  0.00     0.134 A 
ATOM      7  C   UNL     1     -24.675  88.706 -27.263  1.00  0.00     0.093 A 
ATOM      8  C   UNL     1     -25.416  87.529 -27.371  1.00  0.00     0.123 A 
ATOM      9  C   UNL     1     -25.081  86.426 -26.584  1.00  0.00     0.094 A 
ATOM     10  C   UNL     1     -24.028  86.501 -25.671  1.00  0.00     0.146 A 
ATOM     11  O   UNL     1     -23.749  85.433 -24.935  1.00  0.00    -0.452 OA
ENDROOT
BRANCH   1  12
ATOM     12  C   UNL     1     -22.557  84.140 -23.285  1.00  0.00     0.029 A 
ATOM     13  C   UNL     1     -21.599  83.208 -23.713  1.00  0.00     0.062 A 
ATOM     14  C   UNL     1     -21.415  82.007 -23.016  1.00  0.00     0.162 A 
ATOM     15  C   UNL     1     -23.353  83.836 -22.171  1.00  0.00     0.062 A 
ATOM     16  C   UNL     1     -22.195  81.716 -21.887  1.00  0.00     0.200 A 
ATOM     17  C   UNL     1     -23.179  82.641 -21.464  1.00  0.00     0.162 A 
BRANCH  14  18
ATOM     18  O   UNL     1     -20.455  81.091 -23.442  1.00  0.00    -0.504 OA
ATOM     19  H   UNL     1     -19.989  81.186 -24.337  1.00  0.00     0.293 HD
ENDBRANCH  14  18
BRANCH  16  20
ATOM     20  O   UNL     1     -21.965  80.508 -21.225  1.00  0.00    -0.502 OA
ATOM     21  H   UNL     1     -22.182  79.601 -21.611  1.00  0.00     0.293 HD
ENDBRANCH  16  20
BRANCH  17  22
ATOM     22  O   UNL     1     -24.001  82.414 -20.357  1.00  0.00    -0.504 OA
ATOM     23  H   UNL     1     -24.489  81.548 -20.183  1.00  0.00     0.293 HD
ENDBRANCH  17  22
ENDBRANCH   1  12
BRANCH   2  24
ATOM     24  O   UNL     1     -21.082  86.573 -22.742  1.00  0.00    -0.502 OA
ATOM     25  H   UNL     1     -20.959  85.794 -22.105  1.00  0.00     0.293 HD
ENDBRANCH   2  24
BRANCH   6  26
ATOM     26  O   UNL     1     -22.857  89.989 -26.422  1.00  0.00    -0.507 OA
ATOM     27  H   UNL     1     -21.868  90.061 -26.237  1.00  0.00     0.293 HD
ENDBRANCH   6  26
BRANCH   8  28
ATOM     28  O   UNL     1     -26.479  87.465 -28.269  1.00  0.00    -0.508 OA
ATOM     29  H   UNL     1     -26.871  86.579 -28.565  1.00  0.00     0.293 HD
ENDBRANCH   8  28
TORSDOF 7
ENDMDL
MODEL 5
REMARK VINA RESULT:    -7.352      1.556      6.834
REMARK INTER + INTRA:          -8.718
REMARK INTER:                  -8.395
REMARK INTRA:                  -0.322
REMARK UNBOUND:                 0.354
REMARK SMILES O=c1c(O)c(-c2cc(O)c(O)c(O)c2)oc2cc(O)cc(O)c12
REMARK SMILES IDX 5 1 3 2 2 3 1 4 23 5 21 6 20 7 18 8 17 9 16 10 15 11 6 12
REMARK SMILES IDX 7 13 8 14 14 15 10 16 12 17 9 18 11 20 13 22 4 24 22 26
REMARK SMILES IDX 19 28
REMARK H PARENT 9 19 11 21 13 23 4 25 22 27 19 29
REMARK Flexibility Score: inf
ROOT
ATOM      1  C   UNL     1     -23.461  85.209 -23.797  1.00  0.00     0.180 A 
ATOM      2  C   UNL     1     -23.453  84.068 -24.618  1.00  0.00     0.208 A 
ATOM      3  C   UNL     1     -22.980  82.854 -24.093  1.00  0.00     0.238 A 
ATOM      4  O   UNL     1     -23.027  81.824 -24.815  1.00  0.00    -0.285 OA
ATOM      5  C   UNL     1     -22.507  82.801 -22.760  1.00  0.00     0.111 A 
ATOM      6  C   UNL     1     -21.968  81.634 -22.138  1.00  0.00     0.134 A 
ATOM      7  C   UNL     1     -21.651  81.663 -20.775  1.00  0.00     0.093 A 
ATOM      8  C   UNL     1     -21.791  82.832 -20.027  1.00  0.00     0.123 A 
ATOM      9  C   UNL     1     -22.261  83.994 -20.640  1.00  0.00     0.094 A 
ATOM     10  C   UNL     1     -22.619  83.987 -21.989  1.00  0.00     0.146 A 
ATOM     11  O   UNL     1     -23.071  85.111 -22.531  1.00  0.00    -0.452 OA
ENDROOT
BRANCH   1  12
ATOM     12  C   UNL     1     -23.921  86.528 -24.287  1.00  0.00     0.029 A 
ATOM     13  C   UNL     1     -23.008  87.534 -24.643  1.00  0.00     0.062 A 
ATOM     14  C   UNL     1     -23.463  88.783 -25.082  1.00  0.00     0.162 A 
ATOM     15  C   UNL     1     -25.295  86.803 -24.344  1.00  0.00     0.062 A 
ATOM     16  C   UNL     1     -24.838  89.049 -25.161  1.00  0.00     0.200 A 
ATOM     17  C   UNL     1     -25.764  88.047 -24.782  1.00  0.00     0.162 A 
BRANCH  14  18
ATOM     18  O   UNL     1     -22.551  89.774 -25.441  1.00  0.00    -0.504 OA
ATOM     19  H   UNL     1     -21.940  90.207 -24.758  1.00  0.00     0.293 HD
ENDBRANCH  14  18
BRANCH  16  20
ATOM     20  O   UNL     1     -25.238  90.309 -25.612  1.00  0.00    -0.502 OA
ATOM     21  H   UNL     1     -26.177  90.532 -25.911  1.00  0.00     0.293 HD
ENDBRANCH  16  20
BRANCH  17  22
ATOM     22  O   UNL     1     -27.146  88.243 -24.823  1.00  0.00    -0.504 OA
ATOM     23  H   UNL     1     -27.814  87.518 -25.037  1.00  0.00     0.293 HD
ENDBRANCH  17  22
ENDBRANCH   1  12
BRANCH   2  24
ATOM     24  O   UNL     1     -23.945  84.138 -25.924  1.00  0.00    -0.502 OA
ATOM     25  H   UNL     1     -24.764  84.683 -26.169  1.00  0.00     0.293 HD
ENDBRANCH   2  24
BRANCH   6  26
ATOM     26  O   UNL     1     -21.702  80.441 -22.815  1.00  0.00    -0.507 OA
ATOM     27  H   UNL     1     -21.084  79.716 -22.483  1.00  0.00     0.293 HD
ENDBRANCH   6  26
BRANCH   8  28
ATOM     28  O   UNL     1     -21.451  82.828 -18.676  1.00  0.00    -0.508 OA
ATOM     29  H   UNL     1     -20.708  83.414 -18.314  1.00  0.00     0.293 HD
ENDBRANCH   8  28
TORSDOF 7
ENDMDL
MODEL 6
REMARK VINA RESULT:    -7.139      5.606      9.158
REMARK INTER + INTRA:          -8.455
REMARK INTER:                  -8.099
REMARK INTRA:                  -0.356
REMARK UNBOUND:                 0.354
REMARK SMILES O=c1c(O)c(-c2cc(O)c(O)c(O)c2)oc2cc(O)cc(O)c12
REMARK SMILES IDX 5 1 3 2 2 3 1 4 23 5 21 6 20 7 18 8 17 9 16 10 15 11 6 12
REMARK SMILES IDX 7 13 8 14 14 15 10 16 12 17 9 18 11 20 13 22 4 24 22 26
REMARK SMILES IDX 19 28
REMARK H PARENT 9 19 11 21 13 23 4 25 22 27 19 29
REMARK Flexibility Score: inf
ROOT
ATOM      1  C   UNL     1     -24.864  91.914 -28.213  1.00  0.00     0.180 A 
ATOM      2  C   UNL     1     -25.636  92.749 -27.387  1.00  0.00     0.208 A 
ATOM      3  C   UNL     1     -25.691  94.124 -27.670  1.00  0.00     0.238 A 
ATOM      4  O   UNL     1     -26.428  94.858 -26.960  1.00  0.00    -0.285 OA
ATOM      5  C   UNL     1     -24.963  94.647 -28.764  1.00  0.00     0.111 A 
ATOM      6  C   UNL     1     -24.914  96.029 -29.120  1.00  0.00     0.134 A 
ATOM      7  C   UNL     1     -24.267  96.417 -30.299  1.00  0.00     0.093 A 
ATOM      8  C   UNL     1     -23.611  95.484 -31.101  1.00  0.00     0.123 A 
ATOM      9  C   UNL     1     -23.602  94.138 -30.732  1.00  0.00     0.094 A 
ATOM     10  C   UNL     1     -24.269  93.715 -29.580  1.00  0.00     0.146 A 
ATOM     11  O   UNL     1     -24.244  92.425 -29.270  1.00  0.00    -0.452 OA
ENDROOT
BRANCH   1  12
ATOM     12  C   UNL     1     -24.736  90.460 -27.962  1.00  0.00     0.029 A 
ATOM     13  C   UNL     1     -25.610  89.537 -28.558  1.00  0.00     0.062 A 
ATOM     14  C   UNL     1     -25.488  88.168 -28.290  1.00  0.00     0.162 A 
ATOM     15  C   UNL     1     -23.762  89.996 -27.067  1.00  0.00     0.062 A 
ATOM     16  C   UNL     1     -24.496  87.703 -27.414  1.00  0.00     0.200 A 
ATOM     17  C   UNL     1     -23.627  88.631 -26.791  1.00  0.00     0.162 A 
BRANCH  14  18
ATOM     18  O   UNL     1     -26.353  87.257 -28.892  1.00  0.00    -0.504 OA
ATOM     19  H   UNL     1     -26.979  86.676 -28.345  1.00  0.00     0.293 HD
ENDBRANCH  14  18
BRANCH  16  20
ATOM     20  O   UNL     1     -24.413  86.327 -27.187  1.00  0.00    -0.502 OA
ATOM     21  H   UNL     1     -25.208  85.737 -26.992  1.00  0.00     0.293 HD
ENDBRANCH  16  20
BRANCH  17  22
ATOM     22  O   UNL     1     -22.625  88.244 -25.898  1.00  0.00    -0.504 OA
ATOM     23  H   UNL     1     -21.679  88.021 -26.172  1.00  0.00     0.293 HD
ENDBRANCH  17  22
ENDBRANCH   1  12
BRANCH   2  24
ATOM     24  O   UNL     1     -26.364  92.209 -26.324  1.00  0.00    -0.502 OA
ATOM     25  H   UNL     1     -27.196  92.652 -25.953  1.00  0.00     0.293 HD
ENDBRANCH   2  24
BRANCH   6  26
ATOM     26  O   UNL     1     -25.458  97.054 -28.340  1.00  0.00    -0.507 OA
ATOM     27  H   UNL     1     -26.376  97.035 -27.923  1.00  0.00     0.293 HD
ENDBRANCH   6  26
BRANCH   8  28
ATOM     28  O   UNL     1     -22.964  95.907 -32.260  1.00  0.00    -0.508 OA
ATOM     29  H   UNL     1     -21.970  95.764 -32.394  1.00  0.00     0.293 HD
ENDBRANCH   8  28
TORSDOF 7
ENDMDL
MODEL 7
REMARK VINA RESULT:    -6.892      5.912      9.331
REMARK INTER + INTRA:          -8.150
REMARK INTER:                  -7.791
REMARK INTRA:                  -0.359
REMARK UNBOUND:                 0.354
REMARK SMILES O=c1c(O)c(-c2cc(O)c(O)c(O)c2)oc2cc(O)cc(O)c12
REMARK SMILES IDX 5 1 3 2 2 3 1 4 23 5 21 6 20 7 18 8 17 9 16 10 15 11 6 12
REMARK SMILES IDX 7 13 8 14 14 15 10 16 12 17 9 18 11 20 13 22 4 24 22 26
REMARK SMILES IDX 19 28
REMARK H PARENT 9 19 11 21 13 23 4 25 22 27 19 29
REMARK Flexibility Score: inf
ROOT
ATOM      1  C   UNL     1     -24.199  91.387 -29.531  1.00  0.00     0.180 A 
ATOM      2  C   UNL     1     -23.572  91.667 -30.758  1.00  0.00     0.208 A 
ATOM      3  C   UNL     1     -23.459  93.003 -31.176  1.00  0.00     0.238 A 
ATOM      4  O   UNL     1     -22.848  93.251 -32.248  1.00  0.00    -0.285 OA
ATOM      5  C   UNL     1     -23.989  94.040 -30.371  1.00  0.00     0.111 A 
ATOM      6  C   UNL     1     -23.967  95.425 -30.715  1.00  0.00     0.134 A 
ATOM      7  C   UNL     1     -24.403  96.375 -29.785  1.00  0.00     0.093 A 
ATOM      8  C   UNL     1     -24.922  95.988 -28.549  1.00  0.00     0.123 A 
ATOM      9  C   UNL     1     -25.003  94.633 -28.226  1.00  0.00     0.094 A 
ATOM     10  C   UNL     1     -24.542  93.663 -29.119  1.00  0.00     0.146 A 
ATOM     11  O   UNL     1     -24.628  92.386 -28.769  1.00  0.00    -0.452 OA
ENDROOT
BRANCH   1  12
ATOM     12  C   UNL     1     -24.378  90.003 -29.036  1.00  0.00     0.029 A 
ATOM     13  C   UNL     1     -25.459  89.212 -29.454  1.00  0.00     0.062 A 
ATOM     14  C   UNL     1     -25.623  87.913 -28.956  1.00  0.00     0.162 A 
ATOM     15  C   UNL     1     -23.483  89.489 -28.086  1.00  0.00     0.062 A 
ATOM     16  C   UNL     1     -24.714  87.392 -28.024  1.00  0.00     0.200 A 
ATOM     17  C   UNL     1     -23.635  88.193 -27.581  1.00  0.00     0.162 A 
BRANCH  14  18
ATOM     18  O   UNL     1     -26.695  87.131 -29.382  1.00  0.00    -0.504 OA
ATOM     19  H   UNL     1     -27.299  87.424 -30.141  1.00  0.00     0.293 HD
ENDBRANCH  14  18
BRANCH  16  20
ATOM     20  O   UNL     1     -24.920  86.088 -27.565  1.00  0.00    -0.502 OA
ATOM     21  H   UNL     1     -25.507  85.852 -26.778  1.00  0.00     0.293 HD
ENDBRANCH  16  20
BRANCH  17  22
ATOM     22  O   UNL     1     -22.697  87.745 -26.647  1.00  0.00    -0.504 OA
ATOM     23  H   UNL     1     -21.706  87.920 -26.713  1.00  0.00     0.293 HD
ENDBRANCH  17  22
ENDBRANCH   1  12
BRANCH   2  24
ATOM     24  O   UNL     1     -23.037  90.630 -31.526  1.00  0.00    -0.502 OA
ATOM     25  H   UNL     1     -23.132  89.655 -31.267  1.00  0.00     0.293 HD
ENDBRANCH   2  24
BRANCH   6  26
ATOM     26  O   UNL     1     -23.555  95.913 -31.959  1.00  0.00    -0.507 OA
ATOM     27  H   UNL     1     -23.743  96.843 -32.304  1.00  0.00     0.293 HD
ENDBRANCH   6  26
BRANCH   8  28
ATOM     28  O   UNL     1     -25.361  96.960 -27.653  1.00  0.00    -0.508 OA
ATOM     29  H   UNL     1     -25.771  97.830 -27.973  1.00  0.00     0.293 HD
ENDBRANCH   8  28
TORSDOF 7
ENDMDL
MODEL 8
REMARK VINA RESULT:    -6.886      4.845      8.251
REMARK INTER + INTRA:          -8.143
REMARK INTER:                  -7.811
REMARK INTRA:                  -0.332
REMARK UNBOUND:                 0.354
REMARK SMILES O=c1c(O)c(-c2cc(O)c(O)c(O)c2)oc2cc(O)cc(O)c12
REMARK SMILES IDX 5 1 3 2 2 3 1 4 23 5 21 6 20 7 18 8 17 9 16 10 15 11 6 12
REMARK SMILES IDX 7 13 8 14 14 15 10 16 12 17 9 18 11 20 13 22 4 24 22 26
REMARK SMILES IDX 19 28
REMARK H PARENT 9 19 11 21 13 23 4 25 22 27 19 29
REMARK Flexibility Score: inf
ROOT
ATOM      1  C   UNL     1     -24.166  91.281 -28.173  1.00  0.00     0.180 A 
ATOM      2  C   UNL     1     -23.592  91.116 -29.446  1.00  0.00     0.208 A 
ATOM      3  C   UNL     1     -23.549  92.214 -30.321  1.00  0.00     0.238 A 
ATOM      4  O   UNL     1     -22.985  92.074 -31.438  1.00  0.00    -0.285 OA
ATOM      5  C   UNL     1     -24.092  93.457 -29.919  1.00  0.00     0.111 A 
ATOM      6  C   UNL     1     -24.138  94.625 -30.738  1.00  0.00     0.134 A 
ATOM      7  C   UNL     1     -24.580  95.835 -30.191  1.00  0.00     0.093 A 
ATOM      8  C   UNL     1     -25.040  95.907 -28.876  1.00  0.00     0.123 A 
ATOM      9  C   UNL     1     -25.055  94.758 -28.085  1.00  0.00     0.094 A 
ATOM     10  C   UNL     1     -24.586  93.543 -28.591  1.00  0.00     0.146 A 
ATOM     11  O   UNL     1     -24.608  92.477 -27.801  1.00  0.00    -0.452 OA
ENDROOT
BRANCH   1  12
ATOM     12  C   UNL     1     -24.270  90.164 -27.206  1.00  0.00     0.029 A 
ATOM     13  C   UNL     1     -25.476  89.470 -27.020  1.00  0.00     0.062 A 
ATOM     14  C   UNL     1     -25.561  88.433 -26.084  1.00  0.00     0.162 A 
ATOM     15  C   UNL     1     -23.162  89.829 -26.417  1.00  0.00     0.062 A 
ATOM     16  C   UNL     1     -24.444  88.082 -25.312  1.00  0.00     0.200 A 
ATOM     17  C   UNL     1     -23.232  88.793 -25.477  1.00  0.00     0.162 A 
BRANCH  14  18
ATOM     18  O   UNL     1     -26.760  87.743 -25.911  1.00  0.00    -0.504 OA
ATOM     19  H   UNL     1     -27.585  88.196 -25.535  1.00  0.00     0.293 HD
ENDBRANCH  14  18
BRANCH  16  20
ATOM     20  O   UNL     1     -24.581  87.034 -24.397  1.00  0.00    -0.502 OA
ATOM     21  H   UNL     1     -23.848  86.376 -24.176  1.00  0.00     0.293 HD
ENDBRANCH  16  20
BRANCH  17  22
ATOM     22  O   UNL     1     -22.082  88.508 -24.737  1.00  0.00    -0.504 OA
ATOM     23  H   UNL     1     -21.980  88.707 -23.753  1.00  0.00     0.293 HD
ENDBRANCH  17  22
ENDBRANCH   1  12
BRANCH   2  24
ATOM     24  O   UNL     1     -23.042  89.885 -29.815  1.00  0.00    -0.502 OA
ATOM     25  H   UNL     1     -22.045  89.706 -29.793  1.00  0.00     0.293 HD
ENDBRANCH   2  24
BRANCH   6  26
ATOM     26  O   UNL     1     -23.790  94.642 -32.092  1.00  0.00    -0.507 OA
ATOM     27  H   UNL     1     -24.148  95.297 -32.770  1.00  0.00     0.293 HD
ENDBRANCH   6  26
BRANCH   8  28
ATOM     28  O   UNL     1     -25.487  97.125 -28.370  1.00  0.00    -0.508 OA
ATOM     29  H   UNL     1     -24.965  97.628 -27.662  1.00  0.00     0.293 HD
ENDBRANCH   8  28
TORSDOF 7
ENDMDL
MODEL 9
REMARK VINA RESULT:    -6.726      3.340      7.200
REMARK INTER + INTRA:          -7.945
REMARK INTER:                  -7.596
REMARK INTRA:                  -0.349
REMARK UNBOUND:                 0.354
REMARK SMILES O=c1c(O)c(-c2cc(O)c(O)c(O)c2)oc2cc(O)cc(O)c12
REMARK SMILES IDX 5 1 3 2 2 3 1 4 23 5 21 6 20 7 18 8 17 9 16 10 15 11 6 12
REMARK SMILES IDX 7 13 8 14 14 15 10 16 12 17 9 18 11 20 13 22 4 24 22 26
REMARK SMILES IDX 19 28
REMARK H PARENT 9 19 11 21 13 23 4 25 22 27 19 29
REMARK Flexibility Score: inf
ROOT
ATOM      1  C   UNL     1     -22.545  82.290 -23.493  1.00  0.00     0.180 A 
ATOM      2  C   UNL     1     -23.149  81.649 -22.397  1.00  0.00     0.208 A 
ATOM      3  C   UNL     1     -23.105  80.247 -22.319  1.00  0.00     0.238 A 
ATOM      4  O   UNL     1     -23.599  79.683 -21.309  1.00  0.00    -0.285 OA
ATOM      5  C   UNL     1     -22.472  79.505 -23.344  1.00  0.00     0.111 A 
ATOM      6  C   UNL     1     -22.402  78.079 -23.388  1.00  0.00     0.134 A 
ATOM      7  C   UNL     1     -21.639  77.455 -24.380  1.00  0.00     0.093 A 
ATOM      8  C   UNL     1     -20.996  78.199 -25.370  1.00  0.00     0.123 A 
ATOM      9  C   UNL     1     -21.106  79.590 -25.371  1.00  0.00     0.094 A 
ATOM     10  C   UNL     1     -21.831  80.244 -24.372  1.00  0.00     0.146 A 
ATOM     11  O   UNL     1     -21.902  81.569 -24.405  1.00  0.00    -0.452 OA
ENDROOT
BRANCH   1  12
ATOM     12  C   UNL     1     -22.572  83.761 -23.657  1.00  0.00     0.029 A 
ATOM     13  C   UNL     1     -23.533  84.388 -24.466  1.00  0.00     0.062 A 
ATOM     14  C   UNL     1     -23.527  85.779 -24.628  1.00  0.00     0.162 A 
ATOM     15  C   UNL     1     -21.585  84.543 -23.041  1.00  0.00     0.062 A 
ATOM     16  C   UNL     1     -22.554  86.562 -23.991  1.00  0.00     0.200 A 
ATOM     17  C   UNL     1     -21.567  85.935 -23.193  1.00  0.00     0.162 A 
BRANCH  14  18
ATOM     18  O   UNL     1     -24.490  86.395 -25.426  1.00  0.00    -0.504 OA
ATOM     19  H   UNL     1     -24.669  86.088 -26.375  1.00  0.00     0.293 HD
ENDBRANCH  14  18
BRANCH  16  20
ATOM     20  O   UNL     1     -22.598  87.946 -24.180  1.00  0.00    -0.502 OA
ATOM     21  H   UNL     1     -23.450  88.486 -24.207  1.00  0.00     0.293 HD
ENDBRANCH  16  20
BRANCH  17  22
ATOM     22  O   UNL     1     -20.561  86.648 -22.538  1.00  0.00    -0.504 OA
ATOM     23  H   UNL     1     -20.620  86.960 -21.581  1.00  0.00     0.293 HD
ENDBRANCH  17  22
ENDBRANCH   1  12
BRANCH   2  24
ATOM     24  O   UNL     1     -23.750  82.403 -21.386  1.00  0.00    -0.502 OA
ATOM     25  H   UNL     1     -23.215  82.970 -20.738  1.00  0.00     0.293 HD
ENDBRANCH   2  24
BRANCH   6  26
ATOM     26  O   UNL     1     -23.083  77.238 -22.502  1.00  0.00    -0.507 OA
ATOM     27  H   UNL     1     -22.674  76.813 -21.684  1.00  0.00     0.293 HD
ENDBRANCH   6  26
BRANCH   8  28
ATOM     28  O   UNL     1     -20.257  77.544 -26.352  1.00  0.00    -0.508 OA
ATOM     29  H   UNL     1     -19.462  76.960 -26.116  1.00  0.00     0.293 HD
ENDBRANCH   8  28
TORSDOF 7
ENDMDL
