MODEL 1
REMARK VINA RESULT:    -0.667      0.000      0.000
REMARK INTER + INTRA:          -1.039
REMARK INTER:                  -1.057
REMARK INTRA:                   0.017
REMARK UNBOUND:                 0.017
REMARK SMILES CCCCCCCCCCCC(=O)[O-]
REMARK SMILES IDX 7 1 8 2 9 3 10 4 11 5 12 6 13 7 14 8 6 9 5 10 4 11 3 12 2 13
REMARK SMILES IDX 1 14
REMARK H PARENT
REMARK Flexibility Score: inf
ROOT
ATOM      1  C   UNL     1       6.119  40.300  14.130  1.00  0.00     0.000 C 
ENDROOT
BRANCH   1   2
ATOM      2  C   UNL     1       7.399  40.633  14.919  1.00  0.00     0.000 C 
BRANCH   2   3
ATOM      3  C   UNL     1       7.690  39.627  16.042  1.00  0.00     0.000 C 
BRANCH   3   4
ATOM      4  C   UNL     1       8.245  38.315  15.472  1.00  0.00     0.006 C 
BRANCH   4   5
ATOM      5  C   UNL     1       9.589  37.961  16.119  1.00  0.00     0.053 C 
BRANCH   5   6
ATOM      6  C   UNL     1      10.683  38.805  15.548  1.00  0.00     0.041 C 
ATOM      7  O   UNL     1      10.423  39.674  14.674  1.00  0.00    -0.550 OA
ATOM      8  O   UNL     1      11.999  38.600  15.943  1.00  0.00    -0.550 OA
ENDBRANCH   5   6
ENDBRANCH   4   5
ENDBRANCH   3   4
ENDBRANCH   2   3
ENDBRANCH   1   2
BRANCH   1   9
ATOM      9  C   UNL     1       4.806  40.504  14.909  1.00  0.00     0.000 C 
BRANCH   9  10
ATOM     10  C   UNL     1       4.581  39.522  16.075  1.00  0.00    -0.000 C 
BRANCH  10  11
ATOM     11  C   UNL     1       3.877  38.213  15.657  1.00  0.00    -0.000 C 
BRANCH  11  12
ATOM     12  C   UNL     1       2.398  38.184  16.077  1.00  0.00    -0.000 C 
BRANCH  12  13
ATOM     13  C   UNL     1       1.457  37.875  14.903  1.00  0.00    -0.003 C 
ATOM     14  C   UNL     1       1.978  38.409  13.569  1.00  0.00     0.004 C 
ENDBRANCH  12  13
ENDBRANCH  11  12
ENDBRANCH  10  11
ENDBRANCH   9  10
ENDBRANCH   1   9
TORSDOF 10
ENDMDL
MODEL 2
REMARK VINA RESULT:     0.287      3.444      6.590
REMARK INTER + INTRA:           0.472
REMARK INTER:                   0.726
REMARK INTRA:                  -0.254
REMARK UNBOUND:                 0.017
REMARK SMILES CCCCCCCCCCCC(=O)[O-]
REMARK SMILES IDX 7 1 8 2 9 3 10 4 11 5 12 6 13 7 14 8 6 9 5 10 4 11 3 12 2 13
REMARK SMILES IDX 1 14
REMARK H PARENT
REMARK Flexibility Score: inf
ROOT
ATOM      1  C   UNL     1       6.532  40.638  13.958  1.00  0.00     0.000 C 
ENDROOT
BRANCH   1   2
ATOM      2  C   UNL     1       5.471  41.083  14.983  1.00  0.00     0.000 C 
BRANCH   2   3
ATOM      3  C   UNL     1       5.230  40.040  16.084  1.00  0.00     0.000 C 
BRANCH   3   4
ATOM      4  C   UNL     1       5.097  38.634  15.488  1.00  0.00     0.006 C 
BRANCH   4   5
ATOM      5  C   UNL     1       3.927  37.876  16.125  1.00  0.00     0.053 C 
BRANCH   5   6
ATOM      6  C   UNL     1       2.653  38.173  15.399  1.00  0.00     0.041 C 
ATOM      7  O   UNL     1       2.685  38.606  14.216  1.00  0.00    -0.550 OA
ATOM      8  O   UNL     1       1.432  38.021  16.043  1.00  0.00    -0.550 OA
ENDBRANCH   5   6
ENDBRANCH   4   5
ENDBRANCH   3   4
ENDBRANCH   2   3
ENDBRANCH   1   2
BRANCH   1   9
ATOM      9  C   UNL     1       7.737  39.889  14.555  1.00  0.00     0.000 C 
BRANCH   9  10
ATOM     10  C   UNL     1       8.713  40.765  15.363  1.00  0.00    -0.000 C 
BRANCH  10  11
ATOM     11  C   UNL     1       9.787  39.958  16.124  1.00  0.00    -0.000 C 
BRANCH  11  12
ATOM     12  C   UNL     1       9.698  38.449  15.838  1.00  0.00    -0.000 C 
BRANCH  12  13
ATOM     13  C   UNL     1      10.858  37.944  14.967  1.00  0.00    -0.003 C 
ATOM     14  C   UNL     1      12.183  37.875  15.726  1.00  0.00     0.004 C 
ENDBRANCH  12  13
ENDBRANCH  11  12
ENDBRANCH  10  11
ENDBRANCH   9  10
ENDBRANCH   1   9
TORSDOF 10
ENDMDL
