MODEL 1
REMARK VINA RESULT:    -5.055      0.000      0.000
REMARK INTER + INTRA:         -17.428
REMARK INTER:                 -13.329
REMARK INTRA:                  -4.099
REMARK UNBOUND:                -4.099
REMARK SMILES CCCCCCCCCCCCCCCCCCCCCCCCCCCCCC(=O)[O-]
REMARK SMILES IDX 16 1 17 2 18 3 19 4 20 5 21 6 22 7 23 8 24 9 25 10 26 11
REMARK SMILES IDX 27 12 28 13 29 14 30 15 31 16 32 17 15 18 14 19 13 20 12 21
REMARK SMILES IDX 11 22 10 23 9 24 8 25 7 26 6 27 5 28 4 29 3 30 2 31 1 32
REMARK H PARENT
REMARK Flexibility Score: inf
ROOT
ATOM      1  C   UNL     1       9.023  78.244  37.675  1.00  0.00     0.000 C 
ENDROOT
BRANCH   1   2
ATOM      2  C   UNL     1       9.850  79.453  38.163  1.00  0.00     0.000 C 
BRANCH   2   3
ATOM      3  C   UNL     1       9.011  80.562  38.822  1.00  0.00     0.000 C 
BRANCH   3   4
ATOM      4  C   UNL     1       9.066  80.526  40.358  1.00  0.00     0.000 C 
BRANCH   4   5
ATOM      5  C   UNL     1       9.529  81.862  40.961  1.00  0.00     0.000 C 
BRANCH   5   6
ATOM      6  C   UNL     1      11.034  82.105  40.755  1.00  0.00     0.000 C 
BRANCH   6   7
ATOM      7  C   UNL     1      11.884  80.848  41.018  1.00  0.00     0.000 C 
BRANCH   7   8
ATOM      8  C   UNL     1      11.983  80.432  42.497  1.00  0.00     0.000 C 
BRANCH   8   9
ATOM      9  C   UNL     1      12.230  81.623  43.439  1.00  0.00     0.000 C 
BRANCH   9  10
ATOM     10  C   UNL     1      11.362  81.566  44.713  1.00  0.00     0.000 C 
BRANCH  10  11
ATOM     11  C   UNL     1      10.049  80.780  44.539  1.00  0.00     0.000 C 
BRANCH  11  12
ATOM     12  C   UNL     1       8.763  81.624  44.616  1.00  0.00     0.000 C 
BRANCH  12  13
ATOM     13  C   UNL     1       7.480  80.828  44.927  1.00  0.00     0.006 C 
BRANCH  13  14
ATOM     14  C   UNL     1       7.155  80.782  46.426  1.00  0.00     0.053 C 
BRANCH  14  15
ATOM     15  C   UNL     1       7.053  79.364  46.895  1.00  0.00     0.041 C 
ATOM     16  O   UNL     1       5.945  78.766  46.869  1.00  0.00    -0.550 OA
ATOM     17  O   UNL     1       8.188  78.686  47.320  1.00  0.00    -0.550 OA
ENDBRANCH  14  15
ENDBRANCH  13  14
ENDBRANCH  12  13
ENDBRANCH  11  12
ENDBRANCH  10  11
ENDBRANCH   9  10
ENDBRANCH   8   9
ENDBRANCH   7   8
ENDBRANCH   6   7
ENDBRANCH   5   6
ENDBRANCH   4   5
ENDBRANCH   3   4
ENDBRANCH   2   3
ENDBRANCH   1   2
BRANCH   1  18
ATOM     18  C   UNL     1       8.530  78.407  36.227  1.00  0.00     0.000 C 
BRANCH  18  19
ATOM     19  C   UNL     1       7.339  79.387  36.132  1.00  0.00     0.000 C 
BRANCH  19  20
ATOM     20  C   UNL     1       6.066  78.859  36.815  1.00  0.00     0.000 C 
BRANCH  20  21
ATOM     21  C   UNL     1       5.677  79.684  38.054  1.00  0.00     0.000 C 
BRANCH  21  22
ATOM     22  C   UNL     1       5.168  78.809  39.212  1.00  0.00     0.000 C 
BRANCH  22  23
ATOM     23  C   UNL     1       6.291  77.986  39.869  1.00  0.00     0.000 C 
BRANCH  23  24
ATOM     24  C   UNL     1       6.173  76.482  39.574  1.00  0.00    -0.000 C 
BRANCH  24  25
ATOM     25  C   UNL     1       4.767  76.080  39.105  1.00  0.00    -0.000 C 
BRANCH  25  26
ATOM     26  C   UNL     1       4.839  75.220  37.835  1.00  0.00    -0.000 C 
BRANCH  26  27
ATOM     27  C   UNL     1       6.193  75.335  37.118  1.00  0.00    -0.000 C 
BRANCH  27  28
ATOM     28  C   UNL     1       6.699  73.984  36.582  1.00  0.00    -0.000 C 
BRANCH  28  29
ATOM     29  C   UNL     1       8.115  73.644  37.097  1.00  0.00    -0.000 C 
BRANCH  29  30
ATOM     30  C   UNL     1       8.285  72.170  37.517  1.00  0.00    -0.000 C 
BRANCH  30  31
ATOM     31  C   UNL     1       7.280  71.677  38.569  1.00  0.00    -0.003 C 
ATOM     32  C   UNL     1       7.131  72.639  39.748  1.00  0.00     0.004 C 
ENDBRANCH  30  31
ENDBRANCH  29  30
ENDBRANCH  28  29
ENDBRANCH  27  28
ENDBRANCH  26  27
ENDBRANCH  25  26
ENDBRANCH  24  25
ENDBRANCH  23  24
ENDBRANCH  22  23
ENDBRANCH  21  22
ENDBRANCH  20  21
ENDBRANCH  19  20
ENDBRANCH  18  19
ENDBRANCH   1  18
TORSDOF 28
ENDMDL
MODEL 2
REMARK VINA RESULT:    -4.804      2.410      8.547
REMARK INTER + INTRA:         -16.767
REMARK INTER:                 -12.662
REMARK INTRA:                  -4.105
REMARK UNBOUND:                -4.099
REMARK SMILES CCCCCCCCCCCCCCCCCCCCCCCCCCCCCC(=O)[O-]
REMARK SMILES IDX 16 1 17 2 18 3 19 4 20 5 21 6 22 7 23 8 24 9 25 10 26 11
REMARK SMILES IDX 27 12 28 13 29 14 30 15 31 16 32 17 15 18 14 19 13 20 12 21
REMARK SMILES IDX 11 22 10 23 9 24 8 25 7 26 6 27 5 28 4 29 3 30 2 31 1 32
REMARK H PARENT
REMARK Flexibility Score: inf
ROOT
ATOM      1  C   UNL     1       7.166  78.607  36.241  1.00  0.00     0.000 C 
ENDROOT
BRANCH   1   2
ATOM      2  C   UNL     1       6.540  80.008  36.412  1.00  0.00     0.000 C 
BRANCH   2   3
ATOM      3  C   UNL     1       6.485  80.496  37.870  1.00  0.00     0.000 C 
BRANCH   3   4
ATOM      4  C   UNL     1       5.605  79.611  38.768  1.00  0.00     0.000 C 
BRANCH   4   5
ATOM      5  C   UNL     1       6.412  78.905  39.870  1.00  0.00     0.000 C 
BRANCH   5   6
ATOM      6  C   UNL     1       6.059  77.413  39.986  1.00  0.00     0.000 C 
BRANCH   6   7
ATOM      7  C   UNL     1       4.951  76.982  39.007  1.00  0.00     0.000 C 
BRANCH   7   8
ATOM      8  C   UNL     1       5.210  75.648  38.283  1.00  0.00     0.000 C 
BRANCH   8   9
ATOM      9  C   UNL     1       6.618  75.563  37.669  1.00  0.00     0.000 C 
BRANCH   9  10
ATOM     10  C   UNL     1       6.800  74.331  36.759  1.00  0.00     0.000 C 
BRANCH  10  11
ATOM     11  C   UNL     1       8.265  73.881  36.605  1.00  0.00     0.000 C 
BRANCH  11  12
ATOM     12  C   UNL     1       8.568  72.450  37.090  1.00  0.00     0.000 C 
BRANCH  12  13
ATOM     13  C   UNL     1       7.451  71.797  37.926  1.00  0.00     0.006 C 
BRANCH  13  14
ATOM     14  C   UNL     1       7.588  72.078  39.429  1.00  0.00     0.053 C 
BRANCH  14  15
ATOM     15  C   UNL     1       6.297  72.595  39.983  1.00  0.00     0.041 C 
ATOM     16  O   UNL     1       6.299  73.383  40.966  1.00  0.00    -0.550 OA
ATOM     17  O   UNL     1       5.091  72.243  39.390  1.00  0.00    -0.550 OA
ENDBRANCH  14  15
ENDBRANCH  13  14
ENDBRANCH  12  13
ENDBRANCH  11  12
ENDBRANCH  10  11
ENDBRANCH   9  10
ENDBRANCH   8   9
ENDBRANCH   7   8
ENDBRANCH   6   7
ENDBRANCH   5   6
ENDBRANCH   4   5
ENDBRANCH   3   4
ENDBRANCH   2   3
ENDBRANCH   1   2
BRANCH   1  18
ATOM     18  C   UNL     1       8.704  78.636  36.255  1.00  0.00     0.000 C 
BRANCH  18  19
ATOM     19  C   UNL     1       9.285  77.736  37.368  1.00  0.00     0.000 C 
BRANCH  19  20
ATOM     20  C   UNL     1       9.723  78.522  38.615  1.00  0.00     0.000 C 
BRANCH  20  21
ATOM     21  C   UNL     1      10.093  79.980  38.292  1.00  0.00     0.000 C 
BRANCH  21  22
ATOM     22  C   UNL     1       9.903  80.920  39.494  1.00  0.00     0.000 C 
BRANCH  22  23
ATOM     23  C   UNL     1      10.241  80.242  40.835  1.00  0.00     0.000 C 
BRANCH  23  24
ATOM     24  C   UNL     1      10.938  81.193  41.820  1.00  0.00    -0.000 C 
BRANCH  24  25
ATOM     25  C   UNL     1      11.260  80.521  43.163  1.00  0.00    -0.000 C 
BRANCH  25  26
ATOM     26  C   UNL     1      10.548  81.240  44.319  1.00  0.00    -0.000 C 
BRANCH  26  27
ATOM     27  C   UNL     1       9.520  82.273  43.830  1.00  0.00    -0.000 C 
BRANCH  27  28
ATOM     28  C   UNL     1       8.068  81.834  44.088  1.00  0.00    -0.000 C 
BRANCH  28  29
ATOM     29  C   UNL     1       7.982  80.632  45.054  1.00  0.00    -0.000 C 
BRANCH  29  30
ATOM     30  C   UNL     1       7.299  80.963  46.395  1.00  0.00    -0.000 C 
BRANCH  30  31
ATOM     31  C   UNL     1       6.864  79.741  47.219  1.00  0.00    -0.003 C 
ATOM     32  C   UNL     1       5.708  78.971  46.578  1.00  0.00     0.004 C 
ENDBRANCH  30  31
ENDBRANCH  29  30
ENDBRANCH  28  29
ENDBRANCH  27  28
ENDBRANCH  26  27
ENDBRANCH  25  26
ENDBRANCH  24  25
ENDBRANCH  23  24
ENDBRANCH  22  23
ENDBRANCH  21  22
ENDBRANCH  20  21
ENDBRANCH  19  20
ENDBRANCH  18  19
ENDBRANCH   1  18
TORSDOF 28
ENDMDL
MODEL 3
REMARK VINA RESULT:    -4.716      3.264      9.220
REMARK INTER + INTRA:         -16.535
REMARK INTER:                 -13.425
REMARK INTRA:                  -3.110
REMARK UNBOUND:                -4.099
REMARK SMILES CCCCCCCCCCCCCCCCCCCCCCCCCCCCCC(=O)[O-]
REMARK SMILES IDX 16 1 17 2 18 3 19 4 20 5 21 6 22 7 23 8 24 9 25 10 26 11
REMARK SMILES IDX 27 12 28 13 29 14 30 15 31 16 32 17 15 18 14 19 13 20 12 21
REMARK SMILES IDX 11 22 10 23 9 24 8 25 7 26 6 27 5 28 4 29 3 30 2 31 1 32
REMARK H PARENT
REMARK Flexibility Score: inf
ROOT
ATOM      1  C   UNL     1       6.076  79.144  36.840  1.00  0.00     0.000 C 
ENDROOT
BRANCH   1   2
ATOM      2  C   UNL     1       6.005  79.786  38.242  1.00  0.00     0.000 C 
BRANCH   2   3
ATOM      3  C   UNL     1       5.532  78.825  39.348  1.00  0.00     0.000 C 
BRANCH   3   4
ATOM      4  C   UNL     1       6.590  77.775  39.724  1.00  0.00     0.000 C 
BRANCH   4   5
ATOM      5  C   UNL     1       6.147  76.344  39.378  1.00  0.00     0.000 C 
BRANCH   5   6
ATOM      6  C   UNL     1       4.617  76.213  39.291  1.00  0.00     0.000 C 
BRANCH   6   7
ATOM      7  C   UNL     1       4.167  74.912  38.601  1.00  0.00     0.000 C 
BRANCH   7   8
ATOM      8  C   UNL     1       4.751  74.691  37.193  1.00  0.00     0.000 C 
BRANCH   8   9
ATOM      9  C   UNL     1       5.403  73.307  37.026  1.00  0.00     0.000 C 
BRANCH   9  10
ATOM     10  C   UNL     1       6.732  73.364  36.244  1.00  0.00     0.000 C 
BRANCH  10  11
ATOM     11  C   UNL     1       7.900  73.973  37.043  1.00  0.00     0.000 C 
BRANCH  11  12
ATOM     12  C   UNL     1       9.294  73.413  36.699  1.00  0.00     0.000 C 
BRANCH  12  13
ATOM     13  C   UNL     1       9.683  72.129  37.455  1.00  0.00     0.006 C 
BRANCH  13  14
ATOM     14  C   UNL     1      11.035  71.557  37.004  1.00  0.00     0.053 C 
BRANCH  14  15
ATOM     15  C   UNL     1      12.144  72.118  37.839  1.00  0.00     0.041 C 
ATOM     16  O   UNL     1      12.381  71.641  38.980  1.00  0.00    -0.550 OA
ATOM     17  O   UNL     1      12.944  73.138  37.342  1.00  0.00    -0.550 OA
ENDBRANCH  14  15
ENDBRANCH  13  14
ENDBRANCH  12  13
ENDBRANCH  11  12
ENDBRANCH  10  11
ENDBRANCH   9  10
ENDBRANCH   8   9
ENDBRANCH   7   8
ENDBRANCH   6   7
ENDBRANCH   5   6
ENDBRANCH   4   5
ENDBRANCH   3   4
ENDBRANCH   2   3
ENDBRANCH   1   2
BRANCH   1  18
ATOM     18  C   UNL     1       7.487  79.201  36.230  1.00  0.00     0.000 C 
BRANCH  18  19
ATOM     19  C   UNL     1       8.295  77.919  36.532  1.00  0.00     0.000 C 
BRANCH  19  20
ATOM     20  C   UNL     1       9.735  78.206  36.988  1.00  0.00     0.000 C 
BRANCH  20  21
ATOM     21  C   UNL     1       9.806  78.700  38.443  1.00  0.00     0.000 C 
BRANCH  21  22
ATOM     22  C   UNL     1       9.945  80.228  38.545  1.00  0.00     0.000 C 
BRANCH  22  23
ATOM     23  C   UNL     1      11.211  80.657  39.309  1.00  0.00     0.000 C 
BRANCH  23  24
ATOM     24  C   UNL     1      10.907  81.629  40.460  1.00  0.00    -0.000 C 
BRANCH  24  25
ATOM     25  C   UNL     1       9.426  82.031  40.518  1.00  0.00    -0.000 C 
BRANCH  25  26
ATOM     26  C   UNL     1       8.823  81.699  41.891  1.00  0.00    -0.000 C 
BRANCH  26  27
ATOM     27  C   UNL     1       9.881  81.243  42.908  1.00  0.00    -0.000 C 
BRANCH  27  28
ATOM     28  C   UNL     1       9.553  81.683  44.346  1.00  0.00    -0.000 C 
BRANCH  28  29
ATOM     29  C   UNL     1       8.844  80.573  45.151  1.00  0.00    -0.000 C 
BRANCH  29  30
ATOM     30  C   UNL     1       7.470  80.992  45.709  1.00  0.00    -0.000 C 
BRANCH  30  31
ATOM     31  C   UNL     1       7.023  80.233  46.967  1.00  0.00    -0.003 C 
ATOM     32  C   UNL     1       5.990  79.144  46.672  1.00  0.00     0.004 C 
ENDBRANCH  30  31
ENDBRANCH  29  30
ENDBRANCH  28  29
ENDBRANCH  27  28
ENDBRANCH  26  27
ENDBRANCH  25  26
ENDBRANCH  24  25
ENDBRANCH  23  24
ENDBRANCH  22  23
ENDBRANCH  21  22
ENDBRANCH  20  21
ENDBRANCH  19  20
ENDBRANCH  18  19
ENDBRANCH   1  18
TORSDOF 28
ENDMDL
MODEL 4
REMARK VINA RESULT:    -4.683      3.951      9.858
REMARK INTER + INTRA:         -16.447
REMARK INTER:                 -13.114
REMARK INTRA:                  -3.334
REMARK UNBOUND:                -4.099
REMARK SMILES CCCCCCCCCCCCCCCCCCCCCCCCCCCCCC(=O)[O-]
REMARK SMILES IDX 16 1 17 2 18 3 19 4 20 5 21 6 22 7 23 8 24 9 25 10 26 11
REMARK SMILES IDX 27 12 28 13 29 14 30 15 31 16 32 17 15 18 14 19 13 20 12 21
REMARK SMILES IDX 11 22 10 23 9 24 8 25 7 26 6 27 5 28 4 29 3 30 2 31 1 32
REMARK H PARENT
REMARK Flexibility Score: inf
ROOT
ATOM      1  C   UNL     1       5.692  80.003  37.395  1.00  0.00     0.000 C 
ENDROOT
BRANCH   1   2
ATOM      2  C   UNL     1       5.809  79.744  38.912  1.00  0.00     0.000 C 
BRANCH   2   3
ATOM      3  C   UNL     1       5.290  78.364  39.355  1.00  0.00     0.000 C 
BRANCH   3   4
ATOM      4  C   UNL     1       6.391  77.471  39.950  1.00  0.00     0.000 C 
BRANCH   4   5
ATOM      5  C   UNL     1       6.429  76.076  39.305  1.00  0.00     0.000 C 
BRANCH   5   6
ATOM      6  C   UNL     1       5.218  75.824  38.390  1.00  0.00     0.000 C 
BRANCH   6   7
ATOM      7  C   UNL     1       4.661  74.394  38.516  1.00  0.00     0.000 C 
BRANCH   7   8
ATOM      8  C   UNL     1       4.885  73.731  39.888  1.00  0.00     0.000 C 
BRANCH   8   9
ATOM      9  C   UNL     1       5.334  72.264  39.777  1.00  0.00     0.000 C 
BRANCH   9  10
ATOM     10  C   UNL     1       6.829  72.121  39.428  1.00  0.00     0.000 C 
BRANCH  10  11
ATOM     11  C   UNL     1       7.158  70.869  38.592  1.00  0.00     0.000 C 
BRANCH  11  12
ATOM     12  C   UNL     1       5.980  69.900  38.370  1.00  0.00     0.000 C 
BRANCH  12  13
ATOM     13  C   UNL     1       6.321  68.409  38.555  1.00  0.00     0.006 C 
BRANCH  13  14
ATOM     14  C   UNL     1       5.157  67.480  38.184  1.00  0.00     0.053 C 
BRANCH  14  15
ATOM     15  C   UNL     1       4.582  66.846  39.413  1.00  0.00     0.041 C 
ATOM     16  O   UNL     1       3.840  65.834  39.315  1.00  0.00    -0.550 OA
ATOM     17  O   UNL     1       4.900  67.345  40.669  1.00  0.00    -0.550 OA
ENDBRANCH  14  15
ENDBRANCH  13  14
ENDBRANCH  12  13
ENDBRANCH  11  12
ENDBRANCH  10  11
ENDBRANCH   9  10
ENDBRANCH   8   9
ENDBRANCH   7   8
ENDBRANCH   6   7
ENDBRANCH   5   6
ENDBRANCH   4   5
ENDBRANCH   3   4
ENDBRANCH   2   3
ENDBRANCH   1   2
BRANCH   1  18
ATOM     18  C   UNL     1       6.290  78.866  36.549  1.00  0.00     0.000 C 
BRANCH  18  19
ATOM     19  C   UNL     1       7.810  79.046  36.338  1.00  0.00     0.000 C 
BRANCH  19  20
ATOM     20  C   UNL     1       8.644  77.905  36.940  1.00  0.00     0.000 C 
BRANCH  20  21
ATOM     21  C   UNL     1       9.607  78.393  38.036  1.00  0.00     0.000 C 
BRANCH  21  22
ATOM     22  C   UNL     1       9.500  79.907  38.288  1.00  0.00     0.000 C 
BRANCH  22  23
ATOM     23  C   UNL     1      10.586  80.424  39.249  1.00  0.00     0.000 C 
BRANCH  23  24
ATOM     24  C   UNL     1      10.424  79.876  40.676  1.00  0.00    -0.000 C 
BRANCH  24  25
ATOM     25  C   UNL     1      11.747  79.856  41.456  1.00  0.00    -0.000 C 
BRANCH  25  26
ATOM     26  C   UNL     1      12.068  81.247  42.023  1.00  0.00    -0.000 C 
BRANCH  26  27
ATOM     27  C   UNL     1      11.909  81.315  43.550  1.00  0.00    -0.000 C 
BRANCH  27  28
ATOM     28  C   UNL     1      11.107  82.545  44.010  1.00  0.00    -0.000 C 
BRANCH  28  29
ATOM     29  C   UNL     1       9.680  82.567  43.418  1.00  0.00    -0.000 C 
BRANCH  29  30
ATOM     30  C   UNL     1       8.842  81.323  43.772  1.00  0.00    -0.000 C 
BRANCH  30  31
ATOM     31  C   UNL     1       7.566  81.610  44.577  1.00  0.00    -0.003 C 
ATOM     32  C   UNL     1       7.584  80.978  45.970  1.00  0.00     0.004 C 
ENDBRANCH  30  31
ENDBRANCH  29  30
ENDBRANCH  28  29
ENDBRANCH  27  28
ENDBRANCH  26  27
ENDBRANCH  25  26
ENDBRANCH  24  25
ENDBRANCH  23  24
ENDBRANCH  22  23
ENDBRANCH  21  22
ENDBRANCH  20  21
ENDBRANCH  19  20
ENDBRANCH  18  19
ENDBRANCH   1  18
TORSDOF 28
ENDMDL
MODEL 5
REMARK VINA RESULT:    -4.657      2.024      4.339
REMARK INTER + INTRA:         -16.379
REMARK INTER:                 -12.000
REMARK INTRA:                  -4.379
REMARK UNBOUND:                -4.099
REMARK SMILES CCCCCCCCCCCCCCCCCCCCCCCCCCCCCC(=O)[O-]
REMARK SMILES IDX 16 1 17 2 18 3 19 4 20 5 21 6 22 7 23 8 24 9 25 10 26 11
REMARK SMILES IDX 27 12 28 13 29 14 30 15 31 16 32 17 15 18 14 19 13 20 12 21
REMARK SMILES IDX 11 22 10 23 9 24 8 25 7 26 6 27 5 28 4 29 3 30 2 31 1 32
REMARK H PARENT
REMARK Flexibility Score: inf
ROOT
ATOM      1  C   UNL     1       8.969  77.083  36.974  1.00  0.00     0.000 C 
ENDROOT
BRANCH   1   2
ATOM      2  C   UNL     1       8.885  78.594  36.673  1.00  0.00     0.000 C 
BRANCH   2   3
ATOM      3  C   UNL     1       7.480  79.077  36.272  1.00  0.00     0.000 C 
BRANCH   3   4
ATOM      4  C   UNL     1       6.905  80.125  37.240  1.00  0.00     0.000 C 
BRANCH   4   5
ATOM      5  C   UNL     1       5.673  79.609  38.001  1.00  0.00     0.000 C 
BRANCH   5   6
ATOM      6  C   UNL     1       5.880  79.624  39.525  1.00  0.00     0.000 C 
BRANCH   6   7
ATOM      7  C   UNL     1       7.337  79.339  39.933  1.00  0.00     0.000 C 
BRANCH   7   8
ATOM      8  C   UNL     1       8.005  80.449  40.765  1.00  0.00     0.000 C 
BRANCH   8   9
ATOM      9  C   UNL     1       9.201  81.098  40.048  1.00  0.00     0.000 C 
BRANCH   9  10
ATOM     10  C   UNL     1      10.324  80.090  39.728  1.00  0.00     0.000 C 
BRANCH  10  11
ATOM     11  C   UNL     1      11.701  80.492  40.290  1.00  0.00     0.000 C 
BRANCH  11  12
ATOM     12  C   UNL     1      11.885  80.263  41.803  1.00  0.00     0.000 C 
BRANCH  12  13
ATOM     13  C   UNL     1      12.496  81.452  42.570  1.00  0.00     0.006 C 
BRANCH  13  14
ATOM     14  C   UNL     1      11.448  82.264  43.344  1.00  0.00     0.053 C 
BRANCH  14  15
ATOM     15  C   UNL     1      10.510  81.349  44.068  1.00  0.00     0.041 C 
ATOM     16  O   UNL     1      10.946  80.558  44.945  1.00  0.00    -0.550 OA
ATOM     17  O   UNL     1       9.146  81.399  43.807  1.00  0.00    -0.550 OA
ENDBRANCH  14  15
ENDBRANCH  13  14
ENDBRANCH  12  13
ENDBRANCH  11  12
ENDBRANCH  10  11
ENDBRANCH   9  10
ENDBRANCH   8   9
ENDBRANCH   7   8
ENDBRANCH   6   7
ENDBRANCH   5   6
ENDBRANCH   4   5
ENDBRANCH   3   4
ENDBRANCH   2   3
ENDBRANCH   1   2
BRANCH   1  18
ATOM     18  C   UNL     1       7.586  76.410  37.032  1.00  0.00     0.000 C 
BRANCH  18  19
ATOM     19  C   UNL     1       7.140  76.140  38.486  1.00  0.00     0.000 C 
BRANCH  19  20
ATOM     20  C   UNL     1       5.614  76.030  38.640  1.00  0.00     0.000 C 
BRANCH  20  21
ATOM     21  C   UNL     1       4.981  75.104  37.587  1.00  0.00     0.000 C 
BRANCH  21  22
ATOM     22  C   UNL     1       4.482  73.778  38.187  1.00  0.00     0.000 C 
BRANCH  22  23
ATOM     23  C   UNL     1       4.761  73.670  39.697  1.00  0.00     0.000 C 
BRANCH  23  24
ATOM     24  C   UNL     1       5.622  72.449  40.054  1.00  0.00    -0.000 C 
BRANCH  24  25
ATOM     25  C   UNL     1       7.105  72.648  39.705  1.00  0.00    -0.000 C 
BRANCH  25  26
ATOM     26  C   UNL     1       7.589  71.560  38.736  1.00  0.00    -0.000 C 
BRANCH  26  27
ATOM     27  C   UNL     1       7.570  72.020  37.270  1.00  0.00    -0.000 C 
BRANCH  27  28
ATOM     28  C   UNL     1       8.770  72.915  36.911  1.00  0.00    -0.000 C 
BRANCH  28  29
ATOM     29  C   UNL     1      10.065  72.100  36.701  1.00  0.00    -0.000 C 
BRANCH  29  30
ATOM     30  C   UNL     1      11.281  72.660  37.465  1.00  0.00    -0.000 C 
BRANCH  30  31
ATOM     31  C   UNL     1      12.039  71.632  38.318  1.00  0.00    -0.003 C 
ATOM     32  C   UNL     1      11.814  71.821  39.819  1.00  0.00     0.004 C 
ENDBRANCH  30  31
ENDBRANCH  29  30
ENDBRANCH  28  29
ENDBRANCH  27  28
ENDBRANCH  26  27
ENDBRANCH  25  26
ENDBRANCH  24  25
ENDBRANCH  23  24
ENDBRANCH  22  23
ENDBRANCH  21  22
ENDBRANCH  20  21
ENDBRANCH  19  20
ENDBRANCH  18  19
ENDBRANCH   1  18
TORSDOF 28
ENDMDL
MODEL 6
REMARK VINA RESULT:    -4.651      4.173      9.924
REMARK INTER + INTRA:         -16.363
REMARK INTER:                 -12.374
REMARK INTRA:                  -3.989
REMARK UNBOUND:                -4.099
REMARK SMILES CCCCCCCCCCCCCCCCCCCCCCCCCCCCCC(=O)[O-]
REMARK SMILES IDX 16 1 17 2 18 3 19 4 20 5 21 6 22 7 23 8 24 9 25 10 26 11
REMARK SMILES IDX 27 12 28 13 29 14 30 15 31 16 32 17 15 18 14 19 13 20 12 21
REMARK SMILES IDX 11 22 10 23 9 24 8 25 7 26 6 27 5 28 4 29 3 30 2 31 1 32
REMARK H PARENT
REMARK Flexibility Score: inf
ROOT
ATOM      1  C   UNL     1       4.890  77.130  39.595  1.00  0.00     0.000 C 
ENDROOT
BRANCH   1   2
ATOM      2  C   UNL     1       4.633  75.923  38.668  1.00  0.00     0.000 C 
BRANCH   2   3
ATOM      3  C   UNL     1       5.794  75.611  37.707  1.00  0.00     0.000 C 
BRANCH   3   4
ATOM      4  C   UNL     1       5.440  74.535  36.667  1.00  0.00     0.000 C 
BRANCH   4   5
ATOM      5  C   UNL     1       6.659  73.695  36.253  1.00  0.00     0.000 C 
BRANCH   5   6
ATOM      6  C   UNL     1       7.747  73.670  37.340  1.00  0.00     0.000 C 
BRANCH   6   7
ATOM      7  C   UNL     1       8.129  72.242  37.770  1.00  0.00     0.000 C 
BRANCH   7   8
ATOM      8  C   UNL     1       7.852  71.915  39.249  1.00  0.00     0.000 C 
BRANCH   8   9
ATOM      9  C   UNL     1       6.829  72.868  39.892  1.00  0.00     0.000 C 
BRANCH   9  10
ATOM     10  C   UNL     1       5.374  72.386  39.723  1.00  0.00     0.000 C 
BRANCH  10  11
ATOM     11  C   UNL     1       5.252  70.920  39.266  1.00  0.00     0.000 C 
BRANCH  11  12
ATOM     12  C   UNL     1       4.467  70.703  37.958  1.00  0.00     0.000 C 
BRANCH  12  13
ATOM     13  C   UNL     1       5.324  70.291  36.745  1.00  0.00     0.006 C 
BRANCH  13  14
ATOM     14  C   UNL     1       4.814  69.016  36.059  1.00  0.00     0.053 C 
BRANCH  14  15
ATOM     15  C   UNL     1       4.787  67.877  37.029  1.00  0.00     0.041 C 
ATOM     16  O   UNL     1       3.697  67.315  37.316  1.00  0.00    -0.550 OA
ATOM     17  O   UNL     1       5.969  67.404  37.585  1.00  0.00    -0.550 OA
ENDBRANCH  14  15
ENDBRANCH  13  14
ENDBRANCH  12  13
ENDBRANCH  11  12
ENDBRANCH  10  11
ENDBRANCH   9  10
ENDBRANCH   8   9
ENDBRANCH   7   8
ENDBRANCH   6   7
ENDBRANCH   5   6
ENDBRANCH   4   5
ENDBRANCH   3   4
ENDBRANCH   2   3
ENDBRANCH   1   2
BRANCH   1  18
ATOM     18  C   UNL     1       6.233  77.825  39.309  1.00  0.00     0.000 C 
BRANCH  18  19
ATOM     19  C   UNL     1       6.079  79.360  39.233  1.00  0.00     0.000 C 
BRANCH  19  20
ATOM     20  C   UNL     1       6.045  79.894  37.792  1.00  0.00     0.000 C 
BRANCH  20  21
ATOM     21  C   UNL     1       6.425  78.822  36.756  1.00  0.00     0.000 C 
BRANCH  21  22
ATOM     22  C   UNL     1       7.870  78.972  36.251  1.00  0.00     0.000 C 
BRANCH  22  23
ATOM     23  C   UNL     1       8.782  77.821  36.716  1.00  0.00     0.000 C 
BRANCH  23  24
ATOM     24  C   UNL     1       9.679  78.218  37.899  1.00  0.00    -0.000 C 
BRANCH  24  25
ATOM     25  C   UNL     1       9.944  79.729  37.959  1.00  0.00    -0.000 C 
BRANCH  25  26
ATOM     26  C   UNL     1       9.910  80.233  39.410  1.00  0.00    -0.000 C 
BRANCH  26  27
ATOM     27  C   UNL     1      11.273  80.756  39.888  1.00  0.00    -0.000 C 
BRANCH  27  28
ATOM     28  C   UNL     1      11.721  80.122  41.217  1.00  0.00    -0.000 C 
BRANCH  28  29
ATOM     29  C   UNL     1      12.260  81.172  42.213  1.00  0.00    -0.000 C 
BRANCH  29  30
ATOM     30  C   UNL     1      11.580  81.121  43.596  1.00  0.00    -0.000 C 
BRANCH  30  31
ATOM     31  C   UNL     1      11.649  82.428  44.400  1.00  0.00    -0.003 C 
ATOM     32  C   UNL     1      13.074  82.804  44.807  1.00  0.00     0.004 C 
ENDBRANCH  30  31
ENDBRANCH  29  30
ENDBRANCH  28  29
ENDBRANCH  27  28
ENDBRANCH  26  27
ENDBRANCH  25  26
ENDBRANCH  24  25
ENDBRANCH  23  24
ENDBRANCH  22  23
ENDBRANCH  21  22
ENDBRANCH  20  21
ENDBRANCH  19  20
ENDBRANCH  18  19
ENDBRANCH   1  18
TORSDOF 28
ENDMDL
MODEL 7
REMARK VINA RESULT:    -4.640      1.367      3.406
REMARK INTER + INTRA:         -16.335
REMARK INTER:                 -11.842
REMARK INTRA:                  -4.493
REMARK UNBOUND:                -4.099
REMARK SMILES CCCCCCCCCCCCCCCCCCCCCCCCCCCCCC(=O)[O-]
REMARK SMILES IDX 16 1 17 2 18 3 19 4 20 5 21 6 22 7 23 8 24 9 25 10 26 11
REMARK SMILES IDX 27 12 28 13 29 14 30 15 31 16 32 17 15 18 14 19 13 20 12 21
REMARK SMILES IDX 11 22 10 23 9 24 8 25 7 26 6 27 5 28 4 29 3 30 2 31 1 32
REMARK H PARENT
REMARK Flexibility Score: inf
ROOT
ATOM      1  C   UNL     1       8.431  77.205  36.979  1.00  0.00     0.000 C 
ENDROOT
BRANCH   1   2
ATOM      2  C   UNL     1       8.278  78.627  36.398  1.00  0.00     0.000 C 
BRANCH   2   3
ATOM      3  C   UNL     1       6.834  79.160  36.416  1.00  0.00     0.000 C 
BRANCH   3   4
ATOM      4  C   UNL     1       6.562  80.117  37.588  1.00  0.00     0.000 C 
BRANCH   4   5
ATOM      5  C   UNL     1       7.852  80.563  38.295  1.00  0.00     0.000 C 
BRANCH   5   6
ATOM      6  C   UNL     1       8.003  79.929  39.688  1.00  0.00     0.000 C 
BRANCH   6   7
ATOM      7  C   UNL     1       9.455  79.531  40.009  1.00  0.00     0.000 C 
BRANCH   7   8
ATOM      8  C   UNL     1      10.503  80.035  38.999  1.00  0.00     0.000 C 
BRANCH   8   9
ATOM      9  C   UNL     1      11.490  81.043  39.614  1.00  0.00     0.000 C 
BRANCH   9  10
ATOM     10  C   UNL     1      11.054  81.530  41.011  1.00  0.00     0.000 C 
BRANCH  10  11
ATOM     11  C   UNL     1      11.942  81.010  42.157  1.00  0.00     0.000 C 
BRANCH  11  12
ATOM     12  C   UNL     1      11.216  80.153  43.213  1.00  0.00     0.000 C 
BRANCH  12  13
ATOM     13  C   UNL     1      10.549  80.951  44.350  1.00  0.00     0.006 C 
BRANCH  13  14
ATOM     14  C   UNL     1       9.038  81.130  44.146  1.00  0.00     0.053 C 
BRANCH  14  15
ATOM     15  C   UNL     1       8.291  80.687  45.366  1.00  0.00     0.041 C 
ATOM     16  O   UNL     1       7.378  81.409  45.846  1.00  0.00    -0.550 OA
ATOM     17  O   UNL     1       8.571  79.458  45.948  1.00  0.00    -0.550 OA
ENDBRANCH  14  15
ENDBRANCH  13  14
ENDBRANCH  12  13
ENDBRANCH  11  12
ENDBRANCH  10  11
ENDBRANCH   9  10
ENDBRANCH   8   9
ENDBRANCH   7   8
ENDBRANCH   6   7
ENDBRANCH   5   6
ENDBRANCH   4   5
ENDBRANCH   3   4
ENDBRANCH   2   3
ENDBRANCH   1   2
BRANCH   1  18
ATOM     18  C   UNL     1       7.085  76.582  37.388  1.00  0.00     0.000 C 
BRANCH  18  19
ATOM     19  C   UNL     1       6.973  76.415  38.920  1.00  0.00     0.000 C 
BRANCH  19  20
ATOM     20  C   UNL     1       5.670  76.990  39.498  1.00  0.00     0.000 C 
BRANCH  20  21
ATOM     21  C   UNL     1       4.420  76.263  38.971  1.00  0.00     0.000 C 
BRANCH  21  22
ATOM     22  C   UNL     1       4.408  74.768  39.331  1.00  0.00     0.000 C 
BRANCH  22  23
ATOM     23  C   UNL     1       3.831  73.893  38.202  1.00  0.00     0.000 C 
BRANCH  23  24
ATOM     24  C   UNL     1       4.626  74.018  36.893  1.00  0.00    -0.000 C 
BRANCH  24  25
ATOM     25  C   UNL     1       5.124  72.662  36.372  1.00  0.00    -0.000 C 
BRANCH  25  26
ATOM     26  C   UNL     1       4.815  71.543  37.377  1.00  0.00    -0.000 C 
BRANCH  26  27
ATOM     27  C   UNL     1       6.081  70.970  38.034  1.00  0.00    -0.000 C 
BRANCH  27  28
ATOM     28  C   UNL     1       6.437  71.675  39.355  1.00  0.00    -0.000 C 
BRANCH  28  29
ATOM     29  C   UNL     1       7.845  72.308  39.318  1.00  0.00    -0.000 C 
BRANCH  29  30
ATOM     30  C   UNL     1       8.830  71.575  38.386  1.00  0.00    -0.000 C 
BRANCH  30  31
ATOM     31  C   UNL     1       9.561  72.476  37.379  1.00  0.00    -0.003 C 
ATOM     32  C   UNL     1       8.615  73.393  36.603  1.00  0.00     0.004 C 
ENDBRANCH  30  31
ENDBRANCH  29  30
ENDBRANCH  28  29
ENDBRANCH  27  28
ENDBRANCH  26  27
ENDBRANCH  25  26
ENDBRANCH  24  25
ENDBRANCH  23  24
ENDBRANCH  22  23
ENDBRANCH  21  22
ENDBRANCH  20  21
ENDBRANCH  19  20
ENDBRANCH  18  19
ENDBRANCH   1  18
TORSDOF 28
ENDMDL
MODEL 8
REMARK VINA RESULT:    -4.635      1.471      2.407
REMARK INTER + INTRA:         -16.322
REMARK INTER:                 -13.088
REMARK INTRA:                  -3.234
REMARK UNBOUND:                -4.099
REMARK SMILES CCCCCCCCCCCCCCCCCCCCCCCCCCCCCC(=O)[O-]
REMARK SMILES IDX 16 1 17 2 18 3 19 4 20 5 21 6 22 7 23 8 24 9 25 10 26 11
REMARK SMILES IDX 27 12 28 13 29 14 30 15 31 16 32 17 15 18 14 19 13 20 12 21
REMARK SMILES IDX 11 22 10 23 9 24 8 25 7 26 6 27 5 28 4 29 3 30 2 31 1 32
REMARK H PARENT
REMARK Flexibility Score: inf
ROOT
ATOM      1  C   UNL     1       9.522  77.104  36.776  1.00  0.00     0.000 C 
ENDROOT
BRANCH   1   2
ATOM      2  C   UNL     1       9.312  78.625  36.614  1.00  0.00     0.000 C 
BRANCH   2   3
ATOM      3  C   UNL     1       9.156  79.382  37.946  1.00  0.00     0.000 C 
BRANCH   3   4
ATOM      4  C   UNL     1      10.448  80.087  38.390  1.00  0.00     0.000 C 
BRANCH   4   5
ATOM      5  C   UNL     1      10.312  80.745  39.773  1.00  0.00     0.000 C 
BRANCH   5   6
ATOM      6  C   UNL     1      11.643  80.763  40.544  1.00  0.00     0.000 C 
BRANCH   6   7
ATOM      7  C   UNL     1      11.713  79.685  41.640  1.00  0.00     0.000 C 
BRANCH   7   8
ATOM      8  C   UNL     1      11.141  80.111  43.005  1.00  0.00     0.000 C 
BRANCH   8   9
ATOM      9  C   UNL     1      11.527  81.549  43.393  1.00  0.00     0.000 C 
BRANCH   9  10
ATOM     10  C   UNL     1      10.302  82.434  43.702  1.00  0.00     0.000 C 
BRANCH  10  11
ATOM     11  C   UNL     1       8.994  81.933  43.061  1.00  0.00     0.000 C 
BRANCH  11  12
ATOM     12  C   UNL     1       7.863  81.597  44.052  1.00  0.00     0.000 C 
BRANCH  12  13
ATOM     13  C   UNL     1       8.304  80.805  45.297  1.00  0.00     0.006 C 
BRANCH  13  14
ATOM     14  C   UNL     1       7.264  80.838  46.425  1.00  0.00     0.053 C 
BRANCH  14  15
ATOM     15  C   UNL     1       6.931  79.447  46.869  1.00  0.00     0.041 C 
ATOM     16  O   UNL     1       5.793  78.963  46.633  1.00  0.00    -0.550 OA
ATOM     17  O   UNL     1       7.889  78.669  47.506  1.00  0.00    -0.550 OA
ENDBRANCH  14  15
ENDBRANCH  13  14
ENDBRANCH  12  13
ENDBRANCH  11  12
ENDBRANCH  10  11
ENDBRANCH   9  10
ENDBRANCH   8   9
ENDBRANCH   7   8
ENDBRANCH   6   7
ENDBRANCH   5   6
ENDBRANCH   4   5
ENDBRANCH   3   4
ENDBRANCH   2   3
ENDBRANCH   1   2
BRANCH   1  18
ATOM     18  C   UNL     1       8.514  76.464  37.746  1.00  0.00     0.000 C 
BRANCH  18  19
ATOM     19  C   UNL     1       7.289  75.886  37.002  1.00  0.00     0.000 C 
BRANCH  19  20
ATOM     20  C   UNL     1       6.021  76.738  37.174  1.00  0.00     0.000 C 
BRANCH  20  21
ATOM     21  C   UNL     1       5.995  77.494  38.513  1.00  0.00     0.000 C 
BRANCH  21  22
ATOM     22  C   UNL     1       4.995  76.891  39.515  1.00  0.00     0.000 C 
BRANCH  22  23
ATOM     23  C   UNL     1       4.210  75.705  38.925  1.00  0.00     0.000 C 
BRANCH  23  24
ATOM     24  C   UNL     1       4.495  74.384  39.657  1.00  0.00    -0.000 C 
BRANCH  24  25
ATOM     25  C   UNL     1       5.330  73.410  38.814  1.00  0.00    -0.000 C 
BRANCH  25  26
ATOM     26  C   UNL     1       6.699  73.159  39.463  1.00  0.00    -0.000 C 
BRANCH  26  27
ATOM     27  C   UNL     1       7.209  71.727  39.238  1.00  0.00    -0.000 C 
BRANCH  27  28
ATOM     28  C   UNL     1       8.647  71.687  38.690  1.00  0.00    -0.000 C 
BRANCH  28  29
ATOM     29  C   UNL     1       8.778  72.416  37.335  1.00  0.00    -0.000 C 
BRANCH  29  30
ATOM     30  C   UNL     1      10.237  72.660  36.900  1.00  0.00    -0.000 C 
BRANCH  30  31
ATOM     31  C   UNL     1      11.253  71.647  37.449  1.00  0.00    -0.003 C 
ATOM     32  C   UNL     1      12.336  72.297  38.312  1.00  0.00     0.004 C 
ENDBRANCH  30  31
ENDBRANCH  29  30
ENDBRANCH  28  29
ENDBRANCH  27  28
ENDBRANCH  26  27
ENDBRANCH  25  26
ENDBRANCH  24  25
ENDBRANCH  23  24
ENDBRANCH  22  23
ENDBRANCH  21  22
ENDBRANCH  20  21
ENDBRANCH  19  20
ENDBRANCH  18  19
ENDBRANCH   1  18
TORSDOF 28
ENDMDL
MODEL 9
REMARK VINA RESULT:    -4.595      4.391     10.301
REMARK INTER + INTRA:         -16.217
REMARK INTER:                 -12.209
REMARK INTRA:                  -4.008
REMARK UNBOUND:                -4.099
REMARK SMILES CCCCCCCCCCCCCCCCCCCCCCCCCCCCCC(=O)[O-]
REMARK SMILES IDX 16 1 17 2 18 3 19 4 20 5 21 6 22 7 23 8 24 9 25 10 26 11
REMARK SMILES IDX 27 12 28 13 29 14 30 15 31 16 32 17 15 18 14 19 13 20 12 21
REMARK SMILES IDX 11 22 10 23 9 24 8 25 7 26 6 27 5 28 4 29 3 30 2 31 1 32
REMARK H PARENT
REMARK Flexibility Score: inf
ROOT
ATOM      1  C   UNL     1       5.910  74.682  37.346  1.00  0.00     0.000 C 
ENDROOT
BRANCH   1   2
ATOM      2  C   UNL     1       5.992  73.799  36.082  1.00  0.00     0.000 C 
BRANCH   2   3
ATOM      3  C   UNL     1       7.334  73.064  35.917  1.00  0.00     0.000 C 
BRANCH   3   4
ATOM      4  C   UNL     1       8.334  73.380  37.041  1.00  0.00     0.000 C 
BRANCH   4   5
ATOM      5  C   UNL     1       8.709  72.136  37.862  1.00  0.00     0.000 C 
BRANCH   5   6
ATOM      6  C   UNL     1       7.743  71.900  39.036  1.00  0.00     0.000 C 
BRANCH   6   7
ATOM      7  C   UNL     1       6.835  70.675  38.826  1.00  0.00     0.000 C 
BRANCH   7   8
ATOM      8  C   UNL     1       5.335  70.932  39.063  1.00  0.00     0.000 C 
BRANCH   8   9
ATOM      9  C   UNL     1       4.472  70.625  37.827  1.00  0.00     0.000 C 
BRANCH   9  10
ATOM     10  C   UNL     1       5.304  70.131  36.626  1.00  0.00     0.000 C 
BRANCH  10  11
ATOM     11  C   UNL     1       5.159  68.622  36.347  1.00  0.00     0.000 C 
BRANCH  11  12
ATOM     12  C   UNL     1       3.711  68.098  36.301  1.00  0.00     0.000 C 
BRANCH  12  13
ATOM     13  C   UNL     1       3.430  66.883  37.206  1.00  0.00     0.006 C 
BRANCH  13  14
ATOM     14  C   UNL     1       3.214  67.271  38.676  1.00  0.00     0.053 C 
BRANCH  14  15
ATOM     15  C   UNL     1       4.215  66.581  39.550  1.00  0.00     0.041 C 
ATOM     16  O   UNL     1       4.978  67.253  40.292  1.00  0.00    -0.550 OA
ATOM     17  O   UNL     1       4.276  65.194  39.580  1.00  0.00    -0.550 OA
ENDBRANCH  14  15
ENDBRANCH  13  14
ENDBRANCH  12  13
ENDBRANCH  11  12
ENDBRANCH  10  11
ENDBRANCH   9  10
ENDBRANCH   8   9
ENDBRANCH   7   8
ENDBRANCH   6   7
ENDBRANCH   5   6
ENDBRANCH   4   5
ENDBRANCH   3   4
ENDBRANCH   2   3
ENDBRANCH   1   2
BRANCH   1  18
ATOM     18  C   UNL     1       4.598  74.485  38.126  1.00  0.00     0.000 C 
BRANCH  18  19
ATOM     19  C   UNL     1       4.399  75.579  39.199  1.00  0.00     0.000 C 
BRANCH  19  20
ATOM     20  C   UNL     1       5.548  76.599  39.243  1.00  0.00     0.000 C 
BRANCH  20  21
ATOM     21  C   UNL     1       5.059  78.025  39.548  1.00  0.00     0.000 C 
BRANCH  21  22
ATOM     22  C   UNL     1       6.128  79.093  39.263  1.00  0.00     0.000 C 
BRANCH  22  23
ATOM     23  C   UNL     1       5.818  79.918  38.000  1.00  0.00     0.000 C 
BRANCH  23  24
ATOM     24  C   UNL     1       6.048  79.125  36.704  1.00  0.00    -0.000 C 
BRANCH  24  25
ATOM     25  C   UNL     1       7.503  79.199  36.215  1.00  0.00    -0.000 C 
BRANCH  25  26
ATOM     26  C   UNL     1       8.263  77.912  36.565  1.00  0.00    -0.000 C 
BRANCH  26  27
ATOM     27  C   UNL     1       9.695  78.183  37.052  1.00  0.00    -0.000 C 
BRANCH  27  28
ATOM     28  C   UNL     1       9.737  78.803  38.460  1.00  0.00    -0.000 C 
BRANCH  28  29
ATOM     29  C   UNL     1      10.441  80.177  38.474  1.00  0.00    -0.000 C 
BRANCH  29  30
ATOM     30  C   UNL     1      10.035  81.070  39.664  1.00  0.00    -0.000 C 
BRANCH  30  31
ATOM     31  C   UNL     1      11.160  81.361  40.668  1.00  0.00    -0.003 C 
ATOM     32  C   UNL     1      11.772  80.091  41.262  1.00  0.00     0.004 C 
ENDBRANCH  30  31
ENDBRANCH  29  30
ENDBRANCH  28  29
ENDBRANCH  27  28
ENDBRANCH  26  27
ENDBRANCH  25  26
ENDBRANCH  24  25
ENDBRANCH  23  24
ENDBRANCH  22  23
ENDBRANCH  21  22
ENDBRANCH  20  21
ENDBRANCH  19  20
ENDBRANCH  18  19
ENDBRANCH   1  18
TORSDOF 28
ENDMDL
