MODEL 1
REMARK VINA RESULT:    -5.770      0.000      0.000
REMARK INTER + INTRA:          -6.603
REMARK INTER:                  -6.445
REMARK INTRA:                  -0.159
REMARK UNBOUND:                -0.159
REMARK SMILES COc1cc2ccc(=O)oc2cc1OC
REMARK SMILES IDX 3 1 13 2 12 3 11 4 5 5 4 6 6 7 7 8 8 9 9 10 10 11 2 12 1 13
REMARK SMILES IDX 14 14 15 15
REMARK H PARENT
REMARK Flexibility Score: inf
ROOT
ATOM      1  C   UNL     1      61.865 151.427   3.953  1.00  0.00     0.161 A 
ATOM      2  C   UNL     1      60.832 151.807   4.828  1.00  0.00     0.164 A 
ATOM      3  C   UNL     1      59.814 152.670   4.376  1.00  0.00     0.098 A 
ATOM      4  C   UNL     1      59.824 153.150   3.065  1.00  0.00     0.142 A 
ATOM      5  C   UNL     1      60.860 152.769   2.187  1.00  0.00     0.022 A 
ATOM      6  C   UNL     1      61.875 151.913   2.630  1.00  0.00     0.062 A 
ATOM      7  C   UNL     1      60.842 153.268   0.880  1.00  0.00     0.019 A 
ATOM      8  C   UNL     1      59.810 154.119   0.485  1.00  0.00     0.094 A 
ATOM      9  C   UNL     1      58.816 154.454   1.411  1.00  0.00     0.336 A 
ATOM     10  O   UNL     1      57.875 155.219   1.075  1.00  0.00    -0.246 OA
ATOM     11  O   UNL     1      58.858 153.965   2.649  1.00  0.00    -0.423 OA
ENDROOT
BRANCH   1  12
ATOM     12  O   UNL     1      62.863 150.567   4.437  1.00  0.00    -0.493 OA
ATOM     13  C   UNL     1      64.206 150.957   4.706  1.00  0.00     0.278 C 
ENDBRANCH   1  12
BRANCH   2  14
ATOM     14  O   UNL     1      60.854 151.304   6.139  1.00  0.00    -0.493 OA
ATOM     15  C   UNL     1      61.201 152.068   7.290  1.00  0.00     0.278 C 
ENDBRANCH   2  14
TORSDOF 2
ENDMDL
MODEL 2
REMARK VINA RESULT:    -5.593      1.337      2.649
REMARK INTER + INTRA:          -6.406
REMARK INTER:                  -6.278
REMARK INTRA:                  -0.128
REMARK UNBOUND:                -0.159
REMARK SMILES COc1cc2ccc(=O)oc2cc1OC
REMARK SMILES IDX 3 1 13 2 12 3 11 4 5 5 4 6 6 7 7 8 8 9 9 10 10 11 2 12 1 13
REMARK SMILES IDX 14 14 15 15
REMARK H PARENT
REMARK Flexibility Score: inf
ROOT
ATOM      1  C   UNL     1      61.596 151.480   5.036  1.00  0.00     0.161 A 
ATOM      2  C   UNL     1      62.583 151.339   4.044  1.00  0.00     0.164 A 
ATOM      3  C   UNL     1      62.365 151.874   2.759  1.00  0.00     0.098 A 
ATOM      4  C   UNL     1      61.175 152.543   2.464  1.00  0.00     0.142 A 
ATOM      5  C   UNL     1      60.186 152.686   3.458  1.00  0.00     0.022 A 
ATOM      6  C   UNL     1      60.396 152.156   4.737  1.00  0.00     0.062 A 
ATOM      7  C   UNL     1      59.005 153.362   3.132  1.00  0.00     0.019 A 
ATOM      8  C   UNL     1      58.842 153.872   1.845  1.00  0.00     0.094 A 
ATOM      9  C   UNL     1      59.867 153.692   0.909  1.00  0.00     0.336 A 
ATOM     10  O   UNL     1      59.739 154.146  -0.258  1.00  0.00    -0.246 OA
ATOM     11  O   UNL     1      60.979 153.045   1.248  1.00  0.00    -0.423 OA
ENDROOT
BRANCH   1  12
ATOM     12  O   UNL     1      61.847 150.934   6.304  1.00  0.00    -0.493 OA
ATOM     13  C   UNL     1      61.400 149.652   6.736  1.00  0.00     0.278 C 
ENDBRANCH   1  12
BRANCH   2  14
ATOM     14  O   UNL     1      63.766 150.659   4.376  1.00  0.00    -0.493 OA
ATOM     15  C   UNL     1      64.997 151.296   4.703  1.00  0.00     0.278 C 
ENDBRANCH   2  14
TORSDOF 2
ENDMDL
MODEL 3
REMARK VINA RESULT:    -5.457      1.396      1.691
REMARK INTER + INTRA:          -6.254
REMARK INTER:                  -6.106
REMARK INTRA:                  -0.148
REMARK UNBOUND:                -0.159
REMARK SMILES COc1cc2ccc(=O)oc2cc1OC
REMARK SMILES IDX 3 1 13 2 12 3 11 4 5 5 4 6 6 7 7 8 8 9 9 10 10 11 2 12 1 13
REMARK SMILES IDX 14 14 15 15
REMARK H PARENT
REMARK Flexibility Score: inf
ROOT
ATOM      1  C   UNL     1      63.222 151.085   4.635  1.00  0.00     0.161 A 
ATOM      2  C   UNL     1      62.202 151.228   5.591  1.00  0.00     0.164 A 
ATOM      3  C   UNL     1      60.984 151.837   5.228  1.00  0.00     0.098 A 
ATOM      4  C   UNL     1      60.785 152.299   3.926  1.00  0.00     0.142 A 
ATOM      5  C   UNL     1      61.808 152.155   2.967  1.00  0.00     0.022 A 
ATOM      6  C   UNL     1      63.020 151.551   3.321  1.00  0.00     0.062 A 
ATOM      7  C   UNL     1      61.578 152.628   1.670  1.00  0.00     0.019 A 
ATOM      8  C   UNL     1      60.354 153.222   1.365  1.00  0.00     0.094 A 
ATOM      9  C   UNL     1      59.384 153.332   2.369  1.00  0.00     0.336 A 
ATOM     10  O   UNL     1      58.273 153.864   2.114  1.00  0.00    -0.246 OA
ATOM     11  O   UNL     1      59.631 152.873   3.593  1.00  0.00    -0.423 OA
ENDROOT
BRANCH   1  12
ATOM     12  O   UNL     1      64.422 150.474   5.032  1.00  0.00    -0.493 OA
ATOM     13  C   UNL     1      64.928 149.258   4.488  1.00  0.00     0.278 C 
ENDBRANCH   1  12
BRANCH   2  14
ATOM     14  O   UNL     1      62.437 150.753   6.891  1.00  0.00    -0.493 OA
ATOM     15  C   UNL     1      62.011 149.483   7.375  1.00  0.00     0.278 C 
ENDBRANCH   2  14
TORSDOF 2
ENDMDL
MODEL 4
REMARK VINA RESULT:    -5.390      1.860      5.338
REMARK INTER + INTRA:          -6.179
REMARK INTER:                  -6.060
REMARK INTRA:                  -0.119
REMARK UNBOUND:                -0.159
REMARK SMILES COc1cc2ccc(=O)oc2cc1OC
REMARK SMILES IDX 3 1 13 2 12 3 11 4 5 5 4 6 6 7 7 8 8 9 9 10 10 11 2 12 1 13
REMARK SMILES IDX 14 14 15 15
REMARK H PARENT
REMARK Flexibility Score: inf
ROOT
ATOM      1  C   UNL     1      60.552 152.207   4.520  1.00  0.00     0.161 A 
ATOM      2  C   UNL     1      60.441 151.584   5.775  1.00  0.00     0.164 A 
ATOM      3  C   UNL     1      61.507 150.805   6.267  1.00  0.00     0.098 A 
ATOM      4  C   UNL     1      62.672 150.645   5.514  1.00  0.00     0.142 A 
ATOM      5  C   UNL     1      62.785 151.270   4.256  1.00  0.00     0.022 A 
ATOM      6  C   UNL     1      61.729 152.046   3.762  1.00  0.00     0.062 A 
ATOM      7  C   UNL     1      63.965 151.092   3.526  1.00  0.00     0.019 A 
ATOM      8  C   UNL     1      64.989 150.310   4.060  1.00  0.00     0.094 A 
ATOM      9  C   UNL     1      64.807 149.720   5.316  1.00  0.00     0.336 A 
ATOM     10  O   UNL     1      65.719 149.011   5.816  1.00  0.00    -0.246 OA
ATOM     11  O   UNL     1      63.673 149.907   5.988  1.00  0.00    -0.423 OA
ENDROOT
BRANCH   1  12
ATOM     12  O   UNL     1      59.471 152.976   4.062  1.00  0.00    -0.493 OA
ATOM     13  C   UNL     1      59.236 153.306   2.696  1.00  0.00     0.278 C 
ENDBRANCH   1  12
BRANCH   2  14
ATOM     14  O   UNL     1      59.254 151.766   6.504  1.00  0.00    -0.493 OA
ATOM     15  C   UNL     1      59.135 152.589   7.660  1.00  0.00     0.278 C 
ENDBRANCH   2  14
TORSDOF 2
ENDMDL
MODEL 5
REMARK VINA RESULT:    -5.291      1.528      5.477
REMARK INTER + INTRA:          -6.068
REMARK INTER:                  -5.917
REMARK INTRA:                  -0.151
REMARK UNBOUND:                -0.159
REMARK SMILES COc1cc2ccc(=O)oc2cc1OC
REMARK SMILES IDX 3 1 13 2 12 3 11 4 5 5 4 6 6 7 7 8 8 9 9 10 10 11 2 12 1 13
REMARK SMILES IDX 14 14 15 15
REMARK H PARENT
REMARK Flexibility Score: inf
ROOT
ATOM      1  C   UNL     1      59.769 152.860   4.176  1.00  0.00     0.161 A 
ATOM      2  C   UNL     1      60.126 152.618   2.838  1.00  0.00     0.164 A 
ATOM      3  C   UNL     1      61.353 151.991   2.544  1.00  0.00     0.098 A 
ATOM      4  C   UNL     1      62.216 151.608   3.573  1.00  0.00     0.142 A 
ATOM      5  C   UNL     1      61.858 151.850   4.915  1.00  0.00     0.022 A 
ATOM      6  C   UNL     1      60.640 152.473   5.214  1.00  0.00     0.062 A 
ATOM      7  C   UNL     1      62.744 151.455   5.923  1.00  0.00     0.019 A 
ATOM      8  C   UNL     1      63.945 150.837   5.575  1.00  0.00     0.094 A 
ATOM      9  C   UNL     1      64.234 150.630   4.222  1.00  0.00     0.336 A 
ATOM     10  O   UNL     1      65.312 150.074   3.887  1.00  0.00    -0.246 OA
ATOM     11  O   UNL     1      63.372 151.016   3.284  1.00  0.00    -0.423 OA
ENDROOT
BRANCH   1  12
ATOM     12  O   UNL     1      58.539 153.487   4.432  1.00  0.00    -0.493 OA
ATOM     13  C   UNL     1      58.380 154.879   4.691  1.00  0.00     0.278 C 
ENDBRANCH   1  12
BRANCH   2  14
ATOM     14  O   UNL     1      59.234 153.017   1.830  1.00  0.00    -0.493 OA
ATOM     15  C   UNL     1      59.521 154.001   0.841  1.00  0.00     0.278 C 
ENDBRANCH   2  14
TORSDOF 2
ENDMDL
MODEL 6
REMARK VINA RESULT:    -5.147      4.601      5.654
REMARK INTER + INTRA:          -5.908
REMARK INTER:                  -5.775
REMARK INTRA:                  -0.132
REMARK UNBOUND:                -0.159
REMARK SMILES COc1cc2ccc(=O)oc2cc1OC
REMARK SMILES IDX 3 1 13 2 12 3 11 4 5 5 4 6 6 7 7 8 8 9 9 10 10 11 2 12 1 13
REMARK SMILES IDX 14 14 15 15
REMARK H PARENT
REMARK Flexibility Score: inf
ROOT
ATOM      1  C   UNL     1      60.758 148.715   6.703  1.00  0.00     0.161 A 
ATOM      2  C   UNL     1      60.443 150.055   6.984  1.00  0.00     0.164 A 
ATOM      3  C   UNL     1      61.366 151.072   6.666  1.00  0.00     0.098 A 
ATOM      4  C   UNL     1      62.591 150.756   6.075  1.00  0.00     0.142 A 
ATOM      5  C   UNL     1      62.906 149.411   5.793  1.00  0.00     0.022 A 
ATOM      6  C   UNL     1      61.994 148.396   6.106  1.00  0.00     0.062 A 
ATOM      7  C   UNL     1      64.142 149.126   5.200  1.00  0.00     0.019 A 
ATOM      8  C   UNL     1      65.017 150.171   4.906  1.00  0.00     0.094 A 
ATOM      9  C   UNL     1      64.636 151.482   5.215  1.00  0.00     0.336 A 
ATOM     10  O   UNL     1      65.412 152.439   4.957  1.00  0.00    -0.246 OA
ATOM     11  O   UNL     1      63.455 151.723   5.779  1.00  0.00    -0.423 OA
ENDROOT
BRANCH   1  12
ATOM     12  O   UNL     1      59.815 147.728   7.033  1.00  0.00    -0.493 OA
ATOM     13  C   UNL     1      59.851 146.941   8.220  1.00  0.00     0.278 C 
ENDBRANCH   1  12
BRANCH   2  14
ATOM     14  O   UNL     1      59.203 150.336   7.579  1.00  0.00    -0.493 OA
ATOM     15  C   UNL     1      58.100 150.933   6.903  1.00  0.00     0.278 C 
ENDBRANCH   2  14
TORSDOF 2
ENDMDL
MODEL 7
REMARK VINA RESULT:    -4.989      4.184      5.750
REMARK INTER + INTRA:          -5.731
REMARK INTER:                  -5.567
REMARK INTRA:                  -0.165
REMARK UNBOUND:                -0.159
REMARK SMILES COc1cc2ccc(=O)oc2cc1OC
REMARK SMILES IDX 3 1 13 2 12 3 11 4 5 5 4 6 6 7 7 8 8 9 9 10 10 11 2 12 1 13
REMARK SMILES IDX 14 14 15 15
REMARK H PARENT
REMARK Flexibility Score: inf
ROOT
ATOM      1  C   UNL     1      61.331 151.750   7.465  1.00  0.00     0.161 A 
ATOM      2  C   UNL     1      61.564 150.442   7.924  1.00  0.00     0.164 A 
ATOM      3  C   UNL     1      62.491 149.619   7.254  1.00  0.00     0.098 A 
ATOM      4  C   UNL     1      63.178 150.094   6.135  1.00  0.00     0.142 A 
ATOM      5  C   UNL     1      62.946 151.406   5.674  1.00  0.00     0.022 A 
ATOM      6  C   UNL     1      62.026 152.229   6.336  1.00  0.00     0.062 A 
ATOM      7  C   UNL     1      63.650 151.853   4.550  1.00  0.00     0.019 A 
ATOM      8  C   UNL     1      64.556 150.996   3.925  1.00  0.00     0.094 A 
ATOM      9  C   UNL     1      64.735 149.707   4.439  1.00  0.00     0.336 A 
ATOM     10  O   UNL     1      65.548 148.919   3.889  1.00  0.00    -0.246 OA
ATOM     11  O   UNL     1      64.051 149.309   5.509  1.00  0.00    -0.423 OA
ENDROOT
BRANCH   1  12
ATOM     12  O   UNL     1      60.402 152.541   8.157  1.00  0.00    -0.493 OA
ATOM     13  C   UNL     1      59.067 152.787   7.723  1.00  0.00     0.278 C 
ENDBRANCH   1  12
BRANCH   2  14
ATOM     14  O   UNL     1      60.855 149.998   9.052  1.00  0.00    -0.493 OA
ATOM     15  C   UNL     1      59.774 149.070   9.011  1.00  0.00     0.278 C 
ENDBRANCH   2  14
TORSDOF 2
ENDMDL
MODEL 8
REMARK VINA RESULT:    -4.591      4.193      7.384
REMARK INTER + INTRA:          -5.287
REMARK INTER:                  -5.150
REMARK INTRA:                  -0.136
REMARK UNBOUND:                -0.159
REMARK SMILES COc1cc2ccc(=O)oc2cc1OC
REMARK SMILES IDX 3 1 13 2 12 3 11 4 5 5 4 6 6 7 7 8 8 9 9 10 10 11 2 12 1 13
REMARK SMILES IDX 14 14 15 15
REMARK H PARENT
REMARK Flexibility Score: inf
ROOT
ATOM      1  C   UNL     1      61.219 150.210   6.767  1.00  0.00     0.161 A 
ATOM      2  C   UNL     1      61.847 149.239   5.968  1.00  0.00     0.164 A 
ATOM      3  C   UNL     1      61.501 147.881   6.115  1.00  0.00     0.098 A 
ATOM      4  C   UNL     1      60.539 147.494   7.050  1.00  0.00     0.142 A 
ATOM      5  C   UNL     1      59.908 148.468   7.851  1.00  0.00     0.022 A 
ATOM      6  C   UNL     1      60.248 149.819   7.710  1.00  0.00     0.062 A 
ATOM      7  C   UNL     1      58.948 148.048   8.779  1.00  0.00     0.019 A 
ATOM      8  C   UNL     1      58.644 146.691   8.883  1.00  0.00     0.094 A 
ATOM      9  C   UNL     1      59.311 145.781   8.054  1.00  0.00     0.336 A 
ATOM     10  O   UNL     1      59.050 144.552   8.132  1.00  0.00    -0.246 OA
ATOM     11  O   UNL     1      60.220 146.209   7.181  1.00  0.00    -0.423 OA
ENDROOT
BRANCH   1  12
ATOM     12  O   UNL     1      61.588 151.553   6.593  1.00  0.00    -0.493 OA
ATOM     13  C   UNL     1      60.843 152.505   5.840  1.00  0.00     0.278 C 
ENDBRANCH   1  12
BRANCH   2  14
ATOM     14  O   UNL     1      62.810 149.665   5.039  1.00  0.00    -0.493 OA
ATOM     15  C   UNL     1      64.215 149.483   5.192  1.00  0.00     0.278 C 
ENDBRANCH   2  14
TORSDOF 2
ENDMDL
MODEL 9
REMARK VINA RESULT:    -4.519      4.130      5.694
REMARK INTER + INTRA:          -5.206
REMARK INTER:                  -5.083
REMARK INTRA:                  -0.123
REMARK UNBOUND:                -0.159
REMARK SMILES COc1cc2ccc(=O)oc2cc1OC
REMARK SMILES IDX 3 1 13 2 12 3 11 4 5 5 4 6 6 7 7 8 8 9 9 10 10 11 2 12 1 13
REMARK SMILES IDX 14 14 15 15
REMARK H PARENT
REMARK Flexibility Score: inf
ROOT
ATOM      1  C   UNL     1      63.094 151.397   5.233  1.00  0.00     0.161 A 
ATOM      2  C   UNL     1      62.260 151.917   6.238  1.00  0.00     0.164 A 
ATOM      3  C   UNL     1      61.393 151.057   6.941  1.00  0.00     0.098 A 
ATOM      4  C   UNL     1      61.356 149.693   6.646  1.00  0.00     0.142 A 
ATOM      5  C   UNL     1      62.193 149.171   5.638  1.00  0.00     0.022 A 
ATOM      6  C   UNL     1      63.057 150.020   4.935  1.00  0.00     0.062 A 
ATOM      7  C   UNL     1      62.134 147.800   5.365  1.00  0.00     0.019 A 
ATOM      8  C   UNL     1      61.257 146.995   6.092  1.00  0.00     0.094 A 
ATOM      9  C   UNL     1      60.457 147.582   7.078  1.00  0.00     0.336 A 
ATOM     10  O   UNL     1      59.659 146.873   7.746  1.00  0.00    -0.246 OA
ATOM     11  O   UNL     1      60.534 148.889   7.316  1.00  0.00    -0.423 OA
ENDROOT
BRANCH   1  12
ATOM     12  O   UNL     1      63.945 152.283   4.553  1.00  0.00    -0.493 OA
ATOM     13  C   UNL     1      65.366 152.274   4.651  1.00  0.00     0.278 C 
ENDBRANCH   1  12
BRANCH   2  14
ATOM     14  O   UNL     1      62.323 153.293   6.508  1.00  0.00    -0.493 OA
ATOM     15  C   UNL     1      61.197 154.104   6.832  1.00  0.00     0.278 C 
ENDBRANCH   2  14
TORSDOF 2
ENDMDL
