MODEL 1
REMARK VINA RESULT:    -6.646      0.000      0.000
REMARK INTER + INTRA:          -9.137
REMARK INTER:                  -8.394
REMARK INTRA:                  -0.743
REMARK UNBOUND:                -0.743
REMARK SMILES O=C(C=Cc1ccc(O)cc1)c1ccc(O)cc1O
REMARK SMILES IDX 4 1 3 2 5 3 6 4 7 5 8 6 11 7 10 8 9 9 2 11 1 12 12 13 18 14
REMARK SMILES IDX 13 15 17 16 14 17 15 18 19 19 16 21
REMARK H PARENT 9 10 19 20 16 22
REMARK Flexibility Score: inf
ROOT
ATOM      1  C   UNL     1      16.713  66.366  95.435  1.00  0.00     0.012 C 
ATOM      2  C   UNL     1      15.773  67.264  95.765  1.00  0.00     0.053 C 
ENDROOT
BRANCH   1   3
ATOM      3  C   UNL     1      18.158  66.550  95.715  1.00  0.00    -0.025 A 
ATOM      4  C   UNL     1      19.010  66.904  94.654  1.00  0.00     0.012 A 
ATOM      5  C   UNL     1      20.380  67.078  94.870  1.00  0.00     0.047 A 
ATOM      6  C   UNL     1      20.922  66.890  96.147  1.00  0.00     0.115 A 
ATOM      7  C   UNL     1      18.714  66.348  96.995  1.00  0.00     0.012 A 
ATOM      8  C   UNL     1      20.086  66.522  97.206  1.00  0.00     0.047 A 
BRANCH   6   9
ATOM      9  O   UNL     1      22.285  67.060  96.374  1.00  0.00    -0.508 OA
ATOM     10  H   UNL     1      22.864  66.302  96.715  1.00  0.00     0.293 HD
ENDBRANCH   6   9
ENDBRANCH   1   3
BRANCH   2  11
ATOM     11  C   UNL     1      14.341  67.053  95.455  1.00  0.00     0.189 C 
ATOM     12  O   UNL     1      13.462  67.354  96.309  1.00  0.00    -0.289 OA
BRANCH  11  13
ATOM     13  C   UNL     1      13.918  66.446  94.171  1.00  0.00     0.064 A 
ATOM     14  C   UNL     1      13.285  65.184  94.117  1.00  0.00     0.130 A 
ATOM     15  C   UNL     1      14.175  67.134  92.973  1.00  0.00     0.020 A 
ATOM     16  C   UNL     1      12.888  64.654  92.880  1.00  0.00     0.093 A 
ATOM     17  C   UNL     1      13.781  66.595  91.745  1.00  0.00     0.047 A 
ATOM     18  C   UNL     1      13.133  65.356  91.696  1.00  0.00     0.119 A 
BRANCH  14  19
ATOM     19  O   UNL     1      13.075  64.444  95.281  1.00  0.00    -0.507 OA
ATOM     20  H   UNL     1      12.625  64.846  96.094  1.00  0.00     0.293 HD
ENDBRANCH  14  19
BRANCH  18  21
ATOM     21  O   UNL     1      12.732  64.811  90.479  1.00  0.00    -0.508 OA
ATOM     22  H   UNL     1      13.404  64.568  89.761  1.00  0.00     0.293 HD
ENDBRANCH  18  21
ENDBRANCH  11  13
ENDBRANCH   2  11
TORSDOF 6
ENDMDL
MODEL 2
REMARK VINA RESULT:    -6.371      1.334      1.567
REMARK INTER + INTRA:          -8.790
REMARK INTER:                  -8.115
REMARK INTRA:                  -0.675
REMARK UNBOUND:                -0.743
REMARK SMILES O=C(C=Cc1ccc(O)cc1)c1ccc(O)cc1O
REMARK SMILES IDX 4 1 3 2 5 3 6 4 7 5 8 6 11 7 10 8 9 9 2 11 1 12 12 13 18 14
REMARK SMILES IDX 13 15 17 16 14 17 15 18 19 19 16 21
REMARK H PARENT 9 10 19 20 16 22
REMARK Flexibility Score: inf
ROOT
ATOM      1  C   UNL     1      16.914  66.379  95.843  1.00  0.00     0.012 C 
ATOM      2  C   UNL     1      16.249  65.856  94.804  1.00  0.00     0.053 C 
ENDROOT
BRANCH   1   3
ATOM      3  C   UNL     1      18.378  66.620  95.844  1.00  0.00    -0.025 A 
ATOM      4  C   UNL     1      18.999  66.995  94.639  1.00  0.00     0.012 A 
ATOM      5  C   UNL     1      20.378  67.223  94.591  1.00  0.00     0.047 A 
ATOM      6  C   UNL     1      21.158  67.069  95.743  1.00  0.00     0.115 A 
ATOM      7  C   UNL     1      19.174  66.453  96.996  1.00  0.00     0.012 A 
ATOM      8  C   UNL     1      20.553  66.681  96.942  1.00  0.00     0.047 A 
BRANCH   6   9
ATOM      9  O   UNL     1      22.532  67.294  95.706  1.00  0.00    -0.508 OA
ATOM     10  H   UNL     1      23.172  66.754  96.277  1.00  0.00     0.293 HD
ENDBRANCH   6   9
ENDBRANCH   1   3
BRANCH   2  11
ATOM     11  C   UNL     1      14.789  65.614  94.845  1.00  0.00     0.189 C 
ATOM     12  O   UNL     1      14.307  64.821  95.700  1.00  0.00    -0.289 OA
BRANCH  11  13
ATOM     13  C   UNL     1      13.881  66.251  93.863  1.00  0.00     0.064 A 
ATOM     14  C   UNL     1      12.840  65.531  93.234  1.00  0.00     0.130 A 
ATOM     15  C   UNL     1      14.075  67.603  93.530  1.00  0.00     0.020 A 
ATOM     16  C   UNL     1      11.995  66.180  92.321  1.00  0.00     0.093 A 
ATOM     17  C   UNL     1      13.231  68.238  92.615  1.00  0.00     0.047 A 
ATOM     18  C   UNL     1      12.186  67.529  92.012  1.00  0.00     0.119 A 
BRANCH  14  19
ATOM     19  O   UNL     1      12.662  64.172  93.491  1.00  0.00    -0.507 OA
ATOM     20  H   UNL     1      12.233  63.553  92.813  1.00  0.00     0.293 HD
ENDBRANCH  14  19
BRANCH  18  21
ATOM     21  O   UNL     1      11.337  68.152  91.101  1.00  0.00    -0.508 OA
ATOM     22  H   UNL     1      10.487  67.704  90.777  1.00  0.00     0.293 HD
ENDBRANCH  18  21
ENDBRANCH  11  13
ENDBRANCH   2  11
TORSDOF 6
ENDMDL
MODEL 3
REMARK VINA RESULT:    -6.295      2.534      7.914
REMARK INTER + INTRA:          -8.693
REMARK INTER:                  -8.155
REMARK INTRA:                  -0.538
REMARK UNBOUND:                -0.743
REMARK SMILES O=C(C=Cc1ccc(O)cc1)c1ccc(O)cc1O
REMARK SMILES IDX 4 1 3 2 5 3 6 4 7 5 8 6 11 7 10 8 9 9 2 11 1 12 12 13 18 14
REMARK SMILES IDX 13 15 17 16 14 17 15 18 19 19 16 21
REMARK H PARENT 9 10 19 20 16 22
REMARK Flexibility Score: inf
ROOT
ATOM      1  C   UNL     1      17.937  66.327  95.021  1.00  0.00     0.012 C 
ATOM      2  C   UNL     1      18.890  67.270  95.031  1.00  0.00     0.053 C 
ENDROOT
BRANCH   1   3
ATOM      3  C   UNL     1      16.502  66.607  95.274  1.00  0.00    -0.025 A 
ATOM      4  C   UNL     1      16.125  67.911  95.641  1.00  0.00     0.012 A 
ATOM      5  C   UNL     1      14.785  68.217  95.898  1.00  0.00     0.047 A 
ATOM      6  C   UNL     1      13.804  67.223  95.804  1.00  0.00     0.115 A 
ATOM      7  C   UNL     1      15.509  65.609  95.195  1.00  0.00     0.012 A 
ATOM      8  C   UNL     1      14.171  65.920  95.455  1.00  0.00     0.047 A 
BRANCH   6   9
ATOM      9  O   UNL     1      12.466  67.518  96.058  1.00  0.00    -0.508 OA
ATOM     10  H   UNL     1      11.737  66.829  95.916  1.00  0.00     0.293 HD
ENDBRANCH   6   9
ENDBRANCH   1   3
BRANCH   2  11
ATOM     11  C   UNL     1      20.314  66.951  94.790  1.00  0.00     0.189 C 
ATOM     12  O   UNL     1      20.732  66.790  93.610  1.00  0.00    -0.289 OA
BRANCH  11  13
ATOM     13  C   UNL     1      21.258  66.766  95.917  1.00  0.00     0.064 A 
ATOM     14  C   UNL     1      21.453  65.506  96.527  1.00  0.00     0.130 A 
ATOM     15  C   UNL     1      21.961  67.879  96.410  1.00  0.00     0.020 A 
ATOM     16  C   UNL     1      22.369  65.375  97.582  1.00  0.00     0.093 A 
ATOM     17  C   UNL     1      22.866  67.739  97.465  1.00  0.00     0.047 A 
ATOM     18  C   UNL     1      23.075  66.486  98.051  1.00  0.00     0.119 A 
BRANCH  14  19
ATOM     19  O   UNL     1      20.723  64.394  96.108  1.00  0.00    -0.507 OA
ATOM     20  H   UNL     1      19.947  64.031  96.648  1.00  0.00     0.293 HD
ENDBRANCH  14  19
BRANCH  18  21
ATOM     21  O   UNL     1      23.977  66.334  99.101  1.00  0.00    -0.508 OA
ATOM     22  H   UNL     1      24.537  65.495  99.200  1.00  0.00     0.293 HD
ENDBRANCH  18  21
ENDBRANCH  11  13
ENDBRANCH   2  11
TORSDOF 6
ENDMDL
MODEL 4
REMARK VINA RESULT:    -6.264      0.968      1.654
REMARK INTER + INTRA:          -8.654
REMARK INTER:                  -7.976
REMARK INTRA:                  -0.678
REMARK UNBOUND:                -0.743
REMARK SMILES O=C(C=Cc1ccc(O)cc1)c1ccc(O)cc1O
REMARK SMILES IDX 4 1 3 2 5 3 6 4 7 5 8 6 11 7 10 8 9 9 2 11 1 12 12 13 18 14
REMARK SMILES IDX 13 15 17 16 14 17 15 18 19 19 16 21
REMARK H PARENT 9 10 19 20 16 22
REMARK Flexibility Score: inf
ROOT
ATOM      1  C   UNL     1      16.743  67.078  95.048  1.00  0.00     0.012 C 
ATOM      2  C   UNL     1      15.669  67.069  95.849  1.00  0.00     0.053 C 
ENDROOT
BRANCH   1   3
ATOM      3  C   UNL     1      18.132  66.884  95.533  1.00  0.00    -0.025 A 
ATOM      4  C   UNL     1      19.195  67.141  94.651  1.00  0.00     0.012 A 
ATOM      5  C   UNL     1      20.520  66.962  95.063  1.00  0.00     0.047 A 
ATOM      6  C   UNL     1      20.800  66.514  96.359  1.00  0.00     0.115 A 
ATOM      7  C   UNL     1      18.423  66.419  96.833  1.00  0.00     0.012 A 
ATOM      8  C   UNL     1      19.749  66.241  97.239  1.00  0.00     0.047 A 
BRANCH   6   9
ATOM      9  O   UNL     1      22.116  66.333  96.780  1.00  0.00    -0.508 OA
ATOM     10  H   UNL     1      22.523  66.910  97.507  1.00  0.00     0.293 HD
ENDBRANCH   6   9
ENDBRANCH   1   3
BRANCH   2  11
ATOM     11  C   UNL     1      14.299  67.281  95.331  1.00  0.00     0.189 C 
ATOM     12  O   UNL     1      13.468  67.949  96.006  1.00  0.00    -0.289 OA
BRANCH  11  13
ATOM     13  C   UNL     1      13.864  66.678  94.049  1.00  0.00     0.064 A 
ATOM     14  C   UNL     1      13.779  67.437  92.860  1.00  0.00     0.130 A 
ATOM     15  C   UNL     1      13.503  65.321  94.021  1.00  0.00     0.020 A 
ATOM     16  C   UNL     1      13.376  66.820  91.666  1.00  0.00     0.093 A 
ATOM     17  C   UNL     1      13.098  64.717  92.828  1.00  0.00     0.047 A 
ATOM     18  C   UNL     1      13.037  65.465  91.647  1.00  0.00     0.119 A 
BRANCH  14  19
ATOM     19  O   UNL     1      14.065  68.802  92.867  1.00  0.00    -0.507 OA
ATOM     20  H   UNL     1      13.840  69.390  93.660  1.00  0.00     0.293 HD
ENDBRANCH  14  19
BRANCH  18  21
ATOM     21  O   UNL     1      12.638  64.873  90.451  1.00  0.00    -0.508 OA
ATOM     22  H   UNL     1      12.010  64.078  90.437  1.00  0.00     0.293 HD
ENDBRANCH  18  21
ENDBRANCH  11  13
ENDBRANCH   2  11
TORSDOF 6
ENDMDL
MODEL 5
REMARK VINA RESULT:    -6.206      2.402      3.238
REMARK INTER + INTRA:          -8.581
REMARK INTER:                  -7.974
REMARK INTRA:                  -0.607
REMARK UNBOUND:                -0.743
REMARK SMILES O=C(C=Cc1ccc(O)cc1)c1ccc(O)cc1O
REMARK SMILES IDX 4 1 3 2 5 3 6 4 7 5 8 6 11 7 10 8 9 9 2 11 1 12 12 13 18 14
REMARK SMILES IDX 13 15 17 16 14 17 15 18 19 19 16 21
REMARK H PARENT 9 10 19 20 16 22
REMARK Flexibility Score: inf
ROOT
ATOM      1  C   UNL     1      18.681  66.339  95.878  1.00  0.00     0.012 C 
ATOM      2  C   UNL     1      17.517  66.995  95.999  1.00  0.00     0.053 C 
ENDROOT
BRANCH   1   3
ATOM      3  C   UNL     1      19.930  66.749  96.566  1.00  0.00    -0.025 A 
ATOM      4  C   UNL     1      21.045  67.096  95.785  1.00  0.00     0.012 A 
ATOM      5  C   UNL     1      22.246  67.479  96.391  1.00  0.00     0.047 A 
ATOM      6  C   UNL     1      22.353  67.509  97.786  1.00  0.00     0.115 A 
ATOM      7  C   UNL     1      20.051  66.768  97.971  1.00  0.00     0.012 A 
ATOM      8  C   UNL     1      21.254  67.150  98.572  1.00  0.00     0.047 A 
BRANCH   6   9
ATOM      9  O   UNL     1      23.544  67.889  98.400  1.00  0.00    -0.508 OA
ATOM     10  H   UNL     1      24.000  67.296  99.084  1.00  0.00     0.293 HD
ENDBRANCH   6   9
ENDBRANCH   1   3
BRANCH   2  11
ATOM     11  C   UNL     1      16.295  66.566  95.285  1.00  0.00     0.189 C 
ATOM     12  O   UNL     1      16.351  65.617  94.455  1.00  0.00    -0.289 OA
BRANCH  11  13
ATOM     13  C   UNL     1      15.005  67.266  95.489  1.00  0.00     0.064 A 
ATOM     14  C   UNL     1      13.804  66.561  95.731  1.00  0.00     0.130 A 
ATOM     15  C   UNL     1      14.970  68.669  95.415  1.00  0.00     0.020 A 
ATOM     16  C   UNL     1      12.608  67.267  95.932  1.00  0.00     0.093 A 
ATOM     17  C   UNL     1      13.773  69.362  95.612  1.00  0.00     0.047 A 
ATOM     18  C   UNL     1      12.590  68.663  95.875  1.00  0.00     0.119 A 
BRANCH  14  19
ATOM     19  O   UNL     1      13.790  65.167  95.743  1.00  0.00    -0.507 OA
ATOM     20  H   UNL     1      14.576  64.628  96.087  1.00  0.00     0.293 HD
ENDBRANCH  14  19
BRANCH  18  21
ATOM     21  O   UNL     1      11.392  69.344  96.076  1.00  0.00    -0.508 OA
ATOM     22  H   UNL     1      11.122  70.126  95.491  1.00  0.00     0.293 HD
ENDBRANCH  18  21
ENDBRANCH  11  13
ENDBRANCH   2  11
TORSDOF 6
ENDMDL
MODEL 6
REMARK VINA RESULT:    -6.205      1.963      7.957
REMARK INTER + INTRA:          -8.580
REMARK INTER:                  -8.098
REMARK INTRA:                  -0.482
REMARK UNBOUND:                -0.743
REMARK SMILES O=C(C=Cc1ccc(O)cc1)c1ccc(O)cc1O
REMARK SMILES IDX 4 1 3 2 5 3 6 4 7 5 8 6 11 7 10 8 9 9 2 11 1 12 12 13 18 14
REMARK SMILES IDX 13 15 17 16 14 17 15 18 19 19 16 21
REMARK H PARENT 9 10 19 20 16 22
REMARK Flexibility Score: inf
ROOT
ATOM      1  C   UNL     1      16.948  67.026  94.835  1.00  0.00     0.012 C 
ATOM      2  C   UNL     1      17.996  66.286  95.226  1.00  0.00     0.053 C 
ENDROOT
BRANCH   1   3
ATOM      3  C   UNL     1      15.544  66.550  94.883  1.00  0.00    -0.025 A 
ATOM      4  C   UNL     1      14.525  67.417  94.451  1.00  0.00     0.012 A 
ATOM      5  C   UNL     1      13.186  67.015  94.487  1.00  0.00     0.047 A 
ATOM      6  C   UNL     1      12.845  65.745  94.966  1.00  0.00     0.115 A 
ATOM      7  C   UNL     1      15.190  65.278  95.377  1.00  0.00     0.012 A 
ATOM      8  C   UNL     1      13.849  64.881  95.412  1.00  0.00     0.047 A 
BRANCH   6   9
ATOM      9  O   UNL     1      11.515  65.333  95.006  1.00  0.00    -0.508 OA
ATOM     10  H   UNL     1      10.831  65.688  94.348  1.00  0.00     0.293 HD
ENDBRANCH   6   9
ENDBRANCH   1   3
BRANCH   2  11
ATOM     11  C   UNL     1      19.386  66.787  95.150  1.00  0.00     0.189 C 
ATOM     12  O   UNL     1      19.887  67.086  94.031  1.00  0.00    -0.289 OA
BRANCH  11  13
ATOM     13  C   UNL     1      20.226  66.900  96.366  1.00  0.00     0.064 A 
ATOM     14  C   UNL     1      21.619  67.128  96.290  1.00  0.00     0.130 A 
ATOM     15  C   UNL     1      19.625  66.751  97.627  1.00  0.00     0.020 A 
ATOM     16  C   UNL     1      22.372  67.241  97.469  1.00  0.00     0.093 A 
ATOM     17  C   UNL     1      20.385  66.860  98.794  1.00  0.00     0.047 A 
ATOM     18  C   UNL     1      21.760  67.110  98.718  1.00  0.00     0.119 A 
BRANCH  14  19
ATOM     19  O   UNL     1      22.258  67.213  95.054  1.00  0.00    -0.507 OA
ATOM     20  H   UNL     1      22.135  68.012  94.444  1.00  0.00     0.293 HD
ENDBRANCH  14  19
BRANCH  18  21
ATOM     21  O   UNL     1      22.527  67.225  99.875  1.00  0.00    -0.508 OA
ATOM     22  H   UNL     1      23.521  67.418  99.834  1.00  0.00     0.293 HD
ENDBRANCH  18  21
ENDBRANCH  11  13
ENDBRANCH   2  11
TORSDOF 6
ENDMDL
MODEL 7
REMARK VINA RESULT:    -5.943      1.316      2.287
REMARK INTER + INTRA:          -8.249
REMARK INTER:                  -7.680
REMARK INTRA:                  -0.569
REMARK UNBOUND:                -0.743
REMARK SMILES O=C(C=Cc1ccc(O)cc1)c1ccc(O)cc1O
REMARK SMILES IDX 4 1 3 2 5 3 6 4 7 5 8 6 11 7 10 8 9 9 2 11 1 12 12 13 18 14
REMARK SMILES IDX 13 15 17 16 14 17 15 18 19 19 16 21
REMARK H PARENT 9 10 19 20 16 22
REMARK Flexibility Score: inf
ROOT
ATOM      1  C   UNL     1      16.848  66.655  94.986  1.00  0.00     0.012 C 
ATOM      2  C   UNL     1      16.015  65.650  95.293  1.00  0.00     0.053 C 
ENDROOT
BRANCH   1   3
ATOM      3  C   UNL     1      18.272  66.698  95.400  1.00  0.00    -0.025 A 
ATOM      4  C   UNL     1      18.594  66.399  96.736  1.00  0.00     0.012 A 
ATOM      5  C   UNL     1      19.922  66.437  97.172  1.00  0.00     0.047 A 
ATOM      6  C   UNL     1      20.946  66.784  96.283  1.00  0.00     0.115 A 
ATOM      7  C   UNL     1      19.308  67.061  94.515  1.00  0.00     0.012 A 
ATOM      8  C   UNL     1      20.635  67.099  94.958  1.00  0.00     0.047 A 
BRANCH   6   9
ATOM      9  O   UNL     1      22.272  66.824  96.707  1.00  0.00    -0.508 OA
ATOM     10  H   UNL     1      22.958  67.411  96.246  1.00  0.00     0.293 HD
ENDBRANCH   6   9
ENDBRANCH   1   3
BRANCH   2  11
ATOM     11  C   UNL     1      14.596  65.649  94.876  1.00  0.00     0.189 C 
ATOM     12  O   UNL     1      13.766  64.905  95.469  1.00  0.00    -0.289 OA
BRANCH  11  13
ATOM     13  C   UNL     1      14.134  66.473  93.734  1.00  0.00     0.064 A 
ATOM     14  C   UNL     1      13.725  67.815  93.901  1.00  0.00     0.130 A 
ATOM     15  C   UNL     1      14.077  65.895  92.454  1.00  0.00     0.020 A 
ATOM     16  C   UNL     1      13.308  68.562  92.788  1.00  0.00     0.093 A 
ATOM     17  C   UNL     1      13.655  66.645  91.353  1.00  0.00     0.047 A 
ATOM     18  C   UNL     1      13.274  67.982  91.517  1.00  0.00     0.119 A 
BRANCH  14  19
ATOM     19  O   UNL     1      13.704  68.399  95.167  1.00  0.00    -0.507 OA
ATOM     20  H   UNL     1      14.352  69.134  95.426  1.00  0.00     0.293 HD
ENDBRANCH  14  19
BRANCH  18  21
ATOM     21  O   UNL     1      12.855  68.740  90.427  1.00  0.00    -0.508 OA
ATOM     22  H   UNL     1      11.980  68.548  89.953  1.00  0.00     0.293 HD
ENDBRANCH  18  21
ENDBRANCH  11  13
ENDBRANCH   2  11
TORSDOF 6
ENDMDL
MODEL 8
REMARK VINA RESULT:    -5.901      2.474      7.654
REMARK INTER + INTRA:          -8.196
REMARK INTER:                  -7.583
REMARK INTRA:                  -0.613
REMARK UNBOUND:                -0.743
REMARK SMILES O=C(C=Cc1ccc(O)cc1)c1ccc(O)cc1O
REMARK SMILES IDX 4 1 3 2 5 3 6 4 7 5 8 6 11 7 10 8 9 9 2 11 1 12 12 13 18 14
REMARK SMILES IDX 13 15 17 16 14 17 15 18 19 19 16 21
REMARK H PARENT 9 10 19 20 16 22
REMARK Flexibility Score: inf
ROOT
ATOM      1  C   UNL     1      15.301  66.291  94.894  1.00  0.00     0.012 C 
ATOM      2  C   UNL     1      16.450  66.802  95.360  1.00  0.00     0.053 C 
ENDROOT
BRANCH   1   3
ATOM      3  C   UNL     1      13.961  66.792  95.286  1.00  0.00    -0.025 A 
ATOM      4  C   UNL     1      12.829  66.256  94.647  1.00  0.00     0.012 A 
ATOM      5  C   UNL     1      11.547  66.706  94.977  1.00  0.00     0.047 A 
ATOM      6  C   UNL     1      11.377  67.705  95.943  1.00  0.00     0.115 A 
ATOM      7  C   UNL     1      13.782  67.809  96.246  1.00  0.00     0.012 A 
ATOM      8  C   UNL     1      12.497  68.256  96.572  1.00  0.00     0.047 A 
BRANCH   6   9
ATOM      9  O   UNL     1      10.105  68.160  96.280  1.00  0.00    -0.508 OA
ATOM     10  H   UNL     1       9.956  68.779  97.068  1.00  0.00     0.293 HD
ENDBRANCH   6   9
ENDBRANCH   1   3
BRANCH   2  11
ATOM     11  C   UNL     1      17.769  66.266  94.959  1.00  0.00     0.189 C 
ATOM     12  O   UNL     1      17.882  65.610  93.887  1.00  0.00    -0.289 OA
BRANCH  11  13
ATOM     13  C   UNL     1      18.961  66.442  95.822  1.00  0.00     0.064 A 
ATOM     14  C   UNL     1      20.241  66.700  95.282  1.00  0.00     0.130 A 
ATOM     15  C   UNL     1      18.818  66.324  97.216  1.00  0.00     0.020 A 
ATOM     16  C   UNL     1      21.338  66.874  96.139  1.00  0.00     0.093 A 
ATOM     17  C   UNL     1      19.918  66.493  98.060  1.00  0.00     0.047 A 
ATOM     18  C   UNL     1      21.180  66.773  97.524  1.00  0.00     0.119 A 
BRANCH  14  19
ATOM     19  O   UNL     1      20.431  66.757  93.902  1.00  0.00    -0.507 OA
ATOM     20  H   UNL     1      20.732  67.607  93.439  1.00  0.00     0.293 HD
ENDBRANCH  14  19
BRANCH  18  21
ATOM     21  O   UNL     1      22.283  66.947  98.356  1.00  0.00    -0.508 OA
ATOM     22  H   UNL     1      23.201  67.155  97.982  1.00  0.00     0.293 HD
ENDBRANCH  18  21
ENDBRANCH  11  13
ENDBRANCH   2  11
TORSDOF 6
ENDMDL
MODEL 9
REMARK VINA RESULT:    -5.668      1.891      3.332
REMARK INTER + INTRA:          -7.901
REMARK INTER:                  -7.259
REMARK INTRA:                  -0.642
REMARK UNBOUND:                -0.743
REMARK SMILES O=C(C=Cc1ccc(O)cc1)c1ccc(O)cc1O
REMARK SMILES IDX 4 1 3 2 5 3 6 4 7 5 8 6 11 7 10 8 9 9 2 11 1 12 12 13 18 14
REMARK SMILES IDX 13 15 17 16 14 17 15 18 19 19 16 21
REMARK H PARENT 9 10 19 20 16 22
REMARK Flexibility Score: inf
ROOT
ATOM      1  C   UNL     1      16.857  66.974  94.999  1.00  0.00     0.012 C 
ATOM      2  C   UNL     1      16.218  66.019  94.308  1.00  0.00     0.053 C 
ENDROOT
BRANCH   1   3
ATOM      3  C   UNL     1      18.244  66.833  95.504  1.00  0.00    -0.025 A 
ATOM      4  C   UNL     1      19.310  67.077  94.620  1.00  0.00     0.012 A 
ATOM      5  C   UNL     1      20.634  66.946  95.050  1.00  0.00     0.047 A 
ATOM      6  C   UNL     1      20.913  66.560  96.367  1.00  0.00     0.115 A 
ATOM      7  C   UNL     1      18.534  66.431  96.824  1.00  0.00     0.012 A 
ATOM      8  C   UNL     1      19.860  66.300  97.249  1.00  0.00     0.047 A 
BRANCH   6   9
ATOM      9  O   UNL     1      22.228  66.427  96.806  1.00  0.00    -0.508 OA
ATOM     10  H   UNL     1      22.477  66.563  97.779  1.00  0.00     0.293 HD
ENDBRANCH   6   9
ENDBRANCH   1   3
BRANCH   2  11
ATOM     11  C   UNL     1      14.827  66.189  93.833  1.00  0.00     0.189 C 
ATOM     12  O   UNL     1      14.390  65.469  92.893  1.00  0.00    -0.289 OA
BRANCH  11  13
ATOM     13  C   UNL     1      13.943  67.230  94.410  1.00  0.00     0.064 A 
ATOM     14  C   UNL     1      13.547  68.366  93.668  1.00  0.00     0.130 A 
ATOM     15  C   UNL     1      13.509  67.097  95.740  1.00  0.00     0.020 A 
ATOM     16  C   UNL     1      12.698  69.319  94.250  1.00  0.00     0.093 A 
ATOM     17  C   UNL     1      12.668  68.055  96.312  1.00  0.00     0.047 A 
ATOM     18  C   UNL     1      12.257  69.166  95.567  1.00  0.00     0.119 A 
BRANCH  14  19
ATOM     19  O   UNL     1      14.014  68.563  92.369  1.00  0.00    -0.507 OA
ATOM     20  H   UNL     1      13.565  69.213  91.734  1.00  0.00     0.293 HD
ENDBRANCH  14  19
BRANCH  18  21
ATOM     21  O   UNL     1      11.416  70.125  96.126  1.00  0.00    -0.508 OA
ATOM     22  H   UNL     1      10.478  69.893  96.434  1.00  0.00     0.293 HD
ENDBRANCH  18  21
ENDBRANCH  11  13
ENDBRANCH   2  11
TORSDOF 6
ENDMDL
