MODEL 1
REMARK VINA RESULT:    -4.132      0.000      0.000
REMARK INTER + INTRA:          -5.821
REMARK INTER:                  -5.340
REMARK INTRA:                  -0.481
REMARK UNBOUND:                -0.481
REMARK SMILES CCO[C@H]1O[C@@H](CO)[C@@H](O)[C@H](O)[C@H]1O
REMARK SMILES IDX 4 1 13 2 11 3 9 4 6 5 5 6 3 7 2 8 1 9 14 10 12 12 7 14 8 15
REMARK SMILES IDX 10 17
REMARK H PARENT 14 11 12 13 8 16 10 18
REMARK Flexibility Score: inf
ROOT
ATOM      1  C   UNL     1      35.958 -49.643   2.602  1.00  0.00     0.281 C 
ATOM      2  C   UNL     1      34.742 -50.480   2.165  1.00  0.00     0.202 C 
ATOM      3  C   UNL     1      34.318 -51.449   3.279  1.00  0.00     0.179 C 
ATOM      4  C   UNL     1      35.536 -52.279   3.707  1.00  0.00     0.177 C 
ATOM      5  C   UNL     1      36.737 -51.370   4.063  1.00  0.00     0.178 C 
ATOM      6  O   UNL     1      37.053 -50.452   3.020  1.00  0.00    -0.341 OA
ENDROOT
BRANCH   1   7
ATOM      7  O   UNL     1      35.584 -48.713   3.606  1.00  0.00    -0.350 OA
BRANCH   7   8
ATOM      8  C   UNL     1      36.151 -47.447   3.340  1.00  0.00     0.160 C 
ATOM      9  C   UNL     1      35.036 -46.421   3.208  1.00  0.00     0.035 C 
ENDBRANCH   7   8
ENDBRANCH   1   7
BRANCH   2  10
ATOM     10  O   UNL     1      33.679 -49.617   1.847  1.00  0.00    -0.385 OA
ATOM     11  H   UNL     1      33.497 -49.731   0.877  1.00  0.00     0.211 HD
ENDBRANCH   2  10
BRANCH   3  12
ATOM     12  O   UNL     1      33.315 -52.310   2.804  1.00  0.00    -0.387 OA
ATOM     13  H   UNL     1      33.415 -52.355   1.817  1.00  0.00     0.211 HD
ENDBRANCH   3  12
BRANCH   5  14
ATOM     14  C   UNL     1      36.635 -50.678   5.442  1.00  0.00     0.191 C 
BRANCH  14  15
ATOM     15  O   UNL     1      37.690 -49.767   5.613  1.00  0.00    -0.394 OA
ATOM     16  H   UNL     1      38.421 -50.243   6.088  1.00  0.00     0.210 HD
ENDBRANCH  14  15
ENDBRANCH   5  14
BRANCH   4  17
ATOM     17  O   UNL     1      35.206 -53.103   4.796  1.00  0.00    -0.387 OA
ATOM     18  H   UNL     1      35.656 -52.726   5.597  1.00  0.00     0.211 HD
ENDBRANCH   4  17
TORSDOF 7
ENDMDL
MODEL 2
REMARK VINA RESULT:    -4.124      1.885      4.850
REMARK INTER + INTRA:          -5.811
REMARK INTER:                  -5.348
REMARK INTRA:                  -0.463
REMARK UNBOUND:                -0.481
REMARK SMILES CCO[C@H]1O[C@@H](CO)[C@@H](O)[C@H](O)[C@H]1O
REMARK SMILES IDX 4 1 13 2 11 3 9 4 6 5 5 6 3 7 2 8 1 9 14 10 12 12 7 14 8 15
REMARK SMILES IDX 10 17
REMARK H PARENT 14 11 12 13 8 16 10 18
REMARK Flexibility Score: inf
ROOT
ATOM      1  C   UNL     1      35.917 -49.379   2.411  1.00  0.00     0.281 C 
ATOM      2  C   UNL     1      35.781 -47.878   2.725  1.00  0.00     0.202 C 
ATOM      3  C   UNL     1      34.362 -47.381   2.410  1.00  0.00     0.179 C 
ATOM      4  C   UNL     1      34.012 -47.758   0.964  1.00  0.00     0.177 C 
ATOM      5  C   UNL     1      34.240 -49.268   0.708  1.00  0.00     0.178 C 
ATOM      6  O   UNL     1      35.553 -49.688   1.069  1.00  0.00    -0.341 OA
ENDROOT
BRANCH   1   7
ATOM      7  O   UNL     1      35.176 -50.149   3.344  1.00  0.00    -0.350 OA
BRANCH   7   8
ATOM      8  C   UNL     1      35.898 -51.306   3.711  1.00  0.00     0.160 C 
ATOM      9  C   UNL     1      36.579 -51.062   5.049  1.00  0.00     0.035 C 
ENDBRANCH   7   8
ENDBRANCH   1   7
BRANCH   2  10
ATOM     10  O   UNL     1      36.077 -47.662   4.082  1.00  0.00    -0.385 OA
ATOM     11  H   UNL     1      35.275 -47.936   4.599  1.00  0.00     0.211 HD
ENDBRANCH   2  10
BRANCH   3  12
ATOM     12  O   UNL     1      34.305 -45.984   2.549  1.00  0.00    -0.387 OA
ATOM     13  H   UNL     1      33.724 -45.794   3.333  1.00  0.00     0.211 HD
ENDBRANCH   3  12
BRANCH   5  14
ATOM     14  C   UNL     1      33.146 -50.193   1.290  1.00  0.00     0.191 C 
BRANCH  14  15
ATOM     15  O   UNL     1      32.119 -50.388   0.352  1.00  0.00    -0.394 OA
ATOM     16  H   UNL     1      31.359 -50.816   0.828  1.00  0.00     0.210 HD
ENDBRANCH  14  15
ENDBRANCH   5  14
BRANCH   4  17
ATOM     17  O   UNL     1      32.681 -47.410   0.678  1.00  0.00    -0.387 OA
ATOM     18  H   UNL     1      32.262 -48.191   0.232  1.00  0.00     0.211 HD
ENDBRANCH   4  17
TORSDOF 7
ENDMDL
MODEL 3
REMARK VINA RESULT:    -4.117      2.391      3.614
REMARK INTER + INTRA:          -5.802
REMARK INTER:                  -5.410
REMARK INTRA:                  -0.392
REMARK UNBOUND:                -0.481
REMARK SMILES CCO[C@H]1O[C@@H](CO)[C@@H](O)[C@H](O)[C@H]1O
REMARK SMILES IDX 4 1 13 2 11 3 9 4 6 5 5 6 3 7 2 8 1 9 14 10 12 12 7 14 8 15
REMARK SMILES IDX 10 17
REMARK H PARENT 14 11 12 13 8 16 10 18
REMARK Flexibility Score: inf
ROOT
ATOM      1  C   UNL     1      37.356 -49.447   4.482  1.00  0.00     0.281 C 
ATOM      2  C   UNL     1      36.322 -50.360   5.168  1.00  0.00     0.202 C 
ATOM      3  C   UNL     1      36.628 -51.838   4.884  1.00  0.00     0.179 C 
ATOM      4  C   UNL     1      36.742 -52.041   3.367  1.00  0.00     0.177 C 
ATOM      5  C   UNL     1      37.747 -51.042   2.742  1.00  0.00     0.178 C 
ATOM      6  O   UNL     1      37.451 -49.690   3.082  1.00  0.00    -0.341 OA
ENDROOT
BRANCH   1   7
ATOM      7  O   UNL     1      38.618 -49.562   5.120  1.00  0.00    -0.350 OA
BRANCH   7   8
ATOM      8  C   UNL     1      39.354 -48.366   4.975  1.00  0.00     0.160 C 
ATOM      9  C   UNL     1      40.582 -48.427   5.869  1.00  0.00     0.035 C 
ENDBRANCH   7   8
ENDBRANCH   1   7
BRANCH   2  10
ATOM     10  O   UNL     1      36.342 -50.121   6.553  1.00  0.00    -0.385 OA
ATOM     11  H   UNL     1      37.296 -50.070   6.822  1.00  0.00     0.211 HD
ENDBRANCH   2  10
BRANCH   3  12
ATOM     12  O   UNL     1      35.588 -52.643   5.380  1.00  0.00    -0.387 OA
ATOM     13  H   UNL     1      34.945 -52.778   4.634  1.00  0.00     0.211 HD
ENDBRANCH   3  12
BRANCH   5  14
ATOM     14  C   UNL     1      39.235 -51.394   2.974  1.00  0.00     0.191 C 
BRANCH  14  15
ATOM     15  O   UNL     1      39.642 -52.407   2.091  1.00  0.00    -0.394 OA
ATOM     16  H   UNL     1      39.278 -53.264   2.434  1.00  0.00     0.210 HD
ENDBRANCH  14  15
ENDBRANCH   5  14
BRANCH   4  17
ATOM     17  O   UNL     1      37.124 -53.362   3.079  1.00  0.00    -0.387 OA
ATOM     18  H   UNL     1      38.108 -53.416   3.196  1.00  0.00     0.211 HD
ENDBRANCH   4  17
TORSDOF 7
ENDMDL
MODEL 4
REMARK VINA RESULT:    -3.998      2.687      4.355
REMARK INTER + INTRA:          -5.648
REMARK INTER:                  -5.365
REMARK INTRA:                  -0.283
REMARK UNBOUND:                -0.481
REMARK SMILES CCO[C@H]1O[C@@H](CO)[C@@H](O)[C@H](O)[C@H]1O
REMARK SMILES IDX 4 1 13 2 11 3 9 4 6 5 5 6 3 7 2 8 1 9 14 10 12 12 7 14 8 15
REMARK SMILES IDX 10 17
REMARK H PARENT 14 11 12 13 8 16 10 18
REMARK Flexibility Score: inf
ROOT
ATOM      1  C   UNL     1      38.633 -50.351   3.511  1.00  0.00     0.281 C 
ATOM      2  C   UNL     1      37.852 -49.717   4.678  1.00  0.00     0.202 C 
ATOM      3  C   UNL     1      37.114 -50.792   5.488  1.00  0.00     0.179 C 
ATOM      4  C   UNL     1      36.253 -51.631   4.533  1.00  0.00     0.177 C 
ATOM      5  C   UNL     1      37.094 -52.175   3.352  1.00  0.00     0.178 C 
ATOM      6  O   UNL     1      37.803 -51.144   2.670  1.00  0.00    -0.341 OA
ENDROOT
BRANCH   1   7
ATOM      7  O   UNL     1      39.740 -51.091   4.001  1.00  0.00    -0.350 OA
BRANCH   7   8
ATOM      8  C   UNL     1      40.861 -50.915   3.160  1.00  0.00     0.160 C 
ATOM      9  C   UNL     1      41.773 -49.858   3.763  1.00  0.00     0.035 C 
ENDBRANCH   7   8
ENDBRANCH   1   7
BRANCH   2  10
ATOM     10  O   UNL     1      38.748 -49.019   5.507  1.00  0.00    -0.385 OA
ATOM     11  H   UNL     1      38.203 -48.567   6.203  1.00  0.00     0.211 HD
ENDBRANCH   2  10
BRANCH   3  12
ATOM     12  O   UNL     1      36.283 -50.182   6.443  1.00  0.00    -0.387 OA
ATOM     13  H   UNL     1      36.248 -50.791   7.228  1.00  0.00     0.211 HD
ENDBRANCH   3  12
BRANCH   5  14
ATOM     14  C   UNL     1      38.000 -53.377   3.705  1.00  0.00     0.191 C 
BRANCH  14  15
ATOM     15  O   UNL     1      37.814 -54.419   2.783  1.00  0.00    -0.394 OA
ATOM     16  H   UNL     1      36.877 -54.733   2.873  1.00  0.00     0.210 HD
ENDBRANCH  14  15
ENDBRANCH   5  14
BRANCH   4  17
ATOM     17  O   UNL     1      35.645 -52.690   5.228  1.00  0.00    -0.387 OA
ATOM     18  H   UNL     1      35.354 -53.356   4.552  1.00  0.00     0.211 HD
ENDBRANCH   4  17
TORSDOF 7
ENDMDL
MODEL 5
REMARK VINA RESULT:    -3.958     10.180     11.196
REMARK INTER + INTRA:          -5.596
REMARK INTER:                  -5.105
REMARK INTRA:                  -0.491
REMARK UNBOUND:                -0.481
REMARK SMILES CCO[C@H]1O[C@@H](CO)[C@@H](O)[C@H](O)[C@H]1O
REMARK SMILES IDX 4 1 13 2 11 3 9 4 6 5 5 6 3 7 2 8 1 9 14 10 12 12 7 14 8 15
REMARK SMILES IDX 10 17
REMARK H PARENT 14 11 12 13 8 16 10 18
REMARK Flexibility Score: inf
ROOT
ATOM      1  C   UNL     1      32.353 -43.877  -4.155  1.00  0.00     0.281 C 
ATOM      2  C   UNL     1      32.156 -45.365  -4.501  1.00  0.00     0.202 C 
ATOM      3  C   UNL     1      30.664 -45.728  -4.515  1.00  0.00     0.179 C 
ATOM      4  C   UNL     1      30.034 -45.300  -3.183  1.00  0.00     0.177 C 
ATOM      5  C   UNL     1      30.334 -43.812  -2.873  1.00  0.00     0.178 C 
ATOM      6  O   UNL     1      31.727 -43.517  -2.928  1.00  0.00    -0.341 OA
ENDROOT
BRANCH   1   7
ATOM      7  O   UNL     1      31.913 -43.058  -5.227  1.00  0.00    -0.350 OA
BRANCH   7   8
ATOM      8  C   UNL     1      32.832 -42.010  -5.455  1.00  0.00     0.160 C 
ATOM      9  C   UNL     1      33.675 -42.346  -6.675  1.00  0.00     0.035 C 
ENDBRANCH   7   8
ENDBRANCH   1   7
BRANCH   2  10
ATOM     10  O   UNL     1      32.728 -45.626  -5.758  1.00  0.00    -0.385 OA
ATOM     11  H   UNL     1      33.687 -45.378  -5.695  1.00  0.00     0.211 HD
ENDBRANCH   2  10
BRANCH   3  12
ATOM     12  O   UNL     1      30.513 -47.116  -4.672  1.00  0.00    -0.387 OA
ATOM     13  H   UNL     1      31.233 -47.547  -4.140  1.00  0.00     0.211 HD
ENDBRANCH   3  12
BRANCH   5  14
ATOM     14  C   UNL     1      29.487 -42.802  -3.680  1.00  0.00     0.191 C 
BRANCH  14  15
ATOM     15  O   UNL     1      29.934 -41.491  -3.448  1.00  0.00    -0.394 OA
ATOM     16  H   UNL     1      30.897 -41.542  -3.214  1.00  0.00     0.210 HD
ENDBRANCH  14  15
ENDBRANCH   5  14
BRANCH   4  17
ATOM     17  O   UNL     1      28.647 -45.524  -3.204  1.00  0.00    -0.387 OA
ATOM     18  H   UNL     1      28.365 -45.530  -4.156  1.00  0.00     0.211 HD
ENDBRANCH   4  17
TORSDOF 7
ENDMDL
MODEL 6
REMARK VINA RESULT:    -3.935      9.473     10.346
REMARK INTER + INTRA:          -5.567
REMARK INTER:                  -5.115
REMARK INTRA:                  -0.452
REMARK UNBOUND:                -0.481
REMARK SMILES CCO[C@H]1O[C@@H](CO)[C@@H](O)[C@H](O)[C@H]1O
REMARK SMILES IDX 4 1 13 2 11 3 9 4 6 5 5 6 3 7 2 8 1 9 14 10 12 12 7 14 8 15
REMARK SMILES IDX 10 17
REMARK H PARENT 14 11 12 13 8 16 10 18
REMARK Flexibility Score: inf
ROOT
ATOM      1  C   UNL     1      30.328 -43.649  -3.144  1.00  0.00     0.281 C 
ATOM      2  C   UNL     1      29.719 -44.834  -3.916  1.00  0.00     0.202 C 
ATOM      3  C   UNL     1      30.800 -45.864  -4.274  1.00  0.00     0.179 C 
ATOM      4  C   UNL     1      31.944 -45.152  -5.009  1.00  0.00     0.177 C 
ATOM      5  C   UNL     1      32.455 -43.933  -4.203  1.00  0.00     0.178 C 
ATOM      6  O   UNL     1      31.405 -43.037  -3.848  1.00  0.00    -0.341 OA
ENDROOT
BRANCH   1   7
ATOM      7  O   UNL     1      30.719 -44.056  -1.842  1.00  0.00    -0.350 OA
BRANCH   7   8
ATOM      8  C   UNL     1      30.365 -43.072  -0.892  1.00  0.00     0.160 C 
ATOM      9  C   UNL     1      29.177 -42.281  -1.416  1.00  0.00     0.035 C 
ENDBRANCH   7   8
ENDBRANCH   1   7
BRANCH   2  10
ATOM     10  O   UNL     1      28.723 -45.435  -3.128  1.00  0.00    -0.385 OA
ATOM     11  H   UNL     1      28.884 -46.414  -3.157  1.00  0.00     0.211 HD
ENDBRANCH   2  10
BRANCH   3  12
ATOM     12  O   UNL     1      30.257 -46.852  -5.113  1.00  0.00    -0.387 OA
ATOM     13  H   UNL     1      31.018 -47.282  -5.585  1.00  0.00     0.211 HD
ENDBRANCH   3  12
BRANCH   5  14
ATOM     14  C   UNL     1      33.356 -44.289  -2.997  1.00  0.00     0.191 C 
BRANCH  14  15
ATOM     15  O   UNL     1      33.626 -43.143  -2.231  1.00  0.00    -0.394 OA
ATOM     16  H   UNL     1      34.158 -43.430  -1.444  1.00  0.00     0.210 HD
ENDBRANCH  14  15
ENDBRANCH   5  14
BRANCH   4  17
ATOM     17  O   UNL     1      32.996 -46.048  -5.259  1.00  0.00    -0.387 OA
ATOM     18  H   UNL     1      33.255 -46.448  -4.388  1.00  0.00     0.211 HD
ENDBRANCH   4  17
TORSDOF 7
ENDMDL
MODEL 7
REMARK VINA RESULT:    -3.859      1.817      3.523
REMARK INTER + INTRA:          -5.469
REMARK INTER:                  -5.074
REMARK INTRA:                  -0.394
REMARK UNBOUND:                -0.481
REMARK SMILES CCO[C@H]1O[C@@H](CO)[C@@H](O)[C@H](O)[C@H]1O
REMARK SMILES IDX 4 1 13 2 11 3 9 4 6 5 5 6 3 7 2 8 1 9 14 10 12 12 7 14 8 15
REMARK SMILES IDX 10 17
REMARK H PARENT 14 11 12 13 8 16 10 18
REMARK Flexibility Score: inf
ROOT
ATOM      1  C   UNL     1      37.318 -49.800   4.687  1.00  0.00     0.281 C 
ATOM      2  C   UNL     1      38.678 -50.291   4.158  1.00  0.00     0.202 C 
ATOM      3  C   UNL     1      38.501 -51.521   3.256  1.00  0.00     0.179 C 
ATOM      4  C   UNL     1      37.698 -52.585   4.017  1.00  0.00     0.177 C 
ATOM      5  C   UNL     1      36.378 -51.998   4.576  1.00  0.00     0.178 C 
ATOM      6  O   UNL     1      36.594 -50.826   5.358  1.00  0.00    -0.341 OA
ENDROOT
BRANCH   1   7
ATOM      7  O   UNL     1      36.557 -49.225   3.637  1.00  0.00    -0.350 OA
BRANCH   7   8
ATOM      8  C   UNL     1      35.981 -48.006   4.057  1.00  0.00     0.160 C 
ATOM      9  C   UNL     1      35.039 -47.504   2.973  1.00  0.00     0.035 C 
ENDBRANCH   7   8
ENDBRANCH   1   7
BRANCH   2  10
ATOM     10  O   UNL     1      39.297 -49.252   3.441  1.00  0.00    -0.385 OA
ATOM     11  H   UNL     1      39.796 -48.704   4.101  1.00  0.00     0.211 HD
ENDBRANCH   2  10
BRANCH   3  12
ATOM     12  O   UNL     1      39.759 -52.048   2.917  1.00  0.00    -0.387 OA
ATOM     13  H   UNL     1      39.604 -52.750   2.231  1.00  0.00     0.211 HD
ENDBRANCH   3  12
BRANCH   5  14
ATOM     14  C   UNL     1      35.262 -51.804   3.524  1.00  0.00     0.191 C 
BRANCH  14  15
ATOM     15  O   UNL     1      34.428 -52.933   3.480  1.00  0.00    -0.394 OA
ATOM     16  H   UNL     1      35.009 -53.728   3.355  1.00  0.00     0.210 HD
ENDBRANCH  14  15
ENDBRANCH   5  14
BRANCH   4  17
ATOM     17  O   UNL     1      37.429 -53.682   3.183  1.00  0.00    -0.387 OA
ATOM     18  H   UNL     1      37.968 -53.564   2.357  1.00  0.00     0.211 HD
ENDBRANCH   4  17
TORSDOF 7
ENDMDL
MODEL 8
REMARK VINA RESULT:    -3.838      5.600      8.063
REMARK INTER + INTRA:          -5.441
REMARK INTER:                  -5.028
REMARK INTRA:                  -0.413
REMARK UNBOUND:                -0.481
REMARK SMILES CCO[C@H]1O[C@@H](CO)[C@@H](O)[C@H](O)[C@H]1O
REMARK SMILES IDX 4 1 13 2 11 3 9 4 6 5 5 6 3 7 2 8 1 9 14 10 12 12 7 14 8 15
REMARK SMILES IDX 10 17
REMARK H PARENT 14 11 12 13 8 16 10 18
REMARK Flexibility Score: inf
ROOT
ATOM      1  C   UNL     1      33.747 -47.174  -1.373  1.00  0.00     0.281 C 
ATOM      2  C   UNL     1      32.980 -45.846  -1.513  1.00  0.00     0.202 C 
ATOM      3  C   UNL     1      31.728 -46.029  -2.384  1.00  0.00     0.179 C 
ATOM      4  C   UNL     1      32.138 -46.664  -3.719  1.00  0.00     0.177 C 
ATOM      5  C   UNL     1      32.964 -47.955  -3.495  1.00  0.00     0.178 C 
ATOM      6  O   UNL     1      34.081 -47.743  -2.635  1.00  0.00    -0.341 OA
ENDROOT
BRANCH   1   7
ATOM      7  O   UNL     1      33.018 -48.084  -0.566  1.00  0.00    -0.350 OA
BRANCH   7   8
ATOM      8  C   UNL     1      33.882 -48.740   0.339  1.00  0.00     0.160 C 
ATOM      9  C   UNL     1      33.130 -49.885   1.001  1.00  0.00     0.035 C 
ENDBRANCH   7   8
ENDBRANCH   1   7
BRANCH   2  10
ATOM     10  O   UNL     1      32.615 -45.387  -0.235  1.00  0.00    -0.385 OA
ATOM     11  H   UNL     1      33.182 -45.875   0.418  1.00  0.00     0.211 HD
ENDBRANCH   2  10
BRANCH   3  12
ATOM     12  O   UNL     1      31.134 -44.780  -2.631  1.00  0.00    -0.387 OA
ATOM     13  H   UNL     1      30.155 -44.892  -2.496  1.00  0.00     0.211 HD
ENDBRANCH   3  12
BRANCH   5  14
ATOM     14  C   UNL     1      32.130 -49.190  -3.081  1.00  0.00     0.191 C 
BRANCH  14  15
ATOM     15  O   UNL     1      31.383 -49.665  -4.172  1.00  0.00    -0.394 OA
ATOM     16  H   UNL     1      30.674 -48.997  -4.360  1.00  0.00     0.210 HD
ENDBRANCH  14  15
ENDBRANCH   5  14
BRANCH   4  17
ATOM     17  O   UNL     1      31.002 -46.940  -4.497  1.00  0.00    -0.387 OA
ATOM     18  H   UNL     1      30.732 -46.091  -4.935  1.00  0.00     0.211 HD
ENDBRANCH   4  17
TORSDOF 7
ENDMDL
MODEL 9
REMARK VINA RESULT:    -3.776     10.799     12.100
REMARK INTER + INTRA:          -5.361
REMARK INTER:                  -4.877
REMARK INTRA:                  -0.484
REMARK UNBOUND:                -0.481
REMARK SMILES CCO[C@H]1O[C@@H](CO)[C@@H](O)[C@H](O)[C@H]1O
REMARK SMILES IDX 4 1 13 2 11 3 9 4 6 5 5 6 3 7 2 8 1 9 14 10 12 12 7 14 8 15
REMARK SMILES IDX 10 17
REMARK H PARENT 14 11 12 13 8 16 10 18
REMARK Flexibility Score: inf
ROOT
ATOM      1  C   UNL     1      31.022 -44.413  -4.094  1.00  0.00     0.281 C 
ATOM      2  C   UNL     1      29.975 -45.543  -4.118  1.00  0.00     0.202 C 
ATOM      3  C   UNL     1      28.583 -44.989  -4.453  1.00  0.00     0.179 C 
ATOM      4  C   UNL     1      28.255 -43.845  -3.484  1.00  0.00     0.177 C 
ATOM      5  C   UNL     1      29.384 -42.786  -3.465  1.00  0.00     0.178 C 
ATOM      6  O   UNL     1      30.663 -43.359  -3.206  1.00  0.00    -0.341 OA
ENDROOT
BRANCH   1   7
ATOM      7  O   UNL     1      31.259 -43.931  -5.407  1.00  0.00    -0.350 OA
BRANCH   7   8
ATOM      8  C   UNL     1      32.647 -43.823  -5.648  1.00  0.00     0.160 C 
ATOM      9  C   UNL     1      32.885 -42.765  -6.714  1.00  0.00     0.035 C 
ENDBRANCH   7   8
ENDBRANCH   1   7
BRANCH   2  10
ATOM     10  O   UNL     1      30.355 -46.503  -5.072  1.00  0.00    -0.385 OA
ATOM     11  H   UNL     1      30.936 -46.040  -5.730  1.00  0.00     0.211 HD
ENDBRANCH   2  10
BRANCH   3  12
ATOM     12  O   UNL     1      27.621 -46.004  -4.312  1.00  0.00    -0.387 OA
ATOM     13  H   UNL     1      27.010 -45.724  -3.580  1.00  0.00     0.211 HD
ENDBRANCH   3  12
BRANCH   5  14
ATOM     14  C   UNL     1      29.401 -41.840  -4.688  1.00  0.00     0.191 C 
BRANCH  14  15
ATOM     15  O   UNL     1      30.511 -40.981  -4.629  1.00  0.00    -0.394 OA
ATOM     16  H   UNL     1      30.300 -40.267  -3.973  1.00  0.00     0.210 HD
ENDBRANCH  14  15
ENDBRANCH   5  14
BRANCH   4  17
ATOM     17  O   UNL     1      27.031 -43.249  -3.830  1.00  0.00    -0.387 OA
ATOM     18  H   UNL     1      26.793 -43.572  -4.738  1.00  0.00     0.211 HD
ENDBRANCH   4  17
TORSDOF 7
ENDMDL
