MODEL 1
REMARK VINA RESULT:    -3.361      0.000      0.000
REMARK INTER + INTRA:          -4.278
REMARK INTER:                  -4.147
REMARK INTRA:                  -0.132
REMARK UNBOUND:                -0.132
REMARK SMILES CCCCCC(=O)[O-]
REMARK SMILES IDX 4 1 5 2 6 3 7 4 8 5 3 6 2 7 1 8
REMARK H PARENT
REMARK Flexibility Score: inf
ROOT
ATOM      1  C   UNL     1      37.845   5.832  40.021  1.00  0.00     0.006 C 
ENDROOT
BRANCH   1   2
ATOM      2  C   UNL     1      36.995   6.225  41.239  1.00  0.00     0.053 C 
BRANCH   2   3
ATOM      3  C   UNL     1      35.640   6.716  40.833  1.00  0.00     0.041 C 
ATOM      4  O   UNL     1      35.524   7.590  39.933  1.00  0.00    -0.550 OA
ATOM      5  O   UNL     1      34.500   6.191  41.432  1.00  0.00    -0.550 OA
ENDBRANCH   2   3
ENDBRANCH   1   2
BRANCH   1   6
ATOM      6  C   UNL     1      37.555   4.404  39.507  1.00  0.00     0.000 C 
BRANCH   6   7
ATOM      7  C   UNL     1      38.781   3.477  39.543  1.00  0.00    -0.003 C 
ATOM      8  C   UNL     1      39.683   3.725  40.750  1.00  0.00     0.004 C 
ENDBRANCH   6   7
ENDBRANCH   1   6
TORSDOF 4
ENDMDL
MODEL 2
REMARK VINA RESULT:    -3.297     16.626     17.637
REMARK INTER + INTRA:          -4.200
REMARK INTER:                  -4.042
REMARK INTRA:                  -0.158
REMARK UNBOUND:                -0.132
REMARK SMILES CCCCCC(=O)[O-]
REMARK SMILES IDX 4 1 5 2 6 3 7 4 8 5 3 6 2 7 1 8
REMARK H PARENT
REMARK Flexibility Score: inf
ROOT
ATOM      1  C   UNL     1      31.492  -7.617  31.581  1.00  0.00     0.006 C 
ENDROOT
BRANCH   1   2
ATOM      2  C   UNL     1      31.768  -9.128  31.579  1.00  0.00     0.053 C 
BRANCH   2   3
ATOM      3  C   UNL     1      30.529  -9.917  31.288  1.00  0.00     0.041 C 
ATOM      4  O   UNL     1      29.409  -9.345  31.236  1.00  0.00    -0.550 OA
ATOM      5  O   UNL     1      30.614 -11.285  31.051  1.00  0.00    -0.550 OA
ENDBRANCH   2   3
ENDBRANCH   1   2
BRANCH   1   6
ATOM      6  C   UNL     1      31.422  -7.009  33.000  1.00  0.00     0.000 C 
BRANCH   6   7
ATOM      7  C   UNL     1      31.932  -7.954  34.099  1.00  0.00    -0.003 C 
ATOM      8  C   UNL     1      33.042  -7.337  34.949  1.00  0.00     0.004 C 
ENDBRANCH   6   7
ENDBRANCH   1   6
TORSDOF 4
ENDMDL
MODEL 3
REMARK VINA RESULT:    -3.244      0.986      1.330
REMARK INTER + INTRA:          -4.134
REMARK INTER:                  -4.044
REMARK INTRA:                  -0.091
REMARK UNBOUND:                -0.132
REMARK SMILES CCCCCC(=O)[O-]
REMARK SMILES IDX 4 1 5 2 6 3 7 4 8 5 3 6 2 7 1 8
REMARK H PARENT
REMARK Flexibility Score: inf
ROOT
ATOM      1  C   UNL     1      38.252   5.441  41.159  1.00  0.00     0.006 C 
ENDROOT
BRANCH   1   2
ATOM      2  C   UNL     1      37.111   5.433  40.129  1.00  0.00     0.053 C 
BRANCH   2   3
ATOM      3  C   UNL     1      36.155   6.564  40.353  1.00  0.00     0.041 C 
ATOM      4  O   UNL     1      36.477   7.741  40.042  1.00  0.00    -0.550 OA
ATOM      5  O   UNL     1      34.895   6.314  40.886  1.00  0.00    -0.550 OA
ENDBRANCH   2   3
ENDBRANCH   1   2
BRANCH   1   6
ATOM      6  C   UNL     1      39.300   4.332  40.919  1.00  0.00     0.000 C 
BRANCH   6   7
ATOM      7  C   UNL     1      38.934   3.376  39.772  1.00  0.00    -0.003 C 
ATOM      8  C   UNL     1      39.872   2.175  39.673  1.00  0.00     0.004 C 
ENDBRANCH   6   7
ENDBRANCH   1   6
TORSDOF 4
ENDMDL
MODEL 4
REMARK VINA RESULT:    -3.162     16.511     17.385
REMARK INTER + INTRA:          -4.034
REMARK INTER:                  -3.905
REMARK INTRA:                  -0.129
REMARK UNBOUND:                -0.132
REMARK SMILES CCCCCC(=O)[O-]
REMARK SMILES IDX 4 1 5 2 6 3 7 4 8 5 3 6 2 7 1 8
REMARK H PARENT
REMARK Flexibility Score: inf
ROOT
ATOM      1  C   UNL     1      21.598  -2.563  42.498  1.00  0.00     0.006 C 
ENDROOT
BRANCH   1   2
ATOM      2  C   UNL     1      21.041  -1.585  43.544  1.00  0.00     0.053 C 
BRANCH   2   3
ATOM      3  C   UNL     1      21.439  -1.975  44.934  1.00  0.00     0.041 C 
ATOM      4  O   UNL     1      20.649  -1.789  45.897  1.00  0.00    -0.550 OA
ATOM      5  O   UNL     1      22.675  -2.569  45.163  1.00  0.00    -0.550 OA
ENDBRANCH   2   3
ENDBRANCH   1   2
BRANCH   1   6
ATOM      6  C   UNL     1      22.759  -1.973  41.665  1.00  0.00     0.000 C 
BRANCH   6   7
ATOM      7  C   UNL     1      22.336  -1.512  40.261  1.00  0.00    -0.003 C 
ATOM      8  C   UNL     1      22.002  -0.023  40.197  1.00  0.00     0.004 C 
ENDBRANCH   6   7
ENDBRANCH   1   6
TORSDOF 4
ENDMDL
MODEL 5
REMARK VINA RESULT:    -3.153     16.050     17.074
REMARK INTER + INTRA:          -4.022
REMARK INTER:                  -3.761
REMARK INTRA:                  -0.261
REMARK UNBOUND:                -0.132
REMARK SMILES CCCCCC(=O)[O-]
REMARK SMILES IDX 4 1 5 2 6 3 7 4 8 5 3 6 2 7 1 8
REMARK H PARENT
REMARK Flexibility Score: inf
ROOT
ATOM      1  C   UNL     1      22.738  -2.077  41.685  1.00  0.00     0.006 C 
ENDROOT
BRANCH   1   2
ATOM      2  C   UNL     1      22.593  -1.550  40.248  1.00  0.00     0.053 C 
BRANCH   2   3
ATOM      3  C   UNL     1      21.857  -0.246  40.210  1.00  0.00     0.041 C 
ATOM      4  O   UNL     1      22.349   0.778  40.754  1.00  0.00    -0.550 OA
ATOM      5  O   UNL     1      20.637  -0.154  39.549  1.00  0.00    -0.550 OA
ENDBRANCH   2   3
ENDBRANCH   1   2
BRANCH   1   6
ATOM      6  C   UNL     1      21.388  -2.445  42.341  1.00  0.00     0.000 C 
BRANCH   6   7
ATOM      7  C   UNL     1      21.154  -1.755  43.695  1.00  0.00    -0.003 C 
ATOM      8  C   UNL     1      20.272  -0.513  43.587  1.00  0.00     0.004 C 
ENDBRANCH   6   7
ENDBRANCH   1   6
TORSDOF 4
ENDMDL
MODEL 6
REMARK VINA RESULT:    -3.119     16.095     17.096
REMARK INTER + INTRA:          -3.980
REMARK INTER:                  -3.851
REMARK INTRA:                  -0.130
REMARK UNBOUND:                -0.132
REMARK SMILES CCCCCC(=O)[O-]
REMARK SMILES IDX 4 1 5 2 6 3 7 4 8 5 3 6 2 7 1 8
REMARK H PARENT
REMARK Flexibility Score: inf
ROOT
ATOM      1  C   UNL     1      21.957   0.044  41.635  1.00  0.00     0.006 C 
ENDROOT
BRANCH   1   2
ATOM      2  C   UNL     1      22.077  -0.598  40.244  1.00  0.00     0.053 C 
BRANCH   2   3
ATOM      3  C   UNL     1      22.919  -1.836  40.276  1.00  0.00     0.041 C 
ATOM      4  O   UNL     1      23.294  -2.378  39.202  1.00  0.00    -0.550 OA
ATOM      5  O   UNL     1      23.312  -2.380  41.494  1.00  0.00    -0.550 OA
ENDBRANCH   2   3
ENDBRANCH   1   2
BRANCH   1   6
ATOM      6  C   UNL     1      20.596  -0.222  42.316  1.00  0.00     0.000 C 
BRANCH   6   7
ATOM      7  C   UNL     1      20.691  -1.148  43.540  1.00  0.00    -0.003 C 
ATOM      8  C   UNL     1      20.183  -0.495  44.824  1.00  0.00     0.004 C 
ENDBRANCH   6   7
ENDBRANCH   1   6
TORSDOF 4
ENDMDL
MODEL 7
REMARK VINA RESULT:    -3.116     16.391     17.122
REMARK INTER + INTRA:          -3.976
REMARK INTER:                  -3.846
REMARK INTRA:                  -0.130
REMARK UNBOUND:                -0.132
REMARK SMILES CCCCCC(=O)[O-]
REMARK SMILES IDX 4 1 5 2 6 3 7 4 8 5 3 6 2 7 1 8
REMARK H PARENT
REMARK Flexibility Score: inf
ROOT
ATOM      1  C   UNL     1      21.422  -1.901  43.228  1.00  0.00     0.006 C 
ENDROOT
BRANCH   1   2
ATOM      2  C   UNL     1      21.144  -2.034  41.723  1.00  0.00     0.053 C 
BRANCH   2   3
ATOM      3  C   UNL     1      22.175  -1.321  40.904  1.00  0.00     0.041 C 
ATOM      4  O   UNL     1      22.247  -0.064  40.926  1.00  0.00    -0.550 OA
ATOM      5  O   UNL     1      23.076  -2.047  40.133  1.00  0.00    -0.550 OA
ENDBRANCH   2   3
ENDBRANCH   1   2
BRANCH   1   6
ATOM      6  C   UNL     1      22.624  -2.746  43.705  1.00  0.00     0.000 C 
BRANCH   6   7
ATOM      7  C   UNL     1      22.901  -2.627  45.213  1.00  0.00    -0.003 C 
ATOM      8  C   UNL     1      21.637  -2.378  46.034  1.00  0.00     0.004 C 
ENDBRANCH   6   7
ENDBRANCH   1   6
TORSDOF 4
ENDMDL
MODEL 8
REMARK VINA RESULT:    -3.102     16.421     17.079
REMARK INTER + INTRA:          -3.959
REMARK INTER:                  -3.775
REMARK INTRA:                  -0.184
REMARK UNBOUND:                -0.132
REMARK SMILES CCCCCC(=O)[O-]
REMARK SMILES IDX 4 1 5 2 6 3 7 4 8 5 3 6 2 7 1 8
REMARK H PARENT
REMARK Flexibility Score: inf
ROOT
ATOM      1  C   UNL     1      21.008  -1.504  42.228  1.00  0.00     0.006 C 
ENDROOT
BRANCH   1   2
ATOM      2  C   UNL     1      21.271  -1.727  43.726  1.00  0.00     0.053 C 
BRANCH   2   3
ATOM      3  C   UNL     1      22.457  -2.612  43.954  1.00  0.00     0.041 C 
ATOM      4  O   UNL     1      22.908  -3.324  43.018  1.00  0.00    -0.550 OA
ATOM      5  O   UNL     1      23.081  -2.633  45.196  1.00  0.00    -0.550 OA
ENDBRANCH   2   3
ENDBRANCH   1   2
BRANCH   1   6
ATOM      6  C   UNL     1      21.563  -0.162  41.702  1.00  0.00     0.000 C 
BRANCH   6   7
ATOM      7  C   UNL     1      22.132  -0.247  40.277  1.00  0.00    -0.003 C 
ATOM      8  C   UNL     1      22.613  -1.649  39.908  1.00  0.00     0.004 C 
ENDBRANCH   6   7
ENDBRANCH   1   6
TORSDOF 4
ENDMDL
MODEL 9
REMARK VINA RESULT:    -3.099     17.073     18.086
REMARK INTER + INTRA:          -3.955
REMARK INTER:                  -3.716
REMARK INTRA:                  -0.239
REMARK UNBOUND:                -0.132
REMARK SMILES CCCCCC(=O)[O-]
REMARK SMILES IDX 4 1 5 2 6 3 7 4 8 5 3 6 2 7 1 8
REMARK H PARENT
REMARK Flexibility Score: inf
ROOT
ATOM      1  C   UNL     1      31.727  -9.488  31.245  1.00  0.00     0.006 C 
ENDROOT
BRANCH   1   2
ATOM      2  C   UNL     1      31.616  -7.962  31.400  1.00  0.00     0.053 C 
BRANCH   2   3
ATOM      3  C   UNL     1      31.050  -7.582  32.733  1.00  0.00     0.041 C 
ATOM      4  O   UNL     1      29.976  -6.928  32.805  1.00  0.00    -0.550 OA
ATOM      5  O   UNL     1      31.697  -7.971  33.901  1.00  0.00    -0.550 OA
ENDBRANCH   2   3
ENDBRANCH   1   2
BRANCH   1   6
ATOM      6  C   UNL     1      30.431 -10.237  31.626  1.00  0.00     0.000 C 
BRANCH   6   7
ATOM      7  C   UNL     1      29.356 -10.205  30.528  1.00  0.00    -0.003 C 
ATOM      8  C   UNL     1      28.044  -9.577  30.995  1.00  0.00     0.004 C 
ENDBRANCH   6   7
ENDBRANCH   1   6
TORSDOF 4
ENDMDL
