MODEL 1
REMARK VINA RESULT:    -4.454      0.000      0.000
REMARK INTER + INTRA:          -5.198
REMARK INTER:                  -5.105
REMARK INTRA:                  -0.093
REMARK UNBOUND:                -0.093
REMARK SMILES COc1cc(C(=O)[O-])ccc1O
REMARK SMILES IDX 5 1 9 2 4 3 10 4 3 5 11 6 6 7 7 8 8 9 2 10 1 11 12 12
REMARK H PARENT 12 13
REMARK Flexibility Score: inf
ROOT
ATOM      1  C   UNL     1      16.772   7.935  12.762  1.00  0.00     0.001 A 
ATOM      2  C   UNL     1      15.395   7.667  12.844  1.00  0.00     0.014 A 
ATOM      3  C   UNL     1      17.575   7.137  11.929  1.00  0.00     0.060 A 
ATOM      4  C   UNL     1      14.834   6.624  12.106  1.00  0.00     0.051 A 
ATOM      5  C   UNL     1      17.013   6.081  11.182  1.00  0.00     0.161 A 
ATOM      6  C   UNL     1      15.632   5.830  11.278  1.00  0.00     0.157 A 
ENDROOT
BRANCH   1   7
ATOM      7  C   UNL     1      17.371   9.041  13.542  1.00  0.00     0.072 C 
ATOM      8  O   UNL     1      16.912   9.349  14.674  1.00  0.00    -0.545 OA
ATOM      9  O   UNL     1      18.451   9.756  13.036  1.00  0.00    -0.545 OA
ENDBRANCH   1   7
BRANCH   5  10
ATOM     10  O   UNL     1      17.791   5.267  10.342  1.00  0.00    -0.493 OA
ATOM     11  C   UNL     1      18.079   5.554   8.978  1.00  0.00     0.278 C 
ENDBRANCH   5  10
BRANCH   6  12
ATOM     12  O   UNL     1      15.035   4.797  10.557  1.00  0.00    -0.504 OA
ATOM     13  H   UNL     1      14.484   4.968   9.724  1.00  0.00     0.293 HD
ENDBRANCH   6  12
TORSDOF 3
ENDMDL
MODEL 2
REMARK VINA RESULT:    -4.272      1.699      2.145
REMARK INTER + INTRA:          -4.990
REMARK INTER:                  -4.888
REMARK INTRA:                  -0.101
REMARK UNBOUND:                -0.093
REMARK SMILES COc1cc(C(=O)[O-])ccc1O
REMARK SMILES IDX 5 1 9 2 4 3 10 4 3 5 11 6 6 7 7 8 8 9 2 10 1 11 12 12
REMARK H PARENT 12 13
REMARK Flexibility Score: inf
ROOT
ATOM      1  C   UNL     1      16.358   6.441  11.602  1.00  0.00     0.001 A 
ATOM      2  C   UNL     1      15.286   5.538  11.530  1.00  0.00     0.014 A 
ATOM      3  C   UNL     1      17.514   6.193  10.840  1.00  0.00     0.060 A 
ATOM      4  C   UNL     1      15.366   4.410  10.712  1.00  0.00     0.051 A 
ATOM      5  C   UNL     1      17.600   5.055  10.012  1.00  0.00     0.161 A 
ATOM      6  C   UNL     1      16.514   4.163   9.955  1.00  0.00     0.157 A 
ENDROOT
BRANCH   1   7
ATOM      7  C   UNL     1      16.277   7.640  12.468  1.00  0.00     0.072 C 
ATOM      8  O   UNL     1      15.167   8.190  12.695  1.00  0.00    -0.545 OA
ATOM      9  O   UNL     1      17.425   8.173  13.044  1.00  0.00    -0.545 OA
ENDBRANCH   1   7
BRANCH   5  10
ATOM     10  O   UNL     1      18.741   4.781   9.241  1.00  0.00    -0.493 OA
ATOM     11  C   UNL     1      19.008   5.347   7.962  1.00  0.00     0.278 C 
ENDBRANCH   5  10
BRANCH   6  12
ATOM     12  O   UNL     1      16.557   3.026   9.149  1.00  0.00    -0.504 OA
ATOM     13  H   UNL     1      16.802   3.068   8.168  1.00  0.00     0.293 HD
ENDBRANCH   6  12
TORSDOF 3
ENDMDL
MODEL 3
REMARK VINA RESULT:    -4.185      8.790     11.044
REMARK INTER + INTRA:          -4.890
REMARK INTER:                  -4.809
REMARK INTRA:                  -0.080
REMARK UNBOUND:                -0.093
REMARK SMILES COc1cc(C(=O)[O-])ccc1O
REMARK SMILES IDX 5 1 9 2 4 3 10 4 3 5 11 6 6 7 7 8 8 9 2 10 1 11 12 12
REMARK H PARENT 12 13
REMARK Flexibility Score: inf
ROOT
ATOM      1  C   UNL     1      24.226   9.273   3.577  1.00  0.00     0.001 A 
ATOM      2  C   UNL     1      24.412   8.608   2.354  1.00  0.00     0.014 A 
ATOM      3  C   UNL     1      23.462   8.654   4.583  1.00  0.00     0.060 A 
ATOM      4  C   UNL     1      23.845   7.350   2.141  1.00  0.00     0.051 A 
ATOM      5  C   UNL     1      22.887   7.384   4.372  1.00  0.00     0.161 A 
ATOM      6  C   UNL     1      23.085   6.736   3.139  1.00  0.00     0.157 A 
ENDROOT
BRANCH   1   7
ATOM      7  C   UNL     1      24.827  10.606   3.808  1.00  0.00     0.072 C 
ATOM      8  O   UNL     1      25.502  10.833   4.847  1.00  0.00    -0.545 OA
ATOM      9  O   UNL     1      24.656  11.627   2.879  1.00  0.00    -0.545 OA
ENDBRANCH   1   7
BRANCH   5  10
ATOM     10  O   UNL     1      22.119   6.743   5.358  1.00  0.00    -0.493 OA
ATOM     11  C   UNL     1      21.215   7.404   6.236  1.00  0.00     0.278 C 
ENDBRANCH   5  10
BRANCH   6  12
ATOM     12  O   UNL     1      22.535   5.479   2.889  1.00  0.00    -0.504 OA
ATOM     13  H   UNL     1      21.697   5.154   3.355  1.00  0.00     0.293 HD
ENDBRANCH   6  12
TORSDOF 3
ENDMDL
MODEL 4
REMARK VINA RESULT:    -4.164      1.978      3.198
REMARK INTER + INTRA:          -4.866
REMARK INTER:                  -4.774
REMARK INTRA:                  -0.092
REMARK UNBOUND:                -0.093
REMARK SMILES COc1cc(C(=O)[O-])ccc1O
REMARK SMILES IDX 5 1 9 2 4 3 10 4 3 5 11 6 6 7 7 8 8 9 2 10 1 11 12 12
REMARK H PARENT 12 13
REMARK Flexibility Score: inf
ROOT
ATOM      1  C   UNL     1      16.194   6.433  11.610  1.00  0.00     0.001 A 
ATOM      2  C   UNL     1      17.472   6.427  11.027  1.00  0.00     0.014 A 
ATOM      3  C   UNL     1      15.311   5.374  11.332  1.00  0.00     0.060 A 
ATOM      4  C   UNL     1      17.859   5.384  10.185  1.00  0.00     0.051 A 
ATOM      5  C   UNL     1      15.697   4.318  10.482  1.00  0.00     0.161 A 
ATOM      6  C   UNL     1      16.982   4.332   9.908  1.00  0.00     0.157 A 
ENDROOT
BRANCH   1   7
ATOM      7  C   UNL     1      15.779   7.536  12.505  1.00  0.00     0.072 C 
ATOM      8  O   UNL     1      14.560   7.809  12.663  1.00  0.00    -0.545 OA
ATOM      9  O   UNL     1      16.731   8.287  13.187  1.00  0.00    -0.545 OA
ENDBRANCH   1   7
BRANCH   5  10
ATOM     10  O   UNL     1      14.837   3.248  10.185  1.00  0.00    -0.493 OA
ATOM     11  C   UNL     1      14.223   2.411  11.159  1.00  0.00     0.278 C 
ENDBRANCH   5  10
BRANCH   6  12
ATOM     12  O   UNL     1      17.405   3.308   9.061  1.00  0.00    -0.504 OA
ATOM     13  H   UNL     1      17.051   2.363   9.138  1.00  0.00     0.293 HD
ENDBRANCH   6  12
TORSDOF 3
ENDMDL
MODEL 5
REMARK VINA RESULT:    -4.087      2.356      4.982
REMARK INTER + INTRA:          -4.778
REMARK INTER:                  -4.680
REMARK INTRA:                  -0.099
REMARK UNBOUND:                -0.093
REMARK SMILES COc1cc(C(=O)[O-])ccc1O
REMARK SMILES IDX 5 1 9 2 4 3 10 4 3 5 11 6 6 7 7 8 8 9 2 10 1 11 12 12
REMARK H PARENT 12 13
REMARK Flexibility Score: inf
ROOT
ATOM      1  C   UNL     1      15.398   3.914  10.533  1.00  0.00     0.001 A 
ATOM      2  C   UNL     1      14.948   4.914  11.410  1.00  0.00     0.014 A 
ATOM      3  C   UNL     1      16.625   4.089   9.868  1.00  0.00     0.060 A 
ATOM      4  C   UNL     1      15.709   6.065  11.620  1.00  0.00     0.051 A 
ATOM      5  C   UNL     1      17.397   5.250  10.076  1.00  0.00     0.161 A 
ATOM      6  C   UNL     1      16.927   6.240  10.959  1.00  0.00     0.157 A 
ENDROOT
BRANCH   1   7
ATOM      7  C   UNL     1      14.595   2.691  10.309  1.00  0.00     0.072 C 
ATOM      8  O   UNL     1      14.512   2.180   9.161  1.00  0.00    -0.545 OA
ATOM      9  O   UNL     1      13.921   2.087  11.365  1.00  0.00    -0.545 OA
ENDBRANCH   1   7
BRANCH   5  10
ATOM     10  O   UNL     1      18.626   5.453   9.425  1.00  0.00    -0.493 OA
ATOM     11  C   UNL     1      18.766   5.794   8.051  1.00  0.00     0.278 C 
ENDBRANCH   5  10
BRANCH   6  12
ATOM     12  O   UNL     1      17.659   7.404  11.193  1.00  0.00    -0.504 OA
ATOM     13  H   UNL     1      18.467   7.420  11.804  1.00  0.00     0.293 HD
ENDBRANCH   6  12
TORSDOF 3
ENDMDL
MODEL 6
REMARK VINA RESULT:    -3.775      9.673     11.493
REMARK INTER + INTRA:          -4.421
REMARK INTER:                  -4.320
REMARK INTRA:                  -0.100
REMARK UNBOUND:                -0.093
REMARK SMILES COc1cc(C(=O)[O-])ccc1O
REMARK SMILES IDX 5 1 9 2 4 3 10 4 3 5 11 6 6 7 7 8 8 9 2 10 1 11 12 12
REMARK H PARENT 12 13
REMARK Flexibility Score: inf
ROOT
ATOM      1  C   UNL     1      24.246   9.116   3.243  1.00  0.00     0.001 A 
ATOM      2  C   UNL     1      23.545   9.126   4.460  1.00  0.00     0.014 A 
ATOM      3  C   UNL     1      24.199   7.966   2.436  1.00  0.00     0.060 A 
ATOM      4  C   UNL     1      22.812   8.009   4.862  1.00  0.00     0.051 A 
ATOM      5  C   UNL     1      23.460   6.834   2.838  1.00  0.00     0.161 A 
ATOM      6  C   UNL     1      22.765   6.865   4.061  1.00  0.00     0.157 A 
ENDROOT
BRANCH   1   7
ATOM      7  C   UNL     1      25.024  10.300   2.813  1.00  0.00     0.072 C 
ATOM      8  O   UNL     1      24.607  11.463   3.058  1.00  0.00    -0.545 OA
ATOM      9  O   UNL     1      26.226  10.145   2.132  1.00  0.00    -0.545 OA
ENDBRANCH   1   7
BRANCH   5  10
ATOM     10  O   UNL     1      23.395   5.671   2.054  1.00  0.00    -0.493 OA
ATOM     11  C   UNL     1      24.418   4.683   1.986  1.00  0.00     0.278 C 
ENDBRANCH   5  10
BRANCH   6  12
ATOM     12  O   UNL     1      22.022   5.768   4.497  1.00  0.00    -0.504 OA
ATOM     13  H   UNL     1      22.174   5.337   5.400  1.00  0.00     0.293 HD
ENDBRANCH   6  12
TORSDOF 3
ENDMDL
MODEL 7
REMARK VINA RESULT:    -3.723     11.435     13.704
REMARK INTER + INTRA:          -4.361
REMARK INTER:                  -4.339
REMARK INTRA:                  -0.022
REMARK UNBOUND:                -0.093
REMARK SMILES COc1cc(C(=O)[O-])ccc1O
REMARK SMILES IDX 5 1 9 2 4 3 10 4 3 5 11 6 6 7 7 8 8 9 2 10 1 11 12 12
REMARK H PARENT 12 13
REMARK Flexibility Score: inf
ROOT
ATOM      1  C   UNL     1      27.438   1.885   9.025  1.00  0.00     0.001 A 
ATOM      2  C   UNL     1      27.596   1.837  10.419  1.00  0.00     0.014 A 
ATOM      3  C   UNL     1      28.567   2.101   8.215  1.00  0.00     0.060 A 
ATOM      4  C   UNL     1      28.858   2.002  10.993  1.00  0.00     0.051 A 
ATOM      5  C   UNL     1      29.844   2.268   8.789  1.00  0.00     0.161 A 
ATOM      6  C   UNL     1      29.980   2.218  10.189  1.00  0.00     0.157 A 
ENDROOT
BRANCH   1   7
ATOM      7  C   UNL     1      26.101   1.709   8.412  1.00  0.00     0.072 C 
ATOM      8  O   UNL     1      25.068   2.121   9.002  1.00  0.00    -0.545 OA
ATOM      9  O   UNL     1      25.969   1.087   7.175  1.00  0.00    -0.545 OA
ENDBRANCH   1   7
BRANCH   5  10
ATOM     10  O   UNL     1      30.989   2.487   8.006  1.00  0.00    -0.493 OA
ATOM     11  C   UNL     1      31.609   3.753   7.816  1.00  0.00     0.278 C 
ENDBRANCH   5  10
BRANCH   6  12
ATOM     12  O   UNL     1      31.224   2.378  10.799  1.00  0.00    -0.504 OA
ATOM     13  H   UNL     1      31.601   3.290  11.025  1.00  0.00     0.293 HD
ENDBRANCH   6  12
TORSDOF 3
ENDMDL
MODEL 8
REMARK VINA RESULT:    -3.684      7.161      8.184
REMARK INTER + INTRA:          -4.316
REMARK INTER:                  -4.223
REMARK INTRA:                  -0.093
REMARK UNBOUND:                -0.093
REMARK SMILES COc1cc(C(=O)[O-])ccc1O
REMARK SMILES IDX 5 1 9 2 4 3 10 4 3 5 11 6 6 7 7 8 8 9 2 10 1 11 12 12
REMARK H PARENT 12 13
REMARK Flexibility Score: inf
ROOT
ATOM      1  C   UNL     1      19.672   7.202   5.079  1.00  0.00     0.001 A 
ATOM      2  C   UNL     1      18.598   7.968   5.559  1.00  0.00     0.014 A 
ATOM      3  C   UNL     1      19.489   6.414   3.928  1.00  0.00     0.060 A 
ATOM      4  C   UNL     1      17.367   7.949   4.903  1.00  0.00     0.051 A 
ATOM      5  C   UNL     1      18.247   6.391   3.261  1.00  0.00     0.161 A 
ATOM      6  C   UNL     1      17.184   7.166   3.760  1.00  0.00     0.157 A 
ENDROOT
BRANCH   1   7
ATOM      7  C   UNL     1      20.980   7.220   5.772  1.00  0.00     0.072 C 
ATOM      8  O   UNL     1      21.190   6.473   6.763  1.00  0.00    -0.545 OA
ATOM      9  O   UNL     1      21.997   8.063   5.336  1.00  0.00    -0.545 OA
ENDBRANCH   1   7
BRANCH   5  10
ATOM     10  O   UNL     1      18.035   5.613   2.111  1.00  0.00    -0.493 OA
ATOM     11  C   UNL     1      17.654   4.242   2.120  1.00  0.00     0.278 C 
ENDBRANCH   5  10
BRANCH   6  12
ATOM     12  O   UNL     1      15.939   7.173   3.131  1.00  0.00    -0.504 OA
ATOM     13  H   UNL     1      15.836   7.018   2.136  1.00  0.00     0.293 HD
ENDBRANCH   6  12
TORSDOF 3
ENDMDL
