MODEL 1
REMARK VINA RESULT:    -6.409      0.000      0.000
REMARK INTER + INTRA:          -7.703
REMARK INTER:                  -7.533
REMARK INTRA:                  -0.170
REMARK UNBOUND:                -0.170
REMARK SMILES O=c1c(O)c(-c2ccc(O)c(O)c2)oc2cc(O)ccc12
REMARK SMILES IDX 5 1 3 2 2 3 1 4 21 5 15 6 14 7 16 8 17 9 19 10 20 11 6 12
REMARK SMILES IDX 7 13 8 14 9 15 13 16 11 17 10 18 12 20 4 22 18 24
REMARK H PARENT 10 19 12 21 4 23 18 25
REMARK Flexibility Score: inf
ROOT
ATOM      1  C   UNL     1       2.172 -11.551 -32.613  1.00  0.00     0.180 A 
ATOM      2  C   UNL     1       0.991 -10.782 -32.544  1.00  0.00     0.208 A 
ATOM      3  C   UNL     1       0.287 -10.731 -31.332  1.00  0.00     0.235 A 
ATOM      4  O   UNL     1      -0.765 -10.042 -31.242  1.00  0.00    -0.285 OA
ATOM      5  C   UNL     1       0.759 -11.460 -30.228  1.00  0.00     0.069 A 
ATOM      6  C   UNL     1       1.935 -12.224 -30.386  1.00  0.00     0.142 A 
ATOM      7  O   UNL     1       2.577 -12.239 -31.549  1.00  0.00    -0.452 OA
ATOM      8  C   UNL     1       2.432 -12.973 -29.312  1.00  0.00     0.094 A 
ATOM      9  C   UNL     1       1.768 -12.964 -28.078  1.00  0.00     0.119 A 
ATOM     10  C   UNL     1       0.604 -12.205 -27.919  1.00  0.00     0.047 A 
ATOM     11  C   UNL     1       0.098 -11.456 -28.987  1.00  0.00     0.020 A 
ENDROOT
BRANCH   1  12
ATOM     12  C   UNL     1       2.980 -11.640 -33.851  1.00  0.00     0.025 A 
ATOM     13  C   UNL     1       4.290 -11.135 -33.907  1.00  0.00     0.016 A 
ATOM     14  C   UNL     1       5.042 -11.252 -35.078  1.00  0.00     0.051 A 
ATOM     15  C   UNL     1       4.508 -11.886 -36.204  1.00  0.00     0.157 A 
ATOM     16  C   UNL     1       2.452 -12.296 -34.975  1.00  0.00     0.062 A 
ATOM     17  C   UNL     1       3.206 -12.414 -36.152  1.00  0.00     0.158 A 
BRANCH  15  18
ATOM     18  O   UNL     1       5.282 -11.987 -37.359  1.00  0.00    -0.504 OA
ATOM     19  H   UNL     1       4.871 -12.152 -38.269  1.00  0.00     0.293 HD
ENDBRANCH  15  18
BRANCH  17  20
ATOM     20  O   UNL     1       2.668 -13.054 -37.267  1.00  0.00    -0.504 OA
ATOM     21  H   UNL     1       3.204 -13.726 -37.803  1.00  0.00     0.293 HD
ENDBRANCH  17  20
ENDBRANCH   1  12
BRANCH   2  22
ATOM     22  O   UNL     1       0.519 -10.107 -33.673  1.00  0.00    -0.502 OA
ATOM     23  H   UNL     1      -0.467 -10.063 -33.904  1.00  0.00     0.293 HD
ENDBRANCH   2  22
BRANCH   9  24
ATOM     24  O   UNL     1       2.256 -13.705 -27.004  1.00  0.00    -0.508 OA
ATOM     25  H   UNL     1       1.633 -14.173 -26.358  1.00  0.00     0.293 HD
ENDBRANCH   9  24
TORSDOF 5
ENDMDL
MODEL 2
REMARK VINA RESULT:    -6.183      1.494      6.941
REMARK INTER + INTRA:          -7.437
REMARK INTER:                  -7.167
REMARK INTRA:                  -0.270
REMARK UNBOUND:                -0.170
REMARK SMILES O=c1c(O)c(-c2ccc(O)c(O)c2)oc2cc(O)ccc12
REMARK SMILES IDX 5 1 3 2 2 3 1 4 21 5 15 6 14 7 16 8 17 9 19 10 20 11 6 12
REMARK SMILES IDX 7 13 8 14 9 15 13 16 11 17 10 18 12 20 4 22 18 24
REMARK H PARENT 10 19 12 21 4 23 18 25
REMARK Flexibility Score: inf
ROOT
ATOM      1  C   UNL     1       2.695 -11.571 -31.879  1.00  0.00     0.180 A 
ATOM      2  C   UNL     1       3.833 -10.742 -31.955  1.00  0.00     0.208 A 
ATOM      3  C   UNL     1       4.458 -10.564 -33.200  1.00  0.00     0.235 A 
ATOM      4  O   UNL     1       5.471  -9.818 -33.296  1.00  0.00    -0.285 OA
ATOM      5  C   UNL     1       3.950 -11.227 -34.328  1.00  0.00     0.069 A 
ATOM      6  C   UNL     1       2.822 -12.058 -34.163  1.00  0.00     0.142 A 
ATOM      7  O   UNL     1       2.255 -12.194 -32.970  1.00  0.00    -0.452 OA
ATOM      8  C   UNL     1       2.292 -12.745 -35.262  1.00  0.00     0.094 A 
ATOM      9  C   UNL     1       2.877 -12.609 -36.528  1.00  0.00     0.119 A 
ATOM     10  C   UNL     1       3.995 -11.784 -36.694  1.00  0.00     0.047 A 
ATOM     11  C   UNL     1       4.532 -11.095 -35.602  1.00  0.00     0.020 A 
ENDROOT
BRANCH   1  12
ATOM     12  C   UNL     1       1.969 -11.795 -30.607  1.00  0.00     0.025 A 
ATOM     13  C   UNL     1       0.739 -11.168 -30.347  1.00  0.00     0.016 A 
ATOM     14  C   UNL     1       0.061 -11.413 -29.150  1.00  0.00     0.051 A 
ATOM     15  C   UNL     1       0.591 -12.295 -28.203  1.00  0.00     0.157 A 
ATOM     16  C   UNL     1       2.490 -12.696 -29.665  1.00  0.00     0.062 A 
ATOM     17  C   UNL     1       1.811 -12.943 -28.463  1.00  0.00     0.158 A 
BRANCH  15  18
ATOM     18  O   UNL     1      -0.107 -12.519 -27.017  1.00  0.00    -0.504 OA
ATOM     19  H   UNL     1       0.123 -13.282 -26.394  1.00  0.00     0.293 HD
ENDBRANCH  15  18
BRANCH  17  20
ATOM     20  O   UNL     1       2.343 -13.829 -27.527  1.00  0.00    -0.504 OA
ATOM     21  H   UNL     1       3.299 -14.160 -27.593  1.00  0.00     0.293 HD
ENDBRANCH  17  20
ENDBRANCH   1  12
BRANCH   2  22
ATOM     22  O   UNL     1       4.345 -10.134 -30.806  1.00  0.00    -0.502 OA
ATOM     23  H   UNL     1       5.153 -10.497 -30.315  1.00  0.00     0.293 HD
ENDBRANCH   2  22
BRANCH   9  24
ATOM     24  O   UNL     1       2.356 -13.288 -37.628  1.00  0.00    -0.508 OA
ATOM     25  H   UNL     1       2.430 -12.911 -38.565  1.00  0.00     0.293 HD
ENDBRANCH   9  24
TORSDOF 5
ENDMDL
MODEL 3
REMARK VINA RESULT:    -6.168      1.157      2.868
REMARK INTER + INTRA:          -7.419
REMARK INTER:                  -7.169
REMARK INTRA:                  -0.250
REMARK UNBOUND:                -0.170
REMARK SMILES O=c1c(O)c(-c2ccc(O)c(O)c2)oc2cc(O)ccc12
REMARK SMILES IDX 5 1 3 2 2 3 1 4 21 5 15 6 14 7 16 8 17 9 19 10 20 11 6 12
REMARK SMILES IDX 7 13 8 14 9 15 13 16 11 17 10 18 12 20 4 22 18 24
REMARK H PARENT 10 19 12 21 4 23 18 25
REMARK Flexibility Score: inf
ROOT
ATOM      1  C   UNL     1       2.381 -11.692 -32.659  1.00  0.00     0.180 A 
ATOM      2  C   UNL     1       2.879 -12.464 -31.589  1.00  0.00     0.208 A 
ATOM      3  C   UNL     1       2.171 -12.476 -30.377  1.00  0.00     0.235 A 
ATOM      4  O   UNL     1       2.590 -13.167 -29.409  1.00  0.00    -0.285 OA
ATOM      5  C   UNL     1       1.001 -11.709 -30.254  1.00  0.00     0.069 A 
ATOM      6  C   UNL     1       0.582 -10.945 -31.364  1.00  0.00     0.142 A 
ATOM      7  O   UNL     1       1.277 -10.967 -32.496  1.00  0.00    -0.452 OA
ATOM      8  C   UNL     1      -0.573 -10.160 -31.277  1.00  0.00     0.094 A 
ATOM      9  C   UNL     1      -1.318 -10.130 -30.090  1.00  0.00     0.119 A 
ATOM     10  C   UNL     1      -0.906 -10.888 -28.990  1.00  0.00     0.047 A 
ATOM     11  C   UNL     1       0.247 -11.675 -29.067  1.00  0.00     0.020 A 
ENDROOT
BRANCH   1  12
ATOM     12  C   UNL     1       3.061 -11.641 -33.974  1.00  0.00     0.025 A 
ATOM     13  C   UNL     1       4.256 -10.923 -34.152  1.00  0.00     0.016 A 
ATOM     14  C   UNL     1       4.892 -10.909 -35.396  1.00  0.00     0.051 A 
ATOM     15  C   UNL     1       4.357 -11.620 -36.473  1.00  0.00     0.157 A 
ATOM     16  C   UNL     1       2.537 -12.372 -35.051  1.00  0.00     0.062 A 
ATOM     17  C   UNL     1       3.174 -12.359 -36.301  1.00  0.00     0.158 A 
BRANCH  15  18
ATOM     18  O   UNL     1       5.014 -11.587 -37.703  1.00  0.00    -0.504 OA
ATOM     19  H   UNL     1       5.881 -12.083 -37.863  1.00  0.00     0.293 HD
ENDBRANCH  15  18
BRANCH  17  20
ATOM     20  O   UNL     1       2.638 -13.077 -37.368  1.00  0.00    -0.504 OA
ATOM     21  H   UNL     1       1.735 -12.843 -37.765  1.00  0.00     0.293 HD
ENDBRANCH  17  20
ENDBRANCH   1  12
BRANCH   2  22
ATOM     22  O   UNL     1       4.072 -13.178 -31.725  1.00  0.00    -0.502 OA
ATOM     23  H   UNL     1       4.104 -14.106 -32.131  1.00  0.00     0.293 HD
ENDBRANCH   2  22
BRANCH   9  24
ATOM     24  O   UNL     1      -2.470  -9.352 -29.995  1.00  0.00    -0.508 OA
ATOM     25  H   UNL     1      -2.471  -8.467 -29.501  1.00  0.00     0.293 HD
ENDBRANCH   9  24
TORSDOF 5
ENDMDL
MODEL 4
REMARK VINA RESULT:    -6.142      2.477      3.483
REMARK INTER + INTRA:          -7.388
REMARK INTER:                  -7.292
REMARK INTRA:                  -0.096
REMARK UNBOUND:                -0.170
REMARK SMILES O=c1c(O)c(-c2ccc(O)c(O)c2)oc2cc(O)ccc12
REMARK SMILES IDX 5 1 3 2 2 3 1 4 21 5 15 6 14 7 16 8 17 9 19 10 20 11 6 12
REMARK SMILES IDX 7 13 8 14 9 15 13 16 11 17 10 18 12 20 4 22 18 24
REMARK H PARENT 10 19 12 21 4 23 18 25
REMARK Flexibility Score: inf
ROOT
ATOM      1  C   UNL     1       3.086 -11.751 -31.329  1.00  0.00     0.180 A 
ATOM      2  C   UNL     1       2.729 -12.823 -30.484  1.00  0.00     0.208 A 
ATOM      3  C   UNL     1       2.626 -12.590 -29.103  1.00  0.00     0.235 A 
ATOM      4  O   UNL     1       2.298 -13.530 -28.328  1.00  0.00    -0.285 OA
ATOM      5  C   UNL     1       2.900 -11.310 -28.597  1.00  0.00     0.069 A 
ATOM      6  C   UNL     1       3.274 -10.297 -29.506  1.00  0.00     0.142 A 
ATOM      7  O   UNL     1       3.352 -10.556 -30.807  1.00  0.00    -0.452 OA
ATOM      8  C   UNL     1       3.565  -9.010 -29.039  1.00  0.00     0.094 A 
ATOM      9  C   UNL     1       3.485  -8.721 -27.670  1.00  0.00     0.119 A 
ATOM     10  C   UNL     1       3.111  -9.723 -26.768  1.00  0.00     0.047 A 
ATOM     11  C   UNL     1       2.821 -11.012 -27.225  1.00  0.00     0.020 A 
ENDROOT
BRANCH   1  12
ATOM     12  C   UNL     1       3.197 -11.912 -32.797  1.00  0.00     0.025 A 
ATOM     13  C   UNL     1       2.119 -12.385 -33.564  1.00  0.00     0.016 A 
ATOM     14  C   UNL     1       2.239 -12.505 -34.951  1.00  0.00     0.051 A 
ATOM     15  C   UNL     1       3.427 -12.143 -35.593  1.00  0.00     0.157 A 
ATOM     16  C   UNL     1       4.381 -11.528 -33.446  1.00  0.00     0.062 A 
ATOM     17  C   UNL     1       4.504 -11.648 -34.837  1.00  0.00     0.158 A 
BRANCH  15  18
ATOM     18  O   UNL     1       3.518 -12.275 -36.978  1.00  0.00    -0.504 OA
ATOM     19  H   UNL     1       4.369 -12.579 -37.435  1.00  0.00     0.293 HD
ENDBRANCH  15  18
BRANCH  17  20
ATOM     20  O   UNL     1       5.689 -11.278 -35.471  1.00  0.00    -0.504 OA
ATOM     21  H   UNL     1       6.042 -10.329 -35.423  1.00  0.00     0.293 HD
ENDBRANCH  17  20
ENDBRANCH   1  12
BRANCH   2  22
ATOM     22  O   UNL     1       2.510 -14.098 -31.011  1.00  0.00    -0.502 OA
ATOM     23  H   UNL     1       1.629 -14.364 -31.436  1.00  0.00     0.293 HD
ENDBRANCH   2  22
BRANCH   9  24
ATOM     24  O   UNL     1       3.771  -7.442 -27.196  1.00  0.00    -0.508 OA
ATOM     25  H   UNL     1       4.625  -7.246 -26.688  1.00  0.00     0.293 HD
ENDBRANCH   9  24
TORSDOF 5
ENDMDL
MODEL 5
REMARK VINA RESULT:    -6.023      2.268      7.135
REMARK INTER + INTRA:          -7.249
REMARK INTER:                  -7.048
REMARK INTRA:                  -0.200
REMARK UNBOUND:                -0.170
REMARK SMILES O=c1c(O)c(-c2ccc(O)c(O)c2)oc2cc(O)ccc12
REMARK SMILES IDX 5 1 3 2 2 3 1 4 21 5 15 6 14 7 16 8 17 9 19 10 20 11 6 12
REMARK SMILES IDX 7 13 8 14 9 15 13 16 11 17 10 18 12 20 4 22 18 24
REMARK H PARENT 10 19 12 21 4 23 18 25
REMARK Flexibility Score: inf
ROOT
ATOM      1  C   UNL     1       2.267 -11.897 -29.351  1.00  0.00     0.180 A 
ATOM      2  C   UNL     1       0.941 -11.845 -29.830  1.00  0.00     0.208 A 
ATOM      3  C   UNL     1       0.723 -11.818 -31.216  1.00  0.00     0.235 A 
ATOM      4  O   UNL     1      -0.453 -11.782 -31.669  1.00  0.00    -0.285 OA
ATOM      5  C   UNL     1       1.824 -11.823 -32.088  1.00  0.00     0.069 A 
ATOM      6  C   UNL     1       3.120 -11.852 -31.529  1.00  0.00     0.142 A 
ATOM      7  O   UNL     1       3.283 -11.885 -30.211  1.00  0.00    -0.452 OA
ATOM      8  C   UNL     1       4.243 -11.848 -32.365  1.00  0.00     0.094 A 
ATOM      9  C   UNL     1       4.086 -11.817 -33.757  1.00  0.00     0.119 A 
ATOM     10  C   UNL     1       2.803 -11.790 -34.313  1.00  0.00     0.047 A 
ATOM     11  C   UNL     1       1.675 -11.793 -33.486  1.00  0.00     0.020 A 
ENDROOT
BRANCH   1  12
ATOM     12  C   UNL     1       2.579 -11.946 -27.904  1.00  0.00     0.025 A 
ATOM     13  C   UNL     1       2.230 -13.058 -27.118  1.00  0.00     0.016 A 
ATOM     14  C   UNL     1       2.555 -13.092 -25.760  1.00  0.00     0.051 A 
ATOM     15  C   UNL     1       3.244 -12.028 -25.169  1.00  0.00     0.157 A 
ATOM     16  C   UNL     1       3.289 -10.889 -27.314  1.00  0.00     0.062 A 
ATOM     17  C   UNL     1       3.617 -10.921 -25.951  1.00  0.00     0.158 A 
BRANCH  15  18
ATOM     18  O   UNL     1       3.555 -12.090 -23.811  1.00  0.00    -0.504 OA
ATOM     19  H   UNL     1       4.115 -12.837 -23.421  1.00  0.00     0.293 HD
ENDBRANCH  15  18
BRANCH  17  20
ATOM     20  O   UNL     1       4.310  -9.860 -25.372  1.00  0.00    -0.504 OA
ATOM     21  H   UNL     1       4.002  -9.435 -24.505  1.00  0.00     0.293 HD
ENDBRANCH  17  20
ENDBRANCH   1  12
BRANCH   2  22
ATOM     22  O   UNL     1      -0.132 -11.791 -28.937  1.00  0.00    -0.502 OA
ATOM     23  H   UNL     1      -0.714 -10.967 -28.839  1.00  0.00     0.293 HD
ENDBRANCH   2  22
BRANCH   9  24
ATOM     24  O   UNL     1       5.198 -11.813 -34.596  1.00  0.00    -0.508 OA
ATOM     25  H   UNL     1       5.512 -10.966 -35.055  1.00  0.00     0.293 HD
ENDBRANCH   9  24
TORSDOF 5
ENDMDL
MODEL 6
REMARK VINA RESULT:    -5.944      2.378      2.894
REMARK INTER + INTRA:          -7.156
REMARK INTER:                  -6.855
REMARK INTRA:                  -0.301
REMARK UNBOUND:                -0.170
REMARK SMILES O=c1c(O)c(-c2ccc(O)c(O)c2)oc2cc(O)ccc12
REMARK SMILES IDX 5 1 3 2 2 3 1 4 21 5 15 6 14 7 16 8 17 9 19 10 20 11 6 12
REMARK SMILES IDX 7 13 8 14 9 15 13 16 11 17 10 18 12 20 4 22 18 24
REMARK H PARENT 10 19 12 21 4 23 18 25
REMARK Flexibility Score: inf
ROOT
ATOM      1  C   UNL     1       3.248 -11.138 -32.318  1.00  0.00     0.180 A 
ATOM      2  C   UNL     1       2.531 -12.347 -32.440  1.00  0.00     0.208 A 
ATOM      3  C   UNL     1       2.115 -13.008 -31.274  1.00  0.00     0.235 A 
ATOM      4  O   UNL     1       1.463 -14.085 -31.357  1.00  0.00    -0.285 OA
ATOM      5  C   UNL     1       2.438 -12.464 -30.020  1.00  0.00     0.069 A 
ATOM      6  C   UNL     1       3.178 -11.263 -29.983  1.00  0.00     0.142 A 
ATOM      7  O   UNL     1       3.546 -10.665 -31.110  1.00  0.00    -0.452 OA
ATOM      8  C   UNL     1       3.528 -10.695 -28.752  1.00  0.00     0.094 A 
ATOM      9  C   UNL     1       3.143 -11.313 -27.555  1.00  0.00     0.119 A 
ATOM     10  C   UNL     1       2.407 -12.502 -27.590  1.00  0.00     0.047 A 
ATOM     11  C   UNL     1       2.055 -13.078 -28.814  1.00  0.00     0.020 A 
ENDROOT
BRANCH   1  12
ATOM     12  C   UNL     1       3.705 -10.373 -33.500  1.00  0.00     0.025 A 
ATOM     13  C   UNL     1       2.983  -9.267 -33.980  1.00  0.00     0.016 A 
ATOM     14  C   UNL     1       3.447  -8.546 -35.083  1.00  0.00     0.051 A 
ATOM     15  C   UNL     1       4.642  -8.906 -35.713  1.00  0.00     0.157 A 
ATOM     16  C   UNL     1       4.916 -10.720 -34.120  1.00  0.00     0.062 A 
ATOM     17  C   UNL     1       5.383  -9.997 -35.228  1.00  0.00     0.158 A 
BRANCH  15  18
ATOM     18  O   UNL     1       5.080  -8.168 -36.812  1.00  0.00    -0.504 OA
ATOM     19  H   UNL     1       6.056  -7.942 -36.954  1.00  0.00     0.293 HD
ENDBRANCH  15  18
BRANCH  17  20
ATOM     20  O   UNL     1       6.580 -10.358 -35.846  1.00  0.00    -0.504 OA
ATOM     21  H   UNL     1       7.325  -9.687 -35.991  1.00  0.00     0.293 HD
ENDBRANCH  17  20
ENDBRANCH   1  12
BRANCH   2  22
ATOM     22  O   UNL     1       2.268 -12.890 -33.700  1.00  0.00    -0.502 OA
ATOM     23  H   UNL     1       1.696 -12.411 -34.387  1.00  0.00     0.293 HD
ENDBRANCH   2  22
BRANCH   9  24
ATOM     24  O   UNL     1       3.486 -10.754 -26.325  1.00  0.00    -0.508 OA
ATOM     25  H   UNL     1       3.453  -9.753 -26.172  1.00  0.00     0.293 HD
ENDBRANCH   9  24
TORSDOF 5
ENDMDL
MODEL 7
REMARK VINA RESULT:    -5.897      3.809      6.431
REMARK INTER + INTRA:          -7.100
REMARK INTER:                  -6.931
REMARK INTRA:                  -0.170
REMARK UNBOUND:                -0.170
REMARK SMILES O=c1c(O)c(-c2ccc(O)c(O)c2)oc2cc(O)ccc12
REMARK SMILES IDX 5 1 3 2 2 3 1 4 21 5 15 6 14 7 16 8 17 9 19 10 20 11 6 12
REMARK SMILES IDX 7 13 8 14 9 15 13 16 11 17 10 18 12 20 4 22 18 24
REMARK H PARENT 10 19 12 21 4 23 18 25
REMARK Flexibility Score: inf
ROOT
ATOM      1  C   UNL     1       2.503 -11.828 -26.678  1.00  0.00     0.180 A 
ATOM      2  C   UNL     1       1.441 -12.331 -25.899  1.00  0.00     0.208 A 
ATOM      3  C   UNL     1       1.558 -12.307 -24.500  1.00  0.00     0.235 A 
ATOM      4  O   UNL     1       0.617 -12.741 -23.781  1.00  0.00    -0.285 OA
ATOM      5  C   UNL     1       2.731 -11.805 -23.914  1.00  0.00     0.069 A 
ATOM      6  C   UNL     1       3.758 -11.342 -24.765  1.00  0.00     0.142 A 
ATOM      7  O   UNL     1       3.604 -11.375 -26.084  1.00  0.00    -0.452 OA
ATOM      8  C   UNL     1       4.947 -10.844 -24.219  1.00  0.00     0.094 A 
ATOM      9  C   UNL     1       5.121 -10.800 -22.829  1.00  0.00     0.119 A 
ATOM     10  C   UNL     1       4.104 -11.256 -21.985  1.00  0.00     0.047 A 
ATOM     11  C   UNL     1       2.913 -11.757 -22.520  1.00  0.00     0.020 A 
ENDROOT
BRANCH   1  12
ATOM     12  C   UNL     1       2.448 -11.802 -28.158  1.00  0.00     0.025 A 
ATOM     13  C   UNL     1       2.445 -10.589 -28.869  1.00  0.00     0.016 A 
ATOM     14  C   UNL     1       2.417 -10.590 -30.265  1.00  0.00     0.051 A 
ATOM     15  C   UNL     1       2.407 -11.796 -30.973  1.00  0.00     0.157 A 
ATOM     16  C   UNL     1       2.460 -13.011 -28.871  1.00  0.00     0.062 A 
ATOM     17  C   UNL     1       2.431 -13.014 -30.273  1.00  0.00     0.158 A 
BRANCH  15  18
ATOM     18  O   UNL     1       2.378 -11.765 -32.367  1.00  0.00    -0.504 OA
ATOM     19  H   UNL     1       1.714 -11.197 -32.879  1.00  0.00     0.293 HD
ENDBRANCH  15  18
BRANCH  17  20
ATOM     20  O   UNL     1       2.428 -14.220 -30.971  1.00  0.00    -0.504 OA
ATOM     21  H   UNL     1       2.154 -14.269 -31.945  1.00  0.00     0.293 HD
ENDBRANCH  17  20
ENDBRANCH   1  12
BRANCH   2  22
ATOM     22  O   UNL     1       0.306 -12.869 -26.511  1.00  0.00    -0.502 OA
ATOM     23  H   UNL     1      -0.587 -12.934 -26.036  1.00  0.00     0.293 HD
ENDBRANCH   2  22
BRANCH   9  24
ATOM     24  O   UNL     1       6.301 -10.305 -22.277  1.00  0.00    -0.508 OA
ATOM     25  H   UNL     1       6.290  -9.574 -21.576  1.00  0.00     0.293 HD
ENDBRANCH   9  24
TORSDOF 5
ENDMDL
MODEL 8
REMARK VINA RESULT:    -5.868      2.766      4.308
REMARK INTER + INTRA:          -7.066
REMARK INTER:                  -6.762
REMARK INTRA:                  -0.304
REMARK UNBOUND:                -0.170
REMARK SMILES O=c1c(O)c(-c2ccc(O)c(O)c2)oc2cc(O)ccc12
REMARK SMILES IDX 5 1 3 2 2 3 1 4 21 5 15 6 14 7 16 8 17 9 19 10 20 11 6 12
REMARK SMILES IDX 7 13 8 14 9 15 13 16 11 17 10 18 12 20 4 22 18 24
REMARK H PARENT 10 19 12 21 4 23 18 25
REMARK Flexibility Score: inf
ROOT
ATOM      1  C   UNL     1       2.049 -12.115 -28.678  1.00  0.00     0.180 A 
ATOM      2  C   UNL     1       0.668 -11.825 -28.675  1.00  0.00     0.208 A 
ATOM      3  C   UNL     1      -0.024 -11.843 -27.454  1.00  0.00     0.235 A 
ATOM      4  O   UNL     1      -1.256 -11.576 -27.423  1.00  0.00    -0.285 OA
ATOM      5  C   UNL     1       0.665 -12.167 -26.274  1.00  0.00     0.069 A 
ATOM      6  C   UNL     1       2.041 -12.469 -26.365  1.00  0.00     0.142 A 
ATOM      7  O   UNL     1       2.661 -12.432 -27.540  1.00  0.00    -0.452 OA
ATOM      8  C   UNL     1       2.761 -12.807 -25.213  1.00  0.00     0.094 A 
ATOM      9  C   UNL     1       2.121 -12.845 -23.967  1.00  0.00     0.119 A 
ATOM     10  C   UNL     1       0.758 -12.544 -23.875  1.00  0.00     0.047 A 
ATOM     11  C   UNL     1       0.030 -12.207 -25.020  1.00  0.00     0.020 A 
ENDROOT
BRANCH   1  12
ATOM     12  C   UNL     1       2.852 -12.099 -29.922  1.00  0.00     0.025 A 
ATOM     13  C   UNL     1       2.891 -13.210 -30.782  1.00  0.00     0.016 A 
ATOM     14  C   UNL     1       3.636 -13.162 -31.962  1.00  0.00     0.051 A 
ATOM     15  C   UNL     1       4.341 -12.006 -32.309  1.00  0.00     0.157 A 
ATOM     16  C   UNL     1       3.543 -10.931 -30.283  1.00  0.00     0.062 A 
ATOM     17  C   UNL     1       4.292 -10.882 -31.467  1.00  0.00     0.158 A 
BRANCH  15  18
ATOM     18  O   UNL     1       5.078 -11.989 -33.493  1.00  0.00    -0.504 OA
ATOM     19  H   UNL     1       4.655 -12.183 -34.392  1.00  0.00     0.293 HD
ENDBRANCH  15  18
BRANCH  17  20
ATOM     20  O   UNL     1       4.986  -9.723 -31.809  1.00  0.00    -0.504 OA
ATOM     21  H   UNL     1       5.228  -9.025 -31.116  1.00  0.00     0.293 HD
ENDBRANCH  17  20
ENDBRANCH   1  12
BRANCH   2  22
ATOM     22  O   UNL     1      -0.001 -11.553 -29.871  1.00  0.00    -0.502 OA
ATOM     23  H   UNL     1      -0.586 -12.241 -30.331  1.00  0.00     0.293 HD
ENDBRANCH   2  22
BRANCH   9  24
ATOM     24  O   UNL     1       2.830 -13.180 -22.815  1.00  0.00    -0.508 OA
ATOM     25  H   UNL     1       3.121 -12.473 -22.150  1.00  0.00     0.293 HD
ENDBRANCH   9  24
TORSDOF 5
ENDMDL
MODEL 9
REMARK VINA RESULT:    -5.777      1.918      7.087
REMARK INTER + INTRA:          -6.959
REMARK INTER:                  -6.695
REMARK INTRA:                  -0.265
REMARK UNBOUND:                -0.170
REMARK SMILES O=c1c(O)c(-c2ccc(O)c(O)c2)oc2cc(O)ccc12
REMARK SMILES IDX 5 1 3 2 2 3 1 4 21 5 15 6 14 7 16 8 17 9 19 10 20 11 6 12
REMARK SMILES IDX 7 13 8 14 9 15 13 16 11 17 10 18 12 20 4 22 18 24
REMARK H PARENT 10 19 12 21 4 23 18 25
REMARK Flexibility Score: inf
ROOT
ATOM      1  C   UNL     1       2.631 -11.663 -30.315  1.00  0.00     0.180 A 
ATOM      2  C   UNL     1       3.725 -10.782 -30.180  1.00  0.00     0.208 A 
ATOM      3  C   UNL     1       4.437 -10.406 -31.329  1.00  0.00     0.235 A 
ATOM      4  O   UNL     1       5.412  -9.611 -31.235  1.00  0.00    -0.285 OA
ATOM      5  C   UNL     1       4.060 -10.929 -32.576  1.00  0.00     0.069 A 
ATOM      6  C   UNL     1       2.970 -11.823 -32.624  1.00  0.00     0.142 A 
ATOM      7  O   UNL     1       2.316 -12.147 -31.514  1.00  0.00    -0.452 OA
ATOM      8  C   UNL     1       2.569 -12.374 -33.848  1.00  0.00     0.094 A 
ATOM      9  C   UNL     1       3.247 -12.038 -35.028  1.00  0.00     0.119 A 
ATOM     10  C   UNL     1       4.327 -11.150 -34.983  1.00  0.00     0.047 A 
ATOM     11  C   UNL     1       4.735 -10.597 -33.765  1.00  0.00     0.020 A 
ENDROOT
BRANCH   1  12
ATOM     12  C   UNL     1       1.819 -12.091 -29.154  1.00  0.00     0.025 A 
ATOM     13  C   UNL     1       2.292 -13.054 -28.246  1.00  0.00     0.016 A 
ATOM     14  C   UNL     1       1.518 -13.425 -27.144  1.00  0.00     0.051 A 
ATOM     15  C   UNL     1       0.271 -12.834 -26.922  1.00  0.00     0.157 A 
ATOM     16  C   UNL     1       0.576 -11.483 -28.918  1.00  0.00     0.062 A 
ATOM     17  C   UNL     1      -0.202 -11.854 -27.812  1.00  0.00     0.158 A 
BRANCH  15  18
ATOM     18  O   UNL     1      -0.479 -13.225 -25.814  1.00  0.00    -0.504 OA
ATOM     19  H   UNL     1      -1.474 -13.405 -25.874  1.00  0.00     0.293 HD
ENDBRANCH  15  18
BRANCH  17  20
ATOM     20  O   UNL     1      -1.441 -11.254 -27.594  1.00  0.00    -0.504 OA
ATOM     21  H   UNL     1      -1.563 -10.525 -26.902  1.00  0.00     0.293 HD
ENDBRANCH  17  20
ENDBRANCH   1  12
BRANCH   2  22
ATOM     22  O   UNL     1       4.107 -10.317 -28.919  1.00  0.00    -0.502 OA
ATOM     23  H   UNL     1       5.079 -10.211 -28.653  1.00  0.00     0.293 HD
ENDBRANCH   2  22
BRANCH   9  24
ATOM     24  O   UNL     1       2.855 -12.581 -36.250  1.00  0.00    -0.508 OA
ATOM     25  H   UNL     1       2.876 -12.034 -37.102  1.00  0.00     0.293 HD
ENDBRANCH   9  24
TORSDOF 5
ENDMDL
