MODEL 1
REMARK VINA RESULT:    -4.156      0.000      0.000
REMARK INTER + INTRA:          -4.771
REMARK INTER:                  -4.520
REMARK INTRA:                  -0.251
REMARK UNBOUND:                -0.251
REMARK SMILES O=C([O-])c1ccccc1O
REMARK SMILES IDX 4 1 9 2 5 3 8 4 6 5 7 6 2 7 1 8 3 9 10 10
REMARK H PARENT 10 11
REMARK Flexibility Score: inf
ROOT
ATOM      1  C   UNL     1     -10.004  21.951   7.381  1.00  0.00     0.039 A 
ATOM      2  C   UNL     1     -10.326  23.266   6.953  1.00  0.00     0.124 A 
ATOM      3  C   UNL     1     -10.739  20.869   6.863  1.00  0.00     0.014 A 
ATOM      4  C   UNL     1     -11.401  23.465   6.079  1.00  0.00     0.047 A 
ATOM      5  C   UNL     1     -11.796  21.085   5.975  1.00  0.00     0.001 A 
ATOM      6  C   UNL     1     -12.133  22.382   5.592  1.00  0.00     0.004 A 
ENDROOT
BRANCH   1   7
ATOM      7  C   UNL     1      -8.947  21.668   8.376  1.00  0.00     0.075 C 
ATOM      8  O   UNL     1      -9.088  20.752   9.229  1.00  0.00    -0.545 OA
ATOM      9  O   UNL     1      -7.749  22.372   8.338  1.00  0.00    -0.545 OA
ENDBRANCH   1   7
BRANCH   2  10
ATOM     10  O   UNL     1      -9.588  24.388   7.340  1.00  0.00    -0.507 OA
ATOM     11  H   UNL     1      -9.906  25.338   7.209  1.00  0.00     0.293 HD
ENDBRANCH   2  10
TORSDOF 2
ENDMDL
MODEL 2
REMARK VINA RESULT:    -4.114      1.588      3.443
REMARK INTER + INTRA:          -4.727
REMARK INTER:                  -4.475
REMARK INTRA:                  -0.252
REMARK UNBOUND:                -0.251
REMARK SMILES O=C([O-])c1ccccc1O
REMARK SMILES IDX 4 1 9 2 5 3 8 4 6 5 7 6 2 7 1 8 3 9 10 10
REMARK H PARENT 10 11
REMARK Flexibility Score: inf
ROOT
ATOM      1  C   UNL     1     -10.268  22.056   7.736  1.00  0.00     0.039 A 
ATOM      2  C   UNL     1      -8.927  22.060   8.201  1.00  0.00     0.124 A 
ATOM      3  C   UNL     1     -11.167  21.109   8.262  1.00  0.00     0.014 A 
ATOM      4  C   UNL     1      -8.511  21.089   9.120  1.00  0.00     0.047 A 
ATOM      5  C   UNL     1     -10.740  20.161   9.194  1.00  0.00     0.001 A 
ATOM      6  C   UNL     1      -9.411  20.145   9.614  1.00  0.00     0.004 A 
ENDROOT
BRANCH   1   7
ATOM      7  C   UNL     1     -10.759  22.986   6.695  1.00  0.00     0.075 C 
ATOM      8  O   UNL     1     -11.577  22.603   5.818  1.00  0.00    -0.545 OA
ATOM      9  O   UNL     1     -10.369  24.320   6.715  1.00  0.00    -0.545 OA
ENDBRANCH   1   7
BRANCH   2  10
ATOM     10  O   UNL     1      -7.994  23.022   7.807  1.00  0.00    -0.507 OA
ATOM     11  H   UNL     1      -7.160  22.807   7.280  1.00  0.00     0.293 HD
ENDBRANCH   2  10
TORSDOF 2
ENDMDL
MODEL 3
REMARK VINA RESULT:    -3.857      2.186      3.661
REMARK INTER + INTRA:          -4.447
REMARK INTER:                  -4.195
REMARK INTRA:                  -0.251
REMARK UNBOUND:                -0.251
REMARK SMILES O=C([O-])c1ccccc1O
REMARK SMILES IDX 4 1 9 2 5 3 8 4 6 5 7 6 2 7 1 8 3 9 10 10
REMARK H PARENT 10 11
REMARK Flexibility Score: inf
ROOT
ATOM      1  C   UNL     1     -10.801  21.415   8.262  1.00  0.00     0.039 A 
ATOM      2  C   UNL     1      -9.752  22.155   7.654  1.00  0.00     0.124 A 
ATOM      3  C   UNL     1     -10.501  20.593   9.363  1.00  0.00     0.014 A 
ATOM      4  C   UNL     1      -8.440  22.005   8.118  1.00  0.00     0.047 A 
ATOM      5  C   UNL     1      -9.189  20.471   9.827  1.00  0.00     0.001 A 
ATOM      6  C   UNL     1      -8.159  21.168   9.199  1.00  0.00     0.004 A 
ENDROOT
BRANCH   1   7
ATOM      7  C   UNL     1     -12.194  21.445   7.767  1.00  0.00     0.075 C 
ATOM      8  O   UNL     1     -12.880  20.391   7.698  1.00  0.00    -0.545 OA
ATOM      9  O   UNL     1     -12.788  22.656   7.434  1.00  0.00    -0.545 OA
ENDBRANCH   1   7
BRANCH   2  10
ATOM     10  O   UNL     1      -9.974  23.067   6.619  1.00  0.00    -0.507 OA
ATOM     11  H   UNL     1      -9.237  23.444   6.040  1.00  0.00     0.293 HD
ENDBRANCH   2  10
TORSDOF 2
ENDMDL
MODEL 4
REMARK VINA RESULT:    -3.806      7.343      8.752
REMARK INTER + INTRA:          -4.391
REMARK INTER:                  -4.141
REMARK INTRA:                  -0.251
REMARK UNBOUND:                -0.251
REMARK SMILES O=C([O-])c1ccccc1O
REMARK SMILES IDX 4 1 9 2 5 3 8 4 6 5 7 6 2 7 1 8 3 9 10 10
REMARK H PARENT 10 11
REMARK Flexibility Score: inf
ROOT
ATOM      1  C   UNL     1     -12.376  14.810  10.483  1.00  0.00     0.039 A 
ATOM      2  C   UNL     1     -12.655  13.984   9.362  1.00  0.00     0.124 A 
ATOM      3  C   UNL     1     -12.458  16.207  10.334  1.00  0.00     0.014 A 
ATOM      4  C   UNL     1     -12.942  14.572   8.124  1.00  0.00     0.047 A 
ATOM      5  C   UNL     1     -12.766  16.776   9.096  1.00  0.00     0.001 A 
ATOM      6  C   UNL     1     -12.998  15.959   7.991  1.00  0.00     0.004 A 
ENDROOT
BRANCH   1   7
ATOM      7  C   UNL     1     -11.969  14.268  11.798  1.00  0.00     0.075 C 
ATOM      8  O   UNL     1     -11.032  14.794  12.454  1.00  0.00    -0.545 OA
ATOM      9  O   UNL     1     -12.667  13.204  12.357  1.00  0.00    -0.545 OA
ENDBRANCH   1   7
BRANCH   2  10
ATOM     10  O   UNL     1     -12.691  12.590   9.443  1.00  0.00    -0.507 OA
ATOM     11  H   UNL     1     -11.931  11.994   9.147  1.00  0.00     0.293 HD
ENDBRANCH   2  10
TORSDOF 2
ENDMDL
MODEL 5
REMARK VINA RESULT:    -3.799      1.982      3.883
REMARK INTER + INTRA:          -4.384
REMARK INTER:                  -4.135
REMARK INTRA:                  -0.248
REMARK UNBOUND:                -0.251
REMARK SMILES O=C([O-])c1ccccc1O
REMARK SMILES IDX 4 1 9 2 5 3 8 4 6 5 7 6 2 7 1 8 3 9 10 10
REMARK H PARENT 10 11
REMARK Flexibility Score: inf
ROOT
ATOM      1  C   UNL     1     -10.259  22.015   7.727  1.00  0.00     0.039 A 
ATOM      2  C   UNL     1     -11.051  21.173   8.552  1.00  0.00     0.124 A 
ATOM      3  C   UNL     1      -8.865  22.037   7.919  1.00  0.00     0.014 A 
ATOM      4  C   UNL     1     -10.442  20.434   9.574  1.00  0.00     0.047 A 
ATOM      5  C   UNL     1      -8.272  21.278   8.930  1.00  0.00     0.001 A 
ATOM      6  C   UNL     1      -9.061  20.485   9.763  1.00  0.00     0.004 A 
ENDROOT
BRANCH   1   7
ATOM      7  C   UNL     1     -10.838  22.899   6.692  1.00  0.00     0.075 C 
ATOM      8  O   UNL     1     -11.701  22.469   5.882  1.00  0.00    -0.545 OA
ATOM      9  O   UNL     1     -10.483  24.242   6.647  1.00  0.00    -0.545 OA
ENDBRANCH   1   7
BRANCH   2  10
ATOM     10  O   UNL     1     -12.427  21.015   8.369  1.00  0.00    -0.507 OA
ATOM     11  H   UNL     1     -12.885  21.104   7.473  1.00  0.00     0.293 HD
ENDBRANCH   2  10
TORSDOF 2
ENDMDL
MODEL 6
REMARK VINA RESULT:    -3.763      1.697      3.516
REMARK INTER + INTRA:          -4.344
REMARK INTER:                  -4.094
REMARK INTRA:                  -0.250
REMARK UNBOUND:                -0.251
REMARK SMILES O=C([O-])c1ccccc1O
REMARK SMILES IDX 4 1 9 2 5 3 8 4 6 5 7 6 2 7 1 8 3 9 10 10
REMARK H PARENT 10 11
REMARK Flexibility Score: inf
ROOT
ATOM      1  C   UNL     1     -11.192  23.101   6.082  1.00  0.00     0.039 A 
ATOM      2  C   UNL     1     -10.136  23.209   7.025  1.00  0.00     0.124 A 
ATOM      3  C   UNL     1     -11.801  21.848   5.886  1.00  0.00     0.014 A 
ATOM      4  C   UNL     1      -9.682  22.064   7.690  1.00  0.00     0.047 A 
ATOM      5  C   UNL     1     -11.349  20.719   6.574  1.00  0.00     0.001 A 
ATOM      6  C   UNL     1     -10.284  20.826   7.467  1.00  0.00     0.004 A 
ENDROOT
BRANCH   1   7
ATOM      7  C   UNL     1     -11.661  24.244   5.269  1.00  0.00     0.075 C 
ATOM      8  O   UNL     1     -12.890  24.482   5.135  1.00  0.00    -0.545 OA
ATOM      9  O   UNL     1     -10.741  25.113   4.695  1.00  0.00    -0.545 OA
ENDBRANCH   1   7
BRANCH   2  10
ATOM     10  O   UNL     1      -9.539  24.429   7.353  1.00  0.00    -0.507 OA
ATOM     11  H   UNL     1      -8.624  24.708   7.029  1.00  0.00     0.293 HD
ENDBRANCH   2  10
TORSDOF 2
ENDMDL
MODEL 7
REMARK VINA RESULT:    -3.716      6.163      7.453
REMARK INTER + INTRA:          -4.294
REMARK INTER:                  -4.047
REMARK INTRA:                  -0.247
REMARK UNBOUND:                -0.251
REMARK SMILES O=C([O-])c1ccccc1O
REMARK SMILES IDX 4 1 9 2 5 3 8 4 6 5 7 6 2 7 1 8 3 9 10 10
REMARK H PARENT 10 11
REMARK Flexibility Score: inf
ROOT
ATOM      1  C   UNL     1     -12.260  16.302  10.912  1.00  0.00     0.039 A 
ATOM      2  C   UNL     1     -11.946  16.952   9.689  1.00  0.00     0.124 A 
ATOM      3  C   UNL     1     -12.566  17.087  12.039  1.00  0.00     0.014 A 
ATOM      4  C   UNL     1     -11.886  18.350   9.645  1.00  0.00     0.047 A 
ATOM      5  C   UNL     1     -12.522  18.481  11.971  1.00  0.00     0.001 A 
ATOM      6  C   UNL     1     -12.173  19.111  10.778  1.00  0.00     0.004 A 
ENDROOT
BRANCH   1   7
ATOM      7  C   UNL     1     -12.247  14.831  11.064  1.00  0.00     0.075 C 
ATOM      8  O   UNL     1     -12.647  14.080  10.136  1.00  0.00    -0.545 OA
ATOM      9  O   UNL     1     -11.726  14.256  12.217  1.00  0.00    -0.545 OA
ENDBRANCH   1   7
BRANCH   2  10
ATOM     10  O   UNL     1     -11.723  16.255   8.499  1.00  0.00    -0.507 OA
ATOM     11  H   UNL     1     -11.281  15.347   8.458  1.00  0.00     0.293 HD
ENDBRANCH   2  10
TORSDOF 2
ENDMDL
MODEL 8
REMARK VINA RESULT:    -3.659      2.807      3.880
REMARK INTER + INTRA:          -4.232
REMARK INTER:                  -4.000
REMARK INTRA:                  -0.231
REMARK UNBOUND:                -0.251
REMARK SMILES O=C([O-])c1ccccc1O
REMARK SMILES IDX 4 1 9 2 5 3 8 4 6 5 7 6 2 7 1 8 3 9 10 10
REMARK H PARENT 10 11
REMARK Flexibility Score: inf
ROOT
ATOM      1  C   UNL     1     -10.582  20.488   9.580  1.00  0.00     0.039 A 
ATOM      2  C   UNL     1     -11.024  21.208   8.439  1.00  0.00     0.124 A 
ATOM      3  C   UNL     1      -9.210  20.482   9.890  1.00  0.00     0.014 A 
ATOM      4  C   UNL     1     -10.085  21.842   7.615  1.00  0.00     0.047 A 
ATOM      5  C   UNL     1      -8.290  21.137   9.069  1.00  0.00     0.001 A 
ATOM      6  C   UNL     1      -8.726  21.808   7.927  1.00  0.00     0.004 A 
ENDROOT
BRANCH   1   7
ATOM      7  C   UNL     1     -11.500  19.712  10.443  1.00  0.00     0.075 C 
ATOM      8  O   UNL     1     -12.297  18.872   9.950  1.00  0.00    -0.545 OA
ATOM      9  O   UNL     1     -11.443  19.856  11.824  1.00  0.00    -0.545 OA
ENDBRANCH   1   7
BRANCH   2  10
ATOM     10  O   UNL     1     -12.375  21.348   8.110  1.00  0.00    -0.507 OA
ATOM     11  H   UNL     1     -13.072  21.699   8.751  1.00  0.00     0.293 HD
ENDBRANCH   2  10
TORSDOF 2
ENDMDL
MODEL 9
REMARK VINA RESULT:    -3.641      7.927      9.495
REMARK INTER + INTRA:          -4.211
REMARK INTER:                  -3.995
REMARK INTRA:                  -0.216
REMARK UNBOUND:                -0.251
REMARK SMILES O=C([O-])c1ccccc1O
REMARK SMILES IDX 4 1 9 2 5 3 8 4 6 5 7 6 2 7 1 8 3 9 10 10
REMARK H PARENT 10 11
REMARK Flexibility Score: inf
ROOT
ATOM      1  C   UNL     1     -12.609  14.638   9.851  1.00  0.00     0.039 A 
ATOM      2  C   UNL     1     -13.015  13.277   9.816  1.00  0.00     0.124 A 
ATOM      3  C   UNL     1     -12.183  15.188  11.074  1.00  0.00     0.014 A 
ATOM      4  C   UNL     1     -13.043  12.534  11.003  1.00  0.00     0.047 A 
ATOM      5  C   UNL     1     -12.197  14.426  12.244  1.00  0.00     0.001 A 
ATOM      6  C   UNL     1     -12.637  13.103  12.209  1.00  0.00     0.004 A 
ENDROOT
BRANCH   1   7
ATOM      7  C   UNL     1     -12.645  15.516   8.661  1.00  0.00     0.075 C 
ATOM      8  O   UNL     1     -13.140  15.115   7.575  1.00  0.00    -0.545 OA
ATOM      9  O   UNL     1     -12.191  16.826   8.750  1.00  0.00    -0.545 OA
ENDBRANCH   1   7
BRANCH   2  10
ATOM     10  O   UNL     1     -13.361  12.623   8.632  1.00  0.00    -0.507 OA
ATOM     11  H   UNL     1     -12.707  12.438   7.884  1.00  0.00     0.293 HD
ENDBRANCH   2  10
TORSDOF 2
ENDMDL
