MODEL 1
REMARK VINA RESULT:    -2.355      0.000      0.000
REMARK INTER + INTRA:          -3.074
REMARK INTER:                  -2.768
REMARK INTRA:                  -0.306
REMARK UNBOUND:                -0.306
REMARK SMILES O=c1cc(-c2ccc(O)c(O)c2)oc2cc(O)cc(O)c12
REMARK SMILES IDX 4 1 3 2 2 3 1 4 21 5 19 6 18 7 16 8 15 9 14 10 13 11 5 12
REMARK SMILES IDX 6 13 7 14 8 15 12 16 10 17 9 18 11 20 20 22 17 24
REMARK H PARENT 9 19 11 21 20 23 17 25
REMARK Flexibility Score: inf
ROOT
ATOM      1  C   UNL     1       7.560 -34.028  16.107  1.00  0.00     0.138 A 
ATOM      2  C   UNL     1       6.561 -34.977  15.850  1.00  0.00     0.100 A 
ATOM      3  C   UNL     1       6.828 -36.046  14.993  1.00  0.00     0.197 A 
ATOM      4  O   UNL     1       5.933 -36.914  14.830  1.00  0.00    -0.289 OA
ATOM      5  C   UNL     1       8.094 -36.146  14.368  1.00  0.00     0.107 A 
ATOM      6  C   UNL     1       8.465 -37.170  13.445  1.00  0.00     0.134 A 
ATOM      7  C   UNL     1       9.784 -37.233  12.980  1.00  0.00     0.093 A 
ATOM      8  C   UNL     1      10.729 -36.275  13.356  1.00  0.00     0.123 A 
ATOM      9  C   UNL     1      10.361 -35.241  14.214  1.00  0.00     0.094 A 
ATOM     10  C   UNL     1       9.062 -35.170  14.723  1.00  0.00     0.146 A 
ATOM     11  O   UNL     1       8.758 -34.176  15.550  1.00  0.00    -0.456 OA
ENDROOT
BRANCH   1  12
ATOM     12  C   UNL     1       7.328 -32.871  17.009  1.00  0.00     0.021 A 
ATOM     13  C   UNL     1       6.061 -32.273  17.134  1.00  0.00     0.016 A 
ATOM     14  C   UNL     1       5.875 -31.178  17.982  1.00  0.00     0.051 A 
ATOM     15  C   UNL     1       6.950 -30.658  18.713  1.00  0.00     0.157 A 
ATOM     16  C   UNL     1       8.407 -32.334  17.736  1.00  0.00     0.062 A 
ATOM     17  C   UNL     1       8.221 -31.238  18.588  1.00  0.00     0.158 A 
BRANCH  15  18
ATOM     18  O   UNL     1       6.759 -29.566  19.560  1.00  0.00    -0.504 OA
ATOM     19  H   UNL     1       6.671 -29.682  20.563  1.00  0.00     0.293 HD
ENDBRANCH  15  18
BRANCH  17  20
ATOM     20  O   UNL     1       9.314 -30.742  19.299  1.00  0.00    -0.504 OA
ATOM     21  H   UNL     1       9.235 -29.944  19.916  1.00  0.00     0.293 HD
ENDBRANCH  17  20
ENDBRANCH   1  12
BRANCH   6  22
ATOM     22  O   UNL     1       7.578 -38.124  12.939  1.00  0.00    -0.507 OA
ATOM     23  H   UNL     1       6.770 -38.477  13.428  1.00  0.00     0.293 HD
ENDBRANCH   6  22
BRANCH   8  24
ATOM     24  O   UNL     1      12.035 -36.338  12.875  1.00  0.00    -0.508 OA
ATOM     25  H   UNL     1      12.598 -37.173  12.979  1.00  0.00     0.293 HD
ENDBRANCH   8  24
TORSDOF 5
ENDMDL
MODEL 2
REMARK VINA RESULT:    -0.653      2.077      6.904
REMARK INTER + INTRA:          -1.074
REMARK INTER:                  -0.809
REMARK INTRA:                  -0.264
REMARK UNBOUND:                -0.306
REMARK SMILES O=c1cc(-c2ccc(O)c(O)c2)oc2cc(O)cc(O)c12
REMARK SMILES IDX 4 1 3 2 2 3 1 4 21 5 19 6 18 7 16 8 15 9 14 10 13 11 5 12
REMARK SMILES IDX 6 13 7 14 8 15 12 16 10 17 9 18 11 20 20 22 17 24
REMARK H PARENT 9 19 11 21 20 23 17 25
REMARK Flexibility Score: inf
ROOT
ATOM      1  C   UNL     1       8.729 -33.810  15.306  1.00  0.00     0.138 A 
ATOM      2  C   UNL     1       9.622 -33.015  14.574  1.00  0.00     0.100 A 
ATOM      3  C   UNL     1      10.310 -31.982  15.212  1.00  0.00     0.197 A 
ATOM      4  O   UNL     1      11.150 -31.327  14.543  1.00  0.00    -0.289 OA
ATOM      5  C   UNL     1      10.079 -31.725  16.584  1.00  0.00     0.107 A 
ATOM      6  C   UNL     1      10.692 -30.674  17.329  1.00  0.00     0.134 A 
ATOM      7  C   UNL     1      10.474 -30.589  18.709  1.00  0.00     0.093 A 
ATOM      8  C   UNL     1       9.617 -31.480  19.361  1.00  0.00     0.123 A 
ATOM      9  C   UNL     1       8.973 -32.476  18.633  1.00  0.00     0.094 A 
ATOM     10  C   UNL     1       9.196 -32.609  17.260  1.00  0.00     0.146 A 
ATOM     11  O   UNL     1       8.571 -33.582  16.607  1.00  0.00    -0.456 OA
ENDROOT
BRANCH   1  12
ATOM     12  C   UNL     1       7.970 -34.920  14.677  1.00  0.00     0.021 A 
ATOM     13  C   UNL     1       6.563 -34.939  14.663  1.00  0.00     0.016 A 
ATOM     14  C   UNL     1       5.875 -36.003  14.072  1.00  0.00     0.051 A 
ATOM     15  C   UNL     1       6.578 -37.066  13.493  1.00  0.00     0.157 A 
ATOM     16  C   UNL     1       8.669 -35.999  14.104  1.00  0.00     0.062 A 
ATOM     17  C   UNL     1       7.981 -37.064  13.511  1.00  0.00     0.158 A 
BRANCH  15  18
ATOM     18  O   UNL     1       5.887 -38.124  12.903  1.00  0.00    -0.504 OA
ATOM     19  H   UNL     1       6.032 -39.083  13.198  1.00  0.00     0.293 HD
ENDBRANCH  15  18
BRANCH  17  20
ATOM     20  O   UNL     1       8.711 -38.109  12.946  1.00  0.00    -0.504 OA
ATOM     21  H   UNL     1       9.691 -38.014  12.707  1.00  0.00     0.293 HD
ENDBRANCH  17  20
ENDBRANCH   1  12
BRANCH   6  22
ATOM     22  O   UNL     1      11.496 -29.681  16.761  1.00  0.00    -0.507 OA
ATOM     23  H   UNL     1      11.976 -28.962  17.278  1.00  0.00     0.293 HD
ENDBRANCH   6  22
BRANCH   8  24
ATOM     24  O   UNL     1       9.396 -31.377  20.733  1.00  0.00    -0.508 OA
ATOM     25  H   UNL     1      10.163 -31.359  21.394  1.00  0.00     0.293 HD
ENDBRANCH   8  24
TORSDOF 5
ENDMDL
MODEL 3
REMARK VINA RESULT:     0.375      2.747      3.768
REMARK INTER + INTRA:           0.135
REMARK INTER:                   0.428
REMARK INTRA:                  -0.293
REMARK UNBOUND:                -0.306
REMARK SMILES O=c1cc(-c2ccc(O)c(O)c2)oc2cc(O)cc(O)c12
REMARK SMILES IDX 4 1 3 2 2 3 1 4 21 5 19 6 18 7 16 8 15 9 14 10 13 11 5 12
REMARK SMILES IDX 6 13 7 14 8 15 12 16 10 17 9 18 11 20 20 22 17 24
REMARK H PARENT 9 19 11 21 20 23 17 25
REMARK Flexibility Score: inf
ROOT
ATOM      1  C   UNL     1       8.521 -33.703  17.049  1.00  0.00     0.138 A 
ATOM      2  C   UNL     1       8.317 -34.510  18.176  1.00  0.00     0.100 A 
ATOM      3  C   UNL     1       7.614 -35.708  18.050  1.00  0.00     0.197 A 
ATOM      4  O   UNL     1       7.501 -36.440  19.067  1.00  0.00    -0.289 OA
ATOM      5  C   UNL     1       7.085 -36.085  16.793  1.00  0.00     0.107 A 
ATOM      6  C   UNL     1       6.317 -37.264  16.553  1.00  0.00     0.134 A 
ATOM      7  C   UNL     1       5.946 -37.590  15.244  1.00  0.00     0.093 A 
ATOM      8  C   UNL     1       6.262 -36.750  14.173  1.00  0.00     0.123 A 
ATOM      9  C   UNL     1       6.965 -35.571  14.404  1.00  0.00     0.094 A 
ATOM     10  C   UNL     1       7.380 -35.234  15.695  1.00  0.00     0.146 A 
ATOM     11  O   UNL     1       8.061 -34.106  15.868  1.00  0.00    -0.456 OA
ENDROOT
BRANCH   1  12
ATOM     12  C   UNL     1       9.260 -32.418  17.128  1.00  0.00     0.021 A 
ATOM     13  C   UNL     1       9.001 -31.476  18.141  1.00  0.00     0.016 A 
ATOM     14  C   UNL     1       9.706 -30.270  18.184  1.00  0.00     0.051 A 
ATOM     15  C   UNL     1      10.674 -29.980  17.215  1.00  0.00     0.157 A 
ATOM     16  C   UNL     1      10.225 -32.113  16.149  1.00  0.00     0.062 A 
ATOM     17  C   UNL     1      10.932 -30.906  16.192  1.00  0.00     0.158 A 
BRANCH  15  18
ATOM     18  O   UNL     1      11.375 -28.776  17.263  1.00  0.00    -0.504 OA
ATOM     19  H   UNL     1      11.940 -28.523  18.065  1.00  0.00     0.293 HD
ENDBRANCH  15  18
BRANCH  17  20
ATOM     20  O   UNL     1      11.887 -30.647  15.209  1.00  0.00    -0.504 OA
ATOM     21  H   UNL     1      11.868 -29.802  14.651  1.00  0.00     0.293 HD
ENDBRANCH  17  20
ENDBRANCH   1  12
BRANCH   6  22
ATOM     22  O   UNL     1       5.875 -38.125  17.562  1.00  0.00    -0.507 OA
ATOM     23  H   UNL     1       6.084 -38.020  18.542  1.00  0.00     0.293 HD
ENDBRANCH   6  22
BRANCH   8  24
ATOM     24  O   UNL     1       5.875 -37.077  12.875  1.00  0.00    -0.508 OA
ATOM     25  H   UNL     1       6.046 -36.451  12.097  1.00  0.00     0.293 HD
ENDBRANCH   8  24
TORSDOF 5
ENDMDL
