MODEL 1
REMARK VINA RESULT:    -4.804      0.000      0.000
REMARK INTER + INTRA:         -10.926
REMARK INTER:                  -9.017
REMARK INTRA:                  -1.909
REMARK UNBOUND:                -1.909
REMARK SMILES O=C([O-])CCCCCCCCCCCCCCC(=O)[O-]
REMARK SMILES IDX 10 1 9 2 8 3 7 4 6 5 5 6 4 7 2 8 1 9 3 10 11 11 12 12 13 13
REMARK SMILES IDX 14 14 15 15 16 16 17 17 18 18 19 19 20 20
REMARK H PARENT
REMARK Flexibility Score: inf
ROOT
ATOM      1  C   UNL     1      -5.229 -22.696  -4.036  1.00  0.00     0.000 C 
ENDROOT
BRANCH   1   2
ATOM      2  C   UNL     1      -5.111 -24.212  -4.253  1.00  0.00     0.000 C 
BRANCH   2   3
ATOM      3  C   UNL     1      -5.431 -24.586  -5.705  1.00  0.00     0.000 C 
BRANCH   3   4
ATOM      4  C   UNL     1      -6.791 -24.015  -6.136  1.00  0.00     0.000 C 
BRANCH   4   5
ATOM      5  C   UNL     1      -6.680 -23.132  -7.397  1.00  0.00     0.000 C 
BRANCH   5   6
ATOM      6  C   UNL     1      -7.914 -22.245  -7.638  1.00  0.00     0.006 C 
BRANCH   6   7
ATOM      7  C   UNL     1      -8.260 -22.095  -9.124  1.00  0.00     0.053 C 
BRANCH   7   8
ATOM      8  C   UNL     1      -8.837 -23.368  -9.656  1.00  0.00     0.041 C 
ATOM      9  O   UNL     1      -9.834 -23.895  -9.096  1.00  0.00    -0.550 OA
ATOM     10  O   UNL     1      -8.243 -24.000 -10.742  1.00  0.00    -0.550 OA
ENDBRANCH   7   8
ENDBRANCH   6   7
ENDBRANCH   5   6
ENDBRANCH   4   5
ENDBRANCH   3   4
ENDBRANCH   2   3
ENDBRANCH   1   2
BRANCH   1  11
ATOM     11  C   UNL     1      -6.220 -22.333  -2.919  1.00  0.00     0.000 C 
BRANCH  11  12
ATOM     12  C   UNL     1      -6.768 -20.905  -3.055  1.00  0.00     0.000 C 
BRANCH  12  13
ATOM     13  C   UNL     1      -6.693 -20.425  -4.509  1.00  0.00     0.000 C 
BRANCH  13  14
ATOM     14  C   UNL     1      -7.905 -19.556  -4.866  1.00  0.00     0.000 C 
BRANCH  14  15
ATOM     15  C   UNL     1      -7.525 -18.468  -5.877  1.00  0.00     0.000 C 
BRANCH  15  16
ATOM     16  C   UNL     1      -8.403 -18.553  -7.134  1.00  0.00     0.006 C 
BRANCH  16  17
ATOM     17  C   UNL     1      -9.900 -18.586  -6.795  1.00  0.00     0.053 C 
BRANCH  17  18
ATOM     18  C   UNL     1     -10.615 -19.665  -7.549  1.00  0.00     0.041 C 
ATOM     19  O   UNL     1     -11.006 -20.703  -6.952  1.00  0.00    -0.550 OA
ATOM     20  O   UNL     1     -10.878 -19.510  -8.903  1.00  0.00    -0.550 OA
ENDBRANCH  17  18
ENDBRANCH  16  17
ENDBRANCH  15  16
ENDBRANCH  14  15
ENDBRANCH  13  14
ENDBRANCH  12  13
ENDBRANCH  11  12
ENDBRANCH   1  11
TORSDOF 15
ENDMDL
MODEL 2
REMARK VINA RESULT:    -4.545     10.630     12.960
REMARK INTER + INTRA:         -10.440
REMARK INTER:                  -8.561
REMARK INTRA:                  -1.879
REMARK UNBOUND:                -1.909
REMARK SMILES O=C([O-])CCCCCCCCCCCCCCC(=O)[O-]
REMARK SMILES IDX 10 1 9 2 8 3 7 4 6 5 5 6 4 7 2 8 1 9 3 10 11 11 12 12 13 13
REMARK SMILES IDX 14 14 15 15 16 16 17 17 18 18 19 19 20 20
REMARK H PARENT
REMARK Flexibility Score: inf
ROOT
ATOM      1  C   UNL     1      -1.383 -23.023 -15.514  1.00  0.00     0.000 C 
ENDROOT
BRANCH   1   2
ATOM      2  C   UNL     1      -0.327 -22.635 -16.559  1.00  0.00     0.000 C 
BRANCH   2   3
ATOM      3  C   UNL     1       0.947 -22.113 -15.885  1.00  0.00     0.000 C 
BRANCH   3   4
ATOM      4  C   UNL     1       0.627 -21.457 -14.532  1.00  0.00     0.000 C 
BRANCH   4   5
ATOM      5  C   UNL     1       1.525 -20.234 -14.251  1.00  0.00     0.000 C 
BRANCH   5   6
ATOM      6  C   UNL     1       2.864 -20.593 -13.582  1.00  0.00     0.006 C 
BRANCH   6   7
ATOM      7  C   UNL     1       2.994 -20.026 -12.164  1.00  0.00     0.053 C 
BRANCH   7   8
ATOM      8  C   UNL     1       4.333 -20.363 -11.588  1.00  0.00     0.041 C 
ATOM      9  O   UNL     1       4.720 -19.817 -10.522  1.00  0.00    -0.550 OA
ATOM     10  O   UNL     1       5.174 -21.245 -12.255  1.00  0.00    -0.550 OA
ENDBRANCH   7   8
ENDBRANCH   6   7
ENDBRANCH   5   6
ENDBRANCH   4   5
ENDBRANCH   3   4
ENDBRANCH   2   3
ENDBRANCH   1   2
BRANCH   1  11
ATOM     11  C   UNL     1      -1.698 -24.527 -15.518  1.00  0.00     0.000 C 
BRANCH  11  12
ATOM     12  C   UNL     1      -1.522 -25.173 -14.136  1.00  0.00     0.000 C 
BRANCH  12  13
ATOM     13  C   UNL     1      -0.065 -25.598 -13.912  1.00  0.00     0.000 C 
BRANCH  13  14
ATOM     14  C   UNL     1       0.405 -25.228 -12.499  1.00  0.00     0.000 C 
BRANCH  14  15
ATOM     15  C   UNL     1      -0.111 -23.843 -12.092  1.00  0.00     0.000 C 
BRANCH  15  16
ATOM     16  C   UNL     1       0.729 -23.257 -10.948  1.00  0.00     0.006 C 
BRANCH  16  17
ATOM     17  C   UNL     1       2.159 -23.814 -10.932  1.00  0.00     0.053 C 
BRANCH  17  18
ATOM     18  C   UNL     1       2.801 -23.656  -9.588  1.00  0.00     0.041 C 
ATOM     19  O   UNL     1       3.880 -23.017  -9.472  1.00  0.00    -0.550 OA
ATOM     20  O   UNL     1       2.191 -24.186  -8.459  1.00  0.00    -0.550 OA
ENDBRANCH  17  18
ENDBRANCH  16  17
ENDBRANCH  15  16
ENDBRANCH  14  15
ENDBRANCH  13  14
ENDBRANCH  12  13
ENDBRANCH  11  12
ENDBRANCH   1  11
TORSDOF 15
ENDMDL
MODEL 3
REMARK VINA RESULT:    -4.538      6.314      8.847
REMARK INTER + INTRA:         -10.427
REMARK INTER:                  -9.344
REMARK INTRA:                  -1.083
REMARK UNBOUND:                -1.909
REMARK SMILES O=C([O-])CCCCCCCCCCCCCCC(=O)[O-]
REMARK SMILES IDX 10 1 9 2 8 3 7 4 6 5 5 6 4 7 2 8 1 9 3 10 11 11 12 12 13 13
REMARK SMILES IDX 14 14 15 15 16 16 17 17 18 18 19 19 20 20
REMARK H PARENT
REMARK Flexibility Score: inf
ROOT
ATOM      1  C   UNL     1      -7.543 -15.844 -11.304  1.00  0.00     0.000 C 
ENDROOT
BRANCH   1   2
ATOM      2  C   UNL     1      -7.196 -17.334 -11.168  1.00  0.00     0.000 C 
BRANCH   2   3
ATOM      3  C   UNL     1      -7.909 -17.956  -9.962  1.00  0.00     0.000 C 
BRANCH   3   4
ATOM      4  C   UNL     1      -6.897 -18.427  -8.905  1.00  0.00     0.000 C 
BRANCH   4   5
ATOM      5  C   UNL     1      -7.360 -18.101  -7.469  1.00  0.00     0.000 C 
BRANCH   5   6
ATOM      6  C   UNL     1      -8.287 -19.169  -6.863  1.00  0.00     0.006 C 
BRANCH   6   7
ATOM      7  C   UNL     1      -9.752 -18.724  -6.803  1.00  0.00     0.053 C 
BRANCH   7   8
ATOM      8  C   UNL     1     -10.622 -19.692  -7.541  1.00  0.00     0.041 C 
ATOM      9  O   UNL     1     -11.049 -20.727  -6.965  1.00  0.00    -0.550 OA
ATOM     10  O   UNL     1     -10.922 -19.476  -8.880  1.00  0.00    -0.550 OA
ENDBRANCH   7   8
ENDBRANCH   6   7
ENDBRANCH   5   6
ENDBRANCH   4   5
ENDBRANCH   3   4
ENDBRANCH   2   3
ENDBRANCH   1   2
BRANCH   1  11
ATOM     11  C   UNL     1      -6.501 -14.929 -10.642  1.00  0.00     0.000 C 
BRANCH  11  12
ATOM     12  C   UNL     1      -5.940 -13.875 -11.607  1.00  0.00     0.000 C 
BRANCH  12  13
ATOM     13  C   UNL     1      -6.679 -13.913 -12.950  1.00  0.00     0.000 C 
BRANCH  13  14
ATOM     14  C   UNL     1      -5.705 -14.163 -14.108  1.00  0.00     0.000 C 
BRANCH  14  15
ATOM     15  C   UNL     1      -5.804 -15.608 -14.609  1.00  0.00     0.000 C 
BRANCH  15  16
ATOM     16  C   UNL     1      -6.750 -15.710 -15.815  1.00  0.00     0.006 C 
BRANCH  16  17
ATOM     17  C   UNL     1      -7.107 -17.164 -16.153  1.00  0.00     0.053 C 
BRANCH  17  18
ATOM     18  C   UNL     1      -6.821 -17.485 -17.588  1.00  0.00     0.041 C 
ATOM     19  O   UNL     1      -7.324 -16.786 -18.506  1.00  0.00    -0.550 OA
ATOM     20  O   UNL     1      -5.975 -18.538 -17.910  1.00  0.00    -0.550 OA
ENDBRANCH  17  18
ENDBRANCH  16  17
ENDBRANCH  15  16
ENDBRANCH  14  15
ENDBRANCH  13  14
ENDBRANCH  12  13
ENDBRANCH  11  12
ENDBRANCH   1  11
TORSDOF 15
ENDMDL
MODEL 4
REMARK VINA RESULT:    -4.497      2.362      3.348
REMARK INTER + INTRA:         -10.350
REMARK INTER:                  -9.089
REMARK INTRA:                  -1.261
REMARK UNBOUND:                -1.909
REMARK SMILES O=C([O-])CCCCCCCCCCCCCCC(=O)[O-]
REMARK SMILES IDX 10 1 9 2 8 3 7 4 6 5 5 6 4 7 2 8 1 9 3 10 11 11 12 12 13 13
REMARK SMILES IDX 14 14 15 15 16 16 17 17 18 18 19 19 20 20
REMARK H PARENT
REMARK Flexibility Score: inf
ROOT
ATOM      1  C   UNL     1      -4.269 -22.156  -2.664  1.00  0.00     0.000 C 
ENDROOT
BRANCH   1   2
ATOM      2  C   UNL     1      -3.705 -23.027  -3.796  1.00  0.00     0.000 C 
BRANCH   2   3
ATOM      3  C   UNL     1      -4.738 -24.061  -4.259  1.00  0.00     0.000 C 
BRANCH   3   4
ATOM      4  C   UNL     1      -4.958 -23.980  -5.778  1.00  0.00     0.000 C 
BRANCH   4   5
ATOM      5  C   UNL     1      -3.735 -24.482  -6.573  1.00  0.00     0.000 C 
BRANCH   5   6
ATOM      6  C   UNL     1      -3.998 -25.784  -7.351  1.00  0.00     0.006 C 
BRANCH   6   7
ATOM      7  C   UNL     1      -4.199 -26.997  -6.435  1.00  0.00     0.053 C 
BRANCH   7   8
ATOM      8  C   UNL     1      -5.482 -27.691  -6.763  1.00  0.00     0.041 C 
ATOM      9  O   UNL     1      -5.524 -28.948  -6.831  1.00  0.00    -0.550 OA
ATOM     10  O   UNL     1      -6.623 -26.949  -7.042  1.00  0.00    -0.550 OA
ENDBRANCH   7   8
ENDBRANCH   6   7
ENDBRANCH   5   6
ENDBRANCH   4   5
ENDBRANCH   3   4
ENDBRANCH   2   3
ENDBRANCH   1   2
BRANCH   1  11
ATOM     11  C   UNL     1      -5.805 -22.120  -2.651  1.00  0.00     0.000 C 
BRANCH  11  12
ATOM     12  C   UNL     1      -6.362 -20.715  -2.379  1.00  0.00     0.000 C 
BRANCH  12  13
ATOM     13  C   UNL     1      -7.270 -20.254  -3.526  1.00  0.00     0.000 C 
BRANCH  13  14
ATOM     14  C   UNL     1      -6.566 -20.407  -4.880  1.00  0.00     0.000 C 
BRANCH  14  15
ATOM     15  C   UNL     1      -7.563 -20.271  -6.037  1.00  0.00     0.000 C 
BRANCH  15  16
ATOM     16  C   UNL     1      -8.790 -19.450  -5.614  1.00  0.00     0.006 C 
BRANCH  16  17
ATOM     17  C   UNL     1      -9.492 -18.795  -6.811  1.00  0.00     0.053 C 
BRANCH  17  18
ATOM     18  C   UNL     1     -10.415 -19.751  -7.503  1.00  0.00     0.041 C 
ATOM     19  O   UNL     1     -11.039 -20.622  -6.841  1.00  0.00    -0.550 OA
ATOM     20  O   UNL     1     -10.611 -19.659  -8.874  1.00  0.00    -0.550 OA
ENDBRANCH  17  18
ENDBRANCH  16  17
ENDBRANCH  15  16
ENDBRANCH  14  15
ENDBRANCH  13  14
ENDBRANCH  12  13
ENDBRANCH  11  12
ENDBRANCH   1  11
TORSDOF 15
ENDMDL
MODEL 5
REMARK VINA RESULT:    -4.445     10.230     12.581
REMARK INTER + INTRA:         -10.252
REMARK INTER:                  -9.362
REMARK INTRA:                  -0.890
REMARK UNBOUND:                -1.909
REMARK SMILES O=C([O-])CCCCCCCCCCCCCCC(=O)[O-]
REMARK SMILES IDX 10 1 9 2 8 3 7 4 6 5 5 6 4 7 2 8 1 9 3 10 11 11 12 12 13 13
REMARK SMILES IDX 14 14 15 15 16 16 17 17 18 18 19 19 20 20
REMARK H PARENT
REMARK Flexibility Score: inf
ROOT
ATOM      1  C   UNL     1      -2.142 -20.595 -14.578  1.00  0.00     0.000 C 
ENDROOT
BRANCH   1   2
ATOM      2  C   UNL     1      -3.248 -19.585 -14.918  1.00  0.00     0.000 C 
BRANCH   2   3
ATOM      3  C   UNL     1      -4.538 -20.302 -15.333  1.00  0.00     0.000 C 
BRANCH   3   4
ATOM      4  C   UNL     1      -5.215 -19.584 -16.511  1.00  0.00     0.000 C 
BRANCH   4   5
ATOM      5  C   UNL     1      -6.673 -19.189 -16.193  1.00  0.00     0.000 C 
BRANCH   5   6
ATOM      6  C   UNL     1      -6.806 -17.809 -15.526  1.00  0.00     0.006 C 
BRANCH   6   7
ATOM      7  C   UNL     1      -6.320 -16.664 -16.422  1.00  0.00     0.053 C 
BRANCH   7   8
ATOM      8  C   UNL     1      -7.406 -16.236 -17.357  1.00  0.00     0.041 C 
ATOM      9  O   UNL     1      -8.204 -15.320 -17.025  1.00  0.00    -0.550 OA
ATOM     10  O   UNL     1      -7.569 -16.882 -18.576  1.00  0.00    -0.550 OA
ENDBRANCH   7   8
ENDBRANCH   6   7
ENDBRANCH   5   6
ENDBRANCH   4   5
ENDBRANCH   3   4
ENDBRANCH   2   3
ENDBRANCH   1   2
BRANCH   1  11
ATOM     11  C   UNL     1      -2.089 -21.771 -15.565  1.00  0.00     0.000 C 
BRANCH  11  12
ATOM     12  C   UNL     1      -0.780 -22.569 -15.467  1.00  0.00     0.000 C 
BRANCH  12  13
ATOM     13  C   UNL     1       0.418 -21.710 -15.891  1.00  0.00     0.000 C 
BRANCH  13  14
ATOM     14  C   UNL     1       1.452 -21.613 -14.762  1.00  0.00     0.000 C 
BRANCH  14  15
ATOM     15  C   UNL     1       1.767 -20.151 -14.428  1.00  0.00     0.000 C 
BRANCH  15  16
ATOM     16  C   UNL     1       3.002 -20.047 -13.520  1.00  0.00     0.006 C 
BRANCH  16  17
ATOM     17  C   UNL     1       2.829 -20.832 -12.213  1.00  0.00     0.053 C 
BRANCH  17  18
ATOM     18  C   UNL     1       4.097 -21.522 -11.809  1.00  0.00     0.041 C 
ATOM     19  O   UNL     1       4.122 -22.250 -10.783  1.00  0.00    -0.550 OA
ATOM     20  O   UNL     1       5.240 -21.385 -12.584  1.00  0.00    -0.550 OA
ENDBRANCH  17  18
ENDBRANCH  16  17
ENDBRANCH  15  16
ENDBRANCH  14  15
ENDBRANCH  13  14
ENDBRANCH  12  13
ENDBRANCH  11  12
ENDBRANCH   1  11
TORSDOF 15
ENDMDL
MODEL 6
REMARK VINA RESULT:    -4.398      8.874     11.083
REMARK INTER + INTRA:         -10.163
REMARK INTER:                  -7.971
REMARK INTRA:                  -2.192
REMARK UNBOUND:                -1.909
REMARK SMILES O=C([O-])CCCCCCCCCCCCCCC(=O)[O-]
REMARK SMILES IDX 10 1 9 2 8 3 7 4 6 5 5 6 4 7 2 8 1 9 3 10 11 11 12 12 13 13
REMARK SMILES IDX 14 14 15 15 16 16 17 17 18 18 19 19 20 20
REMARK H PARENT
REMARK Flexibility Score: inf
ROOT
ATOM      1  C   UNL     1      -7.156 -16.389 -10.887  1.00  0.00     0.000 C 
ENDROOT
BRANCH   1   2
ATOM      2  C   UNL     1      -7.286 -14.942 -11.386  1.00  0.00     0.000 C 
BRANCH   2   3
ATOM      3  C   UNL     1      -6.748 -14.803 -12.814  1.00  0.00     0.000 C 
BRANCH   3   4
ATOM      4  C   UNL     1      -5.337 -14.193 -12.817  1.00  0.00     0.000 C 
BRANCH   4   5
ATOM      5  C   UNL     1      -4.398 -14.899 -13.817  1.00  0.00     0.000 C 
BRANCH   5   6
ATOM      6  C   UNL     1      -4.817 -14.720 -15.287  1.00  0.00     0.006 C 
BRANCH   6   7
ATOM      7  C   UNL     1      -4.027 -15.617 -16.246  1.00  0.00     0.053 C 
BRANCH   7   8
ATOM      8  C   UNL     1      -3.646 -14.857 -17.477  1.00  0.00     0.041 C 
ATOM      9  O   UNL     1      -4.427 -13.994 -17.957  1.00  0.00    -0.550 OA
ATOM     10  O   UNL     1      -2.448 -15.136 -18.123  1.00  0.00    -0.550 OA
ENDBRANCH   7   8
ENDBRANCH   6   7
ENDBRANCH   5   6
ENDBRANCH   4   5
ENDBRANCH   3   4
ENDBRANCH   2   3
ENDBRANCH   1   2
BRANCH   1  11
ATOM     11  C   UNL     1      -6.971 -17.397 -12.032  1.00  0.00     0.000 C 
BRANCH  11  12
ATOM     12  C   UNL     1      -5.702 -18.247 -11.875  1.00  0.00     0.000 C 
BRANCH  12  13
ATOM     13  C   UNL     1      -5.045 -18.507 -13.236  1.00  0.00     0.000 C 
BRANCH  13  14
ATOM     14  C   UNL     1      -6.071 -18.403 -14.371  1.00  0.00     0.000 C 
BRANCH  14  15
ATOM     15  C   UNL     1      -5.472 -18.878 -15.700  1.00  0.00     0.000 C 
BRANCH  15  16
ATOM     16  C   UNL     1      -6.299 -18.369 -16.890  1.00  0.00     0.006 C 
BRANCH  16  17
ATOM     17  C   UNL     1      -7.413 -17.408 -16.455  1.00  0.00     0.053 C 
BRANCH  17  18
ATOM     18  C   UNL     1      -7.840 -16.509 -17.575  1.00  0.00     0.041 C 
ATOM     19  O   UNL     1      -7.543 -16.795 -18.765  1.00  0.00    -0.550 OA
ATOM     20  O   UNL     1      -8.591 -15.373 -17.308  1.00  0.00    -0.550 OA
ENDBRANCH  17  18
ENDBRANCH  16  17
ENDBRANCH  15  16
ENDBRANCH  14  15
ENDBRANCH  13  14
ENDBRANCH  12  13
ENDBRANCH  11  12
ENDBRANCH   1  11
TORSDOF 15
ENDMDL
MODEL 7
REMARK VINA RESULT:    -4.389     10.162     12.283
REMARK INTER + INTRA:         -10.146
REMARK INTER:                  -8.829
REMARK INTRA:                  -1.316
REMARK UNBOUND:                -1.909
REMARK SMILES O=C([O-])CCCCCCCCCCCCCCC(=O)[O-]
REMARK SMILES IDX 10 1 9 2 8 3 7 4 6 5 5 6 4 7 2 8 1 9 3 10 11 11 12 12 13 13
REMARK SMILES IDX 14 14 15 15 16 16 17 17 18 18 19 19 20 20
REMARK H PARENT
REMARK Flexibility Score: inf
ROOT
ATOM      1  C   UNL     1      -1.222 -24.887 -14.706  1.00  0.00     0.000 C 
ENDROOT
BRANCH   1   2
ATOM      2  C   UNL     1      -2.229 -24.555 -15.816  1.00  0.00     0.000 C 
BRANCH   2   3
ATOM      3  C   UNL     1      -3.515 -23.959 -15.231  1.00  0.00     0.000 C 
BRANCH   3   4
ATOM      4  C   UNL     1      -3.821 -22.587 -15.853  1.00  0.00     0.000 C 
BRANCH   4   5
ATOM      5  C   UNL     1      -3.373 -21.422 -14.946  1.00  0.00     0.000 C 
BRANCH   5   6
ATOM      6  C   UNL     1      -3.737 -20.034 -15.502  1.00  0.00     0.006 C 
BRANCH   6   7
ATOM      7  C   UNL     1      -5.201 -19.933 -15.944  1.00  0.00     0.053 C 
BRANCH   7   8
ATOM      8  C   UNL     1      -5.425 -18.677 -16.724  1.00  0.00     0.041 C 
ATOM      9  O   UNL     1      -5.265 -17.554 -16.177  1.00  0.00    -0.550 OA
ATOM     10  O   UNL     1      -5.858 -18.744 -18.042  1.00  0.00    -0.550 OA
ENDBRANCH   7   8
ENDBRANCH   6   7
ENDBRANCH   5   6
ENDBRANCH   4   5
ENDBRANCH   3   4
ENDBRANCH   2   3
ENDBRANCH   1   2
BRANCH   1  11
ATOM     11  C   UNL     1       0.181 -24.327 -14.990  1.00  0.00     0.000 C 
BRANCH  11  12
ATOM     12  C   UNL     1       0.185 -23.281 -16.114  1.00  0.00     0.000 C 
BRANCH  12  13
ATOM     13  C   UNL     1       1.127 -22.119 -15.777  1.00  0.00     0.000 C 
BRANCH  13  14
ATOM     14  C   UNL     1       0.371 -20.981 -15.081  1.00  0.00     0.000 C 
BRANCH  14  15
ATOM     15  C   UNL     1       0.852 -20.803 -13.636  1.00  0.00     0.000 C 
BRANCH  15  16
ATOM     16  C   UNL     1       2.373 -20.593 -13.584  1.00  0.00     0.006 C 
BRANCH  16  17
ATOM     17  C   UNL     1       2.893 -20.466 -12.146  1.00  0.00     0.053 C 
BRANCH  17  18
ATOM     18  C   UNL     1       4.113 -21.306 -11.921  1.00  0.00     0.041 C 
ATOM     19  O   UNL     1       5.064 -21.276 -12.745  1.00  0.00    -0.550 OA
ATOM     20  O   UNL     1       4.212 -22.098 -10.785  1.00  0.00    -0.550 OA
ENDBRANCH  17  18
ENDBRANCH  16  17
ENDBRANCH  15  16
ENDBRANCH  14  15
ENDBRANCH  13  14
ENDBRANCH  12  13
ENDBRANCH  11  12
ENDBRANCH   1  11
TORSDOF 15
ENDMDL
MODEL 8
REMARK VINA RESULT:    -4.387     10.239     12.352
REMARK INTER + INTRA:         -10.142
REMARK INTER:                  -9.414
REMARK INTRA:                  -0.728
REMARK UNBOUND:                -1.909
REMARK SMILES O=C([O-])CCCCCCCCCCCCCCC(=O)[O-]
REMARK SMILES IDX 10 1 9 2 8 3 7 4 6 5 5 6 4 7 2 8 1 9 3 10 11 11 12 12 13 13
REMARK SMILES IDX 14 14 15 15 16 16 17 17 18 18 19 19 20 20
REMARK H PARENT
REMARK Flexibility Score: inf
ROOT
ATOM      1  C   UNL     1       0.700 -22.151 -16.082  1.00  0.00     0.000 C 
ENDROOT
BRANCH   1   2
ATOM      2  C   UNL     1      -0.162 -21.112 -15.351  1.00  0.00     0.000 C 
BRANCH   2   3
ATOM      3  C   UNL     1       0.713 -20.116 -14.580  1.00  0.00     0.000 C 
BRANCH   3   4
ATOM      4  C   UNL     1       2.068 -20.741 -14.212  1.00  0.00     0.000 C 
BRANCH   4   5
ATOM      5  C   UNL     1       2.134 -21.155 -12.727  1.00  0.00     0.000 C 
BRANCH   5   6
ATOM      6  C   UNL     1       2.371 -19.975 -11.768  1.00  0.00     0.006 C 
BRANCH   6   7
ATOM      7  C   UNL     1       3.647 -20.132 -10.932  1.00  0.00     0.053 C 
BRANCH   7   8
ATOM      8  C   UNL     1       4.357 -21.397 -11.298  1.00  0.00     0.041 C 
ATOM      9  O   UNL     1       4.162 -22.449 -10.634  1.00  0.00    -0.550 OA
ATOM     10  O   UNL     1       5.274 -21.402 -12.342  1.00  0.00    -0.550 OA
ENDBRANCH   7   8
ENDBRANCH   6   7
ENDBRANCH   5   6
ENDBRANCH   4   5
ENDBRANCH   3   4
ENDBRANCH   2   3
ENDBRANCH   1   2
BRANCH   1  11
ATOM     11  C   UNL     1      -0.139 -23.199 -16.830  1.00  0.00     0.000 C 
BRANCH  11  12
ATOM     12  C   UNL     1      -1.216 -23.839 -15.942  1.00  0.00     0.000 C 
BRANCH  12  13
ATOM     13  C   UNL     1      -2.295 -24.519 -16.794  1.00  0.00     0.000 C 
BRANCH  13  14
ATOM     14  C   UNL     1      -3.685 -23.953 -16.477  1.00  0.00     0.000 C 
BRANCH  14  15
ATOM     15  C   UNL     1      -3.598 -22.479 -16.067  1.00  0.00     0.000 C 
BRANCH  15  16
ATOM     16  C   UNL     1      -4.935 -21.761 -16.308  1.00  0.00     0.006 C 
BRANCH  16  17
ATOM     17  C   UNL     1      -4.970 -20.367 -15.666  1.00  0.00     0.053 C 
BRANCH  17  18
ATOM     18  C   UNL     1      -5.751 -19.394 -16.496  1.00  0.00     0.041 C 
ATOM     19  O   UNL     1      -5.362 -19.096 -17.656  1.00  0.00    -0.550 OA
ATOM     20  O   UNL     1      -6.924 -18.842 -16.000  1.00  0.00    -0.550 OA
ENDBRANCH  17  18
ENDBRANCH  16  17
ENDBRANCH  15  16
ENDBRANCH  14  15
ENDBRANCH  13  14
ENDBRANCH  12  13
ENDBRANCH  11  12
ENDBRANCH   1  11
TORSDOF 15
ENDMDL
MODEL 9
REMARK VINA RESULT:    -4.355     10.161     12.360
REMARK INTER + INTRA:         -10.083
REMARK INTER:                  -8.673
REMARK INTRA:                  -1.410
REMARK UNBOUND:                -1.909
REMARK SMILES O=C([O-])CCCCCCCCCCCCCCC(=O)[O-]
REMARK SMILES IDX 10 1 9 2 8 3 7 4 6 5 5 6 4 7 2 8 1 9 3 10 11 11 12 12 13 13
REMARK SMILES IDX 14 14 15 15 16 16 17 17 18 18 19 19 20 20
REMARK H PARENT
REMARK Flexibility Score: inf
ROOT
ATOM      1  C   UNL     1       1.089 -17.842  -8.687  1.00  0.00     0.000 C 
ENDROOT
BRANCH   1   2
ATOM      2  C   UNL     1       0.052 -16.711  -8.745  1.00  0.00     0.000 C 
BRANCH   2   3
ATOM      3  C   UNL     1       0.706 -15.352  -8.472  1.00  0.00     0.000 C 
BRANCH   3   4
ATOM      4  C   UNL     1       0.127 -14.704  -7.205  1.00  0.00     0.000 C 
BRANCH   4   5
ATOM      5  C   UNL     1      -0.888 -15.622  -6.493  1.00  0.00     0.000 C 
BRANCH   5   6
ATOM      6  C   UNL     1      -0.356 -16.229  -5.183  1.00  0.00     0.006 C 
BRANCH   6   7
ATOM      7  C   UNL     1       0.044 -15.168  -4.152  1.00  0.00     0.053 C 
BRANCH   7   8
ATOM      8  C   UNL     1       0.733 -15.805  -2.987  1.00  0.00     0.041 C 
ATOM      9  O   UNL     1       0.789 -17.059  -2.892  1.00  0.00    -0.550 OA
ATOM     10  O   UNL     1       1.273 -15.014  -1.980  1.00  0.00    -0.550 OA
ENDBRANCH   7   8
ENDBRANCH   6   7
ENDBRANCH   5   6
ENDBRANCH   4   5
ENDBRANCH   3   4
ENDBRANCH   2   3
ENDBRANCH   1   2
BRANCH   1  11
ATOM     11  C   UNL     1       0.831 -18.826  -7.535  1.00  0.00     0.000 C 
BRANCH  11  12
ATOM     12  C   UNL     1       1.490 -20.194  -7.766  1.00  0.00     0.000 C 
BRANCH  12  13
ATOM     13  C   UNL     1       0.709 -21.011  -8.802  1.00  0.00     0.000 C 
BRANCH  13  14
ATOM     14  C   UNL     1       1.628 -21.484  -9.936  1.00  0.00     0.000 C 
BRANCH  14  15
ATOM     15  C   UNL     1       1.148 -20.953 -11.291  1.00  0.00     0.000 C 
BRANCH  15  16
ATOM     16  C   UNL     1       2.108 -19.885 -11.835  1.00  0.00     0.006 C 
BRANCH  16  17
ATOM     17  C   UNL     1       3.538 -20.066 -11.307  1.00  0.00     0.053 C 
BRANCH  17  18
ATOM     18  C   UNL     1       4.472 -20.530 -12.382  1.00  0.00     0.041 C 
ATOM     19  O   UNL     1       4.505 -19.938 -13.493  1.00  0.00    -0.550 OA
ATOM     20  O   UNL     1       5.328 -21.597 -12.147  1.00  0.00    -0.550 OA
ENDBRANCH  17  18
ENDBRANCH  16  17
ENDBRANCH  15  16
ENDBRANCH  14  15
ENDBRANCH  13  14
ENDBRANCH  12  13
ENDBRANCH  11  12
ENDBRANCH   1  11
TORSDOF 15
ENDMDL
