MODEL 1
REMARK VINA RESULT:    -3.819      0.000      0.000
REMARK INTER + INTRA:          -4.394
REMARK INTER:                  -4.154
REMARK INTRA:                  -0.240
REMARK UNBOUND:                -0.240
REMARK SMILES O=C([O-])c1ccccc1O
REMARK SMILES IDX 4 1 9 2 5 3 8 4 6 5 7 6 2 7 1 8 3 9 10 10
REMARK H PARENT 10 11
REMARK Flexibility Score: inf
ROOT
ATOM      1  C   UNL     1      44.296   3.109 -44.722  1.00  0.00     0.039 A 
ATOM      2  C   UNL     1      44.124   2.188 -43.663  1.00  0.00     0.124 A 
ATOM      3  C   UNL     1      45.533   3.772 -44.850  1.00  0.00     0.014 A 
ATOM      4  C   UNL     1      45.176   1.949 -42.764  1.00  0.00     0.047 A 
ATOM      5  C   UNL     1      46.571   3.526 -43.949  1.00  0.00     0.001 A 
ATOM      6  C   UNL     1      46.393   2.616 -42.908  1.00  0.00     0.004 A 
ENDROOT
BRANCH   1   7
ATOM      7  C   UNL     1      43.210   3.392 -45.696  1.00  0.00     0.075 C 
ATOM      8  O   UNL     1      43.485   3.656 -46.897  1.00  0.00    -0.545 OA
ATOM      9  O   UNL     1      41.875   3.372 -45.308  1.00  0.00    -0.545 OA
ENDBRANCH   1   7
BRANCH   2  10
ATOM     10  O   UNL     1      42.918   1.507 -43.496  1.00  0.00    -0.507 OA
ATOM     11  H   UNL     1      42.452   1.050 -44.272  1.00  0.00     0.293 HD
ENDBRANCH   2  10
TORSDOF 2
ENDMDL
MODEL 2
REMARK VINA RESULT:    -3.622      1.942      3.553
REMARK INTER + INTRA:          -4.180
REMARK INTER:                  -3.933
REMARK INTRA:                  -0.247
REMARK UNBOUND:                -0.240
REMARK SMILES O=C([O-])c1ccccc1O
REMARK SMILES IDX 4 1 9 2 5 3 8 4 6 5 7 6 2 7 1 8 3 9 10 10
REMARK H PARENT 10 11
REMARK Flexibility Score: inf
ROOT
ATOM      1  C   UNL     1      44.405   2.457 -44.311  1.00  0.00     0.039 A 
ATOM      2  C   UNL     1      43.005   2.289 -44.203  1.00  0.00     0.124 A 
ATOM      3  C   UNL     1      44.917   3.198 -45.395  1.00  0.00     0.014 A 
ATOM      4  C   UNL     1      42.155   2.856 -45.165  1.00  0.00     0.047 A 
ATOM      5  C   UNL     1      44.060   3.756 -46.346  1.00  0.00     0.001 A 
ATOM      6  C   UNL     1      42.681   3.586 -46.232  1.00  0.00     0.004 A 
ENDROOT
BRANCH   1   7
ATOM      7  C   UNL     1      45.342   1.876 -43.315  1.00  0.00     0.075 C 
ATOM      8  O   UNL     1      45.214   2.140 -42.090  1.00  0.00    -0.545 OA
ATOM      9  O   UNL     1      46.373   1.031 -43.709  1.00  0.00    -0.545 OA
ENDBRANCH   1   7
BRANCH   2  10
ATOM     10  O   UNL     1      42.452   1.565 -43.146  1.00  0.00    -0.507 OA
ATOM     11  H   UNL     1      42.139   0.608 -43.263  1.00  0.00     0.293 HD
ENDBRANCH   2  10
TORSDOF 2
ENDMDL
MODEL 3
REMARK VINA RESULT:    -3.586     11.635     12.552
REMARK INTER + INTRA:          -4.140
REMARK INTER:                  -3.906
REMARK INTRA:                  -0.234
REMARK UNBOUND:                -0.240
REMARK SMILES O=C([O-])c1ccccc1O
REMARK SMILES IDX 4 1 9 2 5 3 8 4 6 5 7 6 2 7 1 8 3 9 10 10
REMARK H PARENT 10 11
REMARK Flexibility Score: inf
ROOT
ATOM      1  C   UNL     1      54.253   7.870 -50.441  1.00  0.00     0.039 A 
ATOM      2  C   UNL     1      53.606   8.498 -49.351  1.00  0.00     0.124 A 
ATOM      3  C   UNL     1      55.130   6.797 -50.182  1.00  0.00     0.014 A 
ATOM      4  C   UNL     1      53.844   8.050 -48.043  1.00  0.00     0.047 A 
ATOM      5  C   UNL     1      55.358   6.362 -48.875  1.00  0.00     0.001 A 
ATOM      6  C   UNL     1      54.716   6.987 -47.807  1.00  0.00     0.004 A 
ENDROOT
BRANCH   1   7
ATOM      7  C   UNL     1      54.031   8.311 -51.842  1.00  0.00     0.075 C 
ATOM      8  O   UNL     1      53.866   9.532 -52.107  1.00  0.00    -0.545 OA
ATOM      9  O   UNL     1      54.003   7.395 -52.887  1.00  0.00    -0.545 OA
ENDBRANCH   1   7
BRANCH   2  10
ATOM     10  O   UNL     1      52.729   9.563 -49.559  1.00  0.00    -0.507 OA
ATOM     11  H   UNL     1      52.132   9.611 -50.376  1.00  0.00     0.293 HD
ENDBRANCH   2  10
TORSDOF 2
ENDMDL
MODEL 4
REMARK VINA RESULT:    -3.583      0.842      2.401
REMARK INTER + INTRA:          -4.138
REMARK INTER:                  -3.887
REMARK INTRA:                  -0.250
REMARK UNBOUND:                -0.240
REMARK SMILES O=C([O-])c1ccccc1O
REMARK SMILES IDX 4 1 9 2 5 3 8 4 6 5 7 6 2 7 1 8 3 9 10 10
REMARK H PARENT 10 11
REMARK Flexibility Score: inf
ROOT
ATOM      1  C   UNL     1      44.251   3.142 -44.701  1.00  0.00     0.039 A 
ATOM      2  C   UNL     1      45.436   3.895 -44.870  1.00  0.00     0.124 A 
ATOM      3  C   UNL     1      44.206   2.168 -43.682  1.00  0.00     0.014 A 
ATOM      4  C   UNL     1      46.537   3.666 -44.031  1.00  0.00     0.047 A 
ATOM      5  C   UNL     1      45.310   1.950 -42.855  1.00  0.00     0.001 A 
ATOM      6  C   UNL     1      46.474   2.698 -43.028  1.00  0.00     0.004 A 
ENDROOT
BRANCH   1   7
ATOM      7  C   UNL     1      43.062   3.350 -45.567  1.00  0.00     0.075 C 
ATOM      8  O   UNL     1      41.902   3.315 -45.074  1.00  0.00    -0.545 OA
ATOM      9  O   UNL     1      43.198   3.589 -46.929  1.00  0.00    -0.545 OA
ENDBRANCH   1   7
BRANCH   2  10
ATOM     10  O   UNL     1      45.527   4.870 -45.865  1.00  0.00    -0.507 OA
ATOM     11  H   UNL     1      46.415   5.120 -46.286  1.00  0.00     0.293 HD
ENDBRANCH   2  10
TORSDOF 2
ENDMDL
MODEL 5
REMARK VINA RESULT:    -3.478     17.592     18.515
REMARK INTER + INTRA:          -4.024
REMARK INTER:                  -3.791
REMARK INTRA:                  -0.232
REMARK UNBOUND:                -0.240
REMARK SMILES O=C([O-])c1ccccc1O
REMARK SMILES IDX 4 1 9 2 5 3 8 4 6 5 7 6 2 7 1 8 3 9 10 10
REMARK H PARENT 10 11
REMARK Flexibility Score: inf
ROOT
ATOM      1  C   UNL     1      60.883  -4.868 -47.855  1.00  0.00     0.039 A 
ATOM      2  C   UNL     1      59.678  -5.372 -47.312  1.00  0.00     0.124 A 
ATOM      3  C   UNL     1      62.103  -5.233 -47.251  1.00  0.00     0.014 A 
ATOM      4  C   UNL     1      59.714  -6.219 -46.193  1.00  0.00     0.047 A 
ATOM      5  C   UNL     1      62.125  -6.076 -46.138  1.00  0.00     0.001 A 
ATOM      6  C   UNL     1      60.933  -6.568 -45.610  1.00  0.00     0.004 A 
ENDROOT
BRANCH   1   7
ATOM      7  C   UNL     1      60.892  -3.969 -49.038  1.00  0.00     0.075 C 
ATOM      8  O   UNL     1      61.397  -2.817 -48.958  1.00  0.00    -0.545 OA
ATOM      9  O   UNL     1      60.348  -4.374 -50.251  1.00  0.00    -0.545 OA
ENDBRANCH   1   7
BRANCH   2  10
ATOM     10  O   UNL     1      58.446  -5.038 -47.875  1.00  0.00    -0.507 OA
ATOM     11  H   UNL     1      58.380  -4.552 -48.761  1.00  0.00     0.293 HD
ENDBRANCH   2  10
TORSDOF 2
ENDMDL
MODEL 6
REMARK VINA RESULT:    -3.468     17.115     18.121
REMARK INTER + INTRA:          -4.012
REMARK INTER:                  -3.761
REMARK INTRA:                  -0.251
REMARK UNBOUND:                -0.240
REMARK SMILES O=C([O-])c1ccccc1O
REMARK SMILES IDX 4 1 9 2 5 3 8 4 6 5 7 6 2 7 1 8 3 9 10 10
REMARK H PARENT 10 11
REMARK Flexibility Score: inf
ROOT
ATOM      1  C   UNL     1      60.047  -3.738 -48.711  1.00  0.00     0.039 A 
ATOM      2  C   UNL     1      60.630  -4.126 -49.940  1.00  0.00     0.124 A 
ATOM      3  C   UNL     1      58.837  -3.015 -48.734  1.00  0.00     0.014 A 
ATOM      4  C   UNL     1      60.003  -3.790 -51.150  1.00  0.00     0.047 A 
ATOM      5  C   UNL     1      58.224  -2.687 -49.945  1.00  0.00     0.001 A 
ATOM      6  C   UNL     1      58.806  -3.073 -51.151  1.00  0.00     0.004 A 
ENDROOT
BRANCH   1   7
ATOM      7  C   UNL     1      60.675  -4.072 -47.407  1.00  0.00     0.075 C 
ATOM      8  O   UNL     1      61.039  -5.253 -47.160  1.00  0.00    -0.545 OA
ATOM      9  O   UNL     1      60.876  -3.098 -46.437  1.00  0.00    -0.545 OA
ENDBRANCH   1   7
BRANCH   2  10
ATOM     10  O   UNL     1      61.826  -4.843 -49.968  1.00  0.00    -0.507 OA
ATOM     11  H   UNL     1      61.898  -5.776 -49.577  1.00  0.00     0.293 HD
ENDBRANCH   2  10
TORSDOF 2
ENDMDL
MODEL 7
REMARK VINA RESULT:    -3.453     16.219     17.277
REMARK INTER + INTRA:          -3.995
REMARK INTER:                  -3.757
REMARK INTRA:                  -0.239
REMARK UNBOUND:                -0.240
REMARK SMILES O=C([O-])c1ccccc1O
REMARK SMILES IDX 4 1 9 2 5 3 8 4 6 5 7 6 2 7 1 8 3 9 10 10
REMARK H PARENT 10 11
REMARK Flexibility Score: inf
ROOT
ATOM      1  C   UNL     1      59.176  -2.783 -50.736  1.00  0.00     0.039 A 
ATOM      2  C   UNL     1      59.615  -1.721 -49.910  1.00  0.00     0.124 A 
ATOM      3  C   UNL     1      57.879  -2.723 -51.285  1.00  0.00     0.014 A 
ATOM      4  C   UNL     1      58.763  -0.636 -49.653  1.00  0.00     0.047 A 
ATOM      5  C   UNL     1      57.041  -1.638 -51.020  1.00  0.00     0.001 A 
ATOM      6  C   UNL     1      57.482  -0.596 -50.205  1.00  0.00     0.004 A 
ENDROOT
BRANCH   1   7
ATOM      7  C   UNL     1      60.044  -3.951 -51.035  1.00  0.00     0.075 C 
ATOM      8  O   UNL     1      60.789  -4.436 -50.142  1.00  0.00    -0.545 OA
ATOM      9  O   UNL     1      60.054  -4.533 -52.297  1.00  0.00    -0.545 OA
ENDBRANCH   1   7
BRANCH   2  10
ATOM     10  O   UNL     1      60.890  -1.736 -49.345  1.00  0.00    -0.507 OA
ATOM     11  H   UNL     1      61.490  -2.551 -49.405  1.00  0.00     0.293 HD
ENDBRANCH   2  10
TORSDOF 2
ENDMDL
MODEL 8
REMARK VINA RESULT:    -3.428     16.476     17.468
REMARK INTER + INTRA:          -3.969
REMARK INTER:                  -3.742
REMARK INTRA:                  -0.228
REMARK UNBOUND:                -0.240
REMARK SMILES O=C([O-])c1ccccc1O
REMARK SMILES IDX 4 1 9 2 5 3 8 4 6 5 7 6 2 7 1 8 3 9 10 10
REMARK H PARENT 10 11
REMARK Flexibility Score: inf
ROOT
ATOM      1  C   UNL     1      59.159  -2.871 -50.586  1.00  0.00     0.039 A 
ATOM      2  C   UNL     1      60.237  -3.747 -50.855  1.00  0.00     0.124 A 
ATOM      3  C   UNL     1      59.205  -2.077 -49.423  1.00  0.00     0.014 A 
ATOM      4  C   UNL     1      61.324  -3.811 -49.970  1.00  0.00     0.047 A 
ATOM      5  C   UNL     1      60.292  -2.152 -48.550  1.00  0.00     0.001 A 
ATOM      6  C   UNL     1      61.350  -3.017 -48.823  1.00  0.00     0.004 A 
ENDROOT
BRANCH   1   7
ATOM      7  C   UNL     1      57.988  -2.770 -51.495  1.00  0.00     0.075 C 
ATOM      8  O   UNL     1      56.858  -2.442 -51.045  1.00  0.00    -0.545 OA
ATOM      9  O   UNL     1      58.111  -3.032 -52.855  1.00  0.00    -0.545 OA
ENDBRANCH   1   7
BRANCH   2  10
ATOM     10  O   UNL     1      60.236  -4.552 -51.994  1.00  0.00    -0.507 OA
ATOM     11  H   UNL     1      60.529  -5.522 -51.961  1.00  0.00     0.293 HD
ENDBRANCH   2  10
TORSDOF 2
ENDMDL
MODEL 9
REMARK VINA RESULT:    -3.406     13.957     14.548
REMARK INTER + INTRA:          -3.944
REMARK INTER:                  -3.717
REMARK INTRA:                  -0.227
REMARK UNBOUND:                -0.240
REMARK SMILES O=C([O-])c1ccccc1O
REMARK SMILES IDX 4 1 9 2 5 3 8 4 6 5 7 6 2 7 1 8 3 9 10 10
REMARK H PARENT 10 11
REMARK Flexibility Score: inf
ROOT
ATOM      1  C   UNL     1      53.002  -6.856 -49.602  1.00  0.00     0.039 A 
ATOM      2  C   UNL     1      52.296  -7.699 -50.493  1.00  0.00     0.124 A 
ATOM      3  C   UNL     1      53.483  -5.619 -50.078  1.00  0.00     0.014 A 
ATOM      4  C   UNL     1      52.088  -7.296 -51.821  1.00  0.00     0.047 A 
ATOM      5  C   UNL     1      53.269  -5.231 -51.402  1.00  0.00     0.001 A 
ATOM      6  C   UNL     1      52.572  -6.068 -52.273  1.00  0.00     0.004 A 
ENDROOT
BRANCH   1   7
ATOM      7  C   UNL     1      53.246  -7.242 -48.189  1.00  0.00     0.075 C 
ATOM      8  O   UNL     1      52.280  -7.393 -47.394  1.00  0.00    -0.545 OA
ATOM      9  O   UNL     1      54.536  -7.444 -47.713  1.00  0.00    -0.545 OA
ENDBRANCH   1   7
BRANCH   2  10
ATOM     10  O   UNL     1      51.801  -8.932 -50.068  1.00  0.00    -0.507 OA
ATOM     11  H   UNL     1      50.818  -9.165 -50.140  1.00  0.00     0.293 HD
ENDBRANCH   2  10
TORSDOF 2
ENDMDL
