MODEL 1
REMARK VINA RESULT:    -2.362      0.000      0.000
REMARK INTER + INTRA:          -2.362
REMARK INTER:                  -2.362
REMARK INTRA:                   0.000
REMARK UNBOUND:                 0.000
REMARK SMILES CC(=O)[O-]
REMARK SMILES IDX 1 1 2 2 3 3 4 4
REMARK H PARENT
REMARK Flexibility Score: inf
ROOT
ATOM      1  C   UNL     1      41.004  53.425   8.953  1.00  0.00     0.063 C 
ATOM      2  C   UNL     1      40.568  52.001   8.892  1.00  0.00     0.038 C 
ATOM      3  O   UNL     1      39.346  51.711   8.976  1.00  0.00    -0.550 OA
ATOM      4  O   UNL     1      41.512  50.988   8.799  1.00  0.00    -0.550 OA
ENDROOT
TORSDOF 0
ENDMDL
MODEL 2
REMARK VINA RESULT:    -2.251      2.148      2.621
REMARK INTER + INTRA:          -2.251
REMARK INTER:                  -2.251
REMARK INTRA:                   0.000
REMARK UNBOUND:                 0.000
REMARK SMILES CC(=O)[O-]
REMARK SMILES IDX 1 1 2 2 3 3 4 4
REMARK H PARENT
REMARK Flexibility Score: inf
ROOT
ATOM      1  C   UNL     1      40.541  51.988   8.925  1.00  0.00     0.063 C 
ATOM      2  C   UNL     1      41.147  53.326   8.673  1.00  0.00     0.038 C 
ATOM      3  O   UNL     1      41.755  53.551   7.593  1.00  0.00    -0.550 OA
ATOM      4  O   UNL     1      41.092  54.311   9.649  1.00  0.00    -0.550 OA
ENDROOT
TORSDOF 0
ENDMDL
MODEL 3
REMARK VINA RESULT:    -2.044      5.661      6.175
REMARK INTER + INTRA:          -2.044
REMARK INTER:                  -2.044
REMARK INTRA:                   0.000
REMARK UNBOUND:                 0.000
REMARK SMILES CC(=O)[O-]
REMARK SMILES IDX 1 1 2 2 3 3 4 4
REMARK H PARENT
REMARK Flexibility Score: inf
ROOT
ATOM      1  C   UNL     1      44.942  46.487   8.467  1.00  0.00     0.063 C 
ATOM      2  C   UNL     1      44.615  47.908   8.775  1.00  0.00     0.038 C 
ATOM      3  O   UNL     1      44.840  48.807   7.922  1.00  0.00    -0.550 OA
ATOM      4  O   UNL     1      44.115  48.253  10.023  1.00  0.00    -0.550 OA
ENDROOT
TORSDOF 0
ENDMDL
MODEL 4
REMARK VINA RESULT:    -1.982      4.174      4.913
REMARK INTER + INTRA:          -1.982
REMARK INTER:                  -1.982
REMARK INTRA:                   0.000
REMARK UNBOUND:                 0.000
REMARK SMILES CC(=O)[O-]
REMARK SMILES IDX 1 1 2 2 3 3 4 4
REMARK H PARENT
REMARK Flexibility Score: inf
ROOT
ATOM      1  C   UNL     1      45.052  48.900   7.905  1.00  0.00     0.063 C 
ATOM      2  C   UNL     1      43.921  48.931   8.877  1.00  0.00     0.038 C 
ATOM      3  O   UNL     1      44.057  48.418  10.019  1.00  0.00    -0.550 OA
ATOM      4  O   UNL     1      42.699  49.475   8.507  1.00  0.00    -0.550 OA
ENDROOT
TORSDOF 0
ENDMDL
MODEL 5
REMARK VINA RESULT:    -1.950      4.021      4.480
REMARK INTER + INTRA:          -1.950
REMARK INTER:                  -1.950
REMARK INTRA:                   0.000
REMARK UNBOUND:                 0.000
REMARK SMILES CC(=O)[O-]
REMARK SMILES IDX 1 1 2 2 3 3 4 4
REMARK H PARENT
REMARK Flexibility Score: inf
ROOT
ATOM      1  C   UNL     1      44.989  49.713   8.287  1.00  0.00     0.063 C 
ATOM      2  C   UNL     1      43.800  49.100   8.946  1.00  0.00     0.038 C 
ATOM      3  O   UNL     1      42.642  49.509   8.665  1.00  0.00    -0.550 OA
ATOM      4  O   UNL     1      43.968  48.117   9.911  1.00  0.00    -0.550 OA
ENDROOT
TORSDOF 0
ENDMDL
MODEL 6
REMARK VINA RESULT:    -1.925     17.855     17.953
REMARK INTER + INTRA:          -1.925
REMARK INTER:                  -1.925
REMARK INTRA:                   0.000
REMARK UNBOUND:                 0.000
REMARK SMILES CC(=O)[O-]
REMARK SMILES IDX 1 1 2 2 3 3 4 4
REMARK H PARENT
REMARK Flexibility Score: inf
ROOT
ATOM      1  C   UNL     1      31.295  52.977  24.510  1.00  0.00     0.063 C 
ATOM      2  C   UNL     1      31.085  51.560  24.094  1.00  0.00     0.038 C 
ATOM      3  O   UNL     1      30.005  51.218  23.544  1.00  0.00    -0.550 OA
ATOM      4  O   UNL     1      32.056  50.605  24.361  1.00  0.00    -0.550 OA
ENDROOT
TORSDOF 0
ENDMDL
MODEL 7
REMARK VINA RESULT:    -1.908     18.586     18.960
REMARK INTER + INTRA:          -1.908
REMARK INTER:                  -1.908
REMARK INTRA:                   0.000
REMARK UNBOUND:                 0.000
REMARK SMILES CC(=O)[O-]
REMARK SMILES IDX 1 1 2 2 3 3 4 4
REMARK H PARENT
REMARK Flexibility Score: inf
ROOT
ATOM      1  C   UNL     1      30.897  51.701  23.501  1.00  0.00     0.063 C 
ATOM      2  C   UNL     1      30.162  51.269  24.724  1.00  0.00     0.038 C 
ATOM      3  O   UNL     1      28.958  51.599  24.886  1.00  0.00    -0.550 OA
ATOM      4  O   UNL     1      30.818  50.548  25.712  1.00  0.00    -0.550 OA
ENDROOT
TORSDOF 0
ENDMDL
MODEL 8
REMARK VINA RESULT:    -1.866     10.250     10.760
REMARK INTER + INTRA:          -1.866
REMARK INTER:                  -1.866
REMARK INTRA:                   0.000
REMARK UNBOUND:                 0.000
REMARK SMILES CC(=O)[O-]
REMARK SMILES IDX 1 1 2 2 3 3 4 4
REMARK H PARENT
REMARK Flexibility Score: inf
ROOT
ATOM      1  C   UNL     1      31.859  48.108   7.751  1.00  0.00     0.063 C 
ATOM      2  C   UNL     1      31.250  46.979   8.510  1.00  0.00     0.038 C 
ATOM      3  O   UNL     1      31.752  45.826   8.438  1.00  0.00    -0.550 OA
ATOM      4  O   UNL     1      30.096  47.183   9.255  1.00  0.00    -0.550 OA
ENDROOT
TORSDOF 0
ENDMDL
MODEL 9
REMARK VINA RESULT:    -1.795     18.107     18.212
REMARK INTER + INTRA:          -1.795
REMARK INTER:                  -1.795
REMARK INTRA:                   0.000
REMARK UNBOUND:                 0.000
REMARK SMILES CC(=O)[O-]
REMARK SMILES IDX 1 1 2 2 3 3 4 4
REMARK H PARENT
REMARK Flexibility Score: inf
ROOT
ATOM      1  C   UNL     1      30.872  54.790  24.314  1.00  0.00     0.063 C 
ATOM      2  C   UNL     1      31.670  53.571  24.632  1.00  0.00     0.038 C 
ATOM      3  O   UNL     1      31.242  52.433  24.304  1.00  0.00    -0.550 OA
ATOM      4  O   UNL     1      32.860  53.683  25.338  1.00  0.00    -0.550 OA
ENDROOT
TORSDOF 0
ENDMDL
