MODEL 1
REMARK VINA RESULT:    -5.924      0.000      0.000
REMARK INTER + INTRA:          -6.698
REMARK INTER:                  -6.443
REMARK INTRA:                  -0.255
REMARK UNBOUND:                -0.255
REMARK SMILES O=C([O-])c1ccccc1O
REMARK SMILES IDX 4 1 9 2 5 3 8 4 6 5 7 6 2 7 1 8 3 9 10 10
REMARK H PARENT 10 11
REMARK Flexibility Score: inf
ROOT
ATOM      1  C   UNL     1      -3.433 -14.862   8.550  1.00  0.00     0.039 A 
ATOM      2  C   UNL     1      -2.750 -13.822   9.224  1.00  0.00     0.124 A 
ATOM      3  C   UNL     1      -3.440 -16.151   9.120  1.00  0.00     0.014 A 
ATOM      4  C   UNL     1      -2.097 -14.086  10.438  1.00  0.00     0.047 A 
ATOM      5  C   UNL     1      -2.785 -16.399  10.329  1.00  0.00     0.001 A 
ATOM      6  C   UNL     1      -2.115 -15.369  10.987  1.00  0.00     0.004 A 
ENDROOT
BRANCH   1   7
ATOM      7  C   UNL     1      -4.138 -14.627   7.262  1.00  0.00     0.075 C 
ATOM      8  O   UNL     1      -4.014 -15.445   6.311  1.00  0.00    -0.545 OA
ATOM      9  O   UNL     1      -4.945 -13.512   7.079  1.00  0.00    -0.545 OA
ENDBRANCH   1   7
BRANCH   2  10
ATOM     10  O   UNL     1      -2.716 -12.530   8.697  1.00  0.00    -0.507 OA
ATOM     11  H   UNL     1      -3.139 -11.747   9.181  1.00  0.00     0.293 HD
ENDBRANCH   2  10
TORSDOF 2
ENDMDL
MODEL 2
REMARK VINA RESULT:    -5.876      1.830      3.423
REMARK INTER + INTRA:          -6.646
REMARK INTER:                  -6.421
REMARK INTRA:                  -0.225
REMARK UNBOUND:                -0.255
REMARK SMILES O=C([O-])c1ccccc1O
REMARK SMILES IDX 4 1 9 2 5 3 8 4 6 5 7 6 2 7 1 8 3 9 10 10
REMARK H PARENT 10 11
REMARK Flexibility Score: inf
ROOT
ATOM      1  C   UNL     1      -2.941 -15.139   8.762  1.00  0.00     0.039 A 
ATOM      2  C   UNL     1      -3.448 -13.935   8.217  1.00  0.00     0.124 A 
ATOM      3  C   UNL     1      -3.548 -16.358   8.399  1.00  0.00     0.014 A 
ATOM      4  C   UNL     1      -4.536 -13.973   7.331  1.00  0.00     0.047 A 
ATOM      5  C   UNL     1      -4.631 -16.380   7.516  1.00  0.00     0.001 A 
ATOM      6  C   UNL     1      -5.124 -15.190   6.984  1.00  0.00     0.004 A 
ENDROOT
BRANCH   1   7
ATOM      7  C   UNL     1      -1.790 -15.146   9.703  1.00  0.00     0.075 C 
ATOM      8  O   UNL     1      -1.928 -15.595  10.872  1.00  0.00    -0.545 OA
ATOM      9  O   UNL     1      -0.546 -14.663   9.319  1.00  0.00    -0.545 OA
ENDBRANCH   1   7
BRANCH   2  10
ATOM     10  O   UNL     1      -2.878 -12.705   8.547  1.00  0.00    -0.507 OA
ATOM     11  H   UNL     1      -2.106 -12.318   8.019  1.00  0.00     0.293 HD
ENDBRANCH   2  10
TORSDOF 2
ENDMDL
MODEL 3
REMARK VINA RESULT:    -5.848      2.014      2.900
REMARK INTER + INTRA:          -6.615
REMARK INTER:                  -6.379
REMARK INTRA:                  -0.236
REMARK UNBOUND:                -0.255
REMARK SMILES O=C([O-])c1ccccc1O
REMARK SMILES IDX 4 1 9 2 5 3 8 4 6 5 7 6 2 7 1 8 3 9 10 10
REMARK H PARENT 10 11
REMARK Flexibility Score: inf
ROOT
ATOM      1  C   UNL     1      -3.932 -15.648   7.444  1.00  0.00     0.039 A 
ATOM      2  C   UNL     1      -4.413 -16.829   8.060  1.00  0.00     0.124 A 
ATOM      3  C   UNL     1      -2.576 -15.302   7.606  1.00  0.00     0.014 A 
ATOM      4  C   UNL     1      -3.540 -17.629   8.814  1.00  0.00     0.047 A 
ATOM      5  C   UNL     1      -1.719 -16.108   8.360  1.00  0.00     0.001 A 
ATOM      6  C   UNL     1      -2.200 -17.269   8.963  1.00  0.00     0.004 A 
ENDROOT
BRANCH   1   7
ATOM      7  C   UNL     1      -4.821 -14.771   6.637  1.00  0.00     0.075 C 
ATOM      8  O   UNL     1      -5.384 -15.217   5.602  1.00  0.00    -0.545 OA
ATOM      9  O   UNL     1      -5.052 -13.451   7.003  1.00  0.00    -0.545 OA
ENDBRANCH   1   7
BRANCH   2  10
ATOM     10  O   UNL     1      -5.748 -17.211   7.927  1.00  0.00    -0.507 OA
ATOM     11  H   UNL     1      -6.348 -16.811   7.215  1.00  0.00     0.293 HD
ENDBRANCH   2  10
TORSDOF 2
ENDMDL
MODEL 4
REMARK VINA RESULT:    -5.424      1.485      2.349
REMARK INTER + INTRA:          -6.154
REMARK INTER:                  -5.903
REMARK INTRA:                  -0.251
REMARK UNBOUND:                -0.255
REMARK SMILES O=C([O-])c1ccccc1O
REMARK SMILES IDX 4 1 9 2 5 3 8 4 6 5 7 6 2 7 1 8 3 9 10 10
REMARK H PARENT 10 11
REMARK Flexibility Score: inf
ROOT
ATOM      1  C   UNL     1      -3.565 -15.739   9.015  1.00  0.00     0.039 A 
ATOM      2  C   UNL     1      -3.180 -14.567   8.321  1.00  0.00     0.124 A 
ATOM      3  C   UNL     1      -3.196 -15.879  10.368  1.00  0.00     0.014 A 
ATOM      4  C   UNL     1      -2.445 -13.572   8.983  1.00  0.00     0.047 A 
ATOM      5  C   UNL     1      -2.463 -14.880  11.014  1.00  0.00     0.001 A 
ATOM      6  C   UNL     1      -2.088 -13.729  10.323  1.00  0.00     0.004 A 
ENDROOT
BRANCH   1   7
ATOM      7  C   UNL     1      -4.344 -16.819   8.353  1.00  0.00     0.075 C 
ATOM      8  O   UNL     1      -5.388 -16.542   7.704  1.00  0.00    -0.545 OA
ATOM      9  O   UNL     1      -3.942 -18.146   8.432  1.00  0.00    -0.545 OA
ENDBRANCH   1   7
BRANCH   2  10
ATOM     10  O   UNL     1      -3.523 -14.386   6.981  1.00  0.00    -0.507 OA
ATOM     11  H   UNL     1      -2.820 -14.353   6.251  1.00  0.00     0.293 HD
ENDBRANCH   2  10
TORSDOF 2
ENDMDL
MODEL 5
REMARK VINA RESULT:    -5.381      2.480      3.707
REMARK INTER + INTRA:          -6.108
REMARK INTER:                  -5.863
REMARK INTRA:                  -0.245
REMARK UNBOUND:                -0.255
REMARK SMILES O=C([O-])c1ccccc1O
REMARK SMILES IDX 4 1 9 2 5 3 8 4 6 5 7 6 2 7 1 8 3 9 10 10
REMARK H PARENT 10 11
REMARK Flexibility Score: inf
ROOT
ATOM      1  C   UNL     1      -4.102 -16.559   8.258  1.00  0.00     0.039 A 
ATOM      2  C   UNL     1      -3.495 -15.356   8.692  1.00  0.00     0.124 A 
ATOM      3  C   UNL     1      -4.986 -16.516   7.162  1.00  0.00     0.014 A 
ATOM      4  C   UNL     1      -3.778 -14.151   8.030  1.00  0.00     0.047 A 
ATOM      5  C   UNL     1      -5.259 -15.309   6.513  1.00  0.00     0.001 A 
ATOM      6  C   UNL     1      -4.657 -14.129   6.946  1.00  0.00     0.004 A 
ENDROOT
BRANCH   1   7
ATOM      7  C   UNL     1      -3.830 -17.857   8.930  1.00  0.00     0.075 C 
ATOM      8  O   UNL     1      -3.411 -18.841   8.265  1.00  0.00    -0.545 OA
ATOM      9  O   UNL     1      -4.028 -18.014  10.296  1.00  0.00    -0.545 OA
ENDBRANCH   1   7
BRANCH   2  10
ATOM     10  O   UNL     1      -2.613 -15.350   9.773  1.00  0.00    -0.507 OA
ATOM     11  H   UNL     1      -2.385 -14.497  10.269  1.00  0.00     0.293 HD
ENDBRANCH   2  10
TORSDOF 2
ENDMDL
MODEL 6
REMARK VINA RESULT:    -5.361      1.553      3.274
REMARK INTER + INTRA:          -6.086
REMARK INTER:                  -5.913
REMARK INTRA:                  -0.174
REMARK UNBOUND:                -0.255
REMARK SMILES O=C([O-])c1ccccc1O
REMARK SMILES IDX 4 1 9 2 5 3 8 4 6 5 7 6 2 7 1 8 3 9 10 10
REMARK H PARENT 10 11
REMARK Flexibility Score: inf
ROOT
ATOM      1  C   UNL     1      -3.168 -15.083   9.160  1.00  0.00     0.039 A 
ATOM      2  C   UNL     1      -3.808 -15.263   7.910  1.00  0.00     0.124 A 
ATOM      3  C   UNL     1      -3.625 -15.820  10.270  1.00  0.00     0.014 A 
ATOM      4  C   UNL     1      -4.877 -16.165   7.796  1.00  0.00     0.047 A 
ATOM      5  C   UNL     1      -4.691 -16.715  10.142  1.00  0.00     0.001 A 
ATOM      6  C   UNL     1      -5.316 -16.887   8.907  1.00  0.00     0.004 A 
ENDROOT
BRANCH   1   7
ATOM      7  C   UNL     1      -2.032 -14.138   9.326  1.00  0.00     0.075 C 
ATOM      8  O   UNL     1      -2.235 -12.895   9.336  1.00  0.00    -0.545 OA
ATOM      9  O   UNL     1      -0.730 -14.600   9.475  1.00  0.00    -0.545 OA
ENDBRANCH   1   7
BRANCH   2  10
ATOM     10  O   UNL     1      -3.389 -14.554   6.784  1.00  0.00    -0.507 OA
ATOM     11  H   UNL     1      -3.687 -13.601   6.614  1.00  0.00     0.293 HD
ENDBRANCH   2  10
TORSDOF 2
ENDMDL
MODEL 7
REMARK VINA RESULT:    -5.310      2.027      3.786
REMARK INTER + INTRA:          -6.031
REMARK INTER:                  -5.788
REMARK INTRA:                  -0.242
REMARK UNBOUND:                -0.255
REMARK SMILES O=C([O-])c1ccccc1O
REMARK SMILES IDX 4 1 9 2 5 3 8 4 6 5 7 6 2 7 1 8 3 9 10 10
REMARK H PARENT 10 11
REMARK Flexibility Score: inf
ROOT
ATOM      1  C   UNL     1      -3.040 -14.899   8.479  1.00  0.00     0.039 A 
ATOM      2  C   UNL     1      -3.017 -16.301   8.671  1.00  0.00     0.124 A 
ATOM      3  C   UNL     1      -4.037 -14.343   7.653  1.00  0.00     0.014 A 
ATOM      4  C   UNL     1      -3.978 -17.108   8.043  1.00  0.00     0.047 A 
ATOM      5  C   UNL     1      -4.987 -15.159   7.033  1.00  0.00     0.001 A 
ATOM      6  C   UNL     1      -4.957 -16.539   7.228  1.00  0.00     0.004 A 
ENDROOT
BRANCH   1   7
ATOM      7  C   UNL     1      -2.042 -14.006   9.125  1.00  0.00     0.075 C 
ATOM      8  O   UNL     1      -2.377 -12.855   9.513  1.00  0.00    -0.545 OA
ATOM      9  O   UNL     1      -0.729 -14.416   9.316  1.00  0.00    -0.545 OA
ENDBRANCH   1   7
BRANCH   2  10
ATOM     10  O   UNL     1      -2.049 -16.895   9.481  1.00  0.00    -0.507 OA
ATOM     11  H   UNL     1      -1.062 -16.834   9.262  1.00  0.00     0.293 HD
ENDBRANCH   2  10
TORSDOF 2
ENDMDL
MODEL 8
REMARK VINA RESULT:    -5.301      2.193      2.957
REMARK INTER + INTRA:          -6.020
REMARK INTER:                  -5.768
REMARK INTRA:                  -0.252
REMARK UNBOUND:                -0.255
REMARK SMILES O=C([O-])c1ccccc1O
REMARK SMILES IDX 4 1 9 2 5 3 8 4 6 5 7 6 2 7 1 8 3 9 10 10
REMARK H PARENT 10 11
REMARK Flexibility Score: inf
ROOT
ATOM      1  C   UNL     1      -3.573 -15.688   9.220  1.00  0.00     0.039 A 
ATOM      2  C   UNL     1      -3.110 -15.824  10.551  1.00  0.00     0.124 A 
ATOM      3  C   UNL     1      -3.244 -14.521   8.502  1.00  0.00     0.014 A 
ATOM      4  C   UNL     1      -2.337 -14.805  11.130  1.00  0.00     0.047 A 
ATOM      5  C   UNL     1      -2.474 -13.514   9.092  1.00  0.00     0.001 A 
ATOM      6  C   UNL     1      -2.022 -13.656  10.403  1.00  0.00     0.004 A 
ENDROOT
BRANCH   1   7
ATOM      7  C   UNL     1      -4.394 -16.742   8.567  1.00  0.00     0.075 C 
ATOM      8  O   UNL     1      -5.480 -16.443   8.003  1.00  0.00    -0.545 OA
ATOM      9  O   UNL     1      -3.986 -18.069   8.562  1.00  0.00    -0.545 OA
ENDBRANCH   1   7
BRANCH   2  10
ATOM     10  O   UNL     1      -3.411 -16.962  11.299  1.00  0.00    -0.507 OA
ATOM     11  H   UNL     1      -3.292 -17.894  10.921  1.00  0.00     0.293 HD
ENDBRANCH   2  10
TORSDOF 2
ENDMDL
MODEL 9
REMARK VINA RESULT:    -5.225      2.594      3.895
REMARK INTER + INTRA:          -5.938
REMARK INTER:                  -5.692
REMARK INTRA:                  -0.246
REMARK UNBOUND:                -0.255
REMARK SMILES O=C([O-])c1ccccc1O
REMARK SMILES IDX 4 1 9 2 5 3 8 4 6 5 7 6 2 7 1 8 3 9 10 10
REMARK H PARENT 10 11
REMARK Flexibility Score: inf
ROOT
ATOM      1  C   UNL     1      -2.775 -15.691  10.231  1.00  0.00     0.039 A 
ATOM      2  C   UNL     1      -3.869 -16.484  10.651  1.00  0.00     0.124 A 
ATOM      3  C   UNL     1      -2.038 -16.094   9.100  1.00  0.00     0.014 A 
ATOM      4  C   UNL     1      -4.202 -17.648   9.942  1.00  0.00     0.047 A 
ATOM      5  C   UNL     1      -2.381 -17.257   8.404  1.00  0.00     0.001 A 
ATOM      6  C   UNL     1      -3.460 -18.032   8.824  1.00  0.00     0.004 A 
ENDROOT
BRANCH   1   7
ATOM      7  C   UNL     1      -2.387 -14.450  10.953  1.00  0.00     0.075 C 
ATOM      8  O   UNL     1      -2.368 -14.427  12.212  1.00  0.00    -0.545 OA
ATOM      9  O   UNL     1      -2.039 -13.297  10.261  1.00  0.00    -0.545 OA
ENDBRANCH   1   7
BRANCH   2  10
ATOM     10  O   UNL     1      -4.627 -16.122  11.766  1.00  0.00    -0.507 OA
ATOM     11  H   UNL     1      -4.373 -15.334  12.349  1.00  0.00     0.293 HD
ENDBRANCH   2  10
TORSDOF 2
ENDMDL
