MODEL 1
REMARK VINA RESULT:    -3.725      0.000      0.000
REMARK INTER + INTRA:          -9.536
REMARK INTER:                  -6.991
REMARK INTRA:                  -2.546
REMARK UNBOUND:                -2.546
REMARK SMILES O=C([O-])CCCCCCCCCCCCCCC(=O)[O-]
REMARK SMILES IDX 10 1 9 2 8 3 7 4 6 5 5 6 4 7 2 8 1 9 3 10 11 11 12 12 13 13
REMARK SMILES IDX 14 14 15 15 16 16 17 17 18 18 19 19 20 20
REMARK H PARENT
REMARK Flexibility Score: inf
ROOT
ATOM      1  C   UNL     1      15.036 -33.728  -1.394  1.00  0.00     0.000 C 
ENDROOT
BRANCH   1   2
ATOM      2  C   UNL     1      16.140 -33.100  -2.258  1.00  0.00     0.000 C 
BRANCH   2   3
ATOM      3  C   UNL     1      17.503 -33.741  -1.956  1.00  0.00     0.000 C 
BRANCH   3   4
ATOM      4  C   UNL     1      17.377 -35.084  -1.221  1.00  0.00     0.000 C 
BRANCH   4   5
ATOM      5  C   UNL     1      17.537 -36.290  -2.159  1.00  0.00     0.000 C 
BRANCH   5   6
ATOM      6  C   UNL     1      17.973 -37.537  -1.381  1.00  0.00     0.006 C 
BRANCH   6   7
ATOM      7  C   UNL     1      18.364 -37.179   0.057  1.00  0.00     0.053 C 
BRANCH   7   8
ATOM      8  C   UNL     1      18.455 -38.414   0.897  1.00  0.00     0.041 C 
ATOM      9  O   UNL     1      18.030 -38.406   2.083  1.00  0.00    -0.550 OA
ATOM     10  O   UNL     1      18.963 -39.588   0.356  1.00  0.00    -0.550 OA
ENDBRANCH   7   8
ENDBRANCH   6   7
ENDBRANCH   5   6
ENDBRANCH   4   5
ENDBRANCH   3   4
ENDBRANCH   2   3
ENDBRANCH   1   2
BRANCH   1  11
ATOM     11  C   UNL     1      13.948 -34.427  -2.230  1.00  0.00     0.000 C 
BRANCH  11  12
ATOM     12  C   UNL     1      13.792 -35.939  -1.971  1.00  0.00     0.000 C 
BRANCH  12  13
ATOM     13  C   UNL     1      13.526 -36.331  -0.506  1.00  0.00     0.000 C 
BRANCH  13  14
ATOM     14  C   UNL     1      14.588 -37.292   0.054  1.00  0.00     0.000 C 
BRANCH  14  15
ATOM     15  C   UNL     1      14.919 -37.025   1.532  1.00  0.00     0.000 C 
BRANCH  15  16
ATOM     16  C   UNL     1      15.114 -35.543   1.909  1.00  0.00     0.006 C 
BRANCH  16  17
ATOM     17  C   UNL     1      16.505 -35.219   2.485  1.00  0.00     0.053 C 
BRANCH  17  18
ATOM     18  C   UNL     1      16.485 -35.070   3.977  1.00  0.00     0.041 C 
ATOM     19  O   UNL     1      16.267 -33.945   4.499  1.00  0.00    -0.550 OA
ATOM     20  O   UNL     1      16.751 -36.163   4.792  1.00  0.00    -0.550 OA
ENDBRANCH  17  18
ENDBRANCH  16  17
ENDBRANCH  15  16
ENDBRANCH  14  15
ENDBRANCH  13  14
ENDBRANCH  12  13
ENDBRANCH  11  12
ENDBRANCH   1  11
TORSDOF 15
ENDMDL
MODEL 2
REMARK VINA RESULT:    -3.703      2.008      4.655
REMARK INTER + INTRA:          -9.496
REMARK INTER:                  -7.205
REMARK INTRA:                  -2.290
REMARK UNBOUND:                -2.546
REMARK SMILES O=C([O-])CCCCCCCCCCCCCCC(=O)[O-]
REMARK SMILES IDX 10 1 9 2 8 3 7 4 6 5 5 6 4 7 2 8 1 9 3 10 11 11 12 12 13 13
REMARK SMILES IDX 14 14 15 15 16 16 17 17 18 18 19 19 20 20
REMARK H PARENT
REMARK Flexibility Score: inf
ROOT
ATOM      1  C   UNL     1      17.403 -35.762  -0.718  1.00  0.00     0.000 C 
ENDROOT
BRANCH   1   2
ATOM      2  C   UNL     1      17.446 -34.227  -0.708  1.00  0.00     0.000 C 
BRANCH   2   3
ATOM      3  C   UNL     1      17.062 -33.659  -2.083  1.00  0.00     0.000 C 
BRANCH   3   4
ATOM      4  C   UNL     1      15.742 -32.873  -2.051  1.00  0.00     0.000 C 
BRANCH   4   5
ATOM      5  C   UNL     1      14.522 -33.748  -2.376  1.00  0.00     0.000 C 
BRANCH   5   6
ATOM      6  C   UNL     1      13.505 -33.719  -1.229  1.00  0.00     0.006 C 
BRANCH   6   7
ATOM      7  C   UNL     1      13.699 -34.915  -0.291  1.00  0.00     0.053 C 
BRANCH   7   8
ATOM      8  C   UNL     1      14.055 -34.448   1.086  1.00  0.00     0.041 C 
ATOM      9  O   UNL     1      14.985 -35.010   1.723  1.00  0.00    -0.550 OA
ATOM     10  O   UNL     1      13.395 -33.362   1.644  1.00  0.00    -0.550 OA
ENDBRANCH   7   8
ENDBRANCH   6   7
ENDBRANCH   5   6
ENDBRANCH   4   5
ENDBRANCH   3   4
ENDBRANCH   2   3
ENDBRANCH   1   2
BRANCH   1  11
ATOM     11  C   UNL     1      17.677 -36.359  -2.111  1.00  0.00     0.000 C 
BRANCH  11  12
ATOM     12  C   UNL     1      16.930 -37.671  -2.421  1.00  0.00     0.000 C 
BRANCH  12  13
ATOM     13  C   UNL     1      15.398 -37.602  -2.290  1.00  0.00     0.000 C 
BRANCH  13  14
ATOM     14  C   UNL     1      14.880 -38.280  -1.010  1.00  0.00     0.000 C 
BRANCH  14  15
ATOM     15  C   UNL     1      15.532 -39.648  -0.750  1.00  0.00     0.000 C 
BRANCH  15  16
ATOM     16  C   UNL     1      16.112 -39.847   0.665  1.00  0.00     0.006 C 
BRANCH  16  17
ATOM     17  C   UNL     1      17.121 -38.764   1.089  1.00  0.00     0.053 C 
BRANCH  17  18
ATOM     18  C   UNL     1      18.538 -39.156   0.793  1.00  0.00     0.041 C 
ATOM     19  O   UNL     1      19.420 -38.272   0.631  1.00  0.00    -0.550 OA
ATOM     20  O   UNL     1      18.877 -40.496   0.651  1.00  0.00    -0.550 OA
ENDBRANCH  17  18
ENDBRANCH  16  17
ENDBRANCH  15  16
ENDBRANCH  14  15
ENDBRANCH  13  14
ENDBRANCH  12  13
ENDBRANCH  11  12
ENDBRANCH   1  11
TORSDOF 15
ENDMDL
MODEL 3
REMARK VINA RESULT:    -3.665      1.668      3.313
REMARK INTER + INTRA:          -9.425
REMARK INTER:                  -6.889
REMARK INTRA:                  -2.535
REMARK UNBOUND:                -2.546
REMARK SMILES O=C([O-])CCCCCCCCCCCCCCC(=O)[O-]
REMARK SMILES IDX 10 1 9 2 8 3 7 4 6 5 5 6 4 7 2 8 1 9 3 10 11 11 12 12 13 13
REMARK SMILES IDX 14 14 15 15 16 16 17 17 18 18 19 19 20 20
REMARK H PARENT
REMARK Flexibility Score: inf
ROOT
ATOM      1  C   UNL     1      17.553 -35.660  -0.814  1.00  0.00     0.000 C 
ENDROOT
BRANCH   1   2
ATOM      2  C   UNL     1      17.487 -36.279  -2.217  1.00  0.00     0.000 C 
BRANCH   2   3
ATOM      3  C   UNL     1      16.534 -37.484  -2.240  1.00  0.00     0.000 C 
BRANCH   3   4
ATOM      4  C   UNL     1      15.937 -37.793  -0.859  1.00  0.00     0.000 C 
BRANCH   4   5
ATOM      5  C   UNL     1      16.117 -39.263  -0.450  1.00  0.00     0.000 C 
BRANCH   5   6
ATOM      6  C   UNL     1      16.264 -39.396   1.071  1.00  0.00     0.006 C 
BRANCH   6   7
ATOM      7  C   UNL     1      17.165 -38.293   1.635  1.00  0.00     0.053 C 
BRANCH   7   8
ATOM      8  C   UNL     1      18.597 -38.728   1.618  1.00  0.00     0.041 C 
ATOM      9  O   UNL     1      19.003 -39.602   2.429  1.00  0.00    -0.550 OA
ATOM     10  O   UNL     1      19.472 -38.205   0.675  1.00  0.00    -0.550 OA
ENDBRANCH   7   8
ENDBRANCH   6   7
ENDBRANCH   5   6
ENDBRANCH   4   5
ENDBRANCH   3   4
ENDBRANCH   2   3
ENDBRANCH   1   2
BRANCH   1  11
ATOM     11  C   UNL     1      17.515 -34.121  -0.837  1.00  0.00     0.000 C 
BRANCH  11  12
ATOM     12  C   UNL     1      16.875 -33.499  -2.094  1.00  0.00     0.000 C 
BRANCH  12  13
ATOM     13  C   UNL     1      15.480 -32.882  -1.886  1.00  0.00     0.000 C 
BRANCH  13  14
ATOM     14  C   UNL     1      14.358 -33.725  -2.515  1.00  0.00     0.000 C 
BRANCH  14  15
ATOM     15  C   UNL     1      13.832 -34.821  -1.573  1.00  0.00     0.000 C 
BRANCH  15  16
ATOM     16  C   UNL     1      13.921 -34.500  -0.068  1.00  0.00     0.006 C 
BRANCH  16  17
ATOM     17  C   UNL     1      13.439 -35.641   0.848  1.00  0.00     0.053 C 
BRANCH  17  18
ATOM     18  C   UNL     1      14.387 -35.903   1.980  1.00  0.00     0.041 C 
ATOM     19  O   UNL     1      14.125 -36.792   2.833  1.00  0.00    -0.550 OA
ATOM     20  O   UNL     1      15.537 -35.138   2.119  1.00  0.00    -0.550 OA
ENDBRANCH  17  18
ENDBRANCH  16  17
ENDBRANCH  15  16
ENDBRANCH  14  15
ENDBRANCH  13  14
ENDBRANCH  12  13
ENDBRANCH  11  12
ENDBRANCH   1  11
TORSDOF 15
ENDMDL
MODEL 4
REMARK VINA RESULT:    -3.637      2.285      4.156
REMARK INTER + INTRA:          -9.373
REMARK INTER:                  -7.098
REMARK INTRA:                  -2.275
REMARK UNBOUND:                -2.546
REMARK SMILES O=C([O-])CCCCCCCCCCCCCCC(=O)[O-]
REMARK SMILES IDX 10 1 9 2 8 3 7 4 6 5 5 6 4 7 2 8 1 9 3 10 11 11 12 12 13 13
REMARK SMILES IDX 14 14 15 15 16 16 17 17 18 18 19 19 20 20
REMARK H PARENT
REMARK Flexibility Score: inf
ROOT
ATOM      1  C   UNL     1      16.495 -33.357  -2.347  1.00  0.00     0.000 C 
ENDROOT
BRANCH   1   2
ATOM      2  C   UNL     1      17.722 -33.890  -1.594  1.00  0.00     0.000 C 
BRANCH   2   3
ATOM      3  C   UNL     1      17.325 -35.018  -0.628  1.00  0.00     0.000 C 
BRANCH   3   4
ATOM      4  C   UNL     1      17.808 -34.764   0.808  1.00  0.00     0.000 C 
BRANCH   4   5
ATOM      5  C   UNL     1      17.096 -35.654   1.838  1.00  0.00     0.000 C 
BRANCH   5   6
ATOM      6  C   UNL     1      16.708 -37.004   1.224  1.00  0.00     0.006 C 
BRANCH   6   7
ATOM      7  C   UNL     1      17.422 -38.158   1.935  1.00  0.00     0.053 C 
BRANCH   7   8
ATOM      8  C   UNL     1      18.557 -38.665   1.100  1.00  0.00     0.041 C 
ATOM      9  O   UNL     1      18.510 -39.821   0.604  1.00  0.00    -0.550 OA
ATOM     10  O   UNL     1      19.642 -37.842   0.830  1.00  0.00    -0.550 OA
ENDBRANCH   7   8
ENDBRANCH   6   7
ENDBRANCH   5   6
ENDBRANCH   4   5
ENDBRANCH   3   4
ENDBRANCH   2   3
ENDBRANCH   1   2
BRANCH   1  11
ATOM     11  C   UNL     1      15.353 -32.932  -1.405  1.00  0.00     0.000 C 
BRANCH  11  12
ATOM     12  C   UNL     1      13.939 -32.995  -2.018  1.00  0.00     0.000 C 
BRANCH  12  13
ATOM     13  C   UNL     1      13.247 -34.368  -1.935  1.00  0.00     0.000 C 
BRANCH  13  14
ATOM     14  C   UNL     1      13.608 -35.139  -0.655  1.00  0.00     0.000 C 
BRANCH  14  15
ATOM     15  C   UNL     1      13.798 -36.646  -0.897  1.00  0.00     0.000 C 
BRANCH  15  16
ATOM     16  C   UNL     1      14.301 -37.033  -2.301  1.00  0.00     0.006 C 
BRANCH  16  17
ATOM     17  C   UNL     1      15.731 -37.605  -2.322  1.00  0.00     0.053 C 
BRANCH  17  18
ATOM     18  C   UNL     1      15.746 -39.104  -2.369  1.00  0.00     0.041 C 
ATOM     19  O   UNL     1      15.757 -39.772  -1.301  1.00  0.00    -0.550 OA
ATOM     20  O   UNL     1      15.792 -39.764  -3.590  1.00  0.00    -0.550 OA
ENDBRANCH  17  18
ENDBRANCH  16  17
ENDBRANCH  15  16
ENDBRANCH  14  15
ENDBRANCH  13  14
ENDBRANCH  12  13
ENDBRANCH  11  12
ENDBRANCH   1  11
TORSDOF 15
ENDMDL
MODEL 5
REMARK VINA RESULT:    -3.623      2.667      5.370
REMARK INTER + INTRA:          -9.345
REMARK INTER:                  -6.586
REMARK INTRA:                  -2.759
REMARK UNBOUND:                -2.546
REMARK SMILES O=C([O-])CCCCCCCCCCCCCCC(=O)[O-]
REMARK SMILES IDX 10 1 9 2 8 3 7 4 6 5 5 6 4 7 2 8 1 9 3 10 11 11 12 12 13 13
REMARK SMILES IDX 14 14 15 15 16 16 17 17 18 18 19 19 20 20
REMARK H PARENT
REMARK Flexibility Score: inf
ROOT
ATOM      1  C   UNL     1      16.646 -37.585  -2.122  1.00  0.00     0.000 C 
ENDROOT
BRANCH   1   2
ATOM      2  C   UNL     1      15.211 -37.041  -2.166  1.00  0.00     0.000 C 
BRANCH   2   3
ATOM      3  C   UNL     1      14.490 -37.289  -0.832  1.00  0.00     0.000 C 
BRANCH   3   4
ATOM      4  C   UNL     1      13.331 -36.308  -0.594  1.00  0.00     0.000 C 
BRANCH   4   5
ATOM      5  C   UNL     1      13.472 -35.534   0.725  1.00  0.00     0.000 C 
BRANCH   5   6
ATOM      6  C   UNL     1      13.941 -34.096   0.472  1.00  0.00     0.006 C 
BRANCH   6   7
ATOM      7  C   UNL     1      13.100 -33.428  -0.621  1.00  0.00     0.053 C 
BRANCH   7   8
ATOM      8  C   UNL     1      13.980 -32.917  -1.719  1.00  0.00     0.041 C 
ATOM      9  O   UNL     1      14.716 -31.914  -1.525  1.00  0.00    -0.550 OA
ATOM     10  O   UNL     1      14.025 -33.578  -2.939  1.00  0.00    -0.550 OA
ENDBRANCH   7   8
ENDBRANCH   6   7
ENDBRANCH   5   6
ENDBRANCH   4   5
ENDBRANCH   3   4
ENDBRANCH   2   3
ENDBRANCH   1   2
BRANCH   1  11
ATOM     11  C   UNL     1      17.709 -36.471  -2.139  1.00  0.00     0.000 C 
BRANCH  11  12
ATOM     12  C   UNL     1      17.161 -35.039  -1.988  1.00  0.00     0.000 C 
BRANCH  12  13
ATOM     13  C   UNL     1      17.313 -34.420  -0.586  1.00  0.00     0.000 C 
BRANCH  13  14
ATOM     14  C   UNL     1      17.990 -35.372   0.413  1.00  0.00     0.000 C 
BRANCH  14  15
ATOM     15  C   UNL     1      17.062 -35.793   1.565  1.00  0.00     0.000 C 
BRANCH  15  16
ATOM     16  C   UNL     1      17.087 -37.292   1.922  1.00  0.00     0.006 C 
BRANCH  16  17
ATOM     17  C   UNL     1      18.190 -38.091   1.204  1.00  0.00     0.053 C 
BRANCH  17  18
ATOM     18  C   UNL     1      17.760 -39.491   0.877  1.00  0.00     0.041 C 
ATOM     19  O   UNL     1      16.542 -39.754   0.693  1.00  0.00    -0.550 OA
ATOM     20  O   UNL     1      18.698 -40.514   0.820  1.00  0.00    -0.550 OA
ENDBRANCH  17  18
ENDBRANCH  16  17
ENDBRANCH  15  16
ENDBRANCH  14  15
ENDBRANCH  13  14
ENDBRANCH  12  13
ENDBRANCH  11  12
ENDBRANCH   1  11
TORSDOF 15
ENDMDL
MODEL 6
REMARK VINA RESULT:    -3.580      2.377      4.567
REMARK INTER + INTRA:          -9.265
REMARK INTER:                  -7.072
REMARK INTRA:                  -2.193
REMARK UNBOUND:                -2.546
REMARK SMILES O=C([O-])CCCCCCCCCCCCCCC(=O)[O-]
REMARK SMILES IDX 10 1 9 2 8 3 7 4 6 5 5 6 4 7 2 8 1 9 3 10 11 11 12 12 13 13
REMARK SMILES IDX 14 14 15 15 16 16 17 17 18 18 19 19 20 20
REMARK H PARENT
REMARK Flexibility Score: inf
ROOT
ATOM      1  C   UNL     1      13.988 -33.566  -0.917  1.00  0.00     0.000 C 
ENDROOT
BRANCH   1   2
ATOM      2  C   UNL     1      13.660 -34.747   0.008  1.00  0.00     0.000 C 
BRANCH   2   3
ATOM      3  C   UNL     1      14.665 -34.832   1.167  1.00  0.00     0.000 C 
BRANCH   3   4
ATOM      4  C   UNL     1      15.011 -36.280   1.546  1.00  0.00     0.000 C 
BRANCH   4   5
ATOM      5  C   UNL     1      16.521 -36.503   1.721  1.00  0.00     0.000 C 
BRANCH   5   6
ATOM      6  C   UNL     1      16.815 -37.934   2.185  1.00  0.00     0.006 C 
BRANCH   6   7
ATOM      7  C   UNL     1      16.899 -38.893   0.993  1.00  0.00     0.053 C 
BRANCH   7   8
ATOM      8  C   UNL     1      18.319 -39.294   0.742  1.00  0.00     0.041 C 
ATOM      9  O   UNL     1      19.167 -38.431   0.394  1.00  0.00    -0.550 OA
ATOM     10  O   UNL     1      18.716 -40.609   0.942  1.00  0.00    -0.550 OA
ENDBRANCH   7   8
ENDBRANCH   6   7
ENDBRANCH   5   6
ENDBRANCH   4   5
ENDBRANCH   3   4
ENDBRANCH   2   3
ENDBRANCH   1   2
BRANCH   1  11
ATOM     11  C   UNL     1      14.914 -33.958  -2.082  1.00  0.00     0.000 C 
BRANCH  11  12
ATOM     12  C   UNL     1      16.200 -33.118  -2.210  1.00  0.00     0.000 C 
BRANCH  12  13
ATOM     13  C   UNL     1      17.511 -33.872  -1.922  1.00  0.00     0.000 C 
BRANCH  13  14
ATOM     14  C   UNL     1      17.274 -35.301  -1.406  1.00  0.00     0.000 C 
BRANCH  14  15
ATOM     15  C   UNL     1      17.804 -36.381  -2.364  1.00  0.00     0.000 C 
BRANCH  15  16
ATOM     16  C   UNL     1      17.000 -37.695  -2.391  1.00  0.00     0.006 C 
BRANCH  16  17
ATOM     17  C   UNL     1      15.486 -37.511  -2.173  1.00  0.00     0.053 C 
BRANCH  17  18
ATOM     18  C   UNL     1      14.759 -38.820  -2.085  1.00  0.00     0.041 C 
ATOM     19  O   UNL     1      13.983 -39.050  -1.120  1.00  0.00    -0.550 OA
ATOM     20  O   UNL     1      14.971 -39.802  -3.044  1.00  0.00    -0.550 OA
ENDBRANCH  17  18
ENDBRANCH  16  17
ENDBRANCH  15  16
ENDBRANCH  14  15
ENDBRANCH  13  14
ENDBRANCH  12  13
ENDBRANCH  11  12
ENDBRANCH   1  11
TORSDOF 15
ENDMDL
MODEL 7
REMARK VINA RESULT:    -3.553      2.758      4.915
REMARK INTER + INTRA:          -9.215
REMARK INTER:                  -7.323
REMARK INTRA:                  -1.892
REMARK UNBOUND:                -2.546
REMARK SMILES O=C([O-])CCCCCCCCCCCCCCC(=O)[O-]
REMARK SMILES IDX 10 1 9 2 8 3 7 4 6 5 5 6 4 7 2 8 1 9 3 10 11 11 12 12 13 13
REMARK SMILES IDX 14 14 15 15 16 16 17 17 18 18 19 19 20 20
REMARK H PARENT
REMARK Flexibility Score: inf
ROOT
ATOM      1  C   UNL     1      14.807 -33.592  -1.489  1.00  0.00     0.000 C 
ENDROOT
BRANCH   1   2
ATOM      2  C   UNL     1      13.599 -33.451  -2.426  1.00  0.00     0.000 C 
BRANCH   2   3
ATOM      3  C   UNL     1      13.073 -34.831  -2.852  1.00  0.00     0.000 C 
BRANCH   3   4
ATOM      4  C   UNL     1      13.684 -35.977  -2.032  1.00  0.00     0.000 C 
BRANCH   4   5
ATOM      5  C   UNL     1      13.685 -37.314  -2.789  1.00  0.00     0.000 C 
BRANCH   5   6
ATOM      6  C   UNL     1      14.463 -38.384  -2.014  1.00  0.00     0.006 C 
BRANCH   6   7
ATOM      7  C   UNL     1      15.155 -39.361  -2.970  1.00  0.00     0.053 C 
BRANCH   7   8
ATOM      8  C   UNL     1      14.142 -40.120  -3.768  1.00  0.00     0.041 C 
ATOM      9  O   UNL     1      14.165 -40.076  -5.026  1.00  0.00    -0.550 OA
ATOM     10  O   UNL     1      13.204 -40.916  -3.123  1.00  0.00    -0.550 OA
ENDBRANCH   7   8
ENDBRANCH   6   7
ENDBRANCH   5   6
ENDBRANCH   4   5
ENDBRANCH   3   4
ENDBRANCH   2   3
ENDBRANCH   1   2
BRANCH   1  11
ATOM     11  C   UNL     1      16.110 -33.053  -2.108  1.00  0.00     0.000 C 
BRANCH  11  12
ATOM     12  C   UNL     1      17.391 -33.809  -1.702  1.00  0.00     0.000 C 
BRANCH  12  13
ATOM     13  C   UNL     1      17.186 -35.280  -1.298  1.00  0.00     0.000 C 
BRANCH  13  14
ATOM     14  C   UNL     1      17.550 -36.262  -2.425  1.00  0.00     0.000 C 
BRANCH  14  15
ATOM     15  C   UNL     1      18.094 -37.602  -1.900  1.00  0.00     0.000 C 
BRANCH  15  16
ATOM     16  C   UNL     1      18.312 -37.677  -0.376  1.00  0.00     0.006 C 
BRANCH  16  17
ATOM     17  C   UNL     1      17.482 -38.768   0.325  1.00  0.00     0.053 C 
BRANCH  17  18
ATOM     18  C   UNL     1      18.314 -39.627   1.229  1.00  0.00     0.041 C 
ATOM     19  O   UNL     1      18.866 -39.130   2.246  1.00  0.00    -0.550 OA
ATOM     20  O   UNL     1      18.519 -40.967   0.924  1.00  0.00    -0.550 OA
ENDBRANCH  17  18
ENDBRANCH  16  17
ENDBRANCH  15  16
ENDBRANCH  14  15
ENDBRANCH  13  14
ENDBRANCH  12  13
ENDBRANCH  11  12
ENDBRANCH   1  11
TORSDOF 15
ENDMDL
MODEL 8
REMARK VINA RESULT:    -3.550      1.294      2.145
REMARK INTER + INTRA:          -9.208
REMARK INTER:                  -6.875
REMARK INTRA:                  -2.333
REMARK UNBOUND:                -2.546
REMARK SMILES O=C([O-])CCCCCCCCCCCCCCC(=O)[O-]
REMARK SMILES IDX 10 1 9 2 8 3 7 4 6 5 5 6 4 7 2 8 1 9 3 10 11 11 12 12 13 13
REMARK SMILES IDX 14 14 15 15 16 16 17 17 18 18 19 19 20 20
REMARK H PARENT
REMARK Flexibility Score: inf
ROOT
ATOM      1  C   UNL     1      16.833 -33.517  -2.180  1.00  0.00     0.000 C 
ENDROOT
BRANCH   1   2
ATOM      2  C   UNL     1      17.470 -34.094  -0.908  1.00  0.00     0.000 C 
BRANCH   2   3
ATOM      3  C   UNL     1      17.326 -35.624  -0.869  1.00  0.00     0.000 C 
BRANCH   3   4
ATOM      4  C   UNL     1      17.544 -36.275  -2.243  1.00  0.00     0.000 C 
BRANCH   4   5
ATOM      5  C   UNL     1      17.274 -37.787  -2.232  1.00  0.00     0.000 C 
BRANCH   5   6
ATOM      6  C   UNL     1      16.778 -38.247  -0.856  1.00  0.00     0.006 C 
BRANCH   6   7
ATOM      7  C   UNL     1      17.810 -39.151  -0.174  1.00  0.00     0.053 C 
BRANCH   7   8
ATOM      8  C   UNL     1      18.426 -38.452   0.997  1.00  0.00     0.041 C 
ATOM      9  O   UNL     1      17.788 -38.346   2.078  1.00  0.00    -0.550 OA
ATOM     10  O   UNL     1      19.722 -37.961   0.912  1.00  0.00    -0.550 OA
ENDBRANCH   7   8
ENDBRANCH   6   7
ENDBRANCH   5   6
ENDBRANCH   4   5
ENDBRANCH   3   4
ENDBRANCH   2   3
ENDBRANCH   1   2
BRANCH   1  11
ATOM     11  C   UNL     1      15.538 -32.733  -1.896  1.00  0.00     0.000 C 
BRANCH  11  12
ATOM     12  C   UNL     1      14.272 -33.289  -2.578  1.00  0.00     0.000 C 
BRANCH  12  13
ATOM     13  C   UNL     1      13.465 -34.300  -1.743  1.00  0.00     0.000 C 
BRANCH  13  14
ATOM     14  C   UNL     1      13.784 -35.760  -2.107  1.00  0.00     0.000 C 
BRANCH  14  15
ATOM     15  C   UNL     1      13.776 -36.698  -0.888  1.00  0.00     0.000 C 
BRANCH  15  16
ATOM     16  C   UNL     1      13.854 -36.000   0.484  1.00  0.00     0.006 C 
BRANCH  16  17
ATOM     17  C   UNL     1      14.464 -36.869   1.599  1.00  0.00     0.053 C 
BRANCH  17  18
ATOM     18  C   UNL     1      15.100 -36.048   2.681  1.00  0.00     0.041 C 
ATOM     19  O   UNL     1      14.581 -35.999   3.827  1.00  0.00    -0.550 OA
ATOM     20  O   UNL     1      16.240 -35.301   2.412  1.00  0.00    -0.550 OA
ENDBRANCH  17  18
ENDBRANCH  16  17
ENDBRANCH  15  16
ENDBRANCH  14  15
ENDBRANCH  13  14
ENDBRANCH  12  13
ENDBRANCH  11  12
ENDBRANCH   1  11
TORSDOF 15
ENDMDL
MODEL 9
REMARK VINA RESULT:    -3.470      1.094      4.232
REMARK INTER + INTRA:          -9.058
REMARK INTER:                  -6.771
REMARK INTRA:                  -2.287
REMARK UNBOUND:                -2.546
REMARK SMILES O=C([O-])CCCCCCCCCCCCCCC(=O)[O-]
REMARK SMILES IDX 10 1 9 2 8 3 7 4 6 5 5 6 4 7 2 8 1 9 3 10 11 11 12 12 13 13
REMARK SMILES IDX 14 14 15 15 16 16 17 17 18 18 19 19 20 20
REMARK H PARENT
REMARK Flexibility Score: inf
ROOT
ATOM      1  C   UNL     1      15.766 -32.831  -2.127  1.00  0.00     0.000 C 
ENDROOT
BRANCH   1   2
ATOM      2  C   UNL     1      14.684 -33.853  -1.750  1.00  0.00     0.000 C 
BRANCH   2   3
ATOM      3  C   UNL     1      13.826 -33.338  -0.584  1.00  0.00     0.000 C 
BRANCH   3   4
ATOM      4  C   UNL     1      13.997 -34.176   0.692  1.00  0.00     0.000 C 
BRANCH   4   5
ATOM      5  C   UNL     1      14.178 -35.673   0.399  1.00  0.00     0.000 C 
BRANCH   5   6
ATOM      6  C   UNL     1      15.022 -36.348   1.486  1.00  0.00     0.006 C 
BRANCH   6   7
ATOM      7  C   UNL     1      16.167 -35.436   1.939  1.00  0.00     0.053 C 
BRANCH   7   8
ATOM      8  C   UNL     1      16.301 -35.465   3.429  1.00  0.00     0.041 C 
ATOM      9  O   UNL     1      15.977 -34.459   4.113  1.00  0.00    -0.550 OA
ATOM     10  O   UNL     1      16.737 -36.619   4.066  1.00  0.00    -0.550 OA
ENDBRANCH   7   8
ENDBRANCH   6   7
ENDBRANCH   5   6
ENDBRANCH   4   5
ENDBRANCH   3   4
ENDBRANCH   2   3
ENDBRANCH   1   2
BRANCH   1  11
ATOM     11  C   UNL     1      17.180 -33.441  -2.156  1.00  0.00     0.000 C 
BRANCH  11  12
ATOM     12  C   UNL     1      17.355 -34.730  -1.329  1.00  0.00     0.000 C 
BRANCH  12  13
ATOM     13  C   UNL     1      17.705 -35.991  -2.141  1.00  0.00     0.000 C 
BRANCH  13  14
ATOM     14  C   UNL     1      16.594 -37.054  -2.096  1.00  0.00     0.000 C 
BRANCH  14  15
ATOM     15  C   UNL     1      16.915 -38.215  -1.140  1.00  0.00     0.000 C 
BRANCH  15  16
ATOM     16  C   UNL     1      18.338 -38.212  -0.548  1.00  0.00     0.006 C 
BRANCH  16  17
ATOM     17  C   UNL     1      18.386 -37.975   0.973  1.00  0.00     0.053 C 
BRANCH  17  18
ATOM     18  C   UNL     1      18.497 -39.255   1.747  1.00  0.00     0.041 C 
ATOM     19  O   UNL     1      19.244 -39.322   2.759  1.00  0.00    -0.550 OA
ATOM     20  O   UNL     1      17.810 -40.387   1.327  1.00  0.00    -0.550 OA
ENDBRANCH  17  18
ENDBRANCH  16  17
ENDBRANCH  15  16
ENDBRANCH  14  15
ENDBRANCH  13  14
ENDBRANCH  12  13
ENDBRANCH  11  12
ENDBRANCH   1  11
TORSDOF 15
ENDMDL
