MODEL 1
REMARK VINA RESULT:    -3.275      0.000      0.000
REMARK INTER + INTRA:          -4.908
REMARK INTER:                  -4.616
REMARK INTRA:                  -0.292
REMARK UNBOUND:                -0.292
REMARK SMILES CCCCCCCCC(=O)[O-]
REMARK SMILES IDX 6 1 7 2 8 3 9 4 10 5 11 6 5 7 4 8 3 9 2 10 1 11
REMARK H PARENT
REMARK Flexibility Score: inf
ROOT
ATOM      1  C   UNL     1     -10.021 -19.894  19.112  1.00  0.00     0.000 C 
ENDROOT
BRANCH   1   2
ATOM      2  C   UNL     1     -10.922 -19.248  20.176  1.00  0.00     0.006 C 
BRANCH   2   3
ATOM      3  C   UNL     1     -10.253 -18.011  20.781  1.00  0.00     0.053 C 
BRANCH   3   4
ATOM      4  C   UNL     1      -9.648 -18.339  22.110  1.00  0.00     0.041 C 
ATOM      5  O   UNL     1      -8.880 -17.517  22.676  1.00  0.00    -0.550 OA
ATOM      6  O   UNL     1      -9.972 -19.530  22.747  1.00  0.00    -0.550 OA
ENDBRANCH   3   4
ENDBRANCH   2   3
ENDBRANCH   1   2
BRANCH   1   7
ATOM      7  C   UNL     1     -10.646 -21.158  18.499  1.00  0.00     0.000 C 
BRANCH   7   8
ATOM      8  C   UNL     1     -10.380 -21.275  16.987  1.00  0.00    -0.000 C 
BRANCH   8   9
ATOM      9  C   UNL     1     -11.125 -20.191  16.180  1.00  0.00    -0.000 C 
BRANCH   9  10
ATOM     10  C   UNL     1     -10.700 -20.125  14.703  1.00  0.00    -0.003 C 
ATOM     11  C   UNL     1      -9.235 -20.501  14.484  1.00  0.00     0.004 C 
ENDBRANCH   9  10
ENDBRANCH   8   9
ENDBRANCH   7   8
ENDBRANCH   1   7
TORSDOF 7
ENDMDL
MODEL 2
REMARK VINA RESULT:    -3.233     18.607     20.399
REMARK INTER + INTRA:          -4.848
REMARK INTER:                  -4.522
REMARK INTRA:                  -0.326
REMARK UNBOUND:                -0.292
REMARK SMILES CCCCCCCCC(=O)[O-]
REMARK SMILES IDX 6 1 7 2 8 3 9 4 10 5 11 6 5 7 4 8 3 9 2 10 1 11
REMARK H PARENT
REMARK Flexibility Score: inf
ROOT
ATOM      1  C   UNL     1       8.347 -19.378  12.344  1.00  0.00     0.000 C 
ENDROOT
BRANCH   1   2
ATOM      2  C   UNL     1       9.099 -20.220  11.302  1.00  0.00     0.006 C 
BRANCH   2   3
ATOM      3  C   UNL     1       8.201 -21.324  10.738  1.00  0.00     0.053 C 
BRANCH   3   4
ATOM      4  C   UNL     1       8.187 -21.277   9.243  1.00  0.00     0.041 C 
ATOM      5  O   UNL     1       8.802 -20.363   8.633  1.00  0.00    -0.550 OA
ATOM      6  O   UNL     1       7.537 -22.270   8.522  1.00  0.00    -0.550 OA
ENDBRANCH   3   4
ENDBRANCH   2   3
ENDBRANCH   1   2
BRANCH   1   7
ATOM      7  C   UNL     1       8.982 -19.464  13.741  1.00  0.00     0.000 C 
BRANCH   7   8
ATOM      8  C   UNL     1       8.947 -20.890  14.321  1.00  0.00    -0.000 C 
BRANCH   8   9
ATOM      9  C   UNL     1       7.554 -21.256  14.878  1.00  0.00    -0.000 C 
BRANCH   9  10
ATOM     10  C   UNL     1       7.587 -21.759  16.331  1.00  0.00    -0.003 C 
ATOM     11  C   UNL     1       6.375 -21.312  17.147  1.00  0.00     0.004 C 
ENDBRANCH   9  10
ENDBRANCH   8   9
ENDBRANCH   7   8
ENDBRANCH   1   7
TORSDOF 7
ENDMDL
MODEL 3
REMARK VINA RESULT:    -3.112     17.696     19.400
REMARK INTER + INTRA:          -4.678
REMARK INTER:                  -4.296
REMARK INTRA:                  -0.382
REMARK UNBOUND:                -0.292
REMARK SMILES CCCCCCCCC(=O)[O-]
REMARK SMILES IDX 6 1 7 2 8 3 9 4 10 5 11 6 5 7 4 8 3 9 2 10 1 11
REMARK H PARENT
REMARK Flexibility Score: inf
ROOT
ATOM      1  C   UNL     1       6.892 -21.981  12.557  1.00  0.00     0.000 C 
ENDROOT
BRANCH   1   2
ATOM      2  C   UNL     1       8.368 -22.107  12.149  1.00  0.00     0.006 C 
BRANCH   2   3
ATOM      3  C   UNL     1       9.016 -20.727  12.008  1.00  0.00     0.053 C 
BRANCH   3   4
ATOM      4  C   UNL     1       8.238 -19.877  11.054  1.00  0.00     0.041 C 
ATOM      5  O   UNL     1       7.589 -18.883  11.475  1.00  0.00    -0.550 OA
ATOM      6  O   UNL     1       8.269 -20.152   9.693  1.00  0.00    -0.550 OA
ENDBRANCH   3   4
ENDBRANCH   2   3
ENDBRANCH   1   2
BRANCH   1   7
ATOM      7  C   UNL     1       6.530 -22.890  13.743  1.00  0.00     0.000 C 
BRANCH   7   8
ATOM      8  C   UNL     1       7.558 -22.809  14.886  1.00  0.00    -0.000 C 
BRANCH   8   9
ATOM      9  C   UNL     1       7.523 -21.444  15.604  1.00  0.00    -0.000 C 
BRANCH   9  10
ATOM     10  C   UNL     1       7.199 -21.547  17.105  1.00  0.00    -0.003 C 
ATOM     11  C   UNL     1       5.702 -21.484  17.400  1.00  0.00     0.004 C 
ENDBRANCH   9  10
ENDBRANCH   8   9
ENDBRANCH   7   8
ENDBRANCH   1   7
TORSDOF 7
ENDMDL
MODEL 4
REMARK VINA RESULT:    -2.959      2.470      3.652
REMARK INTER + INTRA:          -4.462
REMARK INTER:                  -3.922
REMARK INTRA:                  -0.540
REMARK UNBOUND:                -0.292
REMARK SMILES CCCCCCCCC(=O)[O-]
REMARK SMILES IDX 6 1 7 2 8 3 9 4 10 5 11 6 5 7 4 8 3 9 2 10 1 11
REMARK H PARENT
REMARK Flexibility Score: inf
ROOT
ATOM      1  C   UNL     1      -9.181 -21.226  22.939  1.00  0.00     0.000 C 
ENDROOT
BRANCH   1   2
ATOM      2  C   UNL     1     -10.316 -20.535  22.168  1.00  0.00     0.006 C 
BRANCH   2   3
ATOM      3  C   UNL     1     -10.562 -19.122  22.705  1.00  0.00     0.053 C 
BRANCH   3   4
ATOM      4  C   UNL     1      -9.581 -18.159  22.116  1.00  0.00     0.041 C 
ATOM      5  O   UNL     1      -9.538 -17.982  20.869  1.00  0.00    -0.550 OA
ATOM      6  O   UNL     1      -8.748 -17.419  22.945  1.00  0.00    -0.550 OA
ENDBRANCH   3   4
ENDBRANCH   2   3
ENDBRANCH   1   2
BRANCH   1   7
ATOM      7  C   UNL     1      -8.670 -22.489  22.228  1.00  0.00     0.000 C 
BRANCH   7   8
ATOM      8  C   UNL     1      -9.299 -22.680  20.836  1.00  0.00    -0.000 C 
BRANCH   8   9
ATOM      9  C   UNL     1      -8.244 -23.030  19.765  1.00  0.00    -0.000 C 
BRANCH   9  10
ATOM     10  C   UNL     1      -8.272 -22.092  18.546  1.00  0.00    -0.003 C 
ATOM     11  C   UNL     1      -9.399 -21.063  18.608  1.00  0.00     0.004 C 
ENDBRANCH   9  10
ENDBRANCH   8   9
ENDBRANCH   7   8
ENDBRANCH   1   7
TORSDOF 7
ENDMDL
MODEL 5
REMARK VINA RESULT:    -2.945      1.689      2.418
REMARK INTER + INTRA:          -4.442
REMARK INTER:                  -4.170
REMARK INTRA:                  -0.272
REMARK UNBOUND:                -0.292
REMARK SMILES CCCCCCCCC(=O)[O-]
REMARK SMILES IDX 6 1 7 2 8 3 9 4 10 5 11 6 5 7 4 8 3 9 2 10 1 11
REMARK H PARENT
REMARK Flexibility Score: inf
ROOT
ATOM      1  C   UNL     1      -9.916 -20.034  19.364  1.00  0.00     0.000 C 
ENDROOT
BRANCH   1   2
ATOM      2  C   UNL     1     -10.876 -19.087  20.100  1.00  0.00     0.006 C 
BRANCH   2   3
ATOM      3  C   UNL     1     -10.109 -17.942  20.768  1.00  0.00     0.053 C 
BRANCH   3   4
ATOM      4  C   UNL     1      -9.790 -18.284  22.189  1.00  0.00     0.041 C 
ATOM      5  O   UNL     1     -10.364 -19.253  22.752  1.00  0.00    -0.550 OA
ATOM      6  O   UNL     1      -8.821 -17.563  22.877  1.00  0.00    -0.550 OA
ENDBRANCH   3   4
ENDBRANCH   2   3
ENDBRANCH   1   2
BRANCH   1   7
ATOM      7  C   UNL     1     -10.561 -20.682  18.128  1.00  0.00     0.000 C 
BRANCH   7   8
ATOM      8  C   UNL     1      -9.532 -21.381  17.221  1.00  0.00    -0.000 C 
BRANCH   8   9
ATOM      9  C   UNL     1      -8.588 -22.306  18.018  1.00  0.00    -0.000 C 
BRANCH   9  10
ATOM     10  C   UNL     1      -7.101 -22.105  17.681  1.00  0.00    -0.003 C 
ATOM     11  C   UNL     1      -6.779 -22.371  16.211  1.00  0.00     0.004 C 
ENDBRANCH   9  10
ENDBRANCH   8   9
ENDBRANCH   7   8
ENDBRANCH   1   7
TORSDOF 7
ENDMDL
MODEL 6
REMARK VINA RESULT:    -2.923     17.499     18.696
REMARK INTER + INTRA:          -4.411
REMARK INTER:                  -3.691
REMARK INTRA:                  -0.720
REMARK UNBOUND:                -0.292
REMARK SMILES CCCCCCCCC(=O)[O-]
REMARK SMILES IDX 6 1 7 2 8 3 9 4 10 5 11 6 5 7 4 8 3 9 2 10 1 11
REMARK H PARENT
REMARK Flexibility Score: inf
ROOT
ATOM      1  C   UNL     1       6.215 -22.360  13.210  1.00  0.00     0.000 C 
ENDROOT
BRANCH   1   2
ATOM      2  C   UNL     1       7.552 -22.345  13.967  1.00  0.00     0.006 C 
BRANCH   2   3
ATOM      3  C   UNL     1       7.587 -21.209  14.993  1.00  0.00     0.053 C 
BRANCH   3   4
ATOM      4  C   UNL     1       7.351 -21.740  16.372  1.00  0.00     0.041 C 
ATOM      5  O   UNL     1       8.024 -22.715  16.798  1.00  0.00    -0.550 OA
ATOM      6  O   UNL     1       6.423 -21.127  17.204  1.00  0.00    -0.550 OA
ENDBRANCH   3   4
ENDBRANCH   2   3
ENDBRANCH   1   2
BRANCH   1   7
ATOM      7  C   UNL     1       6.377 -22.766  11.737  1.00  0.00     0.000 C 
BRANCH   7   8
ATOM      8  C   UNL     1       7.841 -22.706  11.263  1.00  0.00    -0.000 C 
BRANCH   8   9
ATOM      9  C   UNL     1       8.111 -21.483  10.361  1.00  0.00    -0.000 C 
BRANCH   9  10
ATOM     10  C   UNL     1       8.827 -20.331  11.086  1.00  0.00    -0.003 C 
ATOM     11  C   UNL     1       7.861 -19.329  11.718  1.00  0.00     0.004 C 
ENDBRANCH   9  10
ENDBRANCH   8   9
ENDBRANCH   7   8
ENDBRANCH   1   7
TORSDOF 7
ENDMDL
MODEL 7
REMARK VINA RESULT:    -2.906      2.430      4.262
REMARK INTER + INTRA:          -4.387
REMARK INTER:                  -3.781
REMARK INTRA:                  -0.606
REMARK UNBOUND:                -0.292
REMARK SMILES CCCCCCCCC(=O)[O-]
REMARK SMILES IDX 6 1 7 2 8 3 9 4 10 5 11 6 5 7 4 8 3 9 2 10 1 11
REMARK H PARENT
REMARK Flexibility Score: inf
ROOT
ATOM      1  C   UNL     1     -10.071 -20.353  19.313  1.00  0.00     0.000 C 
ENDROOT
BRANCH   1   2
ATOM      2  C   UNL     1     -10.774 -19.422  20.312  1.00  0.00     0.006 C 
BRANCH   2   3
ATOM      3  C   UNL     1      -9.842 -18.292  20.757  1.00  0.00     0.053 C 
BRANCH   3   4
ATOM      4  C   UNL     1      -9.842 -18.168  22.248  1.00  0.00     0.041 C 
ATOM      5  O   UNL     1     -10.760 -18.699  22.927  1.00  0.00    -0.550 OA
ATOM      6  O   UNL     1      -8.802 -17.509  22.891  1.00  0.00    -0.550 OA
ENDBRANCH   3   4
ENDBRANCH   2   3
ENDBRANCH   1   2
BRANCH   1   7
ATOM      7  C   UNL     1     -10.738 -21.735  19.225  1.00  0.00     0.000 C 
BRANCH   7   8
ATOM      8  C   UNL     1      -9.838 -22.862  19.763  1.00  0.00    -0.000 C 
BRANCH   8   9
ATOM      9  C   UNL     1      -9.928 -22.995  21.298  1.00  0.00    -0.000 C 
BRANCH   9  10
ATOM     10  C   UNL     1      -8.627 -22.615  22.024  1.00  0.00    -0.003 C 
ATOM     11  C   UNL     1      -8.855 -21.683  23.214  1.00  0.00     0.004 C 
ENDBRANCH   9  10
ENDBRANCH   8   9
ENDBRANCH   7   8
ENDBRANCH   1   7
TORSDOF 7
ENDMDL
MODEL 8
REMARK VINA RESULT:    -2.897     18.196     19.506
REMARK INTER + INTRA:          -4.375
REMARK INTER:                  -3.996
REMARK INTRA:                  -0.378
REMARK UNBOUND:                -0.292
REMARK SMILES CCCCCCCCC(=O)[O-]
REMARK SMILES IDX 6 1 7 2 8 3 9 4 10 5 11 6 5 7 4 8 3 9 2 10 1 11
REMARK H PARENT
REMARK Flexibility Score: inf
ROOT
ATOM      1  C   UNL     1       8.679 -19.396  13.370  1.00  0.00     0.000 C 
ENDROOT
BRANCH   1   2
ATOM      2  C   UNL     1       8.941 -20.756  14.033  1.00  0.00     0.006 C 
BRANCH   2   3
ATOM      3  C   UNL     1       7.628 -21.420  14.458  1.00  0.00     0.053 C 
BRANCH   3   4
ATOM      4  C   UNL     1       7.618 -21.666  15.934  1.00  0.00     0.041 C 
ATOM      5  O   UNL     1       8.503 -22.392  16.460  1.00  0.00    -0.550 OA
ATOM      6  O   UNL     1       6.662 -21.056  16.735  1.00  0.00    -0.550 OA
ENDBRANCH   3   4
ENDBRANCH   2   3
ENDBRANCH   1   2
BRANCH   1   7
ATOM      7  C   UNL     1       8.081 -19.532  11.960  1.00  0.00     0.000 C 
BRANCH   7   8
ATOM      8  C   UNL     1       8.958 -20.386  11.026  1.00  0.00    -0.000 C 
BRANCH   8   9
ATOM      9  C   UNL     1       8.189 -21.594  10.451  1.00  0.00    -0.000 C 
BRANCH   9  10
ATOM     10  C   UNL     1       8.168 -21.632   8.913  1.00  0.00    -0.003 C 
ATOM     11  C   UNL     1       8.796 -20.394   8.274  1.00  0.00     0.004 C 
ENDBRANCH   9  10
ENDBRANCH   8   9
ENDBRANCH   7   8
ENDBRANCH   1   7
TORSDOF 7
ENDMDL
MODEL 9
REMARK VINA RESULT:    -2.888      3.373      5.801
REMARK INTER + INTRA:          -4.362
REMARK INTER:                  -4.072
REMARK INTRA:                  -0.290
REMARK UNBOUND:                -0.292
REMARK SMILES CCCCCCCCC(=O)[O-]
REMARK SMILES IDX 6 1 7 2 8 3 9 4 10 5 11 6 5 7 4 8 3 9 2 10 1 11
REMARK H PARENT
REMARK Flexibility Score: inf
ROOT
ATOM      1  C   UNL     1     -10.033 -20.437  18.688  1.00  0.00     0.000 C 
ENDROOT
BRANCH   1   2
ATOM      2  C   UNL     1      -9.226 -21.714  18.967  1.00  0.00     0.006 C 
BRANCH   2   3
ATOM      3  C   UNL     1      -8.490 -22.183  17.708  1.00  0.00     0.053 C 
BRANCH   3   4
ATOM      4  C   UNL     1      -7.015 -22.235  17.952  1.00  0.00     0.041 C 
ATOM      5  O   UNL     1      -6.567 -22.728  19.020  1.00  0.00    -0.550 OA
ATOM      6  O   UNL     1      -6.133 -21.785  16.978  1.00  0.00    -0.550 OA
ENDBRANCH   3   4
ENDBRANCH   2   3
ENDBRANCH   1   2
BRANCH   1   7
ATOM      7  C   UNL     1     -11.046 -20.125  19.802  1.00  0.00     0.000 C 
BRANCH   7   8
ATOM      8  C   UNL     1     -11.123 -18.622  20.127  1.00  0.00    -0.000 C 
BRANCH   8   9
ATOM      9  C   UNL     1      -9.822 -18.100  20.773  1.00  0.00    -0.000 C 
BRANCH   9  10
ATOM     10  C   UNL     1      -9.651 -18.527  22.241  1.00  0.00    -0.003 C 
ATOM     11  C   UNL     1      -8.883 -17.504  23.077  1.00  0.00     0.004 C 
ENDBRANCH   9  10
ENDBRANCH   8   9
ENDBRANCH   7   8
ENDBRANCH   1   7
TORSDOF 7
ENDMDL
