MODEL 1
REMARK VINA RESULT:    -4.880      0.000      0.000
REMARK INTER + INTRA:          -5.583
REMARK INTER:                  -5.593
REMARK INTRA:                   0.010
REMARK UNBOUND:                 0.010
REMARK SMILES CC=Cc1ccc(O)c(OC)c1
REMARK SMILES IDX 4 1 12 2 9 3 7 4 6 5 5 6 3 7 1 8 2 9 10 10 11 11 8 12
REMARK H PARENT 8 13
REMARK Flexibility Score: inf
ROOT
ATOM      1  C   UNL     1      15.808 -10.360  12.182  1.00  0.00    -0.022 A 
ATOM      2  C   UNL     1      14.438 -10.423  12.479  1.00  0.00     0.058 A 
ATOM      3  C   UNL     1      13.820 -11.661  12.747  1.00  0.00     0.161 A 
ATOM      4  C   UNL     1      14.583 -12.836  12.692  1.00  0.00     0.157 A 
ATOM      5  C   UNL     1      15.944 -12.777  12.367  1.00  0.00     0.051 A 
ATOM      6  C   UNL     1      16.551 -11.548  12.104  1.00  0.00     0.012 A 
ENDROOT
BRANCH   1   7
ATOM      7  C   UNL     1      16.420  -9.050  11.880  1.00  0.00     0.003 C 
ATOM      8  C   UNL     1      18.140  -9.193  13.701  1.00  0.00     0.035 C 
ATOM      9  C   UNL     1      17.469  -8.533  12.533  1.00  0.00    -0.030 C 
ENDBRANCH   1   7
BRANCH   3  10
ATOM     10  O   UNL     1      12.456 -11.762  13.066  1.00  0.00    -0.493 OA
ATOM     11  C   UNL     1      11.419 -11.971  12.114  1.00  0.00     0.278 C 
ENDBRANCH   3  10
BRANCH   4  12
ATOM     12  O   UNL     1      13.977 -14.063  12.958  1.00  0.00    -0.504 OA
ATOM     13  H   UNL     1      14.328 -14.926  12.560  1.00  0.00     0.293 HD
ENDBRANCH   4  12
TORSDOF 3
ENDMDL
MODEL 2
REMARK VINA RESULT:    -4.735      2.073      2.880
REMARK INTER + INTRA:          -5.418
REMARK INTER:                  -5.174
REMARK INTRA:                  -0.244
REMARK UNBOUND:                 0.010
REMARK SMILES CC=Cc1ccc(O)c(OC)c1
REMARK SMILES IDX 4 1 12 2 9 3 7 4 6 5 5 6 3 7 1 8 2 9 10 10 11 11 8 12
REMARK H PARENT 8 13
REMARK Flexibility Score: inf
ROOT
ATOM      1  C   UNL     1      16.967  -7.936  12.934  1.00  0.00    -0.022 A 
ATOM      2  C   UNL     1      15.629  -8.207  12.610  1.00  0.00     0.058 A 
ATOM      3  C   UNL     1      15.184  -9.535  12.456  1.00  0.00     0.161 A 
ATOM      4  C   UNL     1      16.098 -10.587  12.607  1.00  0.00     0.157 A 
ATOM      5  C   UNL     1      17.441 -10.317  12.901  1.00  0.00     0.051 A 
ATOM      6  C   UNL     1      17.876  -8.999  13.053  1.00  0.00     0.012 A 
ENDROOT
BRANCH   1   7
ATOM      7  C   UNL     1      17.408  -6.531  13.061  1.00  0.00     0.003 C 
ATOM      8  C   UNL     1      17.172  -6.461  15.558  1.00  0.00     0.035 C 
ATOM      9  C   UNL     1      17.523  -5.875  14.224  1.00  0.00    -0.030 C 
ENDBRANCH   1   7
BRANCH   3  10
ATOM     10  O   UNL     1      13.849  -9.846  12.152  1.00  0.00    -0.493 OA
ATOM     11  C   UNL     1      12.722  -9.337  12.857  1.00  0.00     0.278 C 
ENDBRANCH   3  10
BRANCH   4  12
ATOM     12  O   UNL     1      15.664 -11.904  12.458  1.00  0.00    -0.504 OA
ATOM     13  H   UNL     1      16.318 -12.668  12.338  1.00  0.00     0.293 HD
ENDBRANCH   4  12
TORSDOF 3
ENDMDL
MODEL 3
REMARK VINA RESULT:    -4.642      1.284      2.735
REMARK INTER + INTRA:          -5.310
REMARK INTER:                  -5.137
REMARK INTRA:                  -0.173
REMARK UNBOUND:                 0.010
REMARK SMILES CC=Cc1ccc(O)c(OC)c1
REMARK SMILES IDX 4 1 12 2 9 3 7 4 6 5 5 6 3 7 1 8 2 9 10 10 11 11 8 12
REMARK H PARENT 8 13
REMARK Flexibility Score: inf
ROOT
ATOM      1  C   UNL     1      15.726  -8.942  12.214  1.00  0.00    -0.022 A 
ATOM      2  C   UNL     1      15.514 -10.329  12.218  1.00  0.00     0.058 A 
ATOM      3  C   UNL     1      14.255 -10.860  12.562  1.00  0.00     0.161 A 
ATOM      4  C   UNL     1      13.217  -9.989  12.924  1.00  0.00     0.157 A 
ATOM      5  C   UNL     1      13.436  -8.606  12.950  1.00  0.00     0.051 A 
ATOM      6  C   UNL     1      14.686  -8.085  12.607  1.00  0.00     0.012 A 
ENDROOT
BRANCH   1   7
ATOM      7  C   UNL     1      17.065  -8.418  11.875  1.00  0.00     0.003 C 
ATOM      8  C   UNL     1      18.047  -8.866  14.140  1.00  0.00     0.035 C 
ATOM      9  C   UNL     1      18.108  -8.400  12.716  1.00  0.00    -0.030 C 
ENDBRANCH   1   7
BRANCH   3  10
ATOM     10  O   UNL     1      14.000 -12.241  12.558  1.00  0.00    -0.493 OA
ATOM     11  C   UNL     1      15.006 -13.246  12.527  1.00  0.00     0.278 C 
ENDBRANCH   3  10
BRANCH   4  12
ATOM     12  O   UNL     1      11.969 -10.509  13.264  1.00  0.00    -0.504 OA
ATOM     13  H   UNL     1      11.111 -10.101  12.913  1.00  0.00     0.293 HD
ENDBRANCH   4  12
TORSDOF 3
ENDMDL
MODEL 4
REMARK VINA RESULT:    -4.499      4.788      6.717
REMARK INTER + INTRA:          -5.147
REMARK INTER:                  -4.910
REMARK INTRA:                  -0.237
REMARK UNBOUND:                 0.010
REMARK SMILES CC=Cc1ccc(O)c(OC)c1
REMARK SMILES IDX 4 1 12 2 9 3 7 4 6 5 5 6 3 7 1 8 2 9 10 10 11 11 8 12
REMARK H PARENT 8 13
REMARK Flexibility Score: inf
ROOT
ATOM      1  C   UNL     1      16.991  -6.372  14.003  1.00  0.00    -0.022 A 
ATOM      2  C   UNL     1      17.014  -6.300  15.404  1.00  0.00     0.058 A 
ATOM      3  C   UNL     1      15.892  -5.832  16.116  1.00  0.00     0.161 A 
ATOM      4  C   UNL     1      14.755  -5.415  15.409  1.00  0.00     0.157 A 
ATOM      5  C   UNL     1      14.741  -5.459  14.009  1.00  0.00     0.051 A 
ATOM      6  C   UNL     1      15.856  -5.925  13.309  1.00  0.00     0.012 A 
ENDROOT
BRANCH   1   7
ATOM      7  C   UNL     1      18.194  -6.842  13.286  1.00  0.00     0.003 C 
ATOM      8  C   UNL     1      17.373  -9.197  13.015  1.00  0.00     0.035 C 
ATOM      9  C   UNL     1      18.364  -8.089  12.824  1.00  0.00    -0.030 C 
ENDBRANCH   1   7
BRANCH   3  10
ATOM     10  O   UNL     1      15.871  -5.763  17.518  1.00  0.00    -0.493 OA
ATOM     11  C   UNL     1      16.991  -5.417  18.325  1.00  0.00     0.278 C 
ENDBRANCH   3  10
BRANCH   4  12
ATOM     12  O   UNL     1      13.641  -4.953  16.108  1.00  0.00    -0.504 OA
ATOM     13  H   UNL     1      13.121  -4.140  15.800  1.00  0.00     0.293 HD
ENDBRANCH   4  12
TORSDOF 3
ENDMDL
MODEL 5
REMARK VINA RESULT:    -4.475      5.227      6.266
REMARK INTER + INTRA:          -5.119
REMARK INTER:                  -4.882
REMARK INTRA:                  -0.237
REMARK UNBOUND:                 0.010
REMARK SMILES CC=Cc1ccc(O)c(OC)c1
REMARK SMILES IDX 4 1 12 2 9 3 7 4 6 5 5 6 3 7 1 8 2 9 10 10 11 11 8 12
REMARK H PARENT 8 13
REMARK Flexibility Score: inf
ROOT
ATOM      1  C   UNL     1      16.928  -7.013  13.977  1.00  0.00    -0.022 A 
ATOM      2  C   UNL     1      15.676  -6.403  13.807  1.00  0.00     0.058 A 
ATOM      3  C   UNL     1      15.062  -5.719  14.875  1.00  0.00     0.161 A 
ATOM      4  C   UNL     1      15.704  -5.672  16.120  1.00  0.00     0.157 A 
ATOM      5  C   UNL     1      16.941  -6.305  16.299  1.00  0.00     0.051 A 
ATOM      6  C   UNL     1      17.545  -6.980  15.237  1.00  0.00     0.012 A 
ENDROOT
BRANCH   1   7
ATOM      7  C   UNL     1      17.533  -7.745  12.845  1.00  0.00     0.003 C 
ATOM      8  C   UNL     1      19.051  -5.867  12.164  1.00  0.00     0.035 C 
ATOM      9  C   UNL     1      18.492  -7.253  12.048  1.00  0.00    -0.030 C 
ENDBRANCH   1   7
BRANCH   3  10
ATOM     10  O   UNL     1      13.819  -5.082  14.738  1.00  0.00    -0.493 OA
ATOM     11  C   UNL     1      13.513  -4.117  13.737  1.00  0.00     0.278 C 
ENDBRANCH   3  10
BRANCH   4  12
ATOM     12  O   UNL     1      15.103  -4.996  17.181  1.00  0.00    -0.504 OA
ATOM     13  H   UNL     1      14.486  -4.207  17.026  1.00  0.00     0.293 HD
ENDBRANCH   4  12
TORSDOF 3
ENDMDL
MODEL 6
REMARK VINA RESULT:    -4.332      2.649      5.063
REMARK INTER + INTRA:          -4.956
REMARK INTER:                  -5.145
REMARK INTRA:                   0.189
REMARK UNBOUND:                 0.010
REMARK SMILES CC=Cc1ccc(O)c(OC)c1
REMARK SMILES IDX 4 1 12 2 9 3 7 4 6 5 5 6 3 7 1 8 2 9 10 10 11 11 8 12
REMARK H PARENT 8 13
REMARK Flexibility Score: inf
ROOT
ATOM      1  C   UNL     1      15.139 -11.512  12.315  1.00  0.00    -0.022 A 
ATOM      2  C   UNL     1      16.442 -11.080  12.607  1.00  0.00     0.058 A 
ATOM      3  C   UNL     1      16.721  -9.709  12.774  1.00  0.00     0.161 A 
ATOM      4  C   UNL     1      15.687  -8.774  12.624  1.00  0.00     0.157 A 
ATOM      5  C   UNL     1      14.393  -9.202  12.303  1.00  0.00     0.051 A 
ATOM      6  C   UNL     1      14.122 -10.561  12.140  1.00  0.00     0.012 A 
ENDROOT
BRANCH   1   7
ATOM      7  C   UNL     1      14.885 -12.954  12.119  1.00  0.00     0.003 C 
ATOM      8  C   UNL     1      12.747 -12.973  13.431  1.00  0.00     0.035 C 
ATOM      9  C   UNL     1      13.815 -13.607  12.591  1.00  0.00    -0.030 C 
ENDBRANCH   1   7
BRANCH   3  10
ATOM     10  O   UNL     1      18.008  -9.241  13.086  1.00  0.00    -0.493 OA
ATOM     11  C   UNL     1      18.584  -9.272  14.386  1.00  0.00     0.278 C 
ENDBRANCH   3  10
BRANCH   4  12
ATOM     12  O   UNL     1      15.957  -7.416  12.790  1.00  0.00    -0.504 OA
ATOM     13  H   UNL     1      15.678  -6.918  13.627  1.00  0.00     0.293 HD
ENDBRANCH   4  12
TORSDOF 3
ENDMDL
MODEL 7
REMARK VINA RESULT:    -4.282      2.997      4.024
REMARK INTER + INTRA:          -4.898
REMARK INTER:                  -4.666
REMARK INTRA:                  -0.232
REMARK UNBOUND:                 0.010
REMARK SMILES CC=Cc1ccc(O)c(OC)c1
REMARK SMILES IDX 4 1 12 2 9 3 7 4 6 5 5 6 3 7 1 8 2 9 10 10 11 11 8 12
REMARK H PARENT 8 13
REMARK Flexibility Score: inf
ROOT
ATOM      1  C   UNL     1      15.685  -7.019  12.571  1.00  0.00    -0.022 A 
ATOM      2  C   UNL     1      15.015  -8.250  12.507  1.00  0.00     0.058 A 
ATOM      3  C   UNL     1      15.730  -9.461  12.595  1.00  0.00     0.161 A 
ATOM      4  C   UNL     1      17.126  -9.426  12.725  1.00  0.00     0.157 A 
ATOM      5  C   UNL     1      17.799  -8.198  12.759  1.00  0.00     0.051 A 
ATOM      6  C   UNL     1      17.084  -7.001  12.673  1.00  0.00     0.012 A 
ENDROOT
BRANCH   1   7
ATOM      7  C   UNL     1      14.908  -5.768  12.449  1.00  0.00     0.003 C 
ATOM      8  C   UNL     1      14.462  -5.554  14.908  1.00  0.00     0.035 C 
ATOM      9  C   UNL     1      14.380  -5.098  13.482  1.00  0.00    -0.030 C 
ENDBRANCH   1   7
BRANCH   3  10
ATOM     10  O   UNL     1      15.093 -10.711  12.554  1.00  0.00    -0.493 OA
ATOM     11  C   UNL     1      13.684 -10.900  12.626  1.00  0.00     0.278 C 
ENDBRANCH   3  10
BRANCH   4  12
ATOM     12  O   UNL     1      17.840 -10.620  12.814  1.00  0.00    -0.504 OA
ATOM     13  H   UNL     1      18.851 -10.638  12.775  1.00  0.00     0.293 HD
ENDBRANCH   4  12
TORSDOF 3
ENDMDL
MODEL 8
REMARK VINA RESULT:    -4.134      2.759      4.506
REMARK INTER + INTRA:          -4.728
REMARK INTER:                  -4.986
REMARK INTRA:                   0.257
REMARK UNBOUND:                 0.010
REMARK SMILES CC=Cc1ccc(O)c(OC)c1
REMARK SMILES IDX 4 1 12 2 9 3 7 4 6 5 5 6 3 7 1 8 2 9 10 10 11 11 8 12
REMARK H PARENT 8 13
REMARK Flexibility Score: inf
ROOT
ATOM      1  C   UNL     1      14.606 -10.858  12.109  1.00  0.00    -0.022 A 
ATOM      2  C   UNL     1      14.685  -9.552  12.614  1.00  0.00     0.058 A 
ATOM      3  C   UNL     1      15.937  -8.957  12.870  1.00  0.00     0.161 A 
ATOM      4  C   UNL     1      17.107  -9.693  12.638  1.00  0.00     0.157 A 
ATOM      5  C   UNL     1      17.029 -11.009  12.162  1.00  0.00     0.051 A 
ATOM      6  C   UNL     1      15.786 -11.592  11.908  1.00  0.00     0.012 A 
ENDROOT
BRANCH   1   7
ATOM      7  C   UNL     1      13.278 -11.462  11.876  1.00  0.00     0.003 C 
ATOM      8  C   UNL     1      13.849 -13.654  12.955  1.00  0.00     0.035 C 
ATOM      9  C   UNL     1      12.925 -12.694  12.267  1.00  0.00    -0.030 C 
ENDBRANCH   1   7
BRANCH   3  10
ATOM     10  O   UNL     1      16.056  -7.646  13.358  1.00  0.00    -0.493 OA
ATOM     11  C   UNL     1      14.969  -6.740  13.508  1.00  0.00     0.278 C 
ENDBRANCH   3  10
BRANCH   4  12
ATOM     12  O   UNL     1      18.348  -9.111  12.888  1.00  0.00    -0.504 OA
ATOM     13  H   UNL     1      19.157  -9.316  12.313  1.00  0.00     0.293 HD
ENDBRANCH   4  12
TORSDOF 3
ENDMDL
MODEL 9
REMARK VINA RESULT:    -4.114      3.585      5.446
REMARK INTER + INTRA:          -4.706
REMARK INTER:                  -4.708
REMARK INTRA:                   0.002
REMARK UNBOUND:                 0.010
REMARK SMILES CC=Cc1ccc(O)c(OC)c1
REMARK SMILES IDX 4 1 12 2 9 3 7 4 6 5 5 6 3 7 1 8 2 9 10 10 11 11 8 12
REMARK H PARENT 8 13
REMARK Flexibility Score: inf
ROOT
ATOM      1  C   UNL     1      17.408  -9.107  13.140  1.00  0.00    -0.022 A 
ATOM      2  C   UNL     1      16.628  -7.990  12.808  1.00  0.00     0.058 A 
ATOM      3  C   UNL     1      16.597  -6.861  13.650  1.00  0.00     0.161 A 
ATOM      4  C   UNL     1      17.339  -6.872  14.840  1.00  0.00     0.157 A 
ATOM      5  C   UNL     1      18.095  -7.998  15.188  1.00  0.00     0.051 A 
ATOM      6  C   UNL     1      18.122  -9.114  14.348  1.00  0.00     0.012 A 
ENDROOT
BRANCH   1   7
ATOM      7  C   UNL     1      17.397 -10.285  12.249  1.00  0.00     0.003 C 
ATOM      8  C   UNL     1      14.959 -10.777  12.577  1.00  0.00     0.035 C 
ATOM      9  C   UNL     1      16.310 -11.020  11.975  1.00  0.00    -0.030 C 
ENDBRANCH   1   7
BRANCH   3  10
ATOM     10  O   UNL     1      15.844  -5.718  13.341  1.00  0.00    -0.493 OA
ATOM     11  C   UNL     1      14.441  -5.596  13.550  1.00  0.00     0.278 C 
ENDBRANCH   3  10
BRANCH   4  12
ATOM     12  O   UNL     1      17.314  -5.758  15.677  1.00  0.00    -0.504 OA
ATOM     13  H   UNL     1      18.007  -5.023  15.604  1.00  0.00     0.293 HD
ENDBRANCH   4  12
TORSDOF 3
ENDMDL
