MODEL 1
REMARK VINA RESULT:    17.847      0.000      0.000
REMARK INTER + INTRA:          25.739
REMARK INTER:                  25.151
REMARK INTRA:                   0.588
REMARK UNBOUND:                 0.588
REMARK SMILES COc1ccc(-c2cc(=O)c3c(OC)c(OC)c(OC)c(OC)c3o2)cc1OC
REMARK SMILES IDX 7 1 8 2 9 3 10 4 11 5 24 6 25 7 21 8 18 9 15 10 12 11 6 12
REMARK SMILES IDX 3 13 27 14 4 15 26 16 5 17 2 18 1 19 28 20 29 21 22 22 23 23
REMARK SMILES IDX 13 24 14 25 19 26 20 27 16 28 17 29
REMARK H PARENT
REMARK Flexibility Score: inf
ROOT
ATOM      1  C   UNL     1      13.374  21.383   1.799  1.00  0.00     0.138 A 
ATOM      2  C   UNL     1      13.001  20.145   1.265  1.00  0.00     0.100 A 
ATOM      3  C   UNL     1      12.805  20.025  -0.107  1.00  0.00     0.197 A 
ATOM      4  O   UNL     1      12.468  18.903  -0.575  1.00  0.00    -0.289 OA
ATOM      5  C   UNL     1      12.982  21.151  -0.941  1.00  0.00     0.115 A 
ATOM      6  C   UNL     1      13.327  22.383  -0.329  1.00  0.00     0.188 A 
ATOM      7  O   UNL     1      13.502  22.433   0.990  1.00  0.00    -0.452 OA
ATOM      8  C   UNL     1      13.513  23.549  -1.116  1.00  0.00     0.209 A 
ATOM      9  C   UNL     1      13.366  23.461  -2.523  1.00  0.00     0.211 A 
ATOM     10  C   UNL     1      13.017  22.243  -3.119  1.00  0.00     0.208 A 
ATOM     11  C   UNL     1      12.860  21.080  -2.345  1.00  0.00     0.179 A 
ENDROOT
BRANCH   1  12
ATOM     12  C   UNL     1      13.632  21.554   3.250  1.00  0.00     0.021 A 
ATOM     13  C   UNL     1      14.050  21.885   6.022  1.00  0.00     0.160 A 
ATOM     14  C   UNL     1      14.624  22.789   5.116  1.00  0.00     0.161 A 
ATOM     15  C   UNL     1      13.258  20.826   5.538  1.00  0.00     0.051 A 
ATOM     16  C   UNL     1      14.411  22.621   3.733  1.00  0.00     0.062 A 
ATOM     17  C   UNL     1      13.049  20.668   4.168  1.00  0.00     0.016 A 
BRANCH  13  18
ATOM     18  O   UNL     1      14.290  22.072   7.394  1.00  0.00    -0.493 OA
ATOM     19  C   UNL     1      15.274  21.365   8.143  1.00  0.00     0.278 C 
ENDBRANCH  13  18
BRANCH  14  20
ATOM     20  O   UNL     1      15.395  23.845   5.630  1.00  0.00    -0.493 OA
ATOM     21  C   UNL     1      16.601  24.327   5.041  1.00  0.00     0.278 C 
ENDBRANCH  14  20
ENDBRANCH   1  12
BRANCH   8  22
ATOM     22  O   UNL     1      13.849  24.794  -0.553  1.00  0.00    -0.490 OA
ATOM     23  C   UNL     1      15.055  25.526  -0.753  1.00  0.00     0.278 C 
ENDBRANCH   8  22
BRANCH  11  24
ATOM     24  O   UNL     1      12.594  19.852  -2.964  1.00  0.00    -0.492 OA
ATOM     25  C   UNL     1      13.551  19.195  -3.792  1.00  0.00     0.278 C 
ENDBRANCH  11  24
BRANCH   9  26
ATOM     26  O   UNL     1      13.537  24.556  -3.396  1.00  0.00    -0.490 OA
ATOM     27  C   UNL     1      12.508  25.328  -4.001  1.00  0.00     0.279 C 
ENDBRANCH   9  26
BRANCH  10  28
ATOM     28  O   UNL     1      12.815  22.223  -4.505  1.00  0.00    -0.490 OA
ATOM     29  C   UNL     1      11.844  21.385  -5.125  1.00  0.00     0.278 C 
ENDBRANCH  10  28
TORSDOF 7
ENDMDL
MODEL 2
REMARK VINA RESULT:    18.299      1.305      3.861
REMARK INTER + INTRA:          26.376
REMARK INTER:                  24.014
REMARK INTRA:                   2.362
REMARK UNBOUND:                 0.588
REMARK SMILES COc1ccc(-c2cc(=O)c3c(OC)c(OC)c(OC)c(OC)c3o2)cc1OC
REMARK SMILES IDX 7 1 8 2 9 3 10 4 11 5 24 6 25 7 21 8 18 9 15 10 12 11 6 12
REMARK SMILES IDX 3 13 27 14 4 15 26 16 5 17 2 18 1 19 28 20 29 21 22 22 23 23
REMARK SMILES IDX 13 24 14 25 19 26 20 27 16 28 17 29
REMARK H PARENT
REMARK Flexibility Score: inf
ROOT
ATOM      1  C   UNL     1      13.543  22.514   1.763  1.00  0.00     0.138 A 
ATOM      2  C   UNL     1      13.875  23.824   1.399  1.00  0.00     0.100 A 
ATOM      3  C   UNL     1      13.816  24.194   0.059  1.00  0.00     0.197 A 
ATOM      4  O   UNL     1      14.119  25.378  -0.256  1.00  0.00    -0.289 OA
ATOM      5  C   UNL     1      13.426  23.246  -0.913  1.00  0.00     0.115 A 
ATOM      6  C   UNL     1      13.137  21.928  -0.477  1.00  0.00     0.188 A 
ATOM      7  O   UNL     1      13.210  21.636   0.820  1.00  0.00    -0.452 OA
ATOM      8  C   UNL     1      12.745  20.933  -1.410  1.00  0.00     0.209 A 
ATOM      9  C   UNL     1      12.630  21.279  -2.779  1.00  0.00     0.211 A 
ATOM     10  C   UNL     1      12.925  22.581  -3.203  1.00  0.00     0.208 A 
ATOM     11  C   UNL     1      13.286  23.576  -2.278  1.00  0.00     0.179 A 
ENDROOT
BRANCH   1  12
ATOM     12  C   UNL     1      13.553  22.080   3.182  1.00  0.00     0.021 A 
ATOM     13  C   UNL     1      13.645  21.250   5.879  1.00  0.00     0.160 A 
ATOM     14  C   UNL     1      12.920  20.500   4.941  1.00  0.00     0.161 A 
ATOM     15  C   UNL     1      14.333  22.405   5.461  1.00  0.00     0.051 A 
ATOM     16  C   UNL     1      12.878  20.917   3.596  1.00  0.00     0.062 A 
ATOM     17  C   UNL     1      14.289  22.811   4.127  1.00  0.00     0.016 A 
BRANCH  13  18
ATOM     18  O   UNL     1      13.659  20.814   7.214  1.00  0.00    -0.493 OA
ATOM     19  C   UNL     1      14.745  21.011   8.115  1.00  0.00     0.278 C 
ENDBRANCH  13  18
BRANCH  14  20
ATOM     20  O   UNL     1      12.258  19.343   5.384  1.00  0.00    -0.493 OA
ATOM     21  C   UNL     1      10.847  19.149   5.336  1.00  0.00     0.278 C 
ENDBRANCH  14  20
ENDBRANCH   1  12
BRANCH   8  22
ATOM     22  O   UNL     1      12.455  19.611  -1.025  1.00  0.00    -0.490 OA
ATOM     23  C   UNL     1      12.903  18.945   0.152  1.00  0.00     0.278 C 
ENDBRANCH   8  22
BRANCH  11  24
ATOM     24  O   UNL     1      13.497  24.893  -2.706  1.00  0.00    -0.492 OA
ATOM     25  C   UNL     1      12.484  25.648  -3.368  1.00  0.00     0.278 C 
ENDBRANCH  11  24
BRANCH   9  26
ATOM     26  O   UNL     1      12.241  20.370  -3.785  1.00  0.00    -0.490 OA
ATOM     27  C   UNL     1      13.071  19.418  -4.437  1.00  0.00     0.279 C 
ENDBRANCH   9  26
BRANCH  10  28
ATOM     28  O   UNL     1      12.865  22.856  -4.576  1.00  0.00    -0.490 OA
ATOM     29  C   UNL     1      13.246  24.115  -5.122  1.00  0.00     0.278 C 
ENDBRANCH  10  28
TORSDOF 7
ENDMDL
MODEL 3
REMARK VINA RESULT:    19.431      0.941      3.253
REMARK INTER + INTRA:          27.971
REMARK INTER:                  25.213
REMARK INTRA:                   2.758
REMARK UNBOUND:                 0.588
REMARK SMILES COc1ccc(-c2cc(=O)c3c(OC)c(OC)c(OC)c(OC)c3o2)cc1OC
REMARK SMILES IDX 7 1 8 2 9 3 10 4 11 5 24 6 25 7 21 8 18 9 15 10 12 11 6 12
REMARK SMILES IDX 3 13 27 14 4 15 26 16 5 17 2 18 1 19 28 20 29 21 22 22 23 23
REMARK SMILES IDX 13 24 14 25 19 26 20 27 16 28 17 29
REMARK H PARENT
REMARK Flexibility Score: inf
ROOT
ATOM      1  C   UNL     1      13.602  22.674   1.677  1.00  0.00     0.138 A 
ATOM      2  C   UNL     1      13.548  23.936   1.074  1.00  0.00     0.100 A 
ATOM      3  C   UNL     1      13.290  24.029  -0.290  1.00  0.00     0.197 A 
ATOM      4  O   UNL     1      13.245  25.173  -0.821  1.00  0.00    -0.289 OA
ATOM      5  C   UNL     1      13.089  22.853  -1.047  1.00  0.00     0.115 A 
ATOM      6  C   UNL     1      13.192  21.607  -0.378  1.00  0.00     0.188 A 
ATOM      7  O   UNL     1      13.439  21.584   0.930  1.00  0.00    -0.452 OA
ATOM      8  C   UNL     1      13.005  20.393  -1.089  1.00  0.00     0.209 A 
ATOM      9  C   UNL     1      12.697  20.444  -2.471  1.00  0.00     0.211 A 
ATOM     10  C   UNL     1      12.606  21.679  -3.126  1.00  0.00     0.208 A 
ATOM     11  C   UNL     1      12.763  22.884  -2.419  1.00  0.00     0.179 A 
ENDROOT
BRANCH   1  12
ATOM     12  C   UNL     1      13.835  22.523   3.135  1.00  0.00     0.021 A 
ATOM     13  C   UNL     1      14.215  22.266   5.920  1.00  0.00     0.160 A 
ATOM     14  C   UNL     1      15.128  23.009   5.156  1.00  0.00     0.161 A 
ATOM     15  C   UNL     1      13.109  21.665   5.289  1.00  0.00     0.051 A 
ATOM     16  C   UNL     1      14.933  23.137   3.766  1.00  0.00     0.062 A 
ATOM     17  C   UNL     1      12.922  21.797   3.913  1.00  0.00     0.016 A 
BRANCH  13  18
ATOM     18  O   UNL     1      14.443  22.149   7.301  1.00  0.00    -0.493 OA
ATOM     19  C   UNL     1      15.583  21.519   7.879  1.00  0.00     0.278 C 
ENDBRANCH  13  18
BRANCH  14  20
ATOM     20  O   UNL     1      16.211  23.612   5.816  1.00  0.00    -0.493 OA
ATOM     21  C   UNL     1      16.933  24.738   5.324  1.00  0.00     0.278 C 
ENDBRANCH  14  20
ENDBRANCH   1  12
BRANCH   8  22
ATOM     22  O   UNL     1      13.104  19.133  -0.469  1.00  0.00    -0.490 OA
ATOM     23  C   UNL     1      13.254  18.875   0.924  1.00  0.00     0.278 C 
ENDBRANCH   8  22
BRANCH  11  24
ATOM     24  O   UNL     1      12.585  24.111  -3.071  1.00  0.00    -0.492 OA
ATOM     25  C   UNL     1      13.307  24.456  -4.250  1.00  0.00     0.278 C 
ENDBRANCH  11  24
BRANCH   9  26
ATOM     26  O   UNL     1      12.485  19.299  -3.267  1.00  0.00    -0.490 OA
ATOM     27  C   UNL     1      13.256  18.889  -4.389  1.00  0.00     0.279 C 
ENDBRANCH   9  26
BRANCH  10  28
ATOM     28  O   UNL     1      12.370  21.675  -4.507  1.00  0.00    -0.490 OA
ATOM     29  C   UNL     1      11.454  20.775  -5.125  1.00  0.00     0.278 C 
ENDBRANCH  10  28
TORSDOF 7
ENDMDL
MODEL 4
REMARK VINA RESULT:    19.625      1.038      3.697
REMARK INTER + INTRA:          28.244
REMARK INTER:                  27.593
REMARK INTRA:                   0.651
REMARK UNBOUND:                 0.588
REMARK SMILES COc1ccc(-c2cc(=O)c3c(OC)c(OC)c(OC)c(OC)c3o2)cc1OC
REMARK SMILES IDX 7 1 8 2 9 3 10 4 11 5 24 6 25 7 21 8 18 9 15 10 12 11 6 12
REMARK SMILES IDX 3 13 27 14 4 15 26 16 5 17 2 18 1 19 28 20 29 21 22 22 23 23
REMARK SMILES IDX 13 24 14 25 19 26 20 27 16 28 17 29
REMARK H PARENT
REMARK Flexibility Score: inf
ROOT
ATOM      1  C   UNL     1      13.904  22.779   1.694  1.00  0.00     0.138 A 
ATOM      2  C   UNL     1      13.878  24.050   1.111  1.00  0.00     0.100 A 
ATOM      3  C   UNL     1      13.639  24.169  -0.255  1.00  0.00     0.197 A 
ATOM      4  O   UNL     1      13.619  25.322  -0.768  1.00  0.00    -0.289 OA
ATOM      5  C   UNL     1      13.428  23.009  -1.032  1.00  0.00     0.115 A 
ATOM      6  C   UNL     1      13.502  21.751  -0.382  1.00  0.00     0.188 A 
ATOM      7  O   UNL     1      13.733  21.704   0.928  1.00  0.00    -0.452 OA
ATOM      8  C   UNL     1      13.304  20.552  -1.114  1.00  0.00     0.209 A 
ATOM      9  C   UNL     1      13.014  20.630  -2.499  1.00  0.00     0.211 A 
ATOM     10  C   UNL     1      12.951  21.876  -3.136  1.00  0.00     0.208 A 
ATOM     11  C   UNL     1      13.119  23.067  -2.408  1.00  0.00     0.179 A 
ENDROOT
BRANCH   1  12
ATOM     12  C   UNL     1      14.118  22.601   3.152  1.00  0.00     0.021 A 
ATOM     13  C   UNL     1      14.595  22.251   5.912  1.00  0.00     0.160 A 
ATOM     14  C   UNL     1      13.694  21.405   5.246  1.00  0.00     0.161 A 
ATOM     15  C   UNL     1      15.263  23.259   5.192  1.00  0.00     0.051 A 
ATOM     16  C   UNL     1      13.461  21.583   3.868  1.00  0.00     0.062 A 
ATOM     17  C   UNL     1      15.028  23.427   3.827  1.00  0.00     0.016 A 
BRANCH  13  18
ATOM     18  O   UNL     1      14.798  22.056   7.288  1.00  0.00    -0.493 OA
ATOM     19  C   UNL     1      15.977  21.493   7.857  1.00  0.00     0.278 C 
ENDBRANCH  13  18
BRANCH  14  20
ATOM     20  O   UNL     1      13.056  20.398   5.987  1.00  0.00    -0.493 OA
ATOM     21  C   UNL     1      12.117  19.470   5.450  1.00  0.00     0.278 C 
ENDBRANCH  14  20
ENDBRANCH   1  12
BRANCH   8  22
ATOM     22  O   UNL     1      13.374  19.281  -0.513  1.00  0.00    -0.490 OA
ATOM     23  C   UNL     1      12.807  18.893   0.735  1.00  0.00     0.278 C 
ENDBRANCH   8  22
BRANCH  11  24
ATOM     24  O   UNL     1      12.969  24.306  -3.042  1.00  0.00    -0.492 OA
ATOM     25  C   UNL     1      13.672  24.639  -4.237  1.00  0.00     0.278 C 
ENDBRANCH  11  24
BRANCH   9  26
ATOM     26  O   UNL     1      12.792  19.501  -3.316  1.00  0.00    -0.490 OA
ATOM     27  C   UNL     1      13.736  18.875  -4.175  1.00  0.00     0.279 C 
ENDBRANCH   9  26
BRANCH  10  28
ATOM     28  O   UNL     1      12.731  21.897  -4.519  1.00  0.00    -0.490 OA
ATOM     29  C   UNL     1      11.597  21.284  -5.124  1.00  0.00     0.278 C 
ENDBRANCH  10  28
TORSDOF 7
ENDMDL
MODEL 5
REMARK VINA RESULT:    19.677      1.455      3.617
REMARK INTER + INTRA:          28.317
REMARK INTER:                  27.888
REMARK INTRA:                   0.429
REMARK UNBOUND:                 0.588
REMARK SMILES COc1ccc(-c2cc(=O)c3c(OC)c(OC)c(OC)c(OC)c3o2)cc1OC
REMARK SMILES IDX 7 1 8 2 9 3 10 4 11 5 24 6 25 7 21 8 18 9 15 10 12 11 6 12
REMARK SMILES IDX 3 13 27 14 4 15 26 16 5 17 2 18 1 19 28 20 29 21 22 22 23 23
REMARK SMILES IDX 13 24 14 25 19 26 20 27 16 28 17 29
REMARK H PARENT
REMARK Flexibility Score: inf
ROOT
ATOM      1  C   UNL     1      13.482  21.972   1.522  1.00  0.00     0.138 A 
ATOM      2  C   UNL     1      14.292  23.107   1.407  1.00  0.00     0.100 A 
ATOM      3  C   UNL     1      14.481  23.686   0.155  1.00  0.00     0.197 A 
ATOM      4  O   UNL     1      15.215  24.708   0.066  1.00  0.00    -0.289 OA
ATOM      5  C   UNL     1      13.856  23.121  -0.979  1.00  0.00     0.115 A 
ATOM      6  C   UNL     1      13.076  21.951  -0.794  1.00  0.00     0.188 A 
ATOM      7  O   UNL     1      12.933  21.446   0.429  1.00  0.00    -0.452 OA
ATOM      8  C   UNL     1      12.430  21.338  -1.898  1.00  0.00     0.209 A 
ATOM      9  C   UNL     1      12.560  21.920  -3.183  1.00  0.00     0.211 A 
ATOM     10  C   UNL     1      13.338  23.071  -3.359  1.00  0.00     0.208 A 
ATOM     11  C   UNL     1      13.957  23.697  -2.263  1.00  0.00     0.179 A 
ENDROOT
BRANCH   1  12
ATOM     12  C   UNL     1      13.219  21.340   2.839  1.00  0.00     0.021 A 
ATOM     13  C   UNL     1      12.647  20.147   5.332  1.00  0.00     0.160 A 
ATOM     14  C   UNL     1      13.433  21.308   5.277  1.00  0.00     0.161 A 
ATOM     15  C   UNL     1      12.139  19.595   4.141  1.00  0.00     0.051 A 
ATOM     16  C   UNL     1      13.714  21.902   4.031  1.00  0.00     0.062 A 
ATOM     17  C   UNL     1      12.420  20.190   2.910  1.00  0.00     0.016 A 
BRANCH  13  18
ATOM     18  O   UNL     1      12.393  19.573   6.590  1.00  0.00    -0.493 OA
ATOM     19  C   UNL     1      11.093  19.281   7.094  1.00  0.00     0.278 C 
ENDBRANCH  13  18
BRANCH  14  20
ATOM     20  O   UNL     1      13.911  21.845   6.484  1.00  0.00    -0.493 OA
ATOM     21  C   UNL     1      15.162  22.511   6.634  1.00  0.00     0.278 C 
ENDBRANCH  14  20
ENDBRANCH   1  12
BRANCH   8  22
ATOM     22  O   UNL     1      11.652  20.172  -1.764  1.00  0.00    -0.490 OA
ATOM     23  C   UNL     1      12.110  18.876  -1.392  1.00  0.00     0.278 C 
ENDBRANCH   8  22
BRANCH  11  24
ATOM     24  O   UNL     1      14.662  24.894  -2.441  1.00  0.00    -0.492 OA
ATOM     25  C   UNL     1      14.105  26.162  -2.102  1.00  0.00     0.278 C 
ENDBRANCH  11  24
BRANCH   9  26
ATOM     26  O   UNL     1      11.952  21.395  -4.344  1.00  0.00    -0.490 OA
ATOM     27  C   UNL     1      12.416  20.301  -5.125  1.00  0.00     0.279 C 
ENDBRANCH   9  26
BRANCH  10  28
ATOM     28  O   UNL     1      13.494  23.568  -4.660  1.00  0.00    -0.490 OA
ATOM     29  C   UNL     1      13.168  24.909  -5.011  1.00  0.00     0.278 C 
ENDBRANCH  10  28
TORSDOF 7
ENDMDL
MODEL 6
REMARK VINA RESULT:    19.774      0.670      1.821
REMARK INTER + INTRA:          28.454
REMARK INTER:                  27.789
REMARK INTRA:                   0.665
REMARK UNBOUND:                 0.588
REMARK SMILES COc1ccc(-c2cc(=O)c3c(OC)c(OC)c(OC)c(OC)c3o2)cc1OC
REMARK SMILES IDX 7 1 8 2 9 3 10 4 11 5 24 6 25 7 21 8 18 9 15 10 12 11 6 12
REMARK SMILES IDX 3 13 27 14 4 15 26 16 5 17 2 18 1 19 28 20 29 21 22 22 23 23
REMARK SMILES IDX 13 24 14 25 19 26 20 27 16 28 17 29
REMARK H PARENT
REMARK Flexibility Score: inf
ROOT
ATOM      1  C   UNL     1      13.394  21.530   1.818  1.00  0.00     0.138 A 
ATOM      2  C   UNL     1      13.058  20.279   1.290  1.00  0.00     0.100 A 
ATOM      3  C   UNL     1      12.874  20.145  -0.082  1.00  0.00     0.197 A 
ATOM      4  O   UNL     1      12.571  19.011  -0.545  1.00  0.00    -0.289 OA
ATOM      5  C   UNL     1      13.026  21.270  -0.922  1.00  0.00     0.115 A 
ATOM      6  C   UNL     1      13.333  22.515  -0.316  1.00  0.00     0.188 A 
ATOM      7  O   UNL     1      13.499  22.578   1.003  1.00  0.00    -0.452 OA
ATOM      8  C   UNL     1      13.492  23.680  -1.110  1.00  0.00     0.209 A 
ATOM      9  C   UNL     1      13.356  23.580  -2.517  1.00  0.00     0.211 A 
ATOM     10  C   UNL     1      13.045  22.349  -3.107  1.00  0.00     0.208 A 
ATOM     11  C   UNL     1      12.914  21.187  -2.326  1.00  0.00     0.179 A 
ENDROOT
BRANCH   1  12
ATOM     12  C   UNL     1      13.638  21.717   3.270  1.00  0.00     0.021 A 
ATOM     13  C   UNL     1      14.174  22.067   6.019  1.00  0.00     0.160 A 
ATOM     14  C   UNL     1      13.391  20.984   5.593  1.00  0.00     0.161 A 
ATOM     15  C   UNL     1      14.696  22.964   5.068  1.00  0.00     0.051 A 
ATOM     16  C   UNL     1      13.128  20.812   4.219  1.00  0.00     0.062 A 
ATOM     17  C   UNL     1      14.433  22.785   3.709  1.00  0.00     0.016 A 
BRANCH  13  18
ATOM     18  O   UNL     1      14.409  22.218   7.396  1.00  0.00    -0.493 OA
ATOM     19  C   UNL     1      15.470  21.584   8.106  1.00  0.00     0.278 C 
ENDBRANCH  13  18
BRANCH  14  20
ATOM     20  O   UNL     1      12.898  20.097   6.564  1.00  0.00    -0.493 OA
ATOM     21  C   UNL     1      11.648  19.418   6.479  1.00  0.00     0.278 C 
ENDBRANCH  14  20
ENDBRANCH   1  12
BRANCH   8  22
ATOM     22  O   UNL     1      13.791  24.938  -0.552  1.00  0.00    -0.490 OA
ATOM     23  C   UNL     1      14.941  25.737  -0.812  1.00  0.00     0.278 C 
ENDBRANCH   8  22
BRANCH  11  24
ATOM     24  O   UNL     1      12.686  19.948  -2.939  1.00  0.00    -0.492 OA
ATOM     25  C   UNL     1      13.723  19.222  -3.596  1.00  0.00     0.278 C 
ENDBRANCH  11  24
BRANCH   9  26
ATOM     26  O   UNL     1      13.502  24.673  -3.396  1.00  0.00    -0.490 OA
ATOM     27  C   UNL     1      12.461  25.489  -3.918  1.00  0.00     0.279 C 
ENDBRANCH   9  26
BRANCH  10  28
ATOM     28  O   UNL     1      12.851  22.314  -4.494  1.00  0.00    -0.490 OA
ATOM     29  C   UNL     1      11.999  21.363  -5.125  1.00  0.00     0.278 C 
ENDBRANCH  10  28
TORSDOF 7
ENDMDL
MODEL 7
REMARK VINA RESULT:    20.607      1.902      3.000
REMARK INTER + INTRA:          29.628
REMARK INTER:                  28.946
REMARK INTRA:                   0.682
REMARK UNBOUND:                 0.588
REMARK SMILES COc1ccc(-c2cc(=O)c3c(OC)c(OC)c(OC)c(OC)c3o2)cc1OC
REMARK SMILES IDX 7 1 8 2 9 3 10 4 11 5 24 6 25 7 21 8 18 9 15 10 12 11 6 12
REMARK SMILES IDX 3 13 27 14 4 15 26 16 5 17 2 18 1 19 28 20 29 21 22 22 23 23
REMARK SMILES IDX 13 24 14 25 19 26 20 27 16 28 17 29
REMARK H PARENT
REMARK Flexibility Score: inf
ROOT
ATOM      1  C   UNL     1      13.240  22.501   2.715  1.00  0.00     0.138 A 
ATOM      2  C   UNL     1      12.165  23.373   2.508  1.00  0.00     0.100 A 
ATOM      3  C   UNL     1      11.785  23.689   1.207  1.00  0.00     0.197 A 
ATOM      4  O   UNL     1      10.814  24.477   1.035  1.00  0.00    -0.289 OA
ATOM      5  C   UNL     1      12.487  23.130   0.116  1.00  0.00     0.115 A 
ATOM      6  C   UNL     1      13.588  22.282   0.400  1.00  0.00     0.188 A 
ATOM      7  O   UNL     1      13.901  22.017   1.666  1.00  0.00    -0.452 OA
ATOM      8  C   UNL     1      14.333  21.697  -0.656  1.00  0.00     0.209 A 
ATOM      9  C   UNL     1      13.953  21.957  -1.996  1.00  0.00     0.211 A 
ATOM     10  C   UNL     1      12.869  22.802  -2.268  1.00  0.00     0.208 A 
ATOM     11  C   UNL     1      12.111  23.361  -1.223  1.00  0.00     0.179 A 
ENDROOT
BRANCH   1  12
ATOM     12  C   UNL     1      13.660  22.103   4.081  1.00  0.00     0.021 A 
ATOM     13  C   UNL     1      14.392  21.356   6.703  1.00  0.00     0.160 A 
ATOM     14  C   UNL     1      15.017  22.452   6.089  1.00  0.00     0.161 A 
ATOM     15  C   UNL     1      13.394  20.647   6.008  1.00  0.00     0.051 A 
ATOM     16  C   UNL     1      14.647  22.823   4.781  1.00  0.00     0.062 A 
ATOM     17  C   UNL     1      13.032  21.021   4.714  1.00  0.00     0.016 A 
BRANCH  13  18
ATOM     18  O   UNL     1      14.790  21.005   8.004  1.00  0.00    -0.493 OA
ATOM     19  C   UNL     1      16.122  20.659   8.373  1.00  0.00     0.278 C 
ENDBRANCH  13  18
BRANCH  14  20
ATOM     20  O   UNL     1      15.996  23.151   6.814  1.00  0.00    -0.493 OA
ATOM     21  C   UNL     1      17.401  23.004   6.626  1.00  0.00     0.278 C 
ENDBRANCH  14  20
ENDBRANCH   1  12
BRANCH   8  22
ATOM     22  O   UNL     1      15.437  20.854  -0.423  1.00  0.00    -0.490 OA
ATOM     23  C   UNL     1      16.750  21.251  -0.038  1.00  0.00     0.278 C 
ENDBRANCH   8  22
BRANCH  11  24
ATOM     24  O   UNL     1      10.981  24.136  -1.511  1.00  0.00    -0.492 OA
ATOM     25  C   UNL     1       9.655  23.639  -1.340  1.00  0.00     0.278 C 
ENDBRANCH  11  24
BRANCH   9  26
ATOM     26  O   UNL     1      14.620  21.420  -3.116  1.00  0.00    -0.490 OA
ATOM     27  C   UNL     1      14.327  20.192  -3.771  1.00  0.00     0.279 C 
ENDBRANCH   9  26
BRANCH  10  28
ATOM     28  O   UNL     1      12.576  23.086  -3.608  1.00  0.00    -0.490 OA
ATOM     29  C   UNL     1      13.084  24.236  -4.276  1.00  0.00     0.278 C 
ENDBRANCH  10  28
TORSDOF 7
ENDMDL
