MODEL 1
REMARK VINA RESULT:    -6.693      0.000      0.000
REMARK INTER + INTRA:          -8.183
REMARK INTER:                  -7.867
REMARK INTRA:                  -0.316
REMARK UNBOUND:                -0.316
REMARK SMILES O=c1cc(-c2ccc(O)c(O)c2)oc2cc(O)cc(O)c12
REMARK SMILES IDX 4 1 3 2 2 3 1 4 21 5 19 6 18 7 16 8 15 9 14 10 13 11 5 12
REMARK SMILES IDX 6 13 7 14 8 15 12 16 10 17 9 18 11 20 20 22 17 24
REMARK H PARENT 9 19 11 21 20 23 17 25
REMARK Flexibility Score: inf
ROOT
ATOM      1  C   UNL     1       5.297 -60.322 190.783  1.00  0.00     0.138 A 
ATOM      2  C   UNL     1       3.938 -60.025 190.614  1.00  0.00     0.100 A 
ATOM      3  C   UNL     1       3.350 -59.024 191.388  1.00  0.00     0.197 A 
ATOM      4  O   UNL     1       2.144 -58.737 191.171  1.00  0.00    -0.289 OA
ATOM      5  C   UNL     1       4.121 -58.341 192.359  1.00  0.00     0.107 A 
ATOM      6  C   UNL     1       3.617 -57.331 193.233  1.00  0.00     0.134 A 
ATOM      7  C   UNL     1       4.500 -56.643 194.073  1.00  0.00     0.093 A 
ATOM      8  C   UNL     1       5.855 -56.967 194.115  1.00  0.00     0.123 A 
ATOM      9  C   UNL     1       6.349 -57.989 193.304  1.00  0.00     0.094 A 
ATOM     10  C   UNL     1       5.500 -58.672 192.429  1.00  0.00     0.146 A 
ATOM     11  O   UNL     1       6.011 -59.628 191.663  1.00  0.00    -0.456 OA
ENDROOT
BRANCH   1  12
ATOM     12  C   UNL     1       5.973 -61.377 189.987  1.00  0.00     0.021 A 
ATOM     13  C   UNL     1       5.352 -61.980 188.876  1.00  0.00     0.016 A 
ATOM     14  C   UNL     1       6.007 -62.977 188.151  1.00  0.00     0.051 A 
ATOM     15  C   UNL     1       7.290 -63.397 188.525  1.00  0.00     0.157 A 
ATOM     16  C   UNL     1       7.256 -61.815 190.364  1.00  0.00     0.062 A 
ATOM     17  C   UNL     1       7.915 -62.814 189.638  1.00  0.00     0.158 A 
BRANCH  15  18
ATOM     18  O   UNL     1       7.942 -64.393 187.798  1.00  0.00    -0.504 OA
ATOM     19  H   UNL     1       8.568 -65.053 188.245  1.00  0.00     0.293 HD
ENDBRANCH  15  18
BRANCH  17  20
ATOM     20  O   UNL     1       9.191 -63.212 190.040  1.00  0.00    -0.504 OA
ATOM     21  H   UNL     1       9.963 -62.560 190.101  1.00  0.00     0.293 HD
ENDBRANCH  17  20
ENDBRANCH   1  12
BRANCH   6  22
ATOM     22  O   UNL     1       2.265 -56.987 193.333  1.00  0.00    -0.507 OA
ATOM     23  H   UNL     1       1.691 -57.138 194.150  1.00  0.00     0.293 HD
ENDBRANCH   6  22
BRANCH   8  24
ATOM     24  O   UNL     1       6.702 -56.271 194.975  1.00  0.00    -0.508 OA
ATOM     25  H   UNL     1       7.306 -56.755 195.630  1.00  0.00     0.293 HD
ENDBRANCH   8  24
TORSDOF 5
ENDMDL
MODEL 2
REMARK VINA RESULT:    -6.661      2.200      6.776
REMARK INTER + INTRA:          -8.145
REMARK INTER:                  -7.869
REMARK INTRA:                  -0.277
REMARK UNBOUND:                -0.316
REMARK SMILES O=c1cc(-c2ccc(O)c(O)c2)oc2cc(O)cc(O)c12
REMARK SMILES IDX 4 1 3 2 2 3 1 4 21 5 19 6 18 7 16 8 15 9 14 10 13 11 5 12
REMARK SMILES IDX 6 13 7 14 8 15 12 16 10 17 9 18 11 20 20 22 17 24
REMARK H PARENT 9 19 11 21 20 23 17 25
REMARK Flexibility Score: inf
ROOT
ATOM      1  C   UNL     1       4.820 -60.221 189.960  1.00  0.00     0.138 A 
ATOM      2  C   UNL     1       3.471 -60.504 189.701  1.00  0.00     0.100 A 
ATOM      3  C   UNL     1       3.134 -61.655 188.989  1.00  0.00     0.197 A 
ATOM      4  O   UNL     1       1.913 -61.916 188.824  1.00  0.00    -0.289 OA
ATOM      5  C   UNL     1       4.154 -62.511 188.507  1.00  0.00     0.107 A 
ATOM      6  C   UNL     1       3.929 -63.690 187.735  1.00  0.00     0.134 A 
ATOM      7  C   UNL     1       5.009 -64.520 187.414  1.00  0.00     0.093 A 
ATOM      8  C   UNL     1       6.311 -64.185 187.783  1.00  0.00     0.123 A 
ATOM      9  C   UNL     1       6.549 -63.006 188.492  1.00  0.00     0.094 A 
ATOM     10  C   UNL     1       5.488 -62.174 188.858  1.00  0.00     0.146 A 
ATOM     11  O   UNL     1       5.755 -61.069 189.545  1.00  0.00    -0.456 OA
ENDROOT
BRANCH   1  12
ATOM     12  C   UNL     1       5.235 -59.010 190.712  1.00  0.00     0.021 A 
ATOM     13  C   UNL     1       4.987 -57.713 190.223  1.00  0.00     0.016 A 
ATOM     14  C   UNL     1       5.398 -56.592 190.947  1.00  0.00     0.051 A 
ATOM     15  C   UNL     1       6.070 -56.744 192.166  1.00  0.00     0.157 A 
ATOM     16  C   UNL     1       5.924 -59.153 191.931  1.00  0.00     0.062 A 
ATOM     17  C   UNL     1       6.335 -58.031 192.658  1.00  0.00     0.158 A 
BRANCH  15  18
ATOM     18  O   UNL     1       6.478 -55.621 192.886  1.00  0.00    -0.504 OA
ATOM     19  H   UNL     1       7.380 -55.586 193.349  1.00  0.00     0.293 HD
ENDBRANCH  15  18
BRANCH  17  20
ATOM     20  O   UNL     1       7.006 -58.217 193.867  1.00  0.00    -0.504 OA
ATOM     21  H   UNL     1       6.802 -58.996 194.481  1.00  0.00     0.293 HD
ENDBRANCH  17  20
ENDBRANCH   1  12
BRANCH   6  22
ATOM     22  O   UNL     1       2.679 -64.074 187.241  1.00  0.00    -0.507 OA
ATOM     23  H   UNL     1       1.917 -63.441 187.045  1.00  0.00     0.293 HD
ENDBRANCH   6  22
BRANCH   8  24
ATOM     24  O   UNL     1       7.364 -65.027 187.433  1.00  0.00    -0.508 OA
ATOM     25  H   UNL     1       8.308 -64.859 187.760  1.00  0.00     0.293 HD
ENDBRANCH   8  24
TORSDOF 5
ENDMDL
MODEL 3
REMARK VINA RESULT:    -6.614      2.053      7.649
REMARK INTER + INTRA:          -8.090
REMARK INTER:                  -7.787
REMARK INTRA:                  -0.303
REMARK UNBOUND:                -0.316
REMARK SMILES O=c1cc(-c2ccc(O)c(O)c2)oc2cc(O)cc(O)c12
REMARK SMILES IDX 4 1 3 2 2 3 1 4 21 5 19 6 18 7 16 8 15 9 14 10 13 11 5 12
REMARK SMILES IDX 6 13 7 14 8 15 12 16 10 17 9 18 11 20 20 22 17 24
REMARK H PARENT 9 19 11 21 20 23 17 25
REMARK Flexibility Score: inf
ROOT
ATOM      1  C   UNL     1       5.596 -61.064 189.926  1.00  0.00     0.138 A 
ATOM      2  C   UNL     1       6.882 -61.608 189.801  1.00  0.00     0.100 A 
ATOM      3  C   UNL     1       7.078 -62.734 189.002  1.00  0.00     0.197 A 
ATOM      4  O   UNL     1       8.253 -63.163 188.859  1.00  0.00    -0.289 OA
ATOM      5  C   UNL     1       5.975 -63.336 188.349  1.00  0.00     0.107 A 
ATOM      6  C   UNL     1       6.051 -64.511 187.542  1.00  0.00     0.134 A 
ATOM      7  C   UNL     1       4.914 -64.947 186.852  1.00  0.00     0.093 A 
ATOM      8  C   UNL     1       3.692 -64.290 186.987  1.00  0.00     0.123 A 
ATOM      9  C   UNL     1       3.594 -63.172 187.817  1.00  0.00     0.094 A 
ATOM     10  C   UNL     1       4.719 -62.691 188.491  1.00  0.00     0.146 A 
ATOM     11  O   UNL     1       4.587 -61.615 189.260  1.00  0.00    -0.456 OA
ENDROOT
BRANCH   1  12
ATOM     12  C   UNL     1       5.330 -59.867 190.765  1.00  0.00     0.021 A 
ATOM     13  C   UNL     1       6.020 -59.640 191.971  1.00  0.00     0.016 A 
ATOM     14  C   UNL     1       5.742 -58.511 192.745  1.00  0.00     0.051 A 
ATOM     15  C   UNL     1       4.766 -57.594 192.334  1.00  0.00     0.157 A 
ATOM     16  C   UNL     1       4.341 -58.949 190.367  1.00  0.00     0.062 A 
ATOM     17  C   UNL     1       4.062 -57.817 191.141  1.00  0.00     0.158 A 
BRANCH  15  18
ATOM     18  O   UNL     1       4.492 -56.467 193.109  1.00  0.00    -0.504 OA
ATOM     19  H   UNL     1       5.184 -55.741 193.253  1.00  0.00     0.293 HD
ENDBRANCH  15  18
BRANCH  17  20
ATOM     20  O   UNL     1       3.081 -56.925 190.706  1.00  0.00    -0.504 OA
ATOM     21  H   UNL     1       2.223 -57.240 190.269  1.00  0.00     0.293 HD
ENDBRANCH  17  20
ENDBRANCH   1  12
BRANCH   6  22
ATOM     22  O   UNL     1       7.202 -65.293 187.405  1.00  0.00    -0.507 OA
ATOM     23  H   UNL     1       7.964 -65.093 186.774  1.00  0.00     0.293 HD
ENDBRANCH   6  22
BRANCH   8  24
ATOM     24  O   UNL     1       2.577 -64.763 186.298  1.00  0.00    -0.508 OA
ATOM     25  H   UNL     1       1.896 -65.367 186.743  1.00  0.00     0.293 HD
ENDBRANCH   8  24
TORSDOF 5
ENDMDL
MODEL 4
REMARK VINA RESULT:    -6.384      1.272      1.910
REMARK INTER + INTRA:          -7.820
REMARK INTER:                  -7.529
REMARK INTRA:                  -0.290
REMARK UNBOUND:                -0.316
REMARK SMILES O=c1cc(-c2ccc(O)c(O)c2)oc2cc(O)cc(O)c12
REMARK SMILES IDX 4 1 3 2 2 3 1 4 21 5 19 6 18 7 16 8 15 9 14 10 13 11 5 12
REMARK SMILES IDX 6 13 7 14 8 15 12 16 10 17 9 18 11 20 20 22 17 24
REMARK H PARENT 9 19 11 21 20 23 17 25
REMARK Flexibility Score: inf
ROOT
ATOM      1  C   UNL     1       5.243 -60.954 189.971  1.00  0.00     0.138 A 
ATOM      2  C   UNL     1       3.948 -60.500 189.683  1.00  0.00     0.100 A 
ATOM      3  C   UNL     1       3.411 -59.439 190.412  1.00  0.00     0.197 A 
ATOM      4  O   UNL     1       2.271 -59.013 190.089  1.00  0.00    -0.289 OA
ATOM      5  C   UNL     1       4.163 -58.850 191.457  1.00  0.00     0.107 A 
ATOM      6  C   UNL     1       3.702 -57.789 192.293  1.00  0.00     0.134 A 
ATOM      7  C   UNL     1       4.578 -57.209 193.217  1.00  0.00     0.093 A 
ATOM      8  C   UNL     1       5.877 -57.688 193.378  1.00  0.00     0.123 A 
ATOM      9  C   UNL     1       6.322 -58.761 192.604  1.00  0.00     0.094 A 
ATOM     10  C   UNL     1       5.483 -59.339 191.648  1.00  0.00     0.146 A 
ATOM     11  O   UNL     1       5.948 -60.348 190.920  1.00  0.00    -0.456 OA
ENDROOT
BRANCH   1  12
ATOM     12  C   UNL     1       5.862 -62.080 189.228  1.00  0.00     0.021 A 
ATOM     13  C   UNL     1       7.258 -62.257 189.180  1.00  0.00     0.016 A 
ATOM     14  C   UNL     1       7.814 -63.319 188.464  1.00  0.00     0.051 A 
ATOM     15  C   UNL     1       6.989 -64.218 187.778  1.00  0.00     0.157 A 
ATOM     16  C   UNL     1       5.041 -62.979 188.523  1.00  0.00     0.062 A 
ATOM     17  C   UNL     1       5.596 -64.045 187.806  1.00  0.00     0.158 A 
BRANCH  15  18
ATOM     18  O   UNL     1       7.548 -65.279 187.065  1.00  0.00    -0.504 OA
ATOM     19  H   UNL     1       8.455 -65.662 187.307  1.00  0.00     0.293 HD
ENDBRANCH  15  18
BRANCH  17  20
ATOM     20  O   UNL     1       4.747 -64.921 187.130  1.00  0.00    -0.504 OA
ATOM     21  H   UNL     1       4.330 -65.724 187.584  1.00  0.00     0.293 HD
ENDBRANCH  17  20
ENDBRANCH   1  12
BRANCH   6  22
ATOM     22  O   UNL     1       2.396 -57.291 192.274  1.00  0.00    -0.507 OA
ATOM     23  H   UNL     1       2.125 -56.371 192.588  1.00  0.00     0.293 HD
ENDBRANCH   6  22
BRANCH   8  24
ATOM     24  O   UNL     1       6.717 -57.096 194.320  1.00  0.00    -0.508 OA
ATOM     25  H   UNL     1       6.544 -57.186 195.314  1.00  0.00     0.293 HD
ENDBRANCH   8  24
TORSDOF 5
ENDMDL
MODEL 5
REMARK VINA RESULT:    -6.244      1.421      6.767
REMARK INTER + INTRA:          -7.655
REMARK INTER:                  -7.365
REMARK INTRA:                  -0.290
REMARK UNBOUND:                -0.316
REMARK SMILES O=c1cc(-c2ccc(O)c(O)c2)oc2cc(O)cc(O)c12
REMARK SMILES IDX 4 1 3 2 2 3 1 4 21 5 19 6 18 7 16 8 15 9 14 10 13 11 5 12
REMARK SMILES IDX 6 13 7 14 8 15 12 16 10 17 9 18 11 20 20 22 17 24
REMARK H PARENT 9 19 11 21 20 23 17 25
REMARK Flexibility Score: inf
ROOT
ATOM      1  C   UNL     1       4.935 -59.293 191.570  1.00  0.00     0.138 A 
ATOM      2  C   UNL     1       3.947 -59.619 190.630  1.00  0.00     0.100 A 
ATOM      3  C   UNL     1       4.187 -60.633 189.701  1.00  0.00     0.197 A 
ATOM      4  O   UNL     1       3.259 -60.945 188.910  1.00  0.00    -0.289 OA
ATOM      5  C   UNL     1       5.435 -61.301 189.695  1.00  0.00     0.107 A 
ATOM      6  C   UNL     1       5.805 -62.322 188.768  1.00  0.00     0.134 A 
ATOM      7  C   UNL     1       7.023 -62.993 188.932  1.00  0.00     0.093 A 
ATOM      8  C   UNL     1       7.909 -62.640 189.949  1.00  0.00     0.123 A 
ATOM      9  C   UNL     1       7.581 -61.607 190.828  1.00  0.00     0.094 A 
ATOM     10  C   UNL     1       6.357 -60.941 190.712  1.00  0.00     0.146 A 
ATOM     11  O   UNL     1       6.076 -59.973 191.577  1.00  0.00    -0.456 OA
ENDROOT
BRANCH   1  12
ATOM     12  C   UNL     1       4.733 -58.223 192.579  1.00  0.00     0.021 A 
ATOM     13  C   UNL     1       3.542 -58.123 193.324  1.00  0.00     0.016 A 
ATOM     14  C   UNL     1       3.375 -57.100 194.260  1.00  0.00     0.051 A 
ATOM     15  C   UNL     1       4.389 -56.156 194.464  1.00  0.00     0.157 A 
ATOM     16  C   UNL     1       5.740 -57.261 192.780  1.00  0.00     0.062 A 
ATOM     17  C   UNL     1       5.575 -56.236 193.718  1.00  0.00     0.158 A 
BRANCH  15  18
ATOM     18  O   UNL     1       4.219 -55.135 195.400  1.00  0.00    -0.504 OA
ATOM     19  H   UNL     1       4.062 -54.175 195.116  1.00  0.00     0.293 HD
ENDBRANCH  15  18
BRANCH  17  20
ATOM     20  O   UNL     1       6.603 -55.309 193.894  1.00  0.00    -0.504 OA
ATOM     21  H   UNL     1       6.748 -54.540 193.251  1.00  0.00     0.293 HD
ENDBRANCH  17  20
ENDBRANCH   1  12
BRANCH   6  22
ATOM     22  O   UNL     1       5.032 -62.694 187.665  1.00  0.00    -0.507 OA
ATOM     23  H   UNL     1       4.269 -63.355 187.691  1.00  0.00     0.293 HD
ENDBRANCH   6  22
BRANCH   8  24
ATOM     24  O   UNL     1       9.119 -63.319 190.072  1.00  0.00    -0.508 OA
ATOM     25  H   UNL     1      10.007 -62.834 190.014  1.00  0.00     0.293 HD
ENDBRANCH   8  24
TORSDOF 5
ENDMDL
MODEL 6
REMARK VINA RESULT:    -5.938      8.131     10.586
REMARK INTER + INTRA:          -7.296
REMARK INTER:                  -6.999
REMARK INTRA:                  -0.297
REMARK UNBOUND:                -0.316
REMARK SMILES O=c1cc(-c2ccc(O)c(O)c2)oc2cc(O)cc(O)c12
REMARK SMILES IDX 4 1 3 2 2 3 1 4 21 5 19 6 18 7 16 8 15 9 14 10 13 11 5 12
REMARK SMILES IDX 6 13 7 14 8 15 12 16 10 17 9 18 11 20 20 22 17 24
REMARK H PARENT 9 19 11 21 20 23 17 25
REMARK Flexibility Score: inf
ROOT
ATOM      1  C   UNL     1      10.908 -56.428 197.334  1.00  0.00     0.138 A 
ATOM      2  C   UNL     1       9.912 -56.143 196.388  1.00  0.00     0.100 A 
ATOM      3  C   UNL     1      10.274 -55.640 195.138  1.00  0.00     0.197 A 
ATOM      4  O   UNL     1       9.365 -55.452 194.288  1.00  0.00    -0.289 OA
ATOM      5  C   UNL     1      11.637 -55.393 194.845  1.00  0.00     0.107 A 
ATOM      6  C   UNL     1      12.118 -54.844 193.618  1.00  0.00     0.134 A 
ATOM      7  C   UNL     1      13.497 -54.753 193.398  1.00  0.00     0.093 A 
ATOM      8  C   UNL     1      14.411 -55.133 194.380  1.00  0.00     0.123 A 
ATOM      9  C   UNL     1      13.951 -55.620 195.604  1.00  0.00     0.094 A 
ATOM     10  C   UNL     1      12.580 -55.756 195.842  1.00  0.00     0.146 A 
ATOM     11  O   UNL     1      12.183 -56.238 197.014  1.00  0.00    -0.456 OA
ENDROOT
BRANCH   1  12
ATOM     12  C   UNL     1      10.579 -56.962 198.679  1.00  0.00     0.021 A 
ATOM     13  C   UNL     1       9.499 -56.463 199.432  1.00  0.00     0.016 A 
ATOM     14  C   UNL     1       9.219 -56.978 200.699  1.00  0.00     0.051 A 
ATOM     15  C   UNL     1      10.016 -57.993 201.242  1.00  0.00     0.157 A 
ATOM     16  C   UNL     1      11.384 -57.972 199.239  1.00  0.00     0.062 A 
ATOM     17  C   UNL     1      11.105 -58.491 200.508  1.00  0.00     0.158 A 
BRANCH  15  18
ATOM     18  O   UNL     1       9.733 -58.506 202.508  1.00  0.00    -0.504 OA
ATOM     19  H   UNL     1      10.393 -58.424 203.273  1.00  0.00     0.293 HD
ENDBRANCH  15  18
BRANCH  17  20
ATOM     20  O   UNL     1      11.921 -59.499 201.022  1.00  0.00    -0.504 OA
ATOM     21  H   UNL     1      12.860 -59.314 201.353  1.00  0.00     0.293 HD
ENDBRANCH  17  20
ENDBRANCH   1  12
BRANCH   6  22
ATOM     22  O   UNL     1      11.290 -54.354 192.603  1.00  0.00    -0.507 OA
ATOM     23  H   UNL     1      11.060 -53.381 192.466  1.00  0.00     0.293 HD
ENDBRANCH   6  22
BRANCH   8  24
ATOM     24  O   UNL     1      15.776 -55.013 194.132  1.00  0.00    -0.508 OA
ATOM     25  H   UNL     1      16.343 -54.319 194.607  1.00  0.00     0.293 HD
ENDBRANCH   8  24
TORSDOF 5
ENDMDL
MODEL 7
REMARK VINA RESULT:    -5.665      8.754     11.289
REMARK INTER + INTRA:          -6.975
REMARK INTER:                  -6.704
REMARK INTRA:                  -0.271
REMARK UNBOUND:                -0.316
REMARK SMILES O=c1cc(-c2ccc(O)c(O)c2)oc2cc(O)cc(O)c12
REMARK SMILES IDX 4 1 3 2 2 3 1 4 21 5 19 6 18 7 16 8 15 9 14 10 13 11 5 12
REMARK SMILES IDX 6 13 7 14 8 15 12 16 10 17 9 18 11 20 20 22 17 24
REMARK H PARENT 9 19 11 21 20 23 17 25
REMARK Flexibility Score: inf
ROOT
ATOM      1  C   UNL     1      12.005 -56.122 197.747  1.00  0.00     0.138 A 
ATOM      2  C   UNL     1      13.381 -55.862 197.690  1.00  0.00     0.100 A 
ATOM      3  C   UNL     1      13.926 -55.281 196.545  1.00  0.00     0.197 A 
ATOM      4  O   UNL     1      15.153 -55.002 196.547  1.00  0.00    -0.289 OA
ATOM      5  C   UNL     1      13.092 -54.990 195.438  1.00  0.00     0.107 A 
ATOM      6  C   UNL     1      13.545 -54.435 194.203  1.00  0.00     0.134 A 
ATOM      7  C   UNL     1      12.611 -54.081 193.223  1.00  0.00     0.093 A 
ATOM      8  C   UNL     1      11.249 -54.317 193.406  1.00  0.00     0.123 A 
ATOM      9  C   UNL     1      10.800 -54.909 194.588  1.00  0.00     0.094 A 
ATOM     10  C   UNL     1      11.704 -55.241 195.600  1.00  0.00     0.146 A 
ATOM     11  O   UNL     1      11.236 -55.789 196.716  1.00  0.00    -0.456 OA
ENDROOT
BRANCH   1  12
ATOM     12  C   UNL     1      11.373 -56.740 198.940  1.00  0.00     0.021 A 
ATOM     13  C   UNL     1      10.261 -56.154 199.576  1.00  0.00     0.016 A 
ATOM     14  C   UNL     1       9.693 -56.751 200.704  1.00  0.00     0.051 A 
ATOM     15  C   UNL     1      10.227 -57.937 201.220  1.00  0.00     0.157 A 
ATOM     16  C   UNL     1      11.911 -57.924 199.475  1.00  0.00     0.062 A 
ATOM     17  C   UNL     1      11.343 -58.525 200.604  1.00  0.00     0.158 A 
BRANCH  15  18
ATOM     18  O   UNL     1       9.656 -58.532 202.346  1.00  0.00    -0.504 OA
ATOM     19  H   UNL     1       9.738 -58.113 203.266  1.00  0.00     0.293 HD
ENDBRANCH  15  18
BRANCH  17  20
ATOM     20  O   UNL     1      11.901 -59.705 201.096  1.00  0.00    -0.504 OA
ATOM     21  H   UNL     1      11.931 -59.913 202.087  1.00  0.00     0.293 HD
ENDBRANCH  17  20
ENDBRANCH   1  12
BRANCH   6  22
ATOM     22  O   UNL     1      14.891 -54.237 193.882  1.00  0.00    -0.507 OA
ATOM     23  H   UNL     1      15.236 -53.994 192.965  1.00  0.00     0.293 HD
ENDBRANCH   6  22
BRANCH   8  24
ATOM     24  O   UNL     1      10.349 -53.966 192.402  1.00  0.00    -0.508 OA
ATOM     25  H   UNL     1      10.658 -53.783 191.454  1.00  0.00     0.293 HD
ENDBRANCH   8  24
TORSDOF 5
ENDMDL
MODEL 8
REMARK VINA RESULT:    -5.506      8.429      9.927
REMARK INTER + INTRA:          -6.788
REMARK INTER:                  -6.497
REMARK INTRA:                  -0.291
REMARK UNBOUND:                -0.316
REMARK SMILES O=c1cc(-c2ccc(O)c(O)c2)oc2cc(O)cc(O)c12
REMARK SMILES IDX 4 1 3 2 2 3 1 4 21 5 19 6 18 7 16 8 15 9 14 10 13 11 5 12
REMARK SMILES IDX 6 13 7 14 8 15 12 16 10 17 9 18 11 20 20 22 17 24
REMARK H PARENT 9 19 11 21 20 23 17 25
REMARK Flexibility Score: inf
ROOT
ATOM      1  C   UNL     1      11.456 -56.082 196.854  1.00  0.00     0.138 A 
ATOM      2  C   UNL     1      10.155 -55.850 196.386  1.00  0.00     0.100 A 
ATOM      3  C   UNL     1       9.063 -56.266 197.149  1.00  0.00     0.197 A 
ATOM      4  O   UNL     1       7.908 -55.989 196.734  1.00  0.00    -0.289 OA
ATOM      5  C   UNL     1       9.277 -56.947 198.371  1.00  0.00     0.107 A 
ATOM      6  C   UNL     1       8.241 -57.453 199.212  1.00  0.00     0.134 A 
ATOM      7  C   UNL     1       8.570 -58.007 200.455  1.00  0.00     0.093 A 
ATOM      8  C   UNL     1       9.898 -58.128 200.862  1.00  0.00     0.123 A 
ATOM      9  C   UNL     1      10.923 -57.685 200.024  1.00  0.00     0.094 A 
ATOM     10  C   UNL     1      10.625 -57.096 198.792  1.00  0.00     0.146 A 
ATOM     11  O   UNL     1      11.628 -56.675 198.030  1.00  0.00    -0.456 OA
ENDROOT
BRANCH   1  12
ATOM     12  C   UNL     1      12.653 -55.661 196.082  1.00  0.00     0.021 A 
ATOM     13  C   UNL     1      13.909 -55.495 196.696  1.00  0.00     0.016 A 
ATOM     14  C   UNL     1      15.016 -55.089 195.948  1.00  0.00     0.051 A 
ATOM     15  C   UNL     1      14.887 -54.833 194.577  1.00  0.00     0.157 A 
ATOM     16  C   UNL     1      12.530 -55.388 194.707  1.00  0.00     0.062 A 
ATOM     17  C   UNL     1      13.638 -54.982 193.956  1.00  0.00     0.158 A 
BRANCH  15  18
ATOM     18  O   UNL     1      15.996 -54.428 193.833  1.00  0.00    -0.504 OA
ATOM     19  H   UNL     1      16.903 -54.862 193.953  1.00  0.00     0.293 HD
ENDBRANCH  15  18
BRANCH  17  20
ATOM     20  O   UNL     1      13.475 -54.731 192.593  1.00  0.00    -0.504 OA
ATOM     21  H   UNL     1      13.287 -55.472 191.928  1.00  0.00     0.293 HD
ENDBRANCH  17  20
ENDBRANCH   1  12
BRANCH   6  22
ATOM     22  O   UNL     1       6.887 -57.460 198.865  1.00  0.00    -0.507 OA
ATOM     23  H   UNL     1       6.126 -57.606 199.512  1.00  0.00     0.293 HD
ENDBRANCH   6  22
BRANCH   8  24
ATOM     24  O   UNL     1      10.189 -58.698 202.099  1.00  0.00    -0.508 OA
ATOM     25  H   UNL     1      10.063 -58.184 202.963  1.00  0.00     0.293 HD
ENDBRANCH   8  24
TORSDOF 5
ENDMDL
