MODEL 1
REMARK VINA RESULT:    -0.978      0.000      0.000
REMARK INTER + INTRA:          -3.958
REMARK INTER:                  -1.721
REMARK INTRA:                  -2.236
REMARK UNBOUND:                -2.236
REMARK SMILES CCCCCCCCCCCCCCC(=O)[O-]
REMARK SMILES IDX 9 1 10 2 11 3 12 4 13 5 14 6 15 7 16 8 17 9 8 10 7 11 6 12
REMARK SMILES IDX 5 13 4 14 3 15 2 16 1 17
REMARK H PARENT
REMARK Flexibility Score: inf
ROOT
ATOM      1  C   UNL     1     -13.337 -22.862  82.180  1.00  0.00     0.000 C 
ENDROOT
BRANCH   1   2
ATOM      2  C   UNL     1     -14.473 -23.047  81.166  1.00  0.00     0.000 C 
BRANCH   2   3
ATOM      3  C   UNL     1     -15.498 -21.909  81.275  1.00  0.00     0.000 C 
BRANCH   3   4
ATOM      4  C   UNL     1     -16.954 -22.408  81.244  1.00  0.00     0.000 C 
BRANCH   4   5
ATOM      5  C   UNL     1     -17.960 -21.533  82.020  1.00  0.00     0.006 C 
BRANCH   5   6
ATOM      6  C   UNL     1     -19.436 -21.816  81.695  1.00  0.00     0.053 C 
BRANCH   6   7
ATOM      7  C   UNL     1     -20.170 -22.385  82.870  1.00  0.00     0.041 C 
ATOM      8  O   UNL     1     -19.552 -23.052  83.740  1.00  0.00    -0.550 OA
ATOM      9  O   UNL     1     -21.531 -22.148  83.020  1.00  0.00    -0.550 OA
ENDBRANCH   6   7
ENDBRANCH   5   6
ENDBRANCH   4   5
ENDBRANCH   3   4
ENDBRANCH   2   3
ENDBRANCH   1   2
BRANCH   1  10
ATOM     10  C   UNL     1     -13.251 -21.401  82.648  1.00  0.00     0.000 C 
BRANCH  10  11
ATOM     11  C   UNL     1     -13.143 -21.273  84.177  1.00  0.00    -0.000 C 
BRANCH  11  12
ATOM     12  C   UNL     1     -13.465 -22.589  84.904  1.00  0.00    -0.000 C 
BRANCH  12  13
ATOM     13  C   UNL     1     -14.781 -22.524  85.700  1.00  0.00    -0.000 C 
BRANCH  13  14
ATOM     14  C   UNL     1     -16.054 -22.858  84.896  1.00  0.00    -0.000 C 
BRANCH  14  15
ATOM     15  C   UNL     1     -16.516 -24.324  84.982  1.00  0.00    -0.000 C 
BRANCH  15  16
ATOM     16  C   UNL     1     -16.325 -25.086  83.663  1.00  0.00    -0.003 C 
ATOM     17  C   UNL     1     -15.017 -25.869  83.665  1.00  0.00     0.004 C 
ENDBRANCH  15  16
ENDBRANCH  14  15
ENDBRANCH  13  14
ENDBRANCH  12  13
ENDBRANCH  11  12
ENDBRANCH  10  11
ENDBRANCH   1  10
TORSDOF 13
ENDMDL
MODEL 2
REMARK VINA RESULT:    -0.937      2.988      5.286
REMARK INTER + INTRA:          -3.885
REMARK INTER:                  -1.755
REMARK INTRA:                  -2.130
REMARK UNBOUND:                -2.236
REMARK SMILES CCCCCCCCCCCCCCC(=O)[O-]
REMARK SMILES IDX 9 1 10 2 11 3 12 4 13 5 14 6 15 7 16 8 17 9 8 10 7 11 6 12
REMARK SMILES IDX 5 13 4 14 3 15 2 16 1 17
REMARK H PARENT
REMARK Flexibility Score: inf
ROOT
ATOM      1  C   UNL     1     -14.943 -24.838  84.664  1.00  0.00     0.000 C 
ENDROOT
BRANCH   1   2
ATOM      2  C   UNL     1     -13.777 -24.675  85.647  1.00  0.00     0.000 C 
BRANCH   2   3
ATOM      3  C   UNL     1     -13.236 -23.238  85.625  1.00  0.00     0.000 C 
BRANCH   3   4
ATOM      4  C   UNL     1     -14.044 -22.305  84.705  1.00  0.00     0.000 C 
BRANCH   4   5
ATOM      5  C   UNL     1     -13.199 -21.426  83.761  1.00  0.00     0.006 C 
BRANCH   5   6
ATOM      6  C   UNL     1     -12.875 -22.075  82.405  1.00  0.00     0.053 C 
BRANCH   6   7
ATOM      7  C   UNL     1     -13.197 -21.167  81.258  1.00  0.00     0.041 C 
ATOM      8  O   UNL     1     -13.515 -19.968  81.469  1.00  0.00    -0.550 OA
ATOM      9  O   UNL     1     -13.111 -21.638  79.953  1.00  0.00    -0.550 OA
ENDBRANCH   6   7
ENDBRANCH   5   6
ENDBRANCH   4   5
ENDBRANCH   3   4
ENDBRANCH   2   3
ENDBRANCH   1   2
BRANCH   1  10
ATOM     10  C   UNL     1     -14.559 -25.775  83.508  1.00  0.00     0.000 C 
BRANCH  10  11
ATOM     11  C   UNL     1     -14.744 -25.122  82.128  1.00  0.00    -0.000 C 
BRANCH  11  12
ATOM     12  C   UNL     1     -16.200 -24.702  81.864  1.00  0.00    -0.000 C 
BRANCH  12  13
ATOM     13  C   UNL     1     -16.309 -23.340  81.155  1.00  0.00    -0.000 C 
BRANCH  13  14
ATOM     14  C   UNL     1     -16.640 -22.145  82.073  1.00  0.00    -0.000 C 
BRANCH  14  15
ATOM     15  C   UNL     1     -17.961 -22.266  82.853  1.00  0.00    -0.000 C 
BRANCH  15  16
ATOM     16  C   UNL     1     -17.748 -22.589  84.339  1.00  0.00    -0.003 C 
ATOM     17  C   UNL     1     -18.909 -23.406  84.895  1.00  0.00     0.004 C 
ENDBRANCH  15  16
ENDBRANCH  14  15
ENDBRANCH  13  14
ENDBRANCH  12  13
ENDBRANCH  11  12
ENDBRANCH  10  11
ENDBRANCH   1  10
TORSDOF 13
ENDMDL
MODEL 3
REMARK VINA RESULT:    -0.928      1.517      3.820
REMARK INTER + INTRA:          -3.870
REMARK INTER:                  -1.630
REMARK INTRA:                  -2.241
REMARK UNBOUND:                -2.236
REMARK SMILES CCCCCCCCCCCCCCC(=O)[O-]
REMARK SMILES IDX 9 1 10 2 11 3 12 4 13 5 14 6 15 7 16 8 17 9 8 10 7 11 6 12
REMARK SMILES IDX 5 13 4 14 3 15 2 16 1 17
REMARK H PARENT
REMARK Flexibility Score: inf
ROOT
ATOM      1  C   UNL     1     -14.834 -22.495  85.606  1.00  0.00     0.000 C 
ENDROOT
BRANCH   1   2
ATOM      2  C   UNL     1     -15.165 -23.983  85.440  1.00  0.00     0.000 C 
BRANCH   2   3
ATOM      3  C   UNL     1     -16.609 -24.174  84.950  1.00  0.00     0.000 C 
BRANCH   3   4
ATOM      4  C   UNL     1     -16.690 -24.833  83.562  1.00  0.00     0.000 C 
BRANCH   4   5
ATOM      5  C   UNL     1     -16.687 -23.852  82.372  1.00  0.00     0.006 C 
BRANCH   5   6
ATOM      6  C   UNL     1     -17.187 -22.439  82.708  1.00  0.00     0.053 C 
BRANCH   6   7
ATOM      7  C   UNL     1     -18.534 -22.164  82.113  1.00  0.00     0.041 C 
ATOM      8  O   UNL     1     -19.531 -22.852  82.456  1.00  0.00    -0.550 OA
ATOM      9  O   UNL     1     -18.694 -21.124  81.205  1.00  0.00    -0.550 OA
ENDBRANCH   6   7
ENDBRANCH   5   6
ENDBRANCH   4   5
ENDBRANCH   3   4
ENDBRANCH   2   3
ENDBRANCH   1   2
BRANCH   1  10
ATOM     10  C   UNL     1     -13.618 -22.105  84.751  1.00  0.00     0.000 C 
BRANCH  10  11
ATOM     11  C   UNL     1     -13.251 -23.180  83.714  1.00  0.00    -0.000 C 
BRANCH  11  12
ATOM     12  C   UNL     1     -13.206 -22.626  82.280  1.00  0.00    -0.000 C 
BRANCH  12  13
ATOM     13  C   UNL     1     -13.338 -21.094  82.227  1.00  0.00    -0.000 C 
BRANCH  13  14
ATOM     14  C   UNL     1     -14.414 -20.559  81.259  1.00  0.00    -0.000 C 
BRANCH  14  15
ATOM     15  C   UNL     1     -14.297 -21.063  79.810  1.00  0.00    -0.000 C 
BRANCH  15  16
ATOM     16  C   UNL     1     -15.504 -21.905  79.373  1.00  0.00    -0.003 C 
ATOM     17  C   UNL     1     -15.093 -23.343  79.077  1.00  0.00     0.004 C 
ENDBRANCH  15  16
ENDBRANCH  14  15
ENDBRANCH  13  14
ENDBRANCH  12  13
ENDBRANCH  11  12
ENDBRANCH  10  11
ENDBRANCH   1  10
TORSDOF 13
ENDMDL
MODEL 4
REMARK VINA RESULT:    -0.914      2.936      5.027
REMARK INTER + INTRA:          -3.844
REMARK INTER:                  -1.309
REMARK INTRA:                  -2.536
REMARK UNBOUND:                -2.236
REMARK SMILES CCCCCCCCCCCCCCC(=O)[O-]
REMARK SMILES IDX 9 1 10 2 11 3 12 4 13 5 14 6 15 7 16 8 17 9 8 10 7 11 6 12
REMARK SMILES IDX 5 13 4 14 3 15 2 16 1 17
REMARK H PARENT
REMARK Flexibility Score: inf
ROOT
ATOM      1  C   UNL     1     -17.937 -22.101  79.398  1.00  0.00     0.000 C 
ENDROOT
BRANCH   1   2
ATOM      2  C   UNL     1     -17.112 -20.808  79.432  1.00  0.00     0.000 C 
BRANCH   2   3
ATOM      3  C   UNL     1     -15.615 -21.115  79.588  1.00  0.00     0.000 C 
BRANCH   3   4
ATOM      4  C   UNL     1     -15.027 -20.583  80.907  1.00  0.00     0.000 C 
BRANCH   4   5
ATOM      5  C   UNL     1     -13.739 -21.288  81.380  1.00  0.00     0.006 C 
BRANCH   5   6
ATOM      6  C   UNL     1     -13.341 -20.983  82.832  1.00  0.00     0.053 C 
BRANCH   6   7
ATOM      7  C   UNL     1     -13.270 -22.225  83.668  1.00  0.00     0.041 C 
ATOM      8  O   UNL     1     -12.875 -23.307  83.160  1.00  0.00    -0.550 OA
ATOM      9  O   UNL     1     -13.608 -22.177  85.014  1.00  0.00    -0.550 OA
ENDBRANCH   6   7
ENDBRANCH   5   6
ENDBRANCH   4   5
ENDBRANCH   3   4
ENDBRANCH   2   3
ENDBRANCH   1   2
BRANCH   1  10
ATOM     10  C   UNL     1     -19.027 -22.084  80.480  1.00  0.00     0.000 C 
BRANCH  10  11
ATOM     11  C   UNL     1     -18.574 -21.378  81.770  1.00  0.00    -0.000 C 
BRANCH  11  12
ATOM     12  C   UNL     1     -18.373 -22.357  82.939  1.00  0.00    -0.000 C 
BRANCH  12  13
ATOM     13  C   UNL     1     -16.894 -22.711  83.174  1.00  0.00    -0.000 C 
BRANCH  13  14
ATOM     14  C   UNL     1     -16.501 -24.161  82.826  1.00  0.00    -0.000 C 
BRANCH  14  15
ATOM     15  C   UNL     1     -15.802 -24.341  81.467  1.00  0.00    -0.000 C 
BRANCH  15  16
ATOM     16  C   UNL     1     -16.533 -25.331  80.548  1.00  0.00    -0.003 C 
ATOM     17  C   UNL     1     -17.942 -25.616  81.057  1.00  0.00     0.004 C 
ENDBRANCH  15  16
ENDBRANCH  14  15
ENDBRANCH  13  14
ENDBRANCH  12  13
ENDBRANCH  11  12
ENDBRANCH  10  11
ENDBRANCH   1  10
TORSDOF 13
ENDMDL
MODEL 5
REMARK VINA RESULT:    -0.895      2.503      3.381
REMARK INTER + INTRA:          -3.812
REMARK INTER:                  -1.617
REMARK INTRA:                  -2.196
REMARK UNBOUND:                -2.236
REMARK SMILES CCCCCCCCCCCCCCC(=O)[O-]
REMARK SMILES IDX 9 1 10 2 11 3 12 4 13 5 14 6 15 7 16 8 17 9 8 10 7 11 6 12
REMARK SMILES IDX 5 13 4 14 3 15 2 16 1 17
REMARK H PARENT
REMARK Flexibility Score: inf
ROOT
ATOM      1  C   UNL     1     -15.658 -24.069  82.083  1.00  0.00     0.000 C 
ENDROOT
BRANCH   1   2
ATOM      2  C   UNL     1     -14.321 -24.338  81.382  1.00  0.00     0.000 C 
BRANCH   2   3
ATOM      3  C   UNL     1     -14.443 -24.130  79.865  1.00  0.00     0.000 C 
BRANCH   3   4
ATOM      4  C   UNL     1     -13.577 -22.968  79.346  1.00  0.00     0.000 C 
BRANCH   4   5
ATOM      5  C   UNL     1     -14.309 -21.618  79.210  1.00  0.00     0.006 C 
BRANCH   5   6
ATOM      6  C   UNL     1     -15.836 -21.731  79.075  1.00  0.00     0.053 C 
BRANCH   6   7
ATOM      7  C   UNL     1     -16.552 -20.994  80.166  1.00  0.00     0.041 C 
ATOM      8  O   UNL     1     -17.716 -21.336  80.502  1.00  0.00    -0.550 OA
ATOM      9  O   UNL     1     -15.919 -19.953  80.834  1.00  0.00    -0.550 OA
ENDBRANCH   6   7
ENDBRANCH   5   6
ENDBRANCH   4   5
ENDBRANCH   3   4
ENDBRANCH   2   3
ENDBRANCH   1   2
BRANCH   1  10
ATOM     10  C   UNL     1     -15.525 -22.921  83.096  1.00  0.00     0.000 C 
BRANCH  10  11
ATOM     11  C   UNL     1     -14.182 -22.180  82.981  1.00  0.00    -0.000 C 
BRANCH  11  12
ATOM     12  C   UNL     1     -13.557 -21.877  84.353  1.00  0.00    -0.000 C 
BRANCH  12  13
ATOM     13  C   UNL     1     -14.225 -22.657  85.500  1.00  0.00    -0.000 C 
BRANCH  13  14
ATOM     14  C   UNL     1     -13.414 -23.850  86.046  1.00  0.00    -0.000 C 
BRANCH  14  15
ATOM     15  C   UNL     1     -14.040 -25.234  85.798  1.00  0.00    -0.000 C 
BRANCH  15  16
ATOM     16  C   UNL     1     -13.412 -25.966  84.603  1.00  0.00    -0.003 C 
ATOM     17  C   UNL     1     -14.376 -26.995  84.022  1.00  0.00     0.004 C 
ENDBRANCH  15  16
ENDBRANCH  14  15
ENDBRANCH  13  14
ENDBRANCH  12  13
ENDBRANCH  11  12
ENDBRANCH  10  11
ENDBRANCH   1  10
TORSDOF 13
ENDMDL
MODEL 6
REMARK VINA RESULT:    -0.895      8.720     10.425
REMARK INTER + INTRA:          -3.812
REMARK INTER:                  -1.399
REMARK INTRA:                  -2.413
REMARK UNBOUND:                -2.236
REMARK SMILES CCCCCCCCCCCCCCC(=O)[O-]
REMARK SMILES IDX 9 1 10 2 11 3 12 4 13 5 14 6 15 7 16 8 17 9 8 10 7 11 6 12
REMARK SMILES IDX 5 13 4 14 3 15 2 16 1 17
REMARK H PARENT
REMARK Flexibility Score: inf
ROOT
ATOM      1  C   UNL     1     -15.495 -13.158  85.600  1.00  0.00     0.000 C 
ENDROOT
BRANCH   1   2
ATOM      2  C   UNL     1     -16.661 -13.970  85.024  1.00  0.00     0.000 C 
BRANCH   2   3
ATOM      3  C   UNL     1     -16.953 -13.560  83.573  1.00  0.00     0.000 C 
BRANCH   3   4
ATOM      4  C   UNL     1     -16.750 -14.711  82.571  1.00  0.00     0.000 C 
BRANCH   4   5
ATOM      5  C   UNL     1     -16.320 -14.276  81.155  1.00  0.00     0.006 C 
BRANCH   5   6
ATOM      6  C   UNL     1     -15.402 -15.274  80.432  1.00  0.00     0.053 C 
BRANCH   6   7
ATOM      7  C   UNL     1     -14.832 -14.701  79.171  1.00  0.00     0.041 C 
ATOM      8  O   UNL     1     -15.379 -14.940  78.063  1.00  0.00    -0.550 OA
ATOM      9  O   UNL     1     -13.717 -13.874  79.225  1.00  0.00    -0.550 OA
ENDBRANCH   6   7
ENDBRANCH   5   6
ENDBRANCH   4   5
ENDBRANCH   3   4
ENDBRANCH   2   3
ENDBRANCH   1   2
BRANCH   1  10
ATOM     10  C   UNL     1     -14.387 -14.083  86.125  1.00  0.00     0.000 C 
BRANCH  10  11
ATOM     11  C   UNL     1     -13.105 -14.017  85.277  1.00  0.00    -0.000 C 
BRANCH  11  12
ATOM     12  C   UNL     1     -13.226 -14.804  83.961  1.00  0.00    -0.000 C 
BRANCH  12  13
ATOM     13  C   UNL     1     -12.882 -13.956  82.724  1.00  0.00    -0.000 C 
BRANCH  13  14
ATOM     14  C   UNL     1     -12.944 -12.429  82.935  1.00  0.00    -0.000 C 
BRANCH  14  15
ATOM     15  C   UNL     1     -13.808 -11.663  81.916  1.00  0.00    -0.000 C 
BRANCH  15  16
ATOM     16  C   UNL     1     -14.800 -10.699  82.582  1.00  0.00    -0.003 C 
ATOM     17  C   UNL     1     -16.029 -10.484  81.706  1.00  0.00     0.004 C 
ENDBRANCH  15  16
ENDBRANCH  14  15
ENDBRANCH  13  14
ENDBRANCH  12  13
ENDBRANCH  11  12
ENDBRANCH  10  11
ENDBRANCH   1  10
TORSDOF 13
ENDMDL
MODEL 7
REMARK VINA RESULT:    -0.838      7.823      9.298
REMARK INTER + INTRA:          -3.712
REMARK INTER:                  -1.325
REMARK INTRA:                  -2.386
REMARK UNBOUND:                -2.236
REMARK SMILES CCCCCCCCCCCCCCC(=O)[O-]
REMARK SMILES IDX 9 1 10 2 11 3 12 4 13 5 14 6 15 7 16 8 17 9 8 10 7 11 6 12
REMARK SMILES IDX 5 13 4 14 3 15 2 16 1 17
REMARK H PARENT
REMARK Flexibility Score: inf
ROOT
ATOM      1  C   UNL     1     -17.841 -11.601  82.183  1.00  0.00     0.000 C 
ENDROOT
BRANCH   1   2
ATOM      2  C   UNL     1     -17.292 -12.925  81.636  1.00  0.00     0.000 C 
BRANCH   2   3
ATOM      3  C   UNL     1     -18.220 -14.095  81.993  1.00  0.00     0.000 C 
BRANCH   3   4
ATOM      4  C   UNL     1     -17.560 -15.120  82.933  1.00  0.00     0.000 C 
BRANCH   4   5
ATOM      5  C   UNL     1     -18.276 -15.323  84.283  1.00  0.00     0.006 C 
BRANCH   5   6
ATOM      6  C   UNL     1     -18.731 -16.767  84.554  1.00  0.00     0.053 C 
BRANCH   6   7
ATOM      7  C   UNL     1     -19.428 -17.367  83.371  1.00  0.00     0.041 C 
ATOM      8  O   UNL     1     -18.938 -18.371  82.791  1.00  0.00    -0.550 OA
ATOM      9  O   UNL     1     -20.635 -16.837  82.932  1.00  0.00    -0.550 OA
ENDBRANCH   6   7
ENDBRANCH   5   6
ENDBRANCH   4   5
ENDBRANCH   3   4
ENDBRANCH   2   3
ENDBRANCH   1   2
BRANCH   1  10
ATOM     10  C   UNL     1     -17.130 -11.210  83.488  1.00  0.00     0.000 C 
BRANCH  10  11
ATOM     11  C   UNL     1     -17.903 -11.652  84.742  1.00  0.00    -0.000 C 
BRANCH  11  12
ATOM     12  C   UNL     1     -16.988 -12.270  85.812  1.00  0.00    -0.000 C 
BRANCH  12  13
ATOM     13  C   UNL     1     -15.545 -12.475  85.317  1.00  0.00    -0.000 C 
BRANCH  13  14
ATOM     14  C   UNL     1     -14.994 -13.908  85.471  1.00  0.00    -0.000 C 
BRANCH  14  15
ATOM     15  C   UNL     1     -14.182 -14.428  84.271  1.00  0.00    -0.000 C 
BRANCH  15  16
ATOM     16  C   UNL     1     -13.984 -13.365  83.181  1.00  0.00    -0.003 C 
ATOM     17  C   UNL     1     -13.781 -14.011  81.814  1.00  0.00     0.004 C 
ENDBRANCH  15  16
ENDBRANCH  14  15
ENDBRANCH  13  14
ENDBRANCH  12  13
ENDBRANCH  11  12
ENDBRANCH  10  11
ENDBRANCH   1  10
TORSDOF 13
ENDMDL
MODEL 8
REMARK VINA RESULT:    -0.837      2.752      4.513
REMARK INTER + INTRA:          -3.709
REMARK INTER:                  -1.480
REMARK INTRA:                  -2.229
REMARK UNBOUND:                -2.236
REMARK SMILES CCCCCCCCCCCCCCC(=O)[O-]
REMARK SMILES IDX 9 1 10 2 11 3 12 4 13 5 14 6 15 7 16 8 17 9 8 10 7 11 6 12
REMARK SMILES IDX 5 13 4 14 3 15 2 16 1 17
REMARK H PARENT
REMARK Flexibility Score: inf
ROOT
ATOM      1  C   UNL     1     -14.745 -23.251  86.117  1.00  0.00     0.000 C 
ENDROOT
BRANCH   1   2
ATOM      2  C   UNL     1     -15.505 -24.422  85.483  1.00  0.00     0.000 C 
BRANCH   2   3
ATOM      3  C   UNL     1     -16.924 -24.000  85.074  1.00  0.00     0.000 C 
BRANCH   3   4
ATOM      4  C   UNL     1     -16.939 -22.838  84.065  1.00  0.00     0.000 C 
BRANCH   4   5
ATOM      5  C   UNL     1     -16.690 -23.245  82.598  1.00  0.00     0.006 C 
BRANCH   5   6
ATOM      6  C   UNL     1     -17.172 -24.659  82.237  1.00  0.00     0.053 C 
BRANCH   6   7
ATOM      7  C   UNL     1     -16.031 -25.582  81.936  1.00  0.00     0.041 C 
ATOM      8  O   UNL     1     -15.111 -25.217  81.158  1.00  0.00    -0.550 OA
ATOM      9  O   UNL     1     -15.967 -26.830  82.542  1.00  0.00    -0.550 OA
ENDBRANCH   6   7
ENDBRANCH   5   6
ENDBRANCH   4   5
ENDBRANCH   3   4
ENDBRANCH   2   3
ENDBRANCH   1   2
BRANCH   1  10
ATOM     10  C   UNL     1     -13.420 -22.994  85.383  1.00  0.00     0.000 C 
BRANCH  10  11
ATOM     11  C   UNL     1     -13.269 -23.848  84.113  1.00  0.00    -0.000 C 
BRANCH  11  12
ATOM     12  C   UNL     1     -12.989 -22.999  82.861  1.00  0.00    -0.000 C 
BRANCH  12  13
ATOM     13  C   UNL     1     -13.331 -21.512  83.059  1.00  0.00    -0.000 C 
BRANCH  13  14
ATOM     14  C   UNL     1     -13.916 -20.800  81.822  1.00  0.00    -0.000 C 
BRANCH  14  15
ATOM     15  C   UNL     1     -14.040 -21.675  80.562  1.00  0.00    -0.000 C 
BRANCH  15  16
ATOM     16  C   UNL     1     -15.237 -21.287  79.682  1.00  0.00    -0.003 C 
ATOM     17  C   UNL     1     -15.862 -22.516  79.032  1.00  0.00     0.004 C 
ENDBRANCH  15  16
ENDBRANCH  14  15
ENDBRANCH  13  14
ENDBRANCH  12  13
ENDBRANCH  11  12
ENDBRANCH  10  11
ENDBRANCH   1  10
TORSDOF 13
ENDMDL
MODEL 9
REMARK VINA RESULT:     0.798      2.958      4.613
REMARK INTER + INTRA:          -0.831
REMARK INTER:                   1.357
REMARK INTRA:                  -2.188
REMARK UNBOUND:                -2.236
REMARK SMILES CCCCCCCCCCCCCCC(=O)[O-]
REMARK SMILES IDX 9 1 10 2 11 3 12 4 13 5 14 6 15 7 16 8 17 9 8 10 7 11 6 12
REMARK SMILES IDX 5 13 4 14 3 15 2 16 1 17
REMARK H PARENT
REMARK Flexibility Score: inf
ROOT
ATOM      1  C   UNL     1     -17.151 -25.748  84.092  1.00  0.00     0.000 C 
ENDROOT
BRANCH   1   2
ATOM      2  C   UNL     1     -16.571 -24.941  82.925  1.00  0.00     0.000 C 
BRANCH   2   3
ATOM      3  C   UNL     1     -17.627 -23.999  82.328  1.00  0.00     0.000 C 
BRANCH   3   4
ATOM      4  C   UNL     1     -17.086 -22.582  82.062  1.00  0.00     0.000 C 
BRANCH   4   5
ATOM      5  C   UNL     1     -15.549 -22.473  81.989  1.00  0.00     0.006 C 
BRANCH   5   6
ATOM      6  C   UNL     1     -14.990 -22.286  80.569  1.00  0.00     0.053 C 
BRANCH   6   7
ATOM      7  C   UNL     1     -14.154 -21.049  80.454  1.00  0.00     0.041 C 
ATOM      8  O   UNL     1     -14.593 -19.946  80.873  1.00  0.00    -0.550 OA
ATOM      9  O   UNL     1     -12.875 -21.121  79.915  1.00  0.00    -0.550 OA
ENDBRANCH   6   7
ENDBRANCH   5   6
ENDBRANCH   4   5
ENDBRANCH   3   4
ENDBRANCH   2   3
ENDBRANCH   1   2
BRANCH   1  10
ATOM     10  C   UNL     1     -18.001 -24.855  85.008  1.00  0.00     0.000 C 
BRANCH  10  11
ATOM     11  C   UNL     1     -17.176 -24.191  86.124  1.00  0.00    -0.000 C 
BRANCH  11  12
ATOM     12  C   UNL     1     -16.822 -22.729  85.806  1.00  0.00    -0.000 C 
BRANCH  12  13
ATOM     13  C   UNL     1     -15.306 -22.496  85.674  1.00  0.00    -0.000 C 
BRANCH  13  14
ATOM     14  C   UNL     1     -14.418 -23.678  86.115  1.00  0.00    -0.000 C 
BRANCH  14  15
ATOM     15  C   UNL     1     -13.155 -23.899  85.264  1.00  0.00    -0.000 C 
BRANCH  15  16
ATOM     16  C   UNL     1     -13.222 -25.179  84.418  1.00  0.00    -0.003 C 
ATOM     17  C   UNL     1     -12.892 -24.891  82.958  1.00  0.00     0.004 C 
ENDBRANCH  15  16
ENDBRANCH  14  15
ENDBRANCH  13  14
ENDBRANCH  12  13
ENDBRANCH  11  12
ENDBRANCH  10  11
ENDBRANCH   1  10
TORSDOF 13
ENDMDL
