MODEL 1
REMARK VINA RESULT:    -4.891      0.000      0.000
REMARK INTER + INTRA:          -6.704
REMARK INTER:                  -6.607
REMARK INTRA:                  -0.097
REMARK UNBOUND:                -0.097
REMARK SMILES [NH3+]CCCC[C@H]([NH3+])C(=O)[O-]
REMARK SMILES IDX 4 1 3 2 2 3 1 4 5 8 6 9 7 10 8 14 9 15 10 16
REMARK H PARENT 1 5 1 6 1 7 7 11 7 12 7 13
REMARK Flexibility Score: inf
ROOT
ATOM      1  C   UNL     1      31.967  18.107  18.281  1.00  0.00     0.012 C 
ENDROOT
BRANCH   1   2
ATOM      2  C   UNL     1      32.388  17.872  16.823  1.00  0.00     0.061 C 
BRANCH   2   3
ATOM      3  C   UNL     1      31.213  17.438  15.932  1.00  0.00     0.258 C 
BRANCH   3   4
ATOM      4  N   UNL     1      31.068  18.293  14.753  1.00  0.00    -0.358 N 
ATOM      5  H   UNL     1      30.323  19.002  14.937  1.00  0.00     0.344 HD
ATOM      6  H   UNL     1      30.791  17.724  13.920  1.00  0.00     0.344 HD
ATOM      7  H   UNL     1      31.961  18.800  14.559  1.00  0.00     0.344 HD
ENDBRANCH   3   4
ENDBRANCH   2   3
ENDBRANCH   1   2
BRANCH   1   8
ATOM      8  C   UNL     1      30.817  17.168  18.679  1.00  0.00     0.072 C 
BRANCH   8   9
ATOM      9  C   UNL     1      30.160  17.580  20.014  1.00  0.00     0.227 C 
BRANCH   9  10
ATOM     10  N   UNL     1      31.137  17.514  21.107  1.00  0.00    -0.350 N 
ATOM     11  H   UNL     1      30.652  17.640  22.026  1.00  0.00     0.345 HD
ATOM     12  H   UNL     1      31.634  16.593  21.104  1.00  0.00     0.345 HD
ATOM     13  H   UNL     1      31.840  18.282  21.001  1.00  0.00     0.345 HD
ENDBRANCH   9  10
BRANCH   9  14
ATOM     14  C   UNL     1      28.977  16.702  20.328  1.00  0.00     0.099 C 
ATOM     15  O   UNL     1      27.877  17.218  20.660  1.00  0.00    -0.544 OA
ATOM     16  O   UNL     1      29.089  15.319  20.250  1.00  0.00    -0.544 OA
ENDBRANCH   9  14
ENDBRANCH   8   9
ENDBRANCH   1   8
TORSDOF 7
ENDMDL
MODEL 2
REMARK VINA RESULT:    -4.886      3.492      5.017
REMARK INTER + INTRA:          -6.696
REMARK INTER:                  -6.628
REMARK INTRA:                  -0.068
REMARK UNBOUND:                -0.097
REMARK SMILES [NH3+]CCCC[C@H]([NH3+])C(=O)[O-]
REMARK SMILES IDX 4 1 3 2 2 3 1 4 5 8 6 9 7 10 8 14 9 15 10 16
REMARK H PARENT 1 5 1 6 1 7 7 11 7 12 7 13
REMARK Flexibility Score: inf
ROOT
ATOM      1  C   UNL     1      31.926  18.423  17.830  1.00  0.00     0.012 C 
ENDROOT
BRANCH   1   2
ATOM      2  C   UNL     1      33.177  17.898  18.550  1.00  0.00     0.061 C 
BRANCH   2   3
ATOM      3  C   UNL     1      32.997  17.836  20.076  1.00  0.00     0.258 C 
BRANCH   3   4
ATOM      4  N   UNL     1      34.136  18.414  20.791  1.00  0.00    -0.358 N 
ATOM      5  H   UNL     1      33.964  18.341  21.819  1.00  0.00     0.344 HD
ATOM      6  H   UNL     1      34.252  19.422  20.540  1.00  0.00     0.344 HD
ATOM      7  H   UNL     1      35.011  17.888  20.568  1.00  0.00     0.344 HD
ENDBRANCH   3   4
ENDBRANCH   2   3
ENDBRANCH   1   2
BRANCH   1   8
ATOM      8  C   UNL     1      31.224  17.296  17.056  1.00  0.00     0.072 C 
BRANCH   8   9
ATOM      9  C   UNL     1      31.552  17.330  15.548  1.00  0.00     0.227 C 
BRANCH   9  10
ATOM     10  N   UNL     1      30.983  18.531  14.927  1.00  0.00    -0.350 N 
ATOM     11  H   UNL     1      31.050  18.459  13.885  1.00  0.00     0.345 HD
ATOM     12  H   UNL     1      29.979  18.649  15.200  1.00  0.00     0.345 HD
ATOM     13  H   UNL     1      31.521  19.376  15.230  1.00  0.00     0.345 HD
ENDBRANCH   9  10
BRANCH   9  14
ATOM     14  C   UNL     1      31.032  16.098  14.854  1.00  0.00     0.099 C 
ATOM     15  O   UNL     1      30.019  16.170  14.110  1.00  0.00    -0.544 OA
ATOM     16  O   UNL     1      31.671  14.875  15.025  1.00  0.00    -0.544 OA
ENDBRANCH   9  14
ENDBRANCH   8   9
ENDBRANCH   1   8
TORSDOF 7
ENDMDL
MODEL 3
REMARK VINA RESULT:    -4.798     13.147     14.440
REMARK INTER + INTRA:          -6.577
REMARK INTER:                  -6.104
REMARK INTRA:                  -0.473
REMARK UNBOUND:                -0.097
REMARK SMILES [NH3+]CCCC[C@H]([NH3+])C(=O)[O-]
REMARK SMILES IDX 4 1 3 2 2 3 1 4 5 8 6 9 7 10 8 14 9 15 10 16
REMARK H PARENT 1 5 1 6 1 7 7 11 7 12 7 13
REMARK Flexibility Score: inf
ROOT
ATOM      1  C   UNL     1      40.363   9.446  13.503  1.00  0.00     0.012 C 
ENDROOT
BRANCH   1   2
ATOM      2  C   UNL     1      39.091  10.271  13.258  1.00  0.00     0.061 C 
BRANCH   2   3
ATOM      3  C   UNL     1      39.197  11.701  13.815  1.00  0.00     0.258 C 
BRANCH   3   4
ATOM      4  N   UNL     1      39.954  11.751  15.067  1.00  0.00    -0.358 N 
ATOM      5  H   UNL     1      40.949  11.493  14.873  1.00  0.00     0.344 HD
ATOM      6  H   UNL     1      39.561  11.073  15.760  1.00  0.00     0.344 HD
ATOM      7  H   UNL     1      39.938  12.717  15.463  1.00  0.00     0.344 HD
ENDBRANCH   3   4
ENDBRANCH   2   3
ENDBRANCH   1   2
BRANCH   1   8
ATOM      8  C   UNL     1      41.260   9.436  12.254  1.00  0.00     0.072 C 
BRANCH   8   9
ATOM      9  C   UNL     1      42.694   9.918  12.559  1.00  0.00     0.227 C 
BRANCH   9  10
ATOM     10  N   UNL     1      43.300   9.090  13.609  1.00  0.00    -0.350 N 
ATOM     11  H   UNL     1      42.556   8.564  14.121  1.00  0.00     0.345 HD
ATOM     12  H   UNL     1      43.981   8.411  13.196  1.00  0.00     0.345 HD
ATOM     13  H   UNL     1      43.801   9.701  14.296  1.00  0.00     0.345 HD
ENDBRANCH   9  10
BRANCH   9  14
ATOM     14  C   UNL     1      42.700  11.365  12.978  1.00  0.00     0.099 C 
ATOM     15  O   UNL     1      42.585  12.274  12.114  1.00  0.00    -0.544 OA
ATOM     16  O   UNL     1      42.830  11.707  14.319  1.00  0.00    -0.544 OA
ENDBRANCH   9  14
ENDBRANCH   8   9
ENDBRANCH   1   8
TORSDOF 7
ENDMDL
MODEL 4
REMARK VINA RESULT:    -4.762     13.256     14.459
REMARK INTER + INTRA:          -6.528
REMARK INTER:                  -6.040
REMARK INTRA:                  -0.488
REMARK UNBOUND:                -0.097
REMARK SMILES [NH3+]CCCC[C@H]([NH3+])C(=O)[O-]
REMARK SMILES IDX 4 1 3 2 2 3 1 4 5 8 6 9 7 10 8 14 9 15 10 16
REMARK H PARENT 1 5 1 6 1 7 7 11 7 12 7 13
REMARK Flexibility Score: inf
ROOT
ATOM      1  C   UNL     1      41.230  12.076  13.683  1.00  0.00     0.012 C 
ENDROOT
BRANCH   1   2
ATOM      2  C   UNL     1      40.011  11.600  14.488  1.00  0.00     0.061 C 
BRANCH   2   3
ATOM      3  C   UNL     1      38.812  11.250  13.592  1.00  0.00     0.258 C 
BRANCH   3   4
ATOM      4  N   UNL     1      38.627   9.804  13.457  1.00  0.00    -0.358 N 
ATOM      5  H   UNL     1      37.610   9.581  13.548  1.00  0.00     0.344 HD
ATOM      6  H   UNL     1      39.150   9.296  14.207  1.00  0.00     0.344 HD
ATOM      7  H   UNL     1      38.950   9.482  12.516  1.00  0.00     0.344 HD
ENDBRANCH   3   4
ENDBRANCH   2   3
ENDBRANCH   1   2
BRANCH   1   8
ATOM      8  C   UNL     1      42.453  11.188  13.962  1.00  0.00     0.072 C 
BRANCH   8   9
ATOM      9  C   UNL     1      42.086   9.690  14.025  1.00  0.00     0.227 C 
BRANCH   9  10
ATOM     10  N   UNL     1      42.967   8.985  14.963  1.00  0.00    -0.350 N 
ATOM     11  H   UNL     1      43.201   8.037  14.588  1.00  0.00     0.345 HD
ATOM     12  H   UNL     1      43.852   9.523  15.116  1.00  0.00     0.345 HD
ATOM     13  H   UNL     1      42.480   8.861  15.882  1.00  0.00     0.345 HD
ENDBRANCH   9  10
BRANCH   9  14
ATOM     14  C   UNL     1      42.173   9.054  12.662  1.00  0.00     0.099 C 
ATOM     15  O   UNL     1      43.205   8.414  12.327  1.00  0.00    -0.544 OA
ATOM     16  O   UNL     1      41.115   9.165  11.768  1.00  0.00    -0.544 OA
ENDBRANCH   9  14
ENDBRANCH   8   9
ENDBRANCH   1   8
TORSDOF 7
ENDMDL
MODEL 5
REMARK VINA RESULT:    -4.621     12.854     13.960
REMARK INTER + INTRA:          -6.338
REMARK INTER:                  -6.140
REMARK INTRA:                  -0.198
REMARK UNBOUND:                -0.097
REMARK SMILES [NH3+]CCCC[C@H]([NH3+])C(=O)[O-]
REMARK SMILES IDX 4 1 3 2 2 3 1 4 5 8 6 9 7 10 8 14 9 15 10 16
REMARK H PARENT 1 5 1 6 1 7 7 11 7 12 7 13
REMARK Flexibility Score: inf
ROOT
ATOM      1  C   UNL     1      42.266  11.162  12.444  1.00  0.00     0.012 C 
ENDROOT
BRANCH   1   2
ATOM      2  C   UNL     1      42.304   9.765  11.807  1.00  0.00     0.061 C 
BRANCH   2   3
ATOM      3  C   UNL     1      42.733   8.674  12.803  1.00  0.00     0.258 C 
BRANCH   3   4
ATOM      4  N   UNL     1      44.189   8.552  12.896  1.00  0.00    -0.358 N 
ATOM      5  H   UNL     1      44.434   8.086  13.799  1.00  0.00     0.344 HD
ATOM      6  H   UNL     1      44.638   9.497  12.873  1.00  0.00     0.344 HD
ATOM      7  H   UNL     1      44.555   7.964  12.114  1.00  0.00     0.344 HD
ENDBRANCH   3   4
ENDBRANCH   2   3
ENDBRANCH   1   2
BRANCH   1   8
ATOM      8  C   UNL     1      41.803  11.086  13.908  1.00  0.00     0.072 C 
BRANCH   8   9
ATOM      9  C   UNL     1      40.384  11.663  14.104  1.00  0.00     0.227 C 
BRANCH   9  10
ATOM     10  N   UNL     1      40.152  11.987  15.516  1.00  0.00    -0.350 N 
ATOM     11  H   UNL     1      41.066  12.149  15.998  1.00  0.00     0.345 HD
ATOM     12  H   UNL     1      39.558  12.843  15.606  1.00  0.00     0.345 HD
ATOM     13  H   UNL     1      39.672  11.186  15.988  1.00  0.00     0.345 HD
ENDBRANCH   9  10
BRANCH   9  14
ATOM     14  C   UNL     1      39.335  10.696  13.619  1.00  0.00     0.099 C 
ATOM     15  O   UNL     1      39.489   9.458  13.790  1.00  0.00    -0.544 OA
ATOM     16  O   UNL     1      38.190  11.163  12.984  1.00  0.00    -0.544 OA
ENDBRANCH   9  14
ENDBRANCH   8   9
ENDBRANCH   1   8
TORSDOF 7
ENDMDL
MODEL 6
REMARK VINA RESULT:    -4.564     13.408     14.672
REMARK INTER + INTRA:          -6.262
REMARK INTER:                  -6.199
REMARK INTRA:                  -0.063
REMARK UNBOUND:                -0.097
REMARK SMILES [NH3+]CCCC[C@H]([NH3+])C(=O)[O-]
REMARK SMILES IDX 4 1 3 2 2 3 1 4 5 8 6 9 7 10 8 14 9 15 10 16
REMARK H PARENT 1 5 1 6 1 7 7 11 7 12 7 13
REMARK Flexibility Score: inf
ROOT
ATOM      1  C   UNL     1      40.675   9.351  14.735  1.00  0.00     0.012 C 
ENDROOT
BRANCH   1   2
ATOM      2  C   UNL     1      40.240  10.824  14.734  1.00  0.00     0.061 C 
BRANCH   2   3
ATOM      3  C   UNL     1      39.056  11.089  13.788  1.00  0.00     0.258 C 
BRANCH   3   4
ATOM      4  N   UNL     1      38.777  12.518  13.640  1.00  0.00    -0.358 N 
ATOM      5  H   UNL     1      37.986  12.642  12.967  1.00  0.00     0.344 HD
ATOM      6  H   UNL     1      39.616  13.018  13.266  1.00  0.00     0.344 HD
ATOM      7  H   UNL     1      38.494  12.931  14.557  1.00  0.00     0.344 HD
ENDBRANCH   3   4
ENDBRANCH   2   3
ENDBRANCH   1   2
BRANCH   1   8
ATOM      8  C   UNL     1      42.196   9.227  14.547  1.00  0.00     0.072 C 
BRANCH   8   9
ATOM      9  C   UNL     1      42.575   8.796  13.114  1.00  0.00     0.227 C 
BRANCH   9  10
ATOM     10  N   UNL     1      44.033   8.748  12.962  1.00  0.00    -0.350 N 
ATOM     11  H   UNL     1      44.486   8.651  13.900  1.00  0.00     0.345 HD
ATOM     12  H   UNL     1      44.316   7.942  12.357  1.00  0.00     0.345 HD
ATOM     13  H   UNL     1      44.373   9.637  12.526  1.00  0.00     0.345 HD
ENDBRANCH   9  10
BRANCH   9  14
ATOM     14  C   UNL     1      41.982   9.732  12.093  1.00  0.00     0.099 C 
ATOM     15  O   UNL     1      41.040   9.345  11.351  1.00  0.00    -0.544 OA
ATOM     16  O   UNL     1      42.466  11.029  11.966  1.00  0.00    -0.544 OA
ENDBRANCH   9  14
ENDBRANCH   8   9
ENDBRANCH   1   8
TORSDOF 7
ENDMDL
MODEL 7
REMARK VINA RESULT:    -4.533     13.079     14.251
REMARK INTER + INTRA:          -6.220
REMARK INTER:                  -5.880
REMARK INTRA:                  -0.340
REMARK UNBOUND:                -0.097
REMARK SMILES [NH3+]CCCC[C@H]([NH3+])C(=O)[O-]
REMARK SMILES IDX 4 1 3 2 2 3 1 4 5 8 6 9 7 10 8 14 9 15 10 16
REMARK H PARENT 1 5 1 6 1 7 7 11 7 12 7 13
REMARK Flexibility Score: inf
ROOT
ATOM      1  C   UNL     1      40.293   9.692  12.404  1.00  0.00     0.012 C 
ENDROOT
BRANCH   1   2
ATOM      2  C   UNL     1      41.707   9.389  11.884  1.00  0.00     0.061 C 
BRANCH   2   3
ATOM      3  C   UNL     1      42.521   8.524  12.860  1.00  0.00     0.258 C 
BRANCH   3   4
ATOM      4  N   UNL     1      43.798   9.145  13.215  1.00  0.00    -0.358 N 
ATOM      5  H   UNL     1      44.417   9.155  12.372  1.00  0.00     0.344 HD
ATOM      6  H   UNL     1      44.272   8.601  13.972  1.00  0.00     0.344 HD
ATOM      7  H   UNL     1      43.650  10.132  13.523  1.00  0.00     0.344 HD
ENDBRANCH   3   4
ENDBRANCH   2   3
ENDBRANCH   1   2
BRANCH   1   8
ATOM      8  C   UNL     1      40.282   9.791  13.938  1.00  0.00     0.072 C 
BRANCH   8   9
ATOM      9  C   UNL     1      40.314  11.254  14.430  1.00  0.00     0.227 C 
BRANCH   9  10
ATOM     10  N   UNL     1      39.115  11.972  13.983  1.00  0.00    -0.350 N 
ATOM     11  H   UNL     1      38.293  11.688  14.564  1.00  0.00     0.345 HD
ATOM     12  H   UNL     1      39.253  13.007  14.062  1.00  0.00     0.345 HD
ATOM     13  H   UNL     1      38.909  11.731  12.985  1.00  0.00     0.345 HD
ENDBRANCH   9  10
BRANCH   9  14
ATOM     14  C   UNL     1      41.550  11.962  13.939  1.00  0.00     0.099 C 
ATOM     15  O   UNL     1      42.683  11.643  14.388  1.00  0.00    -0.544 OA
ATOM     16  O   UNL     1      41.450  12.968  12.984  1.00  0.00    -0.544 OA
ENDBRANCH   9  14
ENDBRANCH   8   9
ENDBRANCH   1   8
TORSDOF 7
ENDMDL
MODEL 8
REMARK VINA RESULT:    -4.500      2.959      5.003
REMARK INTER + INTRA:          -6.174
REMARK INTER:                  -6.023
REMARK INTRA:                  -0.152
REMARK UNBOUND:                -0.097
REMARK SMILES [NH3+]CCCC[C@H]([NH3+])C(=O)[O-]
REMARK SMILES IDX 4 1 3 2 2 3 1 4 5 8 6 9 7 10 8 14 9 15 10 16
REMARK H PARENT 1 5 1 6 1 7 7 11 7 12 7 13
REMARK Flexibility Score: inf
ROOT
ATOM      1  C   UNL     1      32.382  17.876  18.436  1.00  0.00     0.012 C 
ENDROOT
BRANCH   1   2
ATOM      2  C   UNL     1      31.836  17.624  19.850  1.00  0.00     0.061 C 
BRANCH   2   3
ATOM      3  C   UNL     1      30.345  17.247  19.848  1.00  0.00     0.258 C 
BRANCH   3   4
ATOM      4  N   UNL     1      29.578  18.024  20.824  1.00  0.00    -0.358 N 
ATOM      5  H   UNL     1      28.580  18.061  20.518  1.00  0.00     0.344 HD
ATOM      6  H   UNL     1      29.947  19.000  20.886  1.00  0.00     0.344 HD
ATOM      7  H   UNL     1      29.616  17.567  21.763  1.00  0.00     0.344 HD
ENDBRANCH   3   4
ENDBRANCH   2   3
ENDBRANCH   1   2
BRANCH   1   8
ATOM      8  C   UNL     1      31.257  17.797  17.391  1.00  0.00     0.072 C 
BRANCH   8   9
ATOM      9  C   UNL     1      31.793  17.894  15.947  1.00  0.00     0.227 C 
BRANCH   9  10
ATOM     10  N   UNL     1      30.752  18.403  15.046  1.00  0.00    -0.350 N 
ATOM     11  H   UNL     1      30.026  18.917  15.597  1.00  0.00     0.345 HD
ATOM     12  H   UNL     1      31.164  19.047  14.332  1.00  0.00     0.345 HD
ATOM     13  H   UNL     1      30.285  17.604  14.557  1.00  0.00     0.345 HD
ENDBRANCH   9  10
BRANCH   9  14
ATOM     14  C   UNL     1      32.283  16.554  15.461  1.00  0.00     0.099 C 
ATOM     15  O   UNL     1      31.458  15.664  15.121  1.00  0.00    -0.544 OA
ATOM     16  O   UNL     1      33.645  16.293  15.380  1.00  0.00    -0.544 OA
ENDBRANCH   9  14
ENDBRANCH   8   9
ENDBRANCH   1   8
TORSDOF 7
ENDMDL
MODEL 9
REMARK VINA RESULT:    -4.472      1.719      2.136
REMARK INTER + INTRA:          -6.137
REMARK INTER:                  -6.132
REMARK INTRA:                  -0.005
REMARK UNBOUND:                -0.097
REMARK SMILES [NH3+]CCCC[C@H]([NH3+])C(=O)[O-]
REMARK SMILES IDX 4 1 3 2 2 3 1 4 5 8 6 9 7 10 8 14 9 15 10 16
REMARK H PARENT 1 5 1 6 1 7 7 11 7 12 7 13
REMARK Flexibility Score: inf
ROOT
ATOM      1  C   UNL     1      32.322  18.280  17.065  1.00  0.00     0.012 C 
ENDROOT
BRANCH   1   2
ATOM      2  C   UNL     1      32.317  17.309  15.874  1.00  0.00     0.061 C 
BRANCH   2   3
ATOM      3  C   UNL     1      30.929  17.179  15.225  1.00  0.00     0.258 C 
BRANCH   3   4
ATOM      4  N   UNL     1      30.724  18.159  14.158  1.00  0.00    -0.358 N 
ATOM      5  H   UNL     1      29.856  18.706  14.360  1.00  0.00     0.344 HD
ATOM      6  H   UNL     1      30.610  17.678  13.236  1.00  0.00     0.344 HD
ATOM      7  H   UNL     1      31.528  18.825  14.116  1.00  0.00     0.344 HD
ENDBRANCH   3   4
ENDBRANCH   2   3
ENDBRANCH   1   2
BRANCH   1   8
ATOM      8  C   UNL     1      33.014  17.649  18.284  1.00  0.00     0.072 C 
BRANCH   8   9
ATOM      9  C   UNL     1      32.443  18.176  19.618  1.00  0.00     0.227 C 
BRANCH   9  10
ATOM     10  N   UNL     1      33.435  18.038  20.691  1.00  0.00    -0.350 N 
ATOM     11  H   UNL     1      33.998  17.168  20.545  1.00  0.00     0.345 HD
ATOM     12  H   UNL     1      34.076  18.864  20.710  1.00  0.00     0.345 HD
ATOM     13  H   UNL     1      32.949  17.961  21.615  1.00  0.00     0.345 HD
ENDBRANCH   9  10
BRANCH   9  14
ATOM     14  C   UNL     1      31.178  17.448  19.991  1.00  0.00     0.099 C 
ATOM     15  O   UNL     1      30.727  16.540  19.243  1.00  0.00    -0.544 OA
ATOM     16  O   UNL     1      30.502  17.770  21.162  1.00  0.00    -0.544 OA
ENDBRANCH   9  14
ENDBRANCH   8   9
ENDBRANCH   1   8
TORSDOF 7
ENDMDL
