MODEL 1
REMARK VINA RESULT:    -3.888      0.000      0.000
REMARK INTER + INTRA:          -5.521
REMARK INTER:                  -5.365
REMARK INTRA:                  -0.156
REMARK UNBOUND:                -0.156
REMARK SMILES CCCCCCCCO
REMARK SMILES IDX 5 1 4 2 3 3 2 4 1 5 6 6 7 7 8 8 9 9
REMARK H PARENT 9 10
REMARK Flexibility Score: inf
ROOT
ATOM      1  C   UNL     1       1.758  -1.655 -21.768  1.00  0.00     0.000 C 
ENDROOT
BRANCH   1   2
ATOM      2  C   UNL     1       2.507  -2.812 -22.456  1.00  0.00    -0.000 C 
BRANCH   2   3
ATOM      3  C   UNL     1       3.682  -3.374 -21.626  1.00  0.00    -0.000 C 
BRANCH   3   4
ATOM      4  C   UNL     1       4.020  -4.824 -22.001  1.00  0.00    -0.003 C 
ATOM      5  C   UNL     1       4.827  -5.504 -20.899  1.00  0.00     0.004 C 
ENDBRANCH   3   4
ENDBRANCH   2   3
ENDBRANCH   1   2
BRANCH   1   6
ATOM      6  C   UNL     1       2.314  -0.253 -22.073  1.00  0.00     0.002 C 
BRANCH   6   7
ATOM      7  C   UNL     1       2.168   0.136 -23.552  1.00  0.00     0.028 C 
BRANCH   7   8
ATOM      8  C   UNL     1       3.517   0.517 -24.172  1.00  0.00     0.156 C 
BRANCH   8   9
ATOM      9  O   UNL     1       3.715   1.905 -24.132  1.00  0.00    -0.396 OA
ATOM     10  H   UNL     1       3.134   2.295 -24.838  1.00  0.00     0.210 HD
ENDBRANCH   8   9
ENDBRANCH   7   8
ENDBRANCH   6   7
ENDBRANCH   1   6
TORSDOF 7
ENDMDL
MODEL 2
REMARK VINA RESULT:    -3.798      8.082      8.793
REMARK INTER + INTRA:          -5.398
REMARK INTER:                  -5.272
REMARK INTRA:                  -0.126
REMARK UNBOUND:                -0.156
REMARK SMILES CCCCCCCCO
REMARK SMILES IDX 5 1 4 2 3 3 2 4 1 5 6 6 7 7 8 8 9 9
REMARK H PARENT 9 10
REMARK Flexibility Score: inf
ROOT
ATOM      1  C   UNL     1      -2.895   3.765 -23.350  1.00  0.00     0.000 C 
ENDROOT
BRANCH   1   2
ATOM      2  C   UNL     1      -3.371   2.995 -22.104  1.00  0.00    -0.000 C 
BRANCH   2   3
ATOM      3  C   UNL     1      -4.900   3.045 -21.887  1.00  0.00    -0.000 C 
BRANCH   3   4
ATOM      4  C   UNL     1      -5.384   1.969 -20.904  1.00  0.00    -0.003 C 
ATOM      5  C   UNL     1      -5.044   2.346 -19.465  1.00  0.00     0.004 C 
ENDBRANCH   3   4
ENDBRANCH   2   3
ENDBRANCH   1   2
BRANCH   1   6
ATOM      6  C   UNL     1      -1.401   4.131 -23.353  1.00  0.00     0.002 C 
BRANCH   6   7
ATOM      7  C   UNL     1      -1.026   5.091 -24.492  1.00  0.00     0.028 C 
BRANCH   7   8
ATOM      8  C   UNL     1      -0.395   6.382 -23.958  1.00  0.00     0.156 C 
BRANCH   8   9
ATOM      9  O   UNL     1      -0.594   6.505 -22.576  1.00  0.00    -0.396 OA
ATOM     10  H   UNL     1      -0.224   5.681 -22.161  1.00  0.00     0.210 HD
ENDBRANCH   8   9
ENDBRANCH   7   8
ENDBRANCH   6   7
ENDBRANCH   1   6
TORSDOF 7
ENDMDL
MODEL 3
REMARK VINA RESULT:    -3.772      2.879      5.248
REMARK INTER + INTRA:          -5.361
REMARK INTER:                  -5.124
REMARK INTRA:                  -0.238
REMARK UNBOUND:                -0.156
REMARK SMILES CCCCCCCCO
REMARK SMILES IDX 5 1 4 2 3 3 2 4 1 5 6 6 7 7 8 8 9 9
REMARK H PARENT 9 10
REMARK Flexibility Score: inf
ROOT
ATOM      1  C   UNL     1       2.557  -2.919 -22.390  1.00  0.00     0.000 C 
ENDROOT
BRANCH   1   2
ATOM      2  C   UNL     1       1.776  -1.764 -21.736  1.00  0.00    -0.000 C 
BRANCH   2   3
ATOM      3  C   UNL     1       2.345  -0.365 -22.062  1.00  0.00    -0.000 C 
BRANCH   3   4
ATOM      4  C   UNL     1       2.230  -0.023 -23.554  1.00  0.00    -0.003 C 
ATOM      5  C   UNL     1       3.511   0.624 -24.071  1.00  0.00     0.004 C 
ENDBRANCH   3   4
ENDBRANCH   2   3
ENDBRANCH   1   2
BRANCH   1   6
ATOM      6  C   UNL     1       3.853  -3.318 -21.664  1.00  0.00     0.002 C 
BRANCH   6   7
ATOM      7  C   UNL     1       4.061  -4.839 -21.611  1.00  0.00     0.028 C 
BRANCH   7   8
ATOM      8  C   UNL     1       4.362  -5.416 -22.998  1.00  0.00     0.156 C 
BRANCH   8   9
ATOM      9  O   UNL     1       3.613  -6.577 -23.234  1.00  0.00    -0.396 OA
ATOM     10  H   UNL     1       4.173  -7.342 -22.937  1.00  0.00     0.210 HD
ENDBRANCH   8   9
ENDBRANCH   7   8
ENDBRANCH   6   7
ENDBRANCH   1   6
TORSDOF 7
ENDMDL
MODEL 4
REMARK VINA RESULT:    -3.743      8.154      8.866
REMARK INTER + INTRA:          -5.322
REMARK INTER:                  -5.193
REMARK INTRA:                  -0.129
REMARK UNBOUND:                -0.156
REMARK SMILES CCCCCCCCO
REMARK SMILES IDX 5 1 4 2 3 3 2 4 1 5 6 6 7 7 8 8 9 9
REMARK H PARENT 9 10
REMARK Flexibility Score: inf
ROOT
ATOM      1  C   UNL     1      -2.889   3.383 -22.500  1.00  0.00     0.000 C 
ENDROOT
BRANCH   1   2
ATOM      2  C   UNL     1      -4.394   3.241 -22.207  1.00  0.00    -0.000 C 
BRANCH   2   3
ATOM      3  C   UNL     1      -4.715   2.269 -21.050  1.00  0.00    -0.000 C 
BRANCH   3   4
ATOM      4  C   UNL     1      -5.116   3.007 -19.764  1.00  0.00    -0.003 C 
ATOM      5  C   UNL     1      -5.103   2.066 -18.563  1.00  0.00     0.004 C 
ENDBRANCH   3   4
ENDBRANCH   2   3
ENDBRANCH   1   2
BRANCH   1   6
ATOM      6  C   UNL     1      -2.550   4.166 -23.780  1.00  0.00     0.002 C 
BRANCH   6   7
ATOM      7  C   UNL     1      -1.039   4.373 -23.968  1.00  0.00     0.028 C 
BRANCH   7   8
ATOM      8  C   UNL     1      -0.666   5.860 -23.956  1.00  0.00     0.156 C 
BRANCH   8   9
ATOM      9  O   UNL     1      -0.657   6.366 -22.649  1.00  0.00    -0.396 OA
ATOM     10  H   UNL     1       0.195   6.064 -22.234  1.00  0.00     0.210 HD
ENDBRANCH   8   9
ENDBRANCH   7   8
ENDBRANCH   6   7
ENDBRANCH   1   6
TORSDOF 7
ENDMDL
MODEL 5
REMARK VINA RESULT:    -3.620      7.778      9.709
REMARK INTER + INTRA:          -5.151
REMARK INTER:                  -4.969
REMARK INTRA:                  -0.183
REMARK UNBOUND:                -0.156
REMARK SMILES CCCCCCCCO
REMARK SMILES IDX 5 1 4 2 3 3 2 4 1 5 6 6 7 7 8 8 9 9
REMARK H PARENT 9 10
REMARK Flexibility Score: inf
ROOT
ATOM      1  C   UNL     1      -3.999   2.489 -21.364  1.00  0.00     0.000 C 
ENDROOT
BRANCH   1   2
ATOM      2  C   UNL     1      -5.503   2.159 -21.338  1.00  0.00    -0.000 C 
BRANCH   2   3
ATOM      3  C   UNL     1      -6.313   2.854 -22.454  1.00  0.00    -0.000 C 
BRANCH   3   4
ATOM      4  C   UNL     1      -7.554   2.048 -22.863  1.00  0.00    -0.003 C 
ATOM      5  C   UNL     1      -7.864   2.228 -24.346  1.00  0.00     0.004 C 
ENDBRANCH   3   4
ENDBRANCH   2   3
ENDBRANCH   1   2
BRANCH   1   6
ATOM      6  C   UNL     1      -3.553   3.385 -22.532  1.00  0.00     0.002 C 
BRANCH   6   7
ATOM      7  C   UNL     1      -2.050   3.273 -22.827  1.00  0.00     0.028 C 
BRANCH   7   8
ATOM      8  C   UNL     1      -1.554   4.440 -23.688  1.00  0.00     0.156 C 
BRANCH   8   9
ATOM      9  O   UNL     1      -1.011   5.458 -22.891  1.00  0.00    -0.396 OA
ATOM     10  H   UNL     1      -1.738   6.119 -22.742  1.00  0.00     0.210 HD
ENDBRANCH   8   9
ENDBRANCH   7   8
ENDBRANCH   6   7
ENDBRANCH   1   6
TORSDOF 7
ENDMDL
MODEL 6
REMARK VINA RESULT:    -3.476      6.824      8.967
REMARK INTER + INTRA:          -4.954
REMARK INTER:                  -4.683
REMARK INTRA:                  -0.270
REMARK UNBOUND:                -0.156
REMARK SMILES CCCCCCCCO
REMARK SMILES IDX 5 1 4 2 3 3 2 4 1 5 6 6 7 7 8 8 9 9
REMARK H PARENT 9 10
REMARK Flexibility Score: inf
ROOT
ATOM      1  C   UNL     1      -3.402   3.421 -22.551  1.00  0.00     0.000 C 
ENDROOT
BRANCH   1   2
ATOM      2  C   UNL     1      -3.907   2.578 -21.366  1.00  0.00    -0.000 C 
BRANCH   2   3
ATOM      3  C   UNL     1      -5.421   2.276 -21.416  1.00  0.00    -0.000 C 
BRANCH   3   4
ATOM      4  C   UNL     1      -6.175   3.232 -22.352  1.00  0.00    -0.003 C 
ATOM      5  C   UNL     1      -7.276   2.501 -23.113  1.00  0.00     0.004 C 
ENDBRANCH   3   4
ENDBRANCH   2   3
ENDBRANCH   1   2
BRANCH   1   6
ATOM      6  C   UNL     1      -1.885   3.354 -22.794  1.00  0.00     0.002 C 
BRANCH   6   7
ATOM      7  C   UNL     1      -1.506   2.396 -23.933  1.00  0.00     0.028 C 
BRANCH   7   8
ATOM      8  C   UNL     1      -0.688   1.205 -23.422  1.00  0.00     0.156 C 
BRANCH   8   9
ATOM      9  O   UNL     1      -1.447   0.412 -22.550  1.00  0.00    -0.396 OA
ATOM     10  H   UNL     1      -1.953   1.036 -21.966  1.00  0.00     0.210 HD
ENDBRANCH   8   9
ENDBRANCH   7   8
ENDBRANCH   6   7
ENDBRANCH   1   6
TORSDOF 7
ENDMDL
MODEL 7
REMARK VINA RESULT:    -3.418      3.531      4.844
REMARK INTER + INTRA:          -4.873
REMARK INTER:                  -4.604
REMARK INTRA:                  -0.268
REMARK UNBOUND:                -0.156
REMARK SMILES CCCCCCCCO
REMARK SMILES IDX 5 1 4 2 3 3 2 4 1 5 6 6 7 7 8 8 9 9
REMARK H PARENT 9 10
REMARK Flexibility Score: inf
ROOT
ATOM      1  C   UNL     1      -1.031   1.131 -23.212  1.00  0.00     0.000 C 
ENDROOT
BRANCH   1   2
ATOM      2  C   UNL     1       0.085   0.353 -22.491  1.00  0.00    -0.000 C 
BRANCH   2   3
ATOM      3  C   UNL     1       1.413   0.295 -23.277  1.00  0.00    -0.000 C 
BRANCH   3   4
ATOM      4  C   UNL     1       2.444  -0.627 -22.612  1.00  0.00    -0.003 C 
ATOM      5  C   UNL     1       1.762  -1.787 -21.892  1.00  0.00     0.004 C 
ENDBRANCH   3   4
ENDBRANCH   2   3
ENDBRANCH   1   2
BRANCH   1   6
ATOM      6  C   UNL     1      -0.608   1.793 -24.535  1.00  0.00     0.002 C 
BRANCH   6   7
ATOM      7  C   UNL     1      -1.081   3.250 -24.649  1.00  0.00     0.028 C 
BRANCH   7   8
ATOM      8  C   UNL     1      -1.630   3.772 -23.316  1.00  0.00     0.156 C 
BRANCH   8   9
ATOM      9  O   UNL     1      -1.050   5.003 -22.980  1.00  0.00    -0.396 OA
ATOM     10  H   UNL     1      -0.838   4.962 -22.010  1.00  0.00     0.210 HD
ENDBRANCH   8   9
ENDBRANCH   7   8
ENDBRANCH   6   7
ENDBRANCH   1   6
TORSDOF 7
ENDMDL
MODEL 8
REMARK VINA RESULT:    -3.397      6.426      8.385
REMARK INTER + INTRA:          -4.843
REMARK INTER:                  -4.462
REMARK INTRA:                  -0.382
REMARK UNBOUND:                -0.156
REMARK SMILES CCCCCCCCO
REMARK SMILES IDX 5 1 4 2 3 3 2 4 1 5 6 6 7 7 8 8 9 9
REMARK H PARENT 9 10
REMARK Flexibility Score: inf
ROOT
ATOM      1  C   UNL     1      -3.316   4.069 -23.621  1.00  0.00     0.000 C 
ENDROOT
BRANCH   1   2
ATOM      2  C   UNL     1      -1.883   3.662 -23.232  1.00  0.00    -0.000 C 
BRANCH   2   3
ATOM      3  C   UNL     1      -1.048   3.116 -24.411  1.00  0.00    -0.000 C 
BRANCH   3   4
ATOM      4  C   UNL     1      -0.967   1.583 -24.408  1.00  0.00    -0.003 C 
ATOM      5  C   UNL     1      -0.993   1.033 -22.985  1.00  0.00     0.004 C 
ENDBRANCH   3   4
ENDBRANCH   2   3
ENDBRANCH   1   2
BRANCH   1   6
ATOM      6  C   UNL     1      -4.416   3.538 -22.687  1.00  0.00     0.002 C 
BRANCH   6   7
ATOM      7  C   UNL     1      -3.853   2.760 -21.487  1.00  0.00     0.028 C 
BRANCH   7   8
ATOM      8  C   UNL     1      -4.767   2.872 -20.262  1.00  0.00     0.156 C 
BRANCH   8   9
ATOM      9  O   UNL     1      -4.154   2.328 -19.125  1.00  0.00    -0.396 OA
ATOM     10  H   UNL     1      -4.233   3.009 -18.406  1.00  0.00     0.210 HD
ENDBRANCH   8   9
ENDBRANCH   7   8
ENDBRANCH   6   7
ENDBRANCH   1   6
TORSDOF 7
ENDMDL
