MODEL 1
REMARK VINA RESULT:     5.989      0.000      0.000
REMARK INTER + INTRA:          10.455
REMARK INTER:                  10.891
REMARK INTRA:                  -0.436
REMARK UNBOUND:                -0.436
REMARK SMILES CCCCCCCCCCCCCCCC(=O)[O-]
REMARK SMILES IDX 9 1 10 2 11 3 12 4 13 5 14 6 15 7 16 8 17 9 18 10 8 11 7 12
REMARK SMILES IDX 6 13 5 14 4 15 3 16 2 17 1 18
REMARK H PARENT
REMARK Flexibility Score: inf
ROOT
ATOM      1  C   UNL     1     -18.475  64.326  -0.388  1.00  0.00     0.000 C 
ENDROOT
BRANCH   1   2
ATOM      2  C   UNL     1     -17.815  62.972  -0.083  1.00  0.00     0.000 C 
BRANCH   2   3
ATOM      3  C   UNL     1     -16.457  62.853  -0.784  1.00  0.00     0.000 C 
BRANCH   3   4
ATOM      4  C   UNL     1     -16.485  61.753  -1.856  1.00  0.00     0.000 C 
BRANCH   4   5
ATOM      5  C   UNL     1     -15.200  60.910  -1.873  1.00  0.00     0.000 C 
BRANCH   5   6
ATOM      6  C   UNL     1     -14.045  61.608  -2.612  1.00  0.00     0.006 C 
BRANCH   6   7
ATOM      7  C   UNL     1     -12.672  61.089  -2.162  1.00  0.00     0.053 C 
BRANCH   7   8
ATOM      8  C   UNL     1     -12.689  60.639  -0.734  1.00  0.00     0.041 C 
ATOM      9  O   UNL     1     -12.502  61.471   0.194  1.00  0.00    -0.550 OA
ATOM     10  O   UNL     1     -12.945  59.310  -0.423  1.00  0.00    -0.550 OA
ENDBRANCH   7   8
ENDBRANCH   6   7
ENDBRANCH   5   6
ENDBRANCH   4   5
ENDBRANCH   3   4
ENDBRANCH   2   3
ENDBRANCH   1   2
BRANCH   1  11
ATOM     11  C   UNL     1     -20.005  64.281  -0.257  1.00  0.00     0.000 C 
BRANCH  11  12
ATOM     12  C   UNL     1     -20.650  63.260  -1.208  1.00  0.00    -0.000 C 
BRANCH  12  13
ATOM     13  C   UNL     1     -19.816  63.019  -2.479  1.00  0.00    -0.000 C 
BRANCH  13  14
ATOM     14  C   UNL     1     -19.629  61.525  -2.819  1.00  0.00    -0.000 C 
BRANCH  14  15
ATOM     15  C   UNL     1     -20.769  60.655  -2.264  1.00  0.00    -0.000 C 
BRANCH  15  16
ATOM     16  C   UNL     1     -21.625  60.011  -3.369  1.00  0.00    -0.000 C 
BRANCH  16  17
ATOM     17  C   UNL     1     -20.932  59.896  -4.738  1.00  0.00    -0.003 C 
ATOM     18  C   UNL     1     -21.822  59.264  -5.806  1.00  0.00     0.004 C 
ENDBRANCH  16  17
ENDBRANCH  15  16
ENDBRANCH  14  15
ENDBRANCH  13  14
ENDBRANCH  12  13
ENDBRANCH  11  12
ENDBRANCH   1  11
TORSDOF 14
ENDMDL
MODEL 2
REMARK VINA RESULT:     5.999      3.479      6.968
REMARK INTER + INTRA:          10.472
REMARK INTER:                  11.408
REMARK INTRA:                  -0.936
REMARK UNBOUND:                -0.436
REMARK SMILES CCCCCCCCCCCCCCCC(=O)[O-]
REMARK SMILES IDX 9 1 10 2 11 3 12 4 13 5 14 6 15 7 16 8 17 9 18 10 8 11 7 12
REMARK SMILES IDX 6 13 5 14 4 15 3 16 2 17 1 18
REMARK H PARENT
REMARK Flexibility Score: inf
ROOT
ATOM      1  C   UNL     1     -19.099  64.431  -0.370  1.00  0.00     0.000 C 
ENDROOT
BRANCH   1   2
ATOM      2  C   UNL     1     -20.418  63.881  -0.935  1.00  0.00     0.000 C 
BRANCH   2   3
ATOM      3  C   UNL     1     -20.769  62.532  -0.298  1.00  0.00     0.000 C 
BRANCH   3   4
ATOM      4  C   UNL     1     -20.471  61.374  -1.262  1.00  0.00     0.000 C 
BRANCH   4   5
ATOM      5  C   UNL     1     -19.937  61.857  -2.620  1.00  0.00     0.000 C 
BRANCH   5   6
ATOM      6  C   UNL     1     -19.925  60.743  -3.681  1.00  0.00     0.006 C 
BRANCH   6   7
ATOM      7  C   UNL     1     -21.313  60.123  -3.887  1.00  0.00     0.053 C 
BRANCH   7   8
ATOM      8  C   UNL     1     -21.459  59.527  -5.253  1.00  0.00     0.041 C 
ATOM      9  O   UNL     1     -22.534  59.666  -5.894  1.00  0.00    -0.550 OA
ATOM     10  O   UNL     1     -20.396  58.846  -5.834  1.00  0.00    -0.550 OA
ENDBRANCH   7   8
ENDBRANCH   6   7
ENDBRANCH   5   6
ENDBRANCH   4   5
ENDBRANCH   3   4
ENDBRANCH   2   3
ENDBRANCH   1   2
BRANCH   1  11
ATOM     11  C   UNL     1     -18.130  63.318   0.058  1.00  0.00     0.000 C 
BRANCH  11  12
ATOM     12  C   UNL     1     -16.900  63.220  -0.860  1.00  0.00    -0.000 C 
BRANCH  12  13
ATOM     13  C   UNL     1     -16.681  61.800  -1.413  1.00  0.00    -0.000 C 
BRANCH  13  14
ATOM     14  C   UNL     1     -15.608  61.730  -2.520  1.00  0.00    -0.000 C 
BRANCH  14  15
ATOM     15  C   UNL     1     -14.503  60.710  -2.195  1.00  0.00    -0.000 C 
BRANCH  15  16
ATOM     16  C   UNL     1     -13.096  61.333  -2.192  1.00  0.00    -0.000 C 
BRANCH  16  17
ATOM     17  C   UNL     1     -12.182  60.857  -1.049  1.00  0.00    -0.003 C 
ATOM     18  C   UNL     1     -12.785  59.707  -0.244  1.00  0.00     0.004 C 
ENDBRANCH  16  17
ENDBRANCH  15  16
ENDBRANCH  14  15
ENDBRANCH  13  14
ENDBRANCH  12  13
ENDBRANCH  11  12
ENDBRANCH   1  11
TORSDOF 14
ENDMDL
MODEL 3
REMARK VINA RESULT:     6.426      3.329      6.968
REMARK INTER + INTRA:          11.249
REMARK INTER:                  11.757
REMARK INTRA:                  -0.508
REMARK UNBOUND:                -0.436
REMARK SMILES CCCCCCCCCCCCCCCC(=O)[O-]
REMARK SMILES IDX 9 1 10 2 11 3 12 4 13 5 14 6 15 7 16 8 17 9 18 10 8 11 7 12
REMARK SMILES IDX 6 13 5 14 4 15 3 16 2 17 1 18
REMARK H PARENT
REMARK Flexibility Score: inf
ROOT
ATOM      1  C   UNL     1     -17.939  63.109  -0.017  1.00  0.00     0.000 C 
ENDROOT
BRANCH   1   2
ATOM      2  C   UNL     1     -18.539  64.504  -0.255  1.00  0.00     0.000 C 
BRANCH   2   3
ATOM      3  C   UNL     1     -20.068  64.437  -0.338  1.00  0.00     0.000 C 
BRANCH   3   4
ATOM      4  C   UNL     1     -20.521  63.259  -1.214  1.00  0.00     0.000 C 
BRANCH   4   5
ATOM      5  C   UNL     1     -19.860  63.266  -2.602  1.00  0.00     0.000 C 
BRANCH   5   6
ATOM      6  C   UNL     1     -19.416  61.863  -3.053  1.00  0.00     0.006 C 
BRANCH   6   7
ATOM      7  C   UNL     1     -20.094  60.752  -2.239  1.00  0.00     0.053 C 
BRANCH   7   8
ATOM      8  C   UNL     1     -21.362  60.286  -2.885  1.00  0.00     0.041 C 
ATOM      9  O   UNL     1     -21.352  59.869  -4.074  1.00  0.00    -0.550 OA
ATOM     10  O   UNL     1     -22.550  60.278  -2.164  1.00  0.00    -0.550 OA
ENDBRANCH   7   8
ENDBRANCH   6   7
ENDBRANCH   5   6
ENDBRANCH   4   5
ENDBRANCH   3   4
ENDBRANCH   2   3
ENDBRANCH   1   2
BRANCH   1  11
ATOM     11  C   UNL     1     -16.586  62.921  -0.719  1.00  0.00     0.000 C 
BRANCH  11  12
ATOM     12  C   UNL     1     -16.628  61.829  -1.801  1.00  0.00    -0.000 C 
BRANCH  12  13
ATOM     13  C   UNL     1     -15.320  61.023  -1.888  1.00  0.00    -0.000 C 
BRANCH  13  14
ATOM     14  C   UNL     1     -14.333  61.561  -2.945  1.00  0.00    -0.000 C 
BRANCH  14  15
ATOM     15  C   UNL     1     -12.948  61.860  -2.349  1.00  0.00    -0.000 C 
BRANCH  15  16
ATOM     16  C   UNL     1     -12.294  60.626  -1.703  1.00  0.00    -0.000 C 
BRANCH  16  17
ATOM     17  C   UNL     1     -12.532  60.487  -0.189  1.00  0.00    -0.003 C 
ATOM     18  C   UNL     1     -12.820  59.049   0.240  1.00  0.00     0.004 C 
ENDBRANCH  16  17
ENDBRANCH  15  16
ENDBRANCH  14  15
ENDBRANCH  13  14
ENDBRANCH  12  13
ENDBRANCH  11  12
ENDBRANCH   1  11
TORSDOF 14
ENDMDL
MODEL 4
REMARK VINA RESULT:     6.428      0.781      1.300
REMARK INTER + INTRA:          11.252
REMARK INTER:                  12.210
REMARK INTRA:                  -0.958
REMARK UNBOUND:                -0.436
REMARK SMILES CCCCCCCCCCCCCCCC(=O)[O-]
REMARK SMILES IDX 9 1 10 2 11 3 12 4 13 5 14 6 15 7 16 8 17 9 18 10 8 11 7 12
REMARK SMILES IDX 6 13 5 14 4 15 3 16 2 17 1 18
REMARK H PARENT
REMARK Flexibility Score: inf
ROOT
ATOM      1  C   UNL     1     -19.950  64.362  -0.047  1.00  0.00     0.000 C 
ENDROOT
BRANCH   1   2
ATOM      2  C   UNL     1     -18.449  64.335  -0.376  1.00  0.00     0.000 C 
BRANCH   2   3
ATOM      3  C   UNL     1     -17.847  62.956  -0.087  1.00  0.00     0.000 C 
BRANCH   3   4
ATOM      4  C   UNL     1     -16.448  62.825  -0.707  1.00  0.00     0.000 C 
BRANCH   4   5
ATOM      5  C   UNL     1     -16.408  61.823  -1.873  1.00  0.00     0.000 C 
BRANCH   5   6
ATOM      6  C   UNL     1     -14.974  61.461  -2.293  1.00  0.00     0.006 C 
BRANCH   6   7
ATOM      7  C   UNL     1     -14.424  60.263  -1.507  1.00  0.00     0.053 C 
BRANCH   7   8
ATOM      8  C   UNL     1     -13.032  60.513  -1.015  1.00  0.00     0.041 C 
ATOM      9  O   UNL     1     -12.823  60.746   0.205  1.00  0.00    -0.550 OA
ATOM     10  O   UNL     1     -11.960  60.454  -1.897  1.00  0.00    -0.550 OA
ENDBRANCH   7   8
ENDBRANCH   6   7
ENDBRANCH   5   6
ENDBRANCH   4   5
ENDBRANCH   3   4
ENDBRANCH   2   3
ENDBRANCH   1   2
BRANCH   1  11
ATOM     11  C   UNL     1     -20.811  63.760  -1.168  1.00  0.00     0.000 C 
BRANCH  11  12
ATOM     12  C   UNL     1     -20.065  63.683  -2.510  1.00  0.00    -0.000 C 
BRANCH  12  13
ATOM     13  C   UNL     1     -19.711  62.240  -2.913  1.00  0.00    -0.000 C 
BRANCH  13  14
ATOM     14  C   UNL     1     -20.302  61.173  -1.967  1.00  0.00    -0.000 C 
BRANCH  14  15
ATOM     15  C   UNL     1     -20.869  59.967  -2.733  1.00  0.00    -0.000 C 
BRANCH  15  16
ATOM     16  C   UNL     1     -21.592  60.367  -4.032  1.00  0.00    -0.000 C 
BRANCH  16  17
ATOM     17  C   UNL     1     -21.125  59.613  -5.289  1.00  0.00    -0.003 C 
ATOM     18  C   UNL     1     -22.274  58.949  -6.047  1.00  0.00     0.004 C 
ENDBRANCH  16  17
ENDBRANCH  15  16
ENDBRANCH  14  15
ENDBRANCH  13  14
ENDBRANCH  12  13
ENDBRANCH  11  12
ENDBRANCH   1  11
TORSDOF 14
ENDMDL
MODEL 5
REMARK VINA RESULT:     6.632      5.099      7.108
REMARK INTER + INTRA:          11.624
REMARK INTER:                  11.832
REMARK INTRA:                  -0.208
REMARK UNBOUND:                -0.436
REMARK SMILES CCCCCCCCCCCCCCCC(=O)[O-]
REMARK SMILES IDX 9 1 10 2 11 3 12 4 13 5 14 6 15 7 16 8 17 9 18 10 8 11 7 12
REMARK SMILES IDX 6 13 5 14 4 15 3 16 2 17 1 18
REMARK H PARENT
REMARK Flexibility Score: inf
ROOT
ATOM      1  C   UNL     1     -13.341  61.862  -4.133  1.00  0.00     0.000 C 
ENDROOT
BRANCH   1   2
ATOM      2  C   UNL     1     -12.165  61.564  -5.076  1.00  0.00     0.000 C 
BRANCH   2   3
ATOM      3  C   UNL     1     -12.406  62.172  -6.463  1.00  0.00     0.000 C 
BRANCH   3   4
ATOM      4  C   UNL     1     -12.114  61.148  -7.571  1.00  0.00     0.000 C 
BRANCH   4   5
ATOM      5  C   UNL     1     -11.875  61.809  -8.938  1.00  0.00     0.000 C 
BRANCH   5   6
ATOM      6  C   UNL     1     -12.403  63.252  -8.999  1.00  0.00     0.006 C 
BRANCH   6   7
ATOM      7  C   UNL     1     -13.506  63.422 -10.053  1.00  0.00     0.053 C 
BRANCH   7   8
ATOM      8  C   UNL     1     -14.654  62.492  -9.810  1.00  0.00     0.041 C 
ATOM      9  O   UNL     1     -14.511  61.251  -9.974  1.00  0.00    -0.550 OA
ATOM     10  O   UNL     1     -15.874  62.990  -9.370  1.00  0.00    -0.550 OA
ENDBRANCH   7   8
ENDBRANCH   6   7
ENDBRANCH   5   6
ENDBRANCH   4   5
ENDBRANCH   3   4
ENDBRANCH   2   3
ENDBRANCH   1   2
BRANCH   1  11
ATOM     11  C   UNL     1     -13.031  61.505  -2.671  1.00  0.00     0.000 C 
BRANCH  11  12
ATOM     12  C   UNL     1     -14.300  61.222  -1.850  1.00  0.00    -0.000 C 
BRANCH  12  13
ATOM     13  C   UNL     1     -15.590  61.362  -2.676  1.00  0.00    -0.000 C 
BRANCH  13  14
ATOM     14  C   UNL     1     -16.871  61.409  -1.817  1.00  0.00    -0.000 C 
BRANCH  14  15
ATOM     15  C   UNL     1     -18.106  61.819  -2.636  1.00  0.00    -0.000 C 
BRANCH  15  16
ATOM     16  C   UNL     1     -19.431  61.507  -1.919  1.00  0.00    -0.000 C 
BRANCH  16  17
ATOM     17  C   UNL     1     -20.200  62.742  -1.416  1.00  0.00    -0.003 C 
ATOM     18  C   UNL     1     -19.401  63.575  -0.415  1.00  0.00     0.004 C 
ENDBRANCH  16  17
ENDBRANCH  15  16
ENDBRANCH  14  15
ENDBRANCH  13  14
ENDBRANCH  12  13
ENDBRANCH  11  12
ENDBRANCH   1  11
TORSDOF 14
ENDMDL
MODEL 6
REMARK VINA RESULT:     6.927      4.797      7.680
REMARK INTER + INTRA:          12.161
REMARK INTER:                  12.377
REMARK INTRA:                  -0.215
REMARK UNBOUND:                -0.436
REMARK SMILES CCCCCCCCCCCCCCCC(=O)[O-]
REMARK SMILES IDX 9 1 10 2 11 3 12 4 13 5 14 6 15 7 16 8 17 9 18 10 8 11 7 12
REMARK SMILES IDX 6 13 5 14 4 15 3 16 2 17 1 18
REMARK H PARENT
REMARK Flexibility Score: inf
ROOT
ATOM      1  C   UNL     1     -13.363  61.809  -4.086  1.00  0.00     0.000 C 
ENDROOT
BRANCH   1   2
ATOM      2  C   UNL     1     -13.007  61.649  -2.600  1.00  0.00     0.000 C 
BRANCH   2   3
ATOM      3  C   UNL     1     -14.262  61.394  -1.758  1.00  0.00     0.000 C 
BRANCH   3   4
ATOM      4  C   UNL     1     -15.526  61.433  -2.630  1.00  0.00     0.000 C 
BRANCH   4   5
ATOM      5  C   UNL     1     -16.817  61.495  -1.798  1.00  0.00     0.000 C 
BRANCH   5   6
ATOM      6  C   UNL     1     -18.056  61.819  -2.650  1.00  0.00     0.006 C 
BRANCH   6   7
ATOM      7  C   UNL     1     -19.339  61.876  -1.810  1.00  0.00     0.053 C 
BRANCH   7   8
ATOM      8  C   UNL     1     -19.334  63.040  -0.867  1.00  0.00     0.041 C 
ATOM      9  O   UNL     1     -18.283  63.346  -0.244  1.00  0.00    -0.550 OA
ATOM     10  O   UNL     1     -20.480  63.808  -0.702  1.00  0.00    -0.550 OA
ENDBRANCH   7   8
ENDBRANCH   6   7
ENDBRANCH   5   6
ENDBRANCH   4   5
ENDBRANCH   3   4
ENDBRANCH   2   3
ENDBRANCH   1   2
BRANCH   1  11
ATOM     11  C   UNL     1     -12.181  61.490  -5.014  1.00  0.00     0.000 C 
BRANCH  11  12
ATOM     12  C   UNL     1     -12.272  62.224  -6.362  1.00  0.00    -0.000 C 
BRANCH  12  13
ATOM     13  C   UNL     1     -11.878  61.335  -7.554  1.00  0.00    -0.000 C 
BRANCH  13  14
ATOM     14  C   UNL     1     -12.076  62.017  -8.924  1.00  0.00    -0.000 C 
BRANCH  14  15
ATOM     15  C   UNL     1     -13.129  61.298  -9.785  1.00  0.00    -0.000 C 
BRANCH  15  16
ATOM     16  C   UNL     1     -14.336  62.190 -10.124  1.00  0.00    -0.000 C 
BRANCH  16  17
ATOM     17  C   UNL     1     -14.291  63.599  -9.508  1.00  0.00    -0.003 C 
ATOM     18  C   UNL     1     -15.022  63.689  -8.170  1.00  0.00     0.004 C 
ENDBRANCH  16  17
ENDBRANCH  15  16
ENDBRANCH  14  15
ENDBRANCH  13  14
ENDBRANCH  12  13
ENDBRANCH  11  12
ENDBRANCH   1  11
TORSDOF 14
ENDMDL
MODEL 7
REMARK VINA RESULT:     7.011      5.135      8.356
REMARK INTER + INTRA:          12.313
REMARK INTER:                  12.731
REMARK INTRA:                  -0.419
REMARK UNBOUND:                -0.436
REMARK SMILES CCCCCCCCCCCCCCCC(=O)[O-]
REMARK SMILES IDX 9 1 10 2 11 3 12 4 13 5 14 6 15 7 16 8 17 9 18 10 8 11 7 12
REMARK SMILES IDX 6 13 5 14 4 15 3 16 2 17 1 18
REMARK H PARENT
REMARK Flexibility Score: inf
ROOT
ATOM      1  C   UNL     1     -17.479  65.894  -0.486  1.00  0.00     0.000 C 
ENDROOT
BRANCH   1   2
ATOM      2  C   UNL     1     -18.223  64.551  -0.555  1.00  0.00     0.000 C 
BRANCH   2   3
ATOM      3  C   UNL     1     -19.738  64.756  -0.442  1.00  0.00     0.000 C 
BRANCH   3   4
ATOM      4  C   UNL     1     -20.439  63.456  -0.019  1.00  0.00     0.000 C 
BRANCH   4   5
ATOM      5  C   UNL     1     -19.823  62.211  -0.677  1.00  0.00     0.000 C 
BRANCH   5   6
ATOM      6  C   UNL     1     -19.787  62.309  -2.212  1.00  0.00     0.006 C 
BRANCH   6   7
ATOM      7  C   UNL     1     -19.679  60.931  -2.878  1.00  0.00     0.053 C 
BRANCH   7   8
ATOM      8  C   UNL     1     -21.022  60.397  -3.272  1.00  0.00     0.041 C 
ATOM      9  O   UNL     1     -21.230  60.013  -4.454  1.00  0.00    -0.550 OA
ATOM     10  O   UNL     1     -22.034  60.290  -2.327  1.00  0.00    -0.550 OA
ENDBRANCH   7   8
ENDBRANCH   6   7
ENDBRANCH   5   6
ENDBRANCH   4   5
ENDBRANCH   3   4
ENDBRANCH   2   3
ENDBRANCH   1   2
BRANCH   1  11
ATOM     11  C   UNL     1     -16.691  66.200  -1.769  1.00  0.00     0.000 C 
BRANCH  11  12
ATOM     12  C   UNL     1     -15.483  67.116  -1.517  1.00  0.00    -0.000 C 
BRANCH  12  13
ATOM     13  C   UNL     1     -15.641  68.503  -2.164  1.00  0.00    -0.000 C 
BRANCH  13  14
ATOM     14  C   UNL     1     -14.342  69.037  -2.804  1.00  0.00    -0.000 C 
BRANCH  14  15
ATOM     15  C   UNL     1     -13.357  69.579  -1.754  1.00  0.00    -0.000 C 
BRANCH  15  16
ATOM     16  C   UNL     1     -11.968  68.922  -1.839  1.00  0.00    -0.000 C 
BRANCH  16  17
ATOM     17  C   UNL     1     -11.876  67.524  -1.202  1.00  0.00    -0.003 C 
ATOM     18  C   UNL     1     -12.493  67.463   0.194  1.00  0.00     0.004 C 
ENDBRANCH  16  17
ENDBRANCH  15  16
ENDBRANCH  14  15
ENDBRANCH  13  14
ENDBRANCH  12  13
ENDBRANCH  11  12
ENDBRANCH   1  11
TORSDOF 14
ENDMDL
MODEL 8
REMARK VINA RESULT:     7.253     13.828     16.512
REMARK INTER + INTRA:          12.754
REMARK INTER:                  13.130
REMARK INTRA:                  -0.377
REMARK UNBOUND:                -0.436
REMARK SMILES CCCCCCCCCCCCCCCC(=O)[O-]
REMARK SMILES IDX 9 1 10 2 11 3 12 4 13 5 14 6 15 7 16 8 17 9 18 10 8 11 7 12
REMARK SMILES IDX 6 13 5 14 4 15 3 16 2 17 1 18
REMARK H PARENT
REMARK Flexibility Score: inf
ROOT
ATOM      1  C   UNL     1     -25.417  58.672   8.526  1.00  0.00     0.000 C 
ENDROOT
BRANCH   1   2
ATOM      2  C   UNL     1     -26.394  57.619   9.072  1.00  0.00     0.000 C 
BRANCH   2   3
ATOM      3  C   UNL     1     -27.327  58.227  10.125  1.00  0.00     0.000 C 
BRANCH   3   4
ATOM      4  C   UNL     1     -28.777  57.772   9.904  1.00  0.00     0.000 C 
BRANCH   4   5
ATOM      5  C   UNL     1     -29.451  58.493   8.725  1.00  0.00     0.000 C 
BRANCH   5   6
ATOM      6  C   UNL     1     -30.871  58.978   9.061  1.00  0.00     0.006 C 
BRANCH   6   7
ATOM      7  C   UNL     1     -31.674  57.926   9.839  1.00  0.00     0.053 C 
BRANCH   7   8
ATOM      8  C   UNL     1     -31.774  56.635   9.085  1.00  0.00     0.041 C 
ATOM      9  O   UNL     1     -32.121  56.633   7.874  1.00  0.00    -0.550 OA
ATOM     10  O   UNL     1     -31.451  55.437   9.709  1.00  0.00    -0.550 OA
ENDBRANCH   7   8
ENDBRANCH   6   7
ENDBRANCH   5   6
ENDBRANCH   4   5
ENDBRANCH   3   4
ENDBRANCH   2   3
ENDBRANCH   1   2
BRANCH   1  11
ATOM     11  C   UNL     1     -23.954  58.208   8.584  1.00  0.00     0.000 C 
BRANCH  11  12
ATOM     12  C   UNL     1     -23.215  58.734   9.825  1.00  0.00    -0.000 C 
BRANCH  12  13
ATOM     13  C   UNL     1     -23.031  60.262   9.806  1.00  0.00    -0.000 C 
BRANCH  13  14
ATOM     14  C   UNL     1     -21.558  60.704   9.674  1.00  0.00    -0.000 C 
BRANCH  14  15
ATOM     15  C   UNL     1     -21.414  62.233   9.598  1.00  0.00    -0.000 C 
BRANCH  15  16
ATOM     16  C   UNL     1     -20.294  62.684   8.644  1.00  0.00    -0.000 C 
BRANCH  16  17
ATOM     17  C   UNL     1     -19.707  64.073   8.948  1.00  0.00    -0.003 C 
ATOM     18  C   UNL     1     -19.318  64.845   7.688  1.00  0.00     0.004 C 
ENDBRANCH  16  17
ENDBRANCH  15  16
ENDBRANCH  14  15
ENDBRANCH  13  14
ENDBRANCH  12  13
ENDBRANCH  11  12
ENDBRANCH   1  11
TORSDOF 14
ENDMDL
