MODEL 1
REMARK VINA RESULT:    -3.709      0.000      0.000
REMARK INTER + INTRA:          -4.147
REMARK INTER:                  -4.142
REMARK INTRA:                  -0.005
REMARK UNBOUND:                -0.005
REMARK SMILES CCCC(=O)[O-]
REMARK SMILES IDX 3 1 4 2 5 3 6 4 2 5 1 6
REMARK H PARENT
REMARK Flexibility Score: inf
ROOT
ATOM      1  C   UNL     1     112.081 178.220 115.797  1.00  0.00     0.052 C 
ENDROOT
BRANCH   1   2
ATOM      2  C   UNL     1     113.026 177.058 115.800  1.00  0.00     0.041 C 
ATOM      3  O   UNL     1     112.586 175.883 115.899  1.00  0.00    -0.550 OA
ATOM      4  O   UNL     1     114.396 177.276 115.725  1.00  0.00    -0.550 OA
ENDBRANCH   1   2
BRANCH   1   5
ATOM      5  C   UNL     1     111.668 178.611 114.371  1.00  0.00     0.003 C 
ATOM      6  C   UNL     1     110.805 179.872 114.341  1.00  0.00     0.004 C 
ENDBRANCH   1   5
TORSDOF 2
ENDMDL
MODEL 2
REMARK VINA RESULT:    -3.310      9.893     10.574
REMARK INTER + INTRA:          -3.702
REMARK INTER:                  -3.687
REMARK INTRA:                  -0.014
REMARK UNBOUND:                -0.005
REMARK SMILES CCCC(=O)[O-]
REMARK SMILES IDX 3 1 4 2 5 3 6 4 2 5 1 6
REMARK H PARENT
REMARK Flexibility Score: inf
ROOT
ATOM      1  C   UNL     1     123.393 178.615 116.263  1.00  0.00     0.052 C 
ENDROOT
BRANCH   1   2
ATOM      2  C   UNL     1     123.099 177.320 116.959  1.00  0.00     0.041 C 
ATOM      3  O   UNL     1     122.077 176.654 116.652  1.00  0.00    -0.550 OA
ATOM      4  O   UNL     1     123.940 176.868 117.968  1.00  0.00    -0.550 OA
ENDBRANCH   1   2
BRANCH   1   5
ATOM      5  C   UNL     1     122.202 179.088 115.419  1.00  0.00     0.003 C 
ATOM      6  C   UNL     1     122.627 180.016 114.282  1.00  0.00     0.004 C 
ENDBRANCH   1   5
TORSDOF 2
ENDMDL
MODEL 3
REMARK VINA RESULT:    -3.269     10.865     11.807
REMARK INTER + INTRA:          -3.656
REMARK INTER:                  -3.647
REMARK INTRA:                  -0.009
REMARK UNBOUND:                -0.005
REMARK SMILES CCCC(=O)[O-]
REMARK SMILES IDX 3 1 4 2 5 3 6 4 2 5 1 6
REMARK H PARENT
REMARK Flexibility Score: inf
ROOT
ATOM      1  C   UNL     1     115.397 167.110 116.540  1.00  0.00     0.052 C 
ENDROOT
BRANCH   1   2
ATOM      2  C   UNL     1     116.002 165.817 116.996  1.00  0.00     0.041 C 
ATOM      3  O   UNL     1     115.554 165.233 118.017  1.00  0.00    -0.550 OA
ATOM      4  O   UNL     1     117.083 165.275 116.311  1.00  0.00    -0.550 OA
ENDBRANCH   1   2
BRANCH   1   5
ATOM      5  C   UNL     1     115.597 167.328 115.034  1.00  0.00     0.003 C 
ATOM      6  C   UNL     1     115.171 168.726 114.588  1.00  0.00     0.004 C 
ENDBRANCH   1   5
TORSDOF 2
ENDMDL
MODEL 4
REMARK VINA RESULT:    -3.249      9.988     10.848
REMARK INTER + INTRA:          -3.634
REMARK INTER:                  -3.595
REMARK INTRA:                  -0.038
REMARK UNBOUND:                -0.005
REMARK SMILES CCCC(=O)[O-]
REMARK SMILES IDX 3 1 4 2 5 3 6 4 2 5 1 6
REMARK H PARENT
REMARK Flexibility Score: inf
ROOT
ATOM      1  C   UNL     1     122.054 177.077 116.551  1.00  0.00     0.052 C 
ENDROOT
BRANCH   1   2
ATOM      2  C   UNL     1     122.693 178.342 116.062  1.00  0.00     0.041 C 
ATOM      3  O   UNL     1     123.879 178.617 116.382  1.00  0.00    -0.550 OA
ATOM      4  O   UNL     1     121.966 179.230 115.280  1.00  0.00    -0.550 OA
ENDBRANCH   1   2
BRANCH   1   5
ATOM      5  C   UNL     1     122.966 176.321 117.527  1.00  0.00     0.003 C 
ATOM      6  C   UNL     1     122.516 176.472 118.979  1.00  0.00     0.004 C 
ENDBRANCH   1   5
TORSDOF 2
ENDMDL
MODEL 5
REMARK VINA RESULT:    -3.215     14.098     14.885
REMARK INTER + INTRA:          -3.596
REMARK INTER:                  -3.577
REMARK INTRA:                  -0.018
REMARK UNBOUND:                -0.005
REMARK SMILES CCCC(=O)[O-]
REMARK SMILES IDX 3 1 4 2 5 3 6 4 2 5 1 6
REMARK H PARENT
REMARK Flexibility Score: inf
ROOT
ATOM      1  C   UNL     1     115.561 164.943 121.739  1.00  0.00     0.052 C 
ENDROOT
BRANCH   1   2
ATOM      2  C   UNL     1     114.181 165.420 122.075  1.00  0.00     0.041 C 
ATOM      3  O   UNL     1     113.785 165.425 123.270  1.00  0.00    -0.550 OA
ATOM      4  O   UNL     1     113.322 165.829 121.063  1.00  0.00    -0.550 OA
ENDBRANCH   1   2
BRANCH   1   5
ATOM      5  C   UNL     1     115.637 164.386 120.310  1.00  0.00     0.003 C 
ATOM      6  C   UNL     1     116.064 162.920 120.280  1.00  0.00     0.004 C 
ENDBRANCH   1   5
TORSDOF 2
ENDMDL
MODEL 6
REMARK VINA RESULT:    -3.205     12.755     14.115
REMARK INTER + INTRA:          -3.585
REMARK INTER:                  -3.558
REMARK INTRA:                  -0.027
REMARK UNBOUND:                -0.005
REMARK SMILES CCCC(=O)[O-]
REMARK SMILES IDX 3 1 4 2 5 3 6 4 2 5 1 6
REMARK H PARENT
REMARK Flexibility Score: inf
ROOT
ATOM      1  C   UNL     1     115.209 164.835 118.747  1.00  0.00     0.052 C 
ENDROOT
BRANCH   1   2
ATOM      2  C   UNL     1     115.851 165.514 117.576  1.00  0.00     0.041 C 
ATOM      3  O   UNL     1     116.992 165.156 117.182  1.00  0.00    -0.550 OA
ATOM      4  O   UNL     1     115.201 166.566 116.941  1.00  0.00    -0.550 OA
ENDBRANCH   1   2
BRANCH   1   5
ATOM      5  C   UNL     1     116.249 164.395 119.787  1.00  0.00     0.003 C 
ATOM      6  C   UNL     1     116.003 162.973 120.290  1.00  0.00     0.004 C 
ENDBRANCH   1   5
TORSDOF 2
ENDMDL
MODEL 7
REMARK VINA RESULT:    -3.138     10.074     11.208
REMARK INTER + INTRA:          -3.510
REMARK INTER:                  -3.490
REMARK INTRA:                  -0.020
REMARK UNBOUND:                -0.005
REMARK SMILES CCCC(=O)[O-]
REMARK SMILES IDX 3 1 4 2 5 3 6 4 2 5 1 6
REMARK H PARENT
REMARK Flexibility Score: inf
ROOT
ATOM      1  C   UNL     1     123.777 178.562 116.756  1.00  0.00     0.052 C 
ENDROOT
BRANCH   1   2
ATOM      2  C   UNL     1     122.475 178.108 116.171  1.00  0.00     0.041 C 
ATOM      3  O   UNL     1     121.791 178.891 115.462  1.00  0.00    -0.550 OA
ATOM      4  O   UNL     1     122.002 176.829 116.437  1.00  0.00    -0.550 OA
ENDBRANCH   1   2
BRANCH   1   5
ATOM      5  C   UNL     1     124.097 177.829 118.066  1.00  0.00     0.003 C 
ATOM      6  C   UNL     1     124.170 178.779 119.261  1.00  0.00     0.004 C 
ENDBRANCH   1   5
TORSDOF 2
ENDMDL
MODEL 8
REMARK VINA RESULT:    -3.119     22.167     23.116
REMARK INTER + INTRA:          -3.489
REMARK INTER:                  -3.449
REMARK INTRA:                  -0.040
REMARK UNBOUND:                -0.005
REMARK SMILES CCCC(=O)[O-]
REMARK SMILES IDX 3 1 4 2 5 3 6 4 2 5 1 6
REMARK H PARENT
REMARK Flexibility Score: inf
ROOT
ATOM      1  C   UNL     1     123.028 163.584 130.873  1.00  0.00     0.052 C 
ENDROOT
BRANCH   1   2
ATOM      2  C   UNL     1     123.944 162.945 129.874  1.00  0.00     0.041 C 
ATOM      3  O   UNL     1     123.756 161.755 129.511  1.00  0.00    -0.550 OA
ATOM      4  O   UNL     1     125.025 163.657 129.368  1.00  0.00    -0.550 OA
ENDBRANCH   1   2
BRANCH   1   5
ATOM      5  C   UNL     1     121.941 164.425 130.190  1.00  0.00     0.003 C 
ATOM      6  C   UNL     1     122.296 165.911 130.150  1.00  0.00     0.004 C 
ENDBRANCH   1   5
TORSDOF 2
ENDMDL
MODEL 9
REMARK VINA RESULT:    -3.024     13.857     14.596
REMARK INTER + INTRA:          -3.383
REMARK INTER:                  -3.370
REMARK INTRA:                  -0.013
REMARK UNBOUND:                -0.005
REMARK SMILES CCCC(=O)[O-]
REMARK SMILES IDX 3 1 4 2 5 3 6 4 2 5 1 6
REMARK H PARENT
REMARK Flexibility Score: inf
ROOT
ATOM      1  C   UNL     1     116.161 163.988 120.007  1.00  0.00     0.052 C 
ENDROOT
BRANCH   1   2
ATOM      2  C   UNL     1     116.339 164.700 121.313  1.00  0.00     0.041 C 
ATOM      3  O   UNL     1     117.493 164.918 121.765  1.00  0.00    -0.550 OA
ATOM      4  O   UNL     1     115.226 165.095 122.046  1.00  0.00    -0.550 OA
ENDBRANCH   1   2
BRANCH   1   5
ATOM      5  C   UNL     1     115.209 164.747 119.072  1.00  0.00     0.003 C 
ATOM      6  C   UNL     1     115.902 165.216 117.794  1.00  0.00     0.004 C 
ENDBRANCH   1   5
TORSDOF 2
ENDMDL
