MODEL 1
REMARK VINA RESULT:    -4.163      0.000      0.000
REMARK INTER + INTRA:          -4.681
REMARK INTER:                  -4.528
REMARK INTRA:                  -0.153
REMARK UNBOUND:                -0.153
REMARK SMILES CC1=CC[C@@H](C(C)(C)O)CC1
REMARK SMILES IDX 6 1 7 2 8 3 5 4 1 5 2 6 3 7 11 8 4 9 10 10 9 11
REMARK H PARENT 9 12
REMARK Flexibility Score: inf
ROOT
ATOM      1  C   UNL     1     141.428 137.545 142.448  1.00  0.00     0.062 C 
ATOM      2  C   UNL     1     142.266 137.738 141.157  1.00  0.00     0.042 C 
ATOM      3  C   UNL     1     141.954 136.294 143.178  1.00  0.00     0.042 C 
ENDROOT
BRANCH   1   4
ATOM      4  C   UNL     1     139.886 137.406 142.169  1.00  0.00     0.024 C 
ATOM      5  C   UNL     1     135.611 136.399 142.004  1.00  0.00     0.039 C 
ATOM      6  C   UNL     1     137.090 136.628 142.154  1.00  0.00    -0.077 C 
ATOM      7  C   UNL     1     137.532 137.436 143.140  1.00  0.00    -0.028 C 
ATOM      8  C   UNL     1     138.031 136.050 141.118  1.00  0.00     0.031 C 
ATOM      9  C   UNL     1     138.996 137.690 143.404  1.00  0.00     0.034 C 
ATOM     10  C   UNL     1     139.492 136.034 141.582  1.00  0.00     0.011 C 
ENDBRANCH   1   4
BRANCH   1  11
ATOM     11  O   UNL     1     141.639 138.630 143.325  1.00  0.00    -0.390 OA
ATOM     12  H   UNL     1     141.261 139.454 142.921  1.00  0.00     0.211 HD
ENDBRANCH   1  11
TORSDOF 2
ENDMDL
MODEL 2
REMARK VINA RESULT:    -4.152      1.227      1.555
REMARK INTER + INTRA:          -4.669
REMARK INTER:                  -4.520
REMARK INTRA:                  -0.148
REMARK UNBOUND:                -0.153
REMARK SMILES CC1=CC[C@@H](C(C)(C)O)CC1
REMARK SMILES IDX 6 1 7 2 8 3 5 4 1 5 2 6 3 7 11 8 4 9 10 10 9 11
REMARK H PARENT 9 12
REMARK Flexibility Score: inf
ROOT
ATOM      1  C   UNL     1     139.981 137.366 142.995  1.00  0.00     0.062 C 
ATOM      2  C   UNL     1     140.965 138.303 142.247  1.00  0.00     0.042 C 
ATOM      3  C   UNL     1     140.688 136.016 143.225  1.00  0.00     0.042 C 
ENDROOT
BRANCH   1   4
ATOM      4  C   UNL     1     138.627 137.148 142.224  1.00  0.00     0.024 C 
ATOM      5  C   UNL     1     134.680 135.959 140.699  1.00  0.00     0.039 C 
ATOM      6  C   UNL     1     136.016 136.256 141.323  1.00  0.00    -0.077 C 
ATOM      7  C   UNL     1     136.083 137.140 142.340  1.00  0.00    -0.028 C 
ATOM      8  C   UNL     1     137.262 135.656 140.707  1.00  0.00     0.031 C 
ATOM      9  C   UNL     1     137.366 137.469 143.063  1.00  0.00     0.034 C 
ATOM     10  C   UNL     1     138.480 135.727 141.636  1.00  0.00     0.011 C 
ENDBRANCH   1   4
BRANCH   1  11
ATOM     11  O   UNL     1     139.700 137.886 144.276  1.00  0.00    -0.390 OA
ATOM     12  H   UNL     1     140.164 137.336 144.959  1.00  0.00     0.211 HD
ENDBRANCH   1  11
TORSDOF 2
ENDMDL
MODEL 3
REMARK VINA RESULT:    -4.034      1.327      2.311
REMARK INTER + INTRA:          -4.540
REMARK INTER:                  -4.395
REMARK INTRA:                  -0.145
REMARK UNBOUND:                -0.153
REMARK SMILES CC1=CC[C@@H](C(C)(C)O)CC1
REMARK SMILES IDX 6 1 7 2 8 3 5 4 1 5 2 6 3 7 11 8 4 9 10 10 9 11
REMARK H PARENT 9 12
REMARK Flexibility Score: inf
ROOT
ATOM      1  C   UNL     1     139.789 137.117 143.296  1.00  0.00     0.062 C 
ATOM      2  C   UNL     1     140.463 138.132 142.336  1.00  0.00     0.042 C 
ATOM      3  C   UNL     1     140.816 136.014 143.624  1.00  0.00     0.042 C 
ENDROOT
BRANCH   1   4
ATOM      4  C   UNL     1     138.477 136.482 142.705  1.00  0.00     0.024 C 
ATOM      5  C   UNL     1     134.829 135.390 140.510  1.00  0.00     0.039 C 
ATOM      6  C   UNL     1     136.078 135.891 141.182  1.00  0.00    -0.077 C 
ATOM      7  C   UNL     1     137.278 135.599 140.639  1.00  0.00    -0.028 C 
ATOM      8  C   UNL     1     135.959 136.596 142.517  1.00  0.00     0.031 C 
ATOM      9  C   UNL     1     138.583 136.097 141.209  1.00  0.00     0.034 C 
ATOM     10  C   UNL     1     137.227 137.368 142.898  1.00  0.00     0.011 C 
ENDBRANCH   1   4
BRANCH   1  11
ATOM     11  O   UNL     1     139.482 137.744 144.522  1.00  0.00    -0.390 OA
ATOM     12  H   UNL     1     138.544 138.067 144.496  1.00  0.00     0.211 HD
ENDBRANCH   1  11
TORSDOF 2
ENDMDL
MODEL 4
REMARK VINA RESULT:    -4.014     13.660     15.144
REMARK INTER + INTRA:          -4.519
REMARK INTER:                  -4.367
REMARK INTRA:                  -0.152
REMARK UNBOUND:                -0.153
REMARK SMILES CC1=CC[C@@H](C(C)(C)O)CC1
REMARK SMILES IDX 6 1 7 2 8 3 5 4 1 5 2 6 3 7 11 8 4 9 10 10 9 11
REMARK H PARENT 9 12
REMARK Flexibility Score: inf
ROOT
ATOM      1  C   UNL     1     125.050 136.156 145.378  1.00  0.00     0.062 C 
ATOM      2  C   UNL     1     123.605 136.092 144.819  1.00  0.00     0.042 C 
ATOM      3  C   UNL     1     125.355 134.812 146.070  1.00  0.00     0.042 C 
ENDROOT
BRANCH   1   4
ATOM      4  C   UNL     1     125.274 137.348 146.380  1.00  0.00     0.024 C 
ATOM      5  C   UNL     1     126.429 140.121 149.588  1.00  0.00     0.039 C 
ATOM      6  C   UNL     1     126.110 139.066 148.564  1.00  0.00    -0.077 C 
ATOM      7  C   UNL     1     126.951 138.885 147.525  1.00  0.00    -0.028 C 
ATOM      8  C   UNL     1     124.791 138.328 148.659  1.00  0.00     0.031 C 
ATOM      9  C   UNL     1     126.746 137.822 146.474  1.00  0.00     0.034 C 
ATOM     10  C   UNL     1     124.759 137.055 147.805  1.00  0.00     0.011 C 
ENDBRANCH   1   4
BRANCH   1  11
ATOM     11  O   UNL     1     125.973 136.269 144.317  1.00  0.00    -0.390 OA
ATOM     12  H   UNL     1     126.858 135.940 144.620  1.00  0.00     0.211 HD
ENDBRANCH   1  11
TORSDOF 2
ENDMDL
MODEL 5
REMARK VINA RESULT:    -3.985      8.876     10.537
REMARK INTER + INTRA:          -4.487
REMARK INTER:                  -4.319
REMARK INTRA:                  -0.169
REMARK UNBOUND:                -0.153
REMARK SMILES CC1=CC[C@@H](C(C)(C)O)CC1
REMARK SMILES IDX 6 1 7 2 8 3 5 4 1 5 2 6 3 7 11 8 4 9 10 10 9 11
REMARK H PARENT 9 12
REMARK Flexibility Score: inf
ROOT
ATOM      1  C   UNL     1     135.534 128.962 140.963  1.00  0.00     0.062 C 
ATOM      2  C   UNL     1     134.713 129.252 142.246  1.00  0.00     0.042 C 
ATOM      3  C   UNL     1     136.376 130.213 140.642  1.00  0.00     0.042 C 
ENDROOT
BRANCH   1   4
ATOM      4  C   UNL     1     134.638 128.576 139.729  1.00  0.00     0.024 C 
ATOM      5  C   UNL     1     131.711 128.234 136.468  1.00  0.00     0.039 C 
ATOM      6  C   UNL     1     132.635 128.470 137.631  1.00  0.00    -0.077 C 
ATOM      7  C   UNL     1     133.699 129.283 137.470  1.00  0.00    -0.028 C 
ATOM      8  C   UNL     1     132.418 127.688 138.910  1.00  0.00     0.031 C 
ATOM      9  C   UNL     1     134.655 129.622 138.587  1.00  0.00     0.034 C 
ATOM     10  C   UNL     1     133.170 128.282 140.106  1.00  0.00     0.011 C 
ENDBRANCH   1   4
BRANCH   1  11
ATOM     11  O   UNL     1     136.454 127.920 141.205  1.00  0.00    -0.390 OA
ATOM     12  H   UNL     1     137.216 128.007 140.575  1.00  0.00     0.211 HD
ENDBRANCH   1  11
TORSDOF 2
ENDMDL
MODEL 6
REMARK VINA RESULT:    -3.960      1.698      4.422
REMARK INTER + INTRA:          -4.460
REMARK INTER:                  -4.323
REMARK INTRA:                  -0.137
REMARK UNBOUND:                -0.153
REMARK SMILES CC1=CC[C@@H](C(C)(C)O)CC1
REMARK SMILES IDX 6 1 7 2 8 3 5 4 1 5 2 6 3 7 11 8 4 9 10 10 9 11
REMARK H PARENT 9 12
REMARK Flexibility Score: inf
ROOT
ATOM      1  C   UNL     1     138.470 137.119 143.622  1.00  0.00     0.062 C 
ATOM      2  C   UNL     1     137.969 135.665 143.822  1.00  0.00     0.042 C 
ATOM      3  C   UNL     1     137.251 138.004 143.291  1.00  0.00     0.042 C 
ENDROOT
BRANCH   1   4
ATOM      4  C   UNL     1     139.560 137.250 142.496  1.00  0.00     0.024 C 
ATOM      5  C   UNL     1     143.078 137.093 139.865  1.00  0.00     0.039 C 
ATOM      6  C   UNL     1     141.955 137.070 140.866  1.00  0.00    -0.077 C 
ATOM      7  C   UNL     1     141.082 136.042 140.850  1.00  0.00    -0.028 C 
ATOM      8  C   UNL     1     141.760 138.265 141.776  1.00  0.00     0.031 C 
ATOM      9  C   UNL     1     139.954 135.902 141.842  1.00  0.00     0.034 C 
ATOM     10  C   UNL     1     140.846 137.963 142.968  1.00  0.00     0.011 C 
ENDBRANCH   1   4
BRANCH   1  11
ATOM     11  O   UNL     1     138.999 137.617 144.832  1.00  0.00    -0.390 OA
ATOM     12  H   UNL     1     138.389 138.312 145.191  1.00  0.00     0.211 HD
ENDBRANCH   1  11
TORSDOF 2
ENDMDL
MODEL 7
REMARK VINA RESULT:    -3.841      2.716      5.333
REMARK INTER + INTRA:          -4.330
REMARK INTER:                  -4.159
REMARK INTRA:                  -0.171
REMARK UNBOUND:                -0.153
REMARK SMILES CC1=CC[C@@H](C(C)(C)O)CC1
REMARK SMILES IDX 6 1 7 2 8 3 5 4 1 5 2 6 3 7 11 8 4 9 10 10 9 11
REMARK H PARENT 9 12
REMARK Flexibility Score: inf
ROOT
ATOM      1  C   UNL     1     135.048 135.716 142.220  1.00  0.00     0.062 C 
ATOM      2  C   UNL     1     134.499 135.534 143.659  1.00  0.00     0.042 C 
ATOM      3  C   UNL     1     135.216 134.318 141.592  1.00  0.00     0.042 C 
ENDROOT
BRANCH   1   4
ATOM      4  C   UNL     1     136.409 136.503 142.172  1.00  0.00     0.024 C 
ATOM      5  C   UNL     1     140.524 138.018 142.475  1.00  0.00     0.039 C 
ATOM      6  C   UNL     1     139.159 137.387 142.461  1.00  0.00    -0.077 C 
ATOM      7  C   UNL     1     138.868 136.473 141.511  1.00  0.00    -0.028 C 
ATOM      8  C   UNL     1     138.109 137.889 143.429  1.00  0.00     0.031 C 
ATOM      9  C   UNL     1     137.547 135.748 141.442  1.00  0.00     0.034 C 
ATOM     10  C   UNL     1     136.918 136.933 143.565  1.00  0.00     0.011 C 
ENDBRANCH   1   4
BRANCH   1  11
ATOM     11  O   UNL     1     134.099 136.393 141.425  1.00  0.00    -0.390 OA
ATOM     12  H   UNL     1     134.510 136.618 140.551  1.00  0.00     0.211 HD
ENDBRANCH   1  11
TORSDOF 2
ENDMDL
MODEL 8
REMARK VINA RESULT:    -3.828      2.552      5.050
REMARK INTER + INTRA:          -4.316
REMARK INTER:                  -4.161
REMARK INTRA:                  -0.155
REMARK UNBOUND:                -0.153
REMARK SMILES CC1=CC[C@@H](C(C)(C)O)CC1
REMARK SMILES IDX 6 1 7 2 8 3 5 4 1 5 2 6 3 7 11 8 4 9 10 10 9 11
REMARK H PARENT 9 12
REMARK Flexibility Score: inf
ROOT
ATOM      1  C   UNL     1     135.245 135.616 142.103  1.00  0.00     0.062 C 
ATOM      2  C   UNL     1     135.114 134.147 141.622  1.00  0.00     0.042 C 
ATOM      3  C   UNL     1     134.583 136.525 141.048  1.00  0.00     0.042 C 
ENDROOT
BRANCH   1   4
ATOM      4  C   UNL     1     136.735 136.058 142.345  1.00  0.00     0.024 C 
ATOM      5  C   UNL     1     140.698 137.952 142.490  1.00  0.00     0.039 C 
ATOM      6  C   UNL     1     139.306 137.405 142.336  1.00  0.00    -0.077 C 
ATOM      7  C   UNL     1     138.316 137.904 143.104  1.00  0.00    -0.028 C 
ATOM      8  C   UNL     1     139.080 136.222 141.417  1.00  0.00     0.031 C 
ATOM      9  C   UNL     1     136.879 137.458 142.991  1.00  0.00     0.034 C 
ATOM     10  C   UNL     1     137.602 136.012 141.069  1.00  0.00     0.011 C 
ENDBRANCH   1   4
BRANCH   1  11
ATOM     11  O   UNL     1     134.513 135.799 143.295  1.00  0.00    -0.390 OA
ATOM     12  H   UNL     1     135.006 135.379 144.047  1.00  0.00     0.211 HD
ENDBRANCH   1  11
TORSDOF 2
ENDMDL
MODEL 9
REMARK VINA RESULT:    -3.747     10.844     13.084
REMARK INTER + INTRA:          -4.228
REMARK INTER:                  -4.061
REMARK INTRA:                  -0.167
REMARK UNBOUND:                -0.153
REMARK SMILES CC1=CC[C@@H](C(C)(C)O)CC1
REMARK SMILES IDX 6 1 7 2 8 3 5 4 1 5 2 6 3 7 11 8 4 9 10 10 9 11
REMARK H PARENT 9 12
REMARK Flexibility Score: inf
ROOT
ATOM      1  C   UNL     1     130.845 128.137 136.084  1.00  0.00     0.062 C 
ATOM      2  C   UNL     1     129.655 127.228 136.489  1.00  0.00     0.042 C 
ATOM      3  C   UNL     1     131.607 127.445 134.936  1.00  0.00     0.042 C 
ENDROOT
BRANCH   1   4
ATOM      4  C   UNL     1     131.821 128.447 137.278  1.00  0.00     0.024 C 
ATOM      5  C   UNL     1     135.020 128.660 140.284  1.00  0.00     0.039 C 
ATOM      6  C   UNL     1     133.993 128.463 139.203  1.00  0.00    -0.077 C 
ATOM      7  C   UNL     1     134.192 129.035 137.997  1.00  0.00    -0.028 C 
ATOM      8  C   UNL     1     132.705 127.741 139.538  1.00  0.00     0.031 C 
ATOM      9  C   UNL     1     133.247 128.857 136.834  1.00  0.00     0.034 C 
ATOM     10  C   UNL     1     131.934 127.289 138.293  1.00  0.00     0.011 C 
ENDBRANCH   1   4
BRANCH   1  11
ATOM     11  O   UNL     1     130.363 129.355 135.558  1.00  0.00    -0.390 OA
ATOM     12  H   UNL     1     131.073 129.773 135.006  1.00  0.00     0.211 HD
ENDBRANCH   1  11
TORSDOF 2
ENDMDL
