MODEL 1
REMARK VINA RESULT:    -0.314      0.000      0.000
REMARK INTER + INTRA:          -0.504
REMARK INTER:                  -0.405
REMARK INTRA:                  -0.098
REMARK UNBOUND:                -0.098
REMARK SMILES CCCCCCC(=O)[O-]
REMARK SMILES IDX 5 1 6 2 7 3 8 4 9 5 4 6 3 7 2 8 1 9
REMARK H PARENT
REMARK Flexibility Score: inf
ROOT
ATOM      1  C   UNL     1       2.636 -50.891   9.159  1.00  0.00     0.006 C 
ENDROOT
BRANCH   1   2
ATOM      2  C   UNL     1       3.834 -51.212  10.058  1.00  0.00     0.053 C 
BRANCH   2   3
ATOM      3  C   UNL     1       4.080 -52.687  10.097  1.00  0.00     0.041 C 
ATOM      4  O   UNL     1       5.258 -53.133  10.061  1.00  0.00    -0.550 OA
ATOM      5  O   UNL     1       3.009 -53.570  10.123  1.00  0.00    -0.550 OA
ENDBRANCH   2   3
ENDBRANCH   1   2
BRANCH   1   6
ATOM      6  C   UNL     1       1.393 -50.558   9.998  1.00  0.00     0.000 C 
BRANCH   6   7
ATOM      7  C   UNL     1       0.336 -51.672   9.958  1.00  0.00    -0.000 C 
BRANCH   7   8
ATOM      8  C   UNL     1      -1.093 -51.127   9.821  1.00  0.00    -0.003 C 
ATOM      9  C   UNL     1      -1.083 -49.636   9.490  1.00  0.00     0.004 C 
ENDBRANCH   7   8
ENDBRANCH   6   7
ENDBRANCH   1   6
TORSDOF 5
ENDMDL
MODEL 2
REMARK VINA RESULT:     1.108     20.370     21.407
REMARK INTER + INTRA:           1.333
REMARK INTER:                   1.609
REMARK INTRA:                  -0.276
REMARK UNBOUND:                -0.098
REMARK SMILES CCCCCCC(=O)[O-]
REMARK SMILES IDX 5 1 6 2 7 3 8 4 9 5 4 6 3 7 2 8 1 9
REMARK H PARENT
REMARK Flexibility Score: inf
ROOT
ATOM      1  C   UNL     1      18.811 -57.723  -1.591  1.00  0.00     0.006 C 
ENDROOT
BRANCH   1   2
ATOM      2  C   UNL     1      18.841 -58.358  -2.985  1.00  0.00     0.053 C 
BRANCH   2   3
ATOM      3  C   UNL     1      18.338 -59.766  -2.932  1.00  0.00     0.041 C 
ATOM      4  O   UNL     1      19.124 -60.727  -3.141  1.00  0.00    -0.550 OA
ATOM      5  O   UNL     1      16.992 -60.015  -2.700  1.00  0.00    -0.550 OA
ENDBRANCH   2   3
ENDBRANCH   1   2
BRANCH   1   6
ATOM      6  C   UNL     1      17.668 -56.705  -1.475  1.00  0.00     0.000 C 
BRANCH   6   7
ATOM      7  C   UNL     1      16.991 -56.418  -2.825  1.00  0.00    -0.000 C 
BRANCH   7   8
ATOM      8  C   UNL     1      17.248 -54.989  -3.324  1.00  0.00    -0.003 C 
ATOM      9  C   UNL     1      17.651 -54.985  -4.796  1.00  0.00     0.004 C 
ENDBRANCH   7   8
ENDBRANCH   6   7
ENDBRANCH   1   6
TORSDOF 5
ENDMDL
MODEL 3
REMARK VINA RESULT:     2.297     20.315     21.562
REMARK INTER + INTRA:           2.871
REMARK INTER:                   3.146
REMARK INTRA:                  -0.275
REMARK UNBOUND:                -0.098
REMARK SMILES CCCCCCC(=O)[O-]
REMARK SMILES IDX 5 1 6 2 7 3 8 4 9 5 4 6 3 7 2 8 1 9
REMARK H PARENT
REMARK Flexibility Score: inf
ROOT
ATOM      1  C   UNL     1      17.617 -56.327  -1.719  1.00  0.00     0.006 C 
ENDROOT
BRANCH   1   2
ATOM      2  C   UNL     1      16.963 -56.272  -3.103  1.00  0.00     0.053 C 
BRANCH   2   3
ATOM      3  C   UNL     1      17.461 -55.089  -3.872  1.00  0.00     0.041 C 
ATOM      4  O   UNL     1      17.730 -54.014  -3.274  1.00  0.00    -0.550 OA
ATOM      5  O   UNL     1      17.580 -55.158  -5.253  1.00  0.00    -0.550 OA
ENDBRANCH   2   3
ENDBRANCH   1   2
BRANCH   1   6
ATOM      6  C   UNL     1      18.310 -57.678  -1.492  1.00  0.00     0.000 C 
BRANCH   6   7
ATOM      7  C   UNL     1      19.124 -58.139  -2.711  1.00  0.00    -0.000 C 
BRANCH   7   8
ATOM      8  C   UNL     1      18.998 -59.647  -2.971  1.00  0.00    -0.003 C 
ATOM      9  C   UNL     1      17.535 -60.082  -2.985  1.00  0.00     0.004 C 
ENDBRANCH   7   8
ENDBRANCH   6   7
ENDBRANCH   1   6
TORSDOF 5
ENDMDL
