MODEL 1
REMARK VINA RESULT:    -4.361      0.000      0.000
REMARK INTER + INTRA:          -9.765
REMARK INTER:                  -8.185
REMARK INTRA:                  -1.579
REMARK UNBOUND:                -1.579
REMARK SMILES CCCCCCCCC=CCCCCCCCC(=O)[O-]
REMARK SMILES IDX 10 1 9 2 11 3 12 4 13 5 14 6 15 7 16 8 17 9 18 10 19 11
REMARK SMILES IDX 20 12 8 13 7 14 6 15 5 16 4 17 3 18 2 19 1 20
REMARK H PARENT
REMARK Flexibility Score: inf
ROOT
ATOM      1  C   UNL     1     137.187 143.162 143.176  1.00  0.00    -0.031 C 
ATOM      2  C   UNL     1     137.836 142.517 144.165  1.00  0.00    -0.031 C 
ENDROOT
BRANCH   1   3
ATOM      3  C   UNL     1     136.771 144.611 143.232  1.00  0.00     0.027 C 
BRANCH   3   4
ATOM      4  C   UNL     1     135.258 144.764 143.446  1.00  0.00     0.004 C 
BRANCH   4   5
ATOM      5  C   UNL     1     134.461 144.507 142.156  1.00  0.00     0.000 C 
BRANCH   5   6
ATOM      6  C   UNL     1     133.190 145.363 142.068  1.00  0.00     0.000 C 
BRANCH   6   7
ATOM      7  C   UNL     1     133.395 146.652 141.255  1.00  0.00     0.000 C 
BRANCH   7   8
ATOM      8  C   UNL     1     133.543 147.900 142.145  1.00  0.00     0.006 C 
BRANCH   8   9
ATOM      9  C   UNL     1     134.851 148.678 141.930  1.00  0.00     0.053 C 
BRANCH   9  10
ATOM     10  C   UNL     1     135.587 148.910 143.215  1.00  0.00     0.041 C 
ATOM     11  O   UNL     1     135.359 148.186 144.220  1.00  0.00    -0.550 OA
ATOM     12  O   UNL     1     136.554 149.907 143.293  1.00  0.00    -0.550 OA
ENDBRANCH   9  10
ENDBRANCH   8   9
ENDBRANCH   7   8
ENDBRANCH   6   7
ENDBRANCH   5   6
ENDBRANCH   4   5
ENDBRANCH   3   4
ENDBRANCH   1   3
BRANCH   2  13
ATOM     13  C   UNL     1     138.188 143.159 145.487  1.00  0.00     0.027 C 
BRANCH  13  14
ATOM     14  C   UNL     1     137.146 142.869 146.582  1.00  0.00     0.004 C 
BRANCH  14  15
ATOM     15  C   UNL     1     137.664 143.038 148.026  1.00  0.00     0.000 C 
BRANCH  15  16
ATOM     16  C   UNL     1     139.101 142.536 148.273  1.00  0.00     0.000 C 
BRANCH  16  17
ATOM     17  C   UNL     1     139.270 141.007 148.241  1.00  0.00    -0.000 C 
BRANCH  17  18
ATOM     18  C   UNL     1     140.050 140.521 147.008  1.00  0.00    -0.000 C 
BRANCH  18  19
ATOM     19  C   UNL     1     139.187 139.595 146.143  1.00  0.00    -0.003 C 
ATOM     20  C   UNL     1     138.854 138.301 146.882  1.00  0.00     0.004 C 
ENDBRANCH  18  19
ENDBRANCH  17  18
ENDBRANCH  16  17
ENDBRANCH  15  16
ENDBRANCH  14  15
ENDBRANCH  13  14
ENDBRANCH   2  13
TORSDOF 15
ENDMDL
MODEL 2
REMARK VINA RESULT:    -4.359      2.870      8.347
REMARK INTER + INTRA:          -9.761
REMARK INTER:                  -8.231
REMARK INTRA:                  -1.530
REMARK UNBOUND:                -1.579
REMARK SMILES CCCCCCCCC=CCCCCCCCC(=O)[O-]
REMARK SMILES IDX 10 1 9 2 11 3 12 4 13 5 14 6 15 7 16 8 17 9 18 10 19 11
REMARK SMILES IDX 20 12 8 13 7 14 6 15 5 16 4 17 3 18 2 19 1 20
REMARK H PARENT
REMARK Flexibility Score: inf
ROOT
ATOM      1  C   UNL     1     135.548 144.433 142.874  1.00  0.00    -0.031 C 
ATOM      2  C   UNL     1     134.872 145.594 142.968  1.00  0.00    -0.031 C 
ENDROOT
BRANCH   1   3
ATOM      3  C   UNL     1     137.022 144.278 143.157  1.00  0.00     0.027 C 
BRANCH   3   4
ATOM      4  C   UNL     1     137.353 142.893 143.730  1.00  0.00     0.004 C 
BRANCH   4   5
ATOM      5  C   UNL     1     137.992 142.982 145.127  1.00  0.00     0.000 C 
BRANCH   5   6
ATOM      6  C   UNL     1     136.948 143.009 146.252  1.00  0.00     0.000 C 
BRANCH   6   7
ATOM      7  C   UNL     1     137.571 142.830 147.646  1.00  0.00     0.000 C 
BRANCH   7   8
ATOM      8  C   UNL     1     138.617 141.701 147.690  1.00  0.00     0.006 C 
BRANCH   8   9
ATOM      9  C   UNL     1     139.945 142.096 148.355  1.00  0.00     0.053 C 
BRANCH   9  10
ATOM     10  C   UNL     1     140.467 143.405 147.842  1.00  0.00     0.041 C 
ATOM     11  O   UNL     1     141.045 143.465 146.724  1.00  0.00    -0.550 OA
ATOM     12  O   UNL     1     140.283 144.567 148.583  1.00  0.00    -0.550 OA
ENDBRANCH   9  10
ENDBRANCH   8   9
ENDBRANCH   7   8
ENDBRANCH   6   7
ENDBRANCH   5   6
ENDBRANCH   4   5
ENDBRANCH   3   4
ENDBRANCH   1   3
BRANCH   2  13
ATOM     13  C   UNL     1     135.523 146.910 143.325  1.00  0.00     0.027 C 
BRANCH  13  14
ATOM     14  C   UNL     1     134.687 148.124 142.882  1.00  0.00     0.004 C 
BRANCH  14  15
ATOM     15  C   UNL     1     133.372 147.770 142.155  1.00  0.00     0.000 C 
BRANCH  15  16
ATOM     16  C   UNL     1     133.003 148.691 140.975  1.00  0.00     0.000 C 
BRANCH  16  17
ATOM     17  C   UNL     1     133.294 148.110 139.580  1.00  0.00    -0.000 C 
BRANCH  17  18
ATOM     18  C   UNL     1     134.314 146.960 139.615  1.00  0.00    -0.000 C 
BRANCH  18  19
ATOM     19  C   UNL     1     133.764 145.718 138.905  1.00  0.00    -0.003 C 
ATOM     20  C   UNL     1     132.876 144.897 139.837  1.00  0.00     0.004 C 
ENDBRANCH  18  19
ENDBRANCH  17  18
ENDBRANCH  16  17
ENDBRANCH  15  16
ENDBRANCH  14  15
ENDBRANCH  13  14
ENDBRANCH   2  13
TORSDOF 15
ENDMDL
MODEL 3
REMARK VINA RESULT:    -4.205     11.489     13.895
REMARK INTER + INTRA:          -9.472
REMARK INTER:                  -6.517
REMARK INTRA:                  -2.955
REMARK UNBOUND:                -1.579
REMARK SMILES CCCCCCCCC=CCCCCCCCC(=O)[O-]
REMARK SMILES IDX 10 1 9 2 11 3 12 4 13 5 14 6 15 7 16 8 17 9 18 10 19 11
REMARK SMILES IDX 20 12 8 13 7 14 6 15 5 16 4 17 3 18 2 19 1 20
REMARK H PARENT
REMARK Flexibility Score: inf
ROOT
ATOM      1  C   UNL     1     147.907 134.592 148.419  1.00  0.00    -0.031 C 
ATOM      2  C   UNL     1     147.024 134.398 147.421  1.00  0.00    -0.031 C 
ENDROOT
BRANCH   1   3
ATOM      3  C   UNL     1     147.539 134.680 149.880  1.00  0.00     0.027 C 
BRANCH   3   4
ATOM      4  C   UNL     1     147.880 136.054 150.474  1.00  0.00     0.004 C 
BRANCH   4   5
ATOM      5  C   UNL     1     149.351 136.438 150.240  1.00  0.00     0.000 C 
BRANCH   5   6
ATOM      6  C   UNL     1     149.504 137.826 149.601  1.00  0.00     0.000 C 
BRANCH   6   7
ATOM      7  C   UNL     1     148.253 138.263 148.823  1.00  0.00     0.000 C 
BRANCH   7   8
ATOM      8  C   UNL     1     148.431 138.152 147.298  1.00  0.00     0.006 C 
BRANCH   8   9
ATOM      9  C   UNL     1     148.128 139.449 146.530  1.00  0.00     0.053 C 
BRANCH   9  10
ATOM     10  C   UNL     1     146.999 139.279 145.558  1.00  0.00     0.041 C 
ATOM     11  O   UNL     1     146.875 138.208 144.908  1.00  0.00    -0.550 OA
ATOM     12  O   UNL     1     146.062 140.294 145.396  1.00  0.00    -0.550 OA
ENDBRANCH   9  10
ENDBRANCH   8   9
ENDBRANCH   7   8
ENDBRANCH   6   7
ENDBRANCH   5   6
ENDBRANCH   4   5
ENDBRANCH   3   4
ENDBRANCH   1   3
BRANCH   2  13
ATOM     13  C   UNL     1     145.532 134.292 147.638  1.00  0.00     0.027 C 
BRANCH  13  14
ATOM     14  C   UNL     1     144.755 135.446 146.980  1.00  0.00     0.004 C 
BRANCH  14  15
ATOM     15  C   UNL     1     145.026 136.837 147.591  1.00  0.00     0.000 C 
BRANCH  15  16
ATOM     16  C   UNL     1     143.934 137.359 148.547  1.00  0.00     0.000 C 
BRANCH  16  17
ATOM     17  C   UNL     1     144.378 137.529 150.011  1.00  0.00    -0.000 C 
BRANCH  17  18
ATOM     18  C   UNL     1     144.253 136.230 150.824  1.00  0.00    -0.000 C 
BRANCH  18  19
ATOM     19  C   UNL     1     143.006 135.441 150.410  1.00  0.00    -0.003 C 
ATOM     20  C   UNL     1     143.250 133.937 150.500  1.00  0.00     0.004 C 
ENDBRANCH  18  19
ENDBRANCH  17  18
ENDBRANCH  16  17
ENDBRANCH  15  16
ENDBRANCH  14  15
ENDBRANCH  13  14
ENDBRANCH   2  13
TORSDOF 15
ENDMDL
MODEL 4
REMARK VINA RESULT:    -4.174      1.239      2.028
REMARK INTER + INTRA:          -9.414
REMARK INTER:                  -7.925
REMARK INTRA:                  -1.489
REMARK UNBOUND:                -1.579
REMARK SMILES CCCCCCCCC=CCCCCCCCC(=O)[O-]
REMARK SMILES IDX 10 1 9 2 11 3 12 4 13 5 14 6 15 7 16 8 17 9 18 10 19 11
REMARK SMILES IDX 20 12 8 13 7 14 6 15 5 16 4 17 3 18 2 19 1 20
REMARK H PARENT
REMARK Flexibility Score: inf
ROOT
ATOM      1  C   UNL     1     137.078 143.041 142.775  1.00  0.00    -0.031 C 
ATOM      2  C   UNL     1     137.886 142.018 143.115  1.00  0.00    -0.031 C 
ENDROOT
BRANCH   1   3
ATOM      3  C   UNL     1     136.764 144.214 143.669  1.00  0.00     0.027 C 
BRANCH   3   4
ATOM      4  C   UNL     1     135.397 144.832 143.343  1.00  0.00     0.004 C 
BRANCH   4   5
ATOM      5  C   UNL     1     134.842 144.335 141.997  1.00  0.00     0.000 C 
BRANCH   5   6
ATOM      6  C   UNL     1     133.582 145.097 141.561  1.00  0.00     0.000 C 
BRANCH   6   7
ATOM      7  C   UNL     1     133.849 146.077 140.407  1.00  0.00     0.000 C 
BRANCH   7   8
ATOM      8  C   UNL     1     133.390 147.512 140.725  1.00  0.00     0.006 C 
BRANCH   8   9
ATOM      9  C   UNL     1     133.433 147.873 142.219  1.00  0.00     0.053 C 
BRANCH   9  10
ATOM     10  C   UNL     1     134.762 148.436 142.626  1.00  0.00     0.041 C 
ATOM     11  O   UNL     1     135.154 148.341 143.819  1.00  0.00    -0.550 OA
ATOM     12  O   UNL     1     135.584 149.035 141.678  1.00  0.00    -0.550 OA
ENDBRANCH   9  10
ENDBRANCH   8   9
ENDBRANCH   7   8
ENDBRANCH   6   7
ENDBRANCH   5   6
ENDBRANCH   4   5
ENDBRANCH   3   4
ENDBRANCH   1   3
BRANCH   2  13
ATOM     13  C   UNL     1     138.547 141.894 144.468  1.00  0.00     0.027 C 
BRANCH  13  14
ATOM     14  C   UNL     1     140.066 142.143 144.409  1.00  0.00     0.004 C 
BRANCH  14  15
ATOM     15  C   UNL     1     140.699 142.582 145.746  1.00  0.00     0.000 C 
BRANCH  15  16
ATOM     16  C   UNL     1     140.064 143.826 146.399  1.00  0.00     0.000 C 
BRANCH  16  17
ATOM     17  C   UNL     1     139.688 143.663 147.882  1.00  0.00    -0.000 C 
BRANCH  17  18
ATOM     18  C   UNL     1     138.510 142.699 148.095  1.00  0.00    -0.000 C 
BRANCH  18  19
ATOM     19  C   UNL     1     138.980 141.394 148.748  1.00  0.00    -0.003 C 
ATOM     20  C   UNL     1     139.138 140.285 147.712  1.00  0.00     0.004 C 
ENDBRANCH  18  19
ENDBRANCH  17  18
ENDBRANCH  16  17
ENDBRANCH  15  16
ENDBRANCH  14  15
ENDBRANCH  13  14
ENDBRANCH   2  13
TORSDOF 15
ENDMDL
MODEL 5
REMARK VINA RESULT:    -4.073      2.581      8.101
REMARK INTER + INTRA:          -9.224
REMARK INTER:                  -7.230
REMARK INTRA:                  -1.994
REMARK UNBOUND:                -1.579
REMARK SMILES CCCCCCCCC=CCCCCCCCC(=O)[O-]
REMARK SMILES IDX 10 1 9 2 11 3 12 4 13 5 14 6 15 7 16 8 17 9 18 10 19 11
REMARK SMILES IDX 20 12 8 13 7 14 6 15 5 16 4 17 3 18 2 19 1 20
REMARK H PARENT
REMARK Flexibility Score: inf
ROOT
ATOM      1  C   UNL     1     135.503 144.503 143.820  1.00  0.00    -0.031 C 
ATOM      2  C   UNL     1     134.533 144.776 142.925  1.00  0.00    -0.031 C 
ENDROOT
BRANCH   1   3
ATOM      3  C   UNL     1     136.884 144.017 143.459  1.00  0.00     0.027 C 
BRANCH   3   4
ATOM      4  C   UNL     1     137.532 143.231 144.607  1.00  0.00     0.004 C 
BRANCH   4   5
ATOM      5  C   UNL     1     138.659 142.307 144.113  1.00  0.00     0.000 C 
BRANCH   5   6
ATOM      6  C   UNL     1     138.625 140.925 144.782  1.00  0.00     0.000 C 
BRANCH   6   7
ATOM      7  C   UNL     1     139.688 140.770 145.881  1.00  0.00     0.000 C 
BRANCH   7   8
ATOM      8  C   UNL     1     139.077 140.476 147.263  1.00  0.00     0.006 C 
BRANCH   8   9
ATOM      9  C   UNL     1     139.405 141.527 148.336  1.00  0.00     0.053 C 
BRANCH   9  10
ATOM     10  C   UNL     1     138.752 142.847 148.053  1.00  0.00     0.041 C 
ATOM     11  O   UNL     1     139.448 143.845 147.730  1.00  0.00    -0.550 OA
ATOM     12  O   UNL     1     137.368 142.964 148.111  1.00  0.00    -0.550 OA
ENDBRANCH   9  10
ENDBRANCH   8   9
ENDBRANCH   7   8
ENDBRANCH   6   7
ENDBRANCH   5   6
ENDBRANCH   4   5
ENDBRANCH   3   4
ENDBRANCH   1   3
BRANCH   2  13
ATOM     13  C   UNL     1     134.696 144.582 141.435  1.00  0.00     0.027 C 
BRANCH  13  14
ATOM     14  C   UNL     1     133.753 145.480 140.615  1.00  0.00     0.004 C 
BRANCH  14  15
ATOM     15  C   UNL     1     132.973 146.522 141.443  1.00  0.00     0.000 C 
BRANCH  15  16
ATOM     16  C   UNL     1     133.571 147.944 141.445  1.00  0.00     0.000 C 
BRANCH  16  17
ATOM     17  C   UNL     1     134.415 148.293 142.683  1.00  0.00    -0.000 C 
BRANCH  17  18
ATOM     18  C   UNL     1     135.817 148.808 142.321  1.00  0.00    -0.000 C 
BRANCH  18  19
ATOM     19  C   UNL     1     136.846 147.672 142.359  1.00  0.00    -0.003 C 
ATOM     20  C   UNL     1     137.233 147.230 140.950  1.00  0.00     0.004 C 
ENDBRANCH  18  19
ENDBRANCH  17  18
ENDBRANCH  16  17
ENDBRANCH  15  16
ENDBRANCH  14  15
ENDBRANCH  13  14
ENDBRANCH   2  13
TORSDOF 15
ENDMDL
MODEL 6
REMARK VINA RESULT:    -4.058      1.813      3.483
REMARK INTER + INTRA:          -9.196
REMARK INTER:                  -7.734
REMARK INTRA:                  -1.462
REMARK UNBOUND:                -1.579
REMARK SMILES CCCCCCCCC=CCCCCCCCC(=O)[O-]
REMARK SMILES IDX 10 1 9 2 11 3 12 4 13 5 14 6 15 7 16 8 17 9 18 10 19 11
REMARK SMILES IDX 20 12 8 13 7 14 6 15 5 16 4 17 3 18 2 19 1 20
REMARK H PARENT
REMARK Flexibility Score: inf
ROOT
ATOM      1  C   UNL     1     134.655 143.769 141.258  1.00  0.00    -0.031 C 
ATOM      2  C   UNL     1     135.953 143.619 141.585  1.00  0.00    -0.031 C 
ENDROOT
BRANCH   1   3
ATOM      3  C   UNL     1     133.756 144.849 141.807  1.00  0.00     0.027 C 
BRANCH   3   4
ATOM      4  C   UNL     1     133.959 146.187 141.083  1.00  0.00     0.004 C 
BRANCH   4   5
ATOM      5  C   UNL     1     133.199 147.337 141.765  1.00  0.00     0.000 C 
BRANCH   5   6
ATOM      6  C   UNL     1     134.139 148.361 142.416  1.00  0.00     0.000 C 
BRANCH   6   7
ATOM      7  C   UNL     1     135.070 147.731 143.465  1.00  0.00     0.000 C 
BRANCH   7   8
ATOM      8  C   UNL     1     136.492 148.319 143.430  1.00  0.00     0.006 C 
BRANCH   8   9
ATOM      9  C   UNL     1     137.125 148.359 142.030  1.00  0.00     0.053 C 
BRANCH   9  10
ATOM     10  C   UNL     1     138.246 149.351 141.944  1.00  0.00     0.041 C 
ATOM     11  O   UNL     1     138.809 149.581 140.841  1.00  0.00    -0.550 OA
ATOM     12  O   UNL     1     138.646 150.048 143.078  1.00  0.00    -0.550 OA
ENDBRANCH   9  10
ENDBRANCH   8   9
ENDBRANCH   7   8
ENDBRANCH   6   7
ENDBRANCH   5   6
ENDBRANCH   4   5
ENDBRANCH   3   4
ENDBRANCH   1   3
BRANCH   2  13
ATOM     13  C   UNL     1     136.665 144.494 142.591  1.00  0.00     0.027 C 
BRANCH  13  14
ATOM     14  C   UNL     1     136.922 143.773 143.927  1.00  0.00     0.004 C 
BRANCH  14  15
ATOM     15  C   UNL     1     137.982 142.653 143.860  1.00  0.00     0.000 C 
BRANCH  15  16
ATOM     16  C   UNL     1     138.318 141.984 145.208  1.00  0.00     0.000 C 
BRANCH  16  17
ATOM     17  C   UNL     1     137.716 142.673 146.445  1.00  0.00    -0.000 C 
BRANCH  17  18
ATOM     18  C   UNL     1     138.519 142.403 147.727  1.00  0.00    -0.000 C 
BRANCH  18  19
ATOM     19  C   UNL     1     139.942 142.962 147.612  1.00  0.00    -0.003 C 
ATOM     20  C   UNL     1     140.018 144.391 148.141  1.00  0.00     0.004 C 
ENDBRANCH  18  19
ENDBRANCH  17  18
ENDBRANCH  16  17
ENDBRANCH  15  16
ENDBRANCH  14  15
ENDBRANCH  13  14
ENDBRANCH   2  13
TORSDOF 15
ENDMDL
MODEL 7
REMARK VINA RESULT:    -4.046     11.006     13.270
REMARK INTER + INTRA:          -9.174
REMARK INTER:                  -6.492
REMARK INTRA:                  -2.682
REMARK UNBOUND:                -1.579
REMARK SMILES CCCCCCCCC=CCCCCCCCC(=O)[O-]
REMARK SMILES IDX 10 1 9 2 11 3 12 4 13 5 14 6 15 7 16 8 17 9 18 10 19 11
REMARK SMILES IDX 20 12 8 13 7 14 6 15 5 16 4 17 3 18 2 19 1 20
REMARK H PARENT
REMARK Flexibility Score: inf
ROOT
ATOM      1  C   UNL     1     149.000 136.008 149.306  1.00  0.00    -0.031 C 
ATOM      2  C   UNL     1     148.527 134.766 149.088  1.00  0.00    -0.031 C 
ENDROOT
BRANCH   1   3
ATOM      3  C   UNL     1     148.135 137.219 149.553  1.00  0.00     0.027 C 
BRANCH   3   4
ATOM      4  C   UNL     1     148.246 138.244 148.416  1.00  0.00     0.004 C 
BRANCH   4   5
ATOM      5  C   UNL     1     148.796 137.617 147.123  1.00  0.00     0.000 C 
BRANCH   5   6
ATOM      6  C   UNL     1     147.960 137.982 145.888  1.00  0.00     0.000 C 
BRANCH   6   7
ATOM      7  C   UNL     1     147.554 139.465 145.862  1.00  0.00     0.000 C 
BRANCH   7   8
ATOM      8  C   UNL     1     146.094 139.676 145.424  1.00  0.00     0.006 C 
BRANCH   8   9
ATOM      9  C   UNL     1     145.777 139.160 144.011  1.00  0.00     0.053 C 
BRANCH   9  10
ATOM     10  C   UNL     1     146.719 139.711 142.984  1.00  0.00     0.041 C 
ATOM     11  O   UNL     1     146.747 140.948 142.746  1.00  0.00    -0.550 OA
ATOM     12  O   UNL     1     147.591 138.862 142.312  1.00  0.00    -0.550 OA
ENDBRANCH   9  10
ENDBRANCH   8   9
ENDBRANCH   7   8
ENDBRANCH   6   7
ENDBRANCH   5   6
ENDBRANCH   4   5
ENDBRANCH   3   4
ENDBRANCH   1   3
BRANCH   2  13
ATOM     13  C   UNL     1     147.054 134.436 149.016  1.00  0.00     0.027 C 
BRANCH  13  14
ATOM     14  C   UNL     1     146.512 134.458 147.575  1.00  0.00     0.004 C 
BRANCH  14  15
ATOM     15  C   UNL     1     145.106 135.075 147.424  1.00  0.00     0.000 C 
BRANCH  15  16
ATOM     16  C   UNL     1     145.067 136.614 147.347  1.00  0.00     0.000 C 
BRANCH  16  17
ATOM     17  C   UNL     1     144.089 137.290 148.323  1.00  0.00    -0.000 C 
BRANCH  17  18
ATOM     18  C   UNL     1     144.594 137.280 149.774  1.00  0.00    -0.000 C 
BRANCH  18  19
ATOM     19  C   UNL     1     143.793 136.289 150.627  1.00  0.00    -0.003 C 
ATOM     20  C   UNL     1     144.708 135.490 151.551  1.00  0.00     0.004 C 
ENDBRANCH  18  19
ENDBRANCH  17  18
ENDBRANCH  16  17
ENDBRANCH  15  16
ENDBRANCH  14  15
ENDBRANCH  13  14
ENDBRANCH   2  13
TORSDOF 15
ENDMDL
MODEL 8
REMARK VINA RESULT:    -4.029      1.389      2.591
REMARK INTER + INTRA:          -9.142
REMARK INTER:                  -7.620
REMARK INTRA:                  -1.522
REMARK UNBOUND:                -1.579
REMARK SMILES CCCCCCCCC=CCCCCCCCC(=O)[O-]
REMARK SMILES IDX 10 1 9 2 11 3 12 4 13 5 14 6 15 7 16 8 17 9 18 10 19 11
REMARK SMILES IDX 20 12 8 13 7 14 6 15 5 16 4 17 3 18 2 19 1 20
REMARK H PARENT
REMARK Flexibility Score: inf
ROOT
ATOM      1  C   UNL     1     136.707 143.468 142.455  1.00  0.00    -0.031 C 
ATOM      2  C   UNL     1     137.378 142.388 142.898  1.00  0.00    -0.031 C 
ENDROOT
BRANCH   1   3
ATOM      3  C   UNL     1     136.637 144.787 143.183  1.00  0.00     0.027 C 
BRANCH   3   4
ATOM      4  C   UNL     1     135.189 145.198 143.485  1.00  0.00     0.004 C 
BRANCH   4   5
ATOM      5  C   UNL     1     134.337 145.299 142.208  1.00  0.00     0.000 C 
BRANCH   5   6
ATOM      6  C   UNL     1     133.747 146.701 142.002  1.00  0.00     0.000 C 
BRANCH   6   7
ATOM      7  C   UNL     1     134.530 147.792 142.751  1.00  0.00     0.000 C 
BRANCH   7   8
ATOM      8  C   UNL     1     135.382 148.664 141.812  1.00  0.00     0.006 C 
BRANCH   8   9
ATOM      9  C   UNL     1     136.793 148.115 141.544  1.00  0.00     0.053 C 
BRANCH   9  10
ATOM     10  C   UNL     1     137.862 149.096 141.918  1.00  0.00     0.041 C 
ATOM     11  O   UNL     1     138.105 149.342 143.130  1.00  0.00    -0.550 OA
ATOM     12  O   UNL     1     138.617 149.715 140.927  1.00  0.00    -0.550 OA
ENDBRANCH   9  10
ENDBRANCH   8   9
ENDBRANCH   7   8
ENDBRANCH   6   7
ENDBRANCH   5   6
ENDBRANCH   4   5
ENDBRANCH   3   4
ENDBRANCH   1   3
BRANCH   2  13
ATOM     13  C   UNL     1     138.112 142.348 144.219  1.00  0.00     0.027 C 
BRANCH  13  14
ATOM     14  C   UNL     1     138.668 140.949 144.545  1.00  0.00     0.004 C 
BRANCH  14  15
ATOM     15  C   UNL     1     140.141 140.932 145.003  1.00  0.00     0.000 C 
BRANCH  15  16
ATOM     16  C   UNL     1     140.380 140.403 146.431  1.00  0.00     0.000 C 
BRANCH  16  17
ATOM     17  C   UNL     1     139.385 140.910 147.489  1.00  0.00    -0.000 C 
BRANCH  17  18
ATOM     18  C   UNL     1     139.891 142.156 148.234  1.00  0.00    -0.000 C 
BRANCH  18  19
ATOM     19  C   UNL     1     138.977 143.360 147.974  1.00  0.00    -0.003 C 
ATOM     20  C   UNL     1     137.509 142.944 147.955  1.00  0.00     0.004 C 
ENDBRANCH  18  19
ENDBRANCH  17  18
ENDBRANCH  16  17
ENDBRANCH  15  16
ENDBRANCH  14  15
ENDBRANCH  13  14
ENDBRANCH   2  13
TORSDOF 15
ENDMDL
MODEL 9
REMARK VINA RESULT:    -3.919     10.524     13.317
REMARK INTER + INTRA:          -8.936
REMARK INTER:                  -5.829
REMARK INTRA:                  -3.106
REMARK UNBOUND:                -1.579
REMARK SMILES CCCCCCCCC=CCCCCCCCC(=O)[O-]
REMARK SMILES IDX 10 1 9 2 11 3 12 4 13 5 14 6 15 7 16 8 17 9 18 10 19 11
REMARK SMILES IDX 20 12 8 13 7 14 6 15 5 16 4 17 3 18 2 19 1 20
REMARK H PARENT
REMARK Flexibility Score: inf
ROOT
ATOM      1  C   UNL     1     146.443 134.745 147.786  1.00  0.00    -0.031 C 
ATOM      2  C   UNL     1     147.650 135.338 147.857  1.00  0.00    -0.031 C 
ENDROOT
BRANCH   1   3
ATOM      3  C   UNL     1     145.807 133.967 148.911  1.00  0.00     0.027 C 
BRANCH   3   4
ATOM      4  C   UNL     1     144.545 134.660 149.444  1.00  0.00     0.004 C 
BRANCH   4   5
ATOM      5  C   UNL     1     144.879 135.824 150.393  1.00  0.00     0.000 C 
BRANCH   5   6
ATOM      6  C   UNL     1     144.117 137.109 150.040  1.00  0.00     0.000 C 
BRANCH   6   7
ATOM      7  C   UNL     1     144.525 137.687 148.675  1.00  0.00     0.000 C 
BRANCH   7   8
ATOM      8  C   UNL     1     143.380 137.652 147.647  1.00  0.00     0.006 C 
BRANCH   8   9
ATOM      9  C   UNL     1     143.712 136.885 146.357  1.00  0.00     0.053 C 
BRANCH   9  10
ATOM     10  C   UNL     1     144.080 137.804 145.231  1.00  0.00     0.041 C 
ATOM     11  O   UNL     1     144.363 137.337 144.096  1.00  0.00    -0.550 OA
ATOM     12  O   UNL     1     144.077 139.180 145.427  1.00  0.00    -0.550 OA
ENDBRANCH   9  10
ENDBRANCH   8   9
ENDBRANCH   7   8
ENDBRANCH   6   7
ENDBRANCH   5   6
ENDBRANCH   4   5
ENDBRANCH   3   4
ENDBRANCH   1   3
BRANCH   2  13
ATOM     13  C   UNL     1     148.548 135.257 149.070  1.00  0.00     0.027 C 
BRANCH  13  14
ATOM     14  C   UNL     1     148.507 136.537 149.924  1.00  0.00     0.004 C 
BRANCH  14  15
ATOM     15  C   UNL     1     147.911 137.769 149.211  1.00  0.00     0.000 C 
BRANCH  15  16
ATOM     16  C   UNL     1     148.938 138.814 148.733  1.00  0.00     0.000 C 
BRANCH  16  17
ATOM     17  C   UNL     1     148.832 139.201 147.248  1.00  0.00    -0.000 C 
BRANCH  17  18
ATOM     18  C   UNL     1     147.512 138.743 146.607  1.00  0.00    -0.000 C 
BRANCH  18  19
ATOM     19  C   UNL     1     147.770 137.996 145.293  1.00  0.00    -0.003 C 
ATOM     20  C   UNL     1     149.193 137.447 145.241  1.00  0.00     0.004 C 
ENDBRANCH  18  19
ENDBRANCH  17  18
ENDBRANCH  16  17
ENDBRANCH  15  16
ENDBRANCH  14  15
ENDBRANCH  13  14
ENDBRANCH   2  13
TORSDOF 15
ENDMDL
