MODEL 1
REMARK VINA RESULT:    -7.988      0.000      0.000
REMARK INTER + INTRA:         -13.006
REMARK INTER:                 -11.725
REMARK INTRA:                  -1.282
REMARK UNBOUND:                -1.282
REMARK SMILES Cc1cc2c(C(C)C)c(O)c(O)c(C=O)c2c(O)c1-c1c(C)cc2c(C(C)C)c(O)c(O)c(C=O)c2c1O
REMARK SMILES IDX 1 1 2 2 3 3 4 4 16 5 13 6 11 7 9 8 5 9 17 10 19 11 20 12
REMARK SMILES IDX 37 13 21 14 36 15 23 16 22 17 24 18 33 19 25 20 31 21 29 22
REMARK SMILES IDX 38 23 34 25 35 26 26 27 27 28 28 29 32 30 30 32 18 34 6 36
REMARK SMILES IDX 7 37 8 38 14 39 15 40 10 41 12 43
REMARK H PARENT 38 24 32 31 30 33 18 35 10 42 12 44
REMARK Flexibility Score: inf
ROOT
ATOM      1  C   UNL     1      18.779  16.350   8.512  1.00  0.00     0.045 C 
ATOM      2  C   UNL     1      18.405  16.095   9.951  1.00  0.00    -0.039 A 
ATOM      3  C   UNL     1      18.149  14.787  10.367  1.00  0.00     0.013 A 
ATOM      4  C   UNL     1      17.804  14.482  11.701  1.00  0.00    -0.006 A 
ATOM      5  C   UNL     1      17.856  15.523  12.678  1.00  0.00     0.039 A 
ATOM      6  C   UNL     1      17.672  15.185  14.053  1.00  0.00     0.072 A 
ATOM      7  C   UNL     1      17.484  13.840  14.429  1.00  0.00     0.169 A 
ATOM      8  C   UNL     1      17.403  12.836  13.459  1.00  0.00     0.162 A 
ATOM      9  C   UNL     1      17.451  13.152  12.084  1.00  0.00     0.008 A 
ATOM     10  C   UNL     1      18.122  16.860  12.250  1.00  0.00     0.132 A 
ATOM     11  C   UNL     1      18.367  17.139  10.888  1.00  0.00     0.031 A 
ENDROOT
BRANCH  11  12
ATOM     12  C   UNL     1      18.596  18.540  10.447  1.00  0.00     0.031 A 
ATOM     13  C   UNL     1      17.503  19.401  10.208  1.00  0.00     0.132 A 
ATOM     14  C   UNL     1      19.910  19.013  10.297  1.00  0.00    -0.039 A 
ATOM     15  C   UNL     1      17.720  20.722   9.721  1.00  0.00     0.039 A 
ATOM     16  C   UNL     1      20.124  20.344   9.933  1.00  0.00     0.013 A 
ATOM     17  C   UNL     1      21.094  18.124  10.590  1.00  0.00     0.045 C 
ATOM     18  C   UNL     1      19.056  21.210   9.608  1.00  0.00    -0.006 A 
ATOM     19  C   UNL     1      16.642  21.593   9.395  1.00  0.00     0.072 A 
ATOM     20  C   UNL     1      19.290  22.566   9.221  1.00  0.00     0.008 A 
ATOM     21  C   UNL     1      16.878  22.963   9.206  1.00  0.00     0.169 A 
ATOM     22  C   UNL     1      18.195  23.459   9.192  1.00  0.00     0.162 A 
BRANCH  13  23
ATOM     23  O   UNL     1      16.208  18.965  10.505  1.00  0.00    -0.507 OA
ATOM     24  H   UNL     1      15.852  18.858  11.446  1.00  0.00     0.293 HD
ENDBRANCH  13  23
BRANCH  19  25
ATOM     25  C   UNL     1      15.259  21.116   9.157  1.00  0.00     0.264 C 
ATOM     26  O   UNL     1      14.362  21.289  10.025  1.00  0.00    -0.298 OA
ENDBRANCH  19  25
BRANCH  20  27
ATOM     27  C   UNL     1      20.704  23.083   8.896  1.00  0.00     0.017 C 
ATOM     28  C   UNL     1      21.199  24.043   9.982  1.00  0.00     0.012 C 
ATOM     29  C   UNL     1      20.831  23.709   7.494  1.00  0.00     0.012 C 
ENDBRANCH  20  27
BRANCH  21  30
ATOM     30  O   UNL     1      15.781  23.803   8.985  1.00  0.00    -0.504 OA
ATOM     31  H   UNL     1      15.574  24.627   9.534  1.00  0.00     0.293 HD
ENDBRANCH  21  30
BRANCH  22  32
ATOM     32  O   UNL     1      18.440  24.834   9.153  1.00  0.00    -0.504 OA
ATOM     33  H   UNL     1      18.923  25.348   9.877  1.00  0.00     0.293 HD
ENDBRANCH  22  32
ENDBRANCH  11  12
BRANCH  10  34
ATOM     34  O   UNL     1      18.149  17.911  13.174  1.00  0.00    -0.507 OA
ATOM     35  H   UNL     1      18.982  18.220  13.659  1.00  0.00     0.293 HD
ENDBRANCH  10  34
BRANCH   9  36
ATOM     36  C   UNL     1      17.134  12.064  11.041  1.00  0.00     0.017 C 
ATOM     37  C   UNL     1      18.239  11.003  11.001  1.00  0.00     0.012 C 
ATOM     38  C   UNL     1      15.746  11.423  11.217  1.00  0.00     0.012 C 
ENDBRANCH   9  36
BRANCH   6  39
ATOM     39  C   UNL     1      17.709  16.201  15.123  1.00  0.00     0.264 C 
ATOM     40  O   UNL     1      16.640  16.613  15.648  1.00  0.00    -0.298 OA
ENDBRANCH   6  39
BRANCH   8  41
ATOM     41  O   UNL     1      17.272  11.506  13.864  1.00  0.00    -0.504 OA
ATOM     42  H   UNL     1      17.091  10.747  13.218  1.00  0.00     0.293 HD
ENDBRANCH   8  41
BRANCH   7  43
ATOM     43  O   UNL     1      17.346  13.468  15.772  1.00  0.00    -0.504 OA
ATOM     44  H   UNL     1      17.673  12.590  16.152  1.00  0.00     0.293 HD
ENDBRANCH   7  43
TORSDOF 11
ENDMDL
MODEL 2
REMARK VINA RESULT:    -7.225     15.310     18.442
REMARK INTER + INTRA:         -11.886
REMARK INTER:                 -10.599
REMARK INTRA:                  -1.287
REMARK UNBOUND:                -1.282
REMARK SMILES Cc1cc2c(C(C)C)c(O)c(O)c(C=O)c2c(O)c1-c1c(C)cc2c(C(C)C)c(O)c(O)c(C=O)c2c1O
REMARK SMILES IDX 1 1 2 2 3 3 4 4 16 5 13 6 11 7 9 8 5 9 17 10 19 11 20 12
REMARK SMILES IDX 37 13 21 14 36 15 23 16 22 17 24 18 33 19 25 20 31 21 29 22
REMARK SMILES IDX 38 23 34 25 35 26 26 27 27 28 28 29 32 30 30 32 18 34 6 36
REMARK SMILES IDX 7 37 8 38 14 39 15 40 10 41 12 43
REMARK H PARENT 38 24 32 31 30 33 18 35 10 42 12 44
REMARK Flexibility Score: inf
ROOT
ATOM      1  C   UNL     1       2.630  12.297  21.348  1.00  0.00     0.045 C 
ATOM      2  C   UNL     1       3.647  11.547  22.174  1.00  0.00    -0.039 A 
ATOM      3  C   UNL     1       3.418  10.204  22.481  1.00  0.00     0.013 A 
ATOM      4  C   UNL     1       4.334   9.447  23.240  1.00  0.00    -0.006 A 
ATOM      5  C   UNL     1       5.592  10.032  23.582  1.00  0.00     0.039 A 
ATOM      6  C   UNL     1       6.584   9.215  24.202  1.00  0.00     0.072 A 
ATOM      7  C   UNL     1       6.330   7.847  24.430  1.00  0.00     0.169 A 
ATOM      8  C   UNL     1       5.083   7.296  24.121  1.00  0.00     0.162 A 
ATOM      9  C   UNL     1       4.036   8.104  23.626  1.00  0.00     0.008 A 
ATOM     10  C   UNL     1       5.825  11.405  23.262  1.00  0.00     0.132 A 
ATOM     11  C   UNL     1       4.841  12.158  22.586  1.00  0.00     0.031 A 
ENDROOT
BRANCH  11  12
ATOM     12  C   UNL     1       5.075  13.598  22.300  1.00  0.00     0.031 A 
ATOM     13  C   UNL     1       4.717  14.581  23.247  1.00  0.00     0.132 A 
ATOM     14  C   UNL     1       5.682  13.974  21.090  1.00  0.00    -0.039 A 
ATOM     15  C   UNL     1       4.879  15.964  22.946  1.00  0.00     0.039 A 
ATOM     16  C   UNL     1       5.949  15.323  20.846  1.00  0.00     0.013 A 
ATOM     17  C   UNL     1       6.115  12.938  20.082  1.00  0.00     0.045 C 
ATOM     18  C   UNL     1       5.533  16.340  21.735  1.00  0.00    -0.006 A 
ATOM     19  C   UNL     1       4.459  16.986  23.844  1.00  0.00     0.072 A 
ATOM     20  C   UNL     1       5.797  17.718  21.464  1.00  0.00     0.008 A 
ATOM     21  C   UNL     1       4.893  18.307  23.657  1.00  0.00     0.169 A 
ATOM     22  C   UNL     1       5.623  18.656  22.506  1.00  0.00     0.162 A 
BRANCH  13  23
ATOM     23  O   UNL     1       4.252  14.185  24.505  1.00  0.00    -0.507 OA
ATOM     24  H   UNL     1       3.392  14.520  24.918  1.00  0.00     0.293 HD
ENDBRANCH  13  23
BRANCH  19  25
ATOM     25  C   UNL     1       3.499  16.750  24.948  1.00  0.00     0.264 C 
ATOM     26  O   UNL     1       3.907  16.562  26.125  1.00  0.00    -0.298 OA
ENDBRANCH  19  25
BRANCH  20  27
ATOM     27  C   UNL     1       6.317  18.189  20.093  1.00  0.00     0.017 C 
ATOM     28  C   UNL     1       7.785  18.616  20.182  1.00  0.00     0.012 C 
ATOM     29  C   UNL     1       5.453  19.284  19.442  1.00  0.00     0.012 C 
ENDBRANCH  20  27
BRANCH  21  30
ATOM     30  O   UNL     1       4.541  19.265  24.615  1.00  0.00    -0.504 OA
ATOM     31  H   UNL     1       3.607  19.634  24.737  1.00  0.00     0.293 HD
ENDBRANCH  21  30
BRANCH  22  32
ATOM     32  O   UNL     1       6.189  19.928  22.378  1.00  0.00    -0.504 OA
ATOM     33  H   UNL     1       5.804  20.668  21.809  1.00  0.00     0.293 HD
ENDBRANCH  22  32
ENDBRANCH  11  12
BRANCH  10  34
ATOM     34  O   UNL     1       7.032  12.021  23.609  1.00  0.00    -0.507 OA
ATOM     35  H   UNL     1       7.105  12.958  23.985  1.00  0.00     0.293 HD
ENDBRANCH  10  34
BRANCH   9  36
ATOM     36  C   UNL     1       2.615   7.522  23.509  1.00  0.00     0.017 C 
ATOM     37  C   UNL     1       2.629   6.187  22.757  1.00  0.00     0.012 C 
ATOM     38  C   UNL     1       1.883   7.400  24.858  1.00  0.00     0.012 C 
ENDBRANCH   9  36
BRANCH   6  39
ATOM     39  C   UNL     1       7.908   9.743  24.587  1.00  0.00     0.264 C 
ATOM     40  O   UNL     1       8.920   9.508  23.874  1.00  0.00    -0.298 OA
ENDBRANCH   6  39
BRANCH   8  41
ATOM     41  O   UNL     1       4.878   5.927  24.306  1.00  0.00    -0.504 OA
ATOM     42  H   UNL     1       3.960   5.499  24.293  1.00  0.00     0.293 HD
ENDBRANCH   8  41
BRANCH   7  43
ATOM     43  O   UNL     1       7.298   7.007  24.994  1.00  0.00    -0.504 OA
ATOM     44  H   UNL     1       7.796   7.212  25.850  1.00  0.00     0.293 HD
ENDBRANCH   7  43
TORSDOF 11
ENDMDL
MODEL 3
REMARK VINA RESULT:    -7.148     15.098     20.240
REMARK INTER + INTRA:         -11.772
REMARK INTER:                 -10.354
REMARK INTRA:                  -1.418
REMARK UNBOUND:                -1.282
REMARK SMILES Cc1cc2c(C(C)C)c(O)c(O)c(C=O)c2c(O)c1-c1c(C)cc2c(C(C)C)c(O)c(O)c(C=O)c2c1O
REMARK SMILES IDX 1 1 2 2 3 3 4 4 16 5 13 6 11 7 9 8 5 9 17 10 19 11 20 12
REMARK SMILES IDX 37 13 21 14 36 15 23 16 22 17 24 18 33 19 25 20 31 21 29 22
REMARK SMILES IDX 38 23 34 25 35 26 26 27 27 28 28 29 32 30 30 32 18 34 6 36
REMARK SMILES IDX 7 37 8 38 14 39 15 40 10 41 12 43
REMARK H PARENT 38 24 32 31 30 33 18 35 10 42 12 44
REMARK Flexibility Score: inf
ROOT
ATOM      1  C   UNL     1       6.032  12.912  19.985  1.00  0.00     0.045 C 
ATOM      2  C   UNL     1       5.833  13.943  21.069  1.00  0.00    -0.039 A 
ATOM      3  C   UNL     1       6.128  15.280  20.800  1.00  0.00     0.013 A 
ATOM      4  C   UNL     1       5.955  16.291  21.769  1.00  0.00    -0.006 A 
ATOM      5  C   UNL     1       5.329  15.955  23.008  1.00  0.00     0.039 A 
ATOM      6  C   UNL     1       5.001  17.003  23.920  1.00  0.00     0.072 A 
ATOM      7  C   UNL     1       5.257  18.345  23.573  1.00  0.00     0.169 A 
ATOM      8  C   UNL     1       5.900  18.657  22.371  1.00  0.00     0.162 A 
ATOM      9  C   UNL     1       6.354  17.638  21.506  1.00  0.00     0.008 A 
ATOM     10  C   UNL     1       5.025  14.585  23.279  1.00  0.00     0.132 A 
ATOM     11  C   UNL     1       5.304  13.588  22.319  1.00  0.00     0.031 A 
ENDROOT
BRANCH  11  12
ATOM     12  C   UNL     1       5.027  12.161  22.630  1.00  0.00     0.031 A 
ATOM     13  C   UNL     1       6.042  11.335  23.159  1.00  0.00     0.132 A 
ATOM     14  C   UNL     1       3.738  11.644  22.421  1.00  0.00    -0.039 A 
ATOM     15  C   UNL     1       5.796   9.952  23.394  1.00  0.00     0.039 A 
ATOM     16  C   UNL     1       3.465  10.317  22.762  1.00  0.00     0.013 A 
ATOM     17  C   UNL     1       2.625  12.519  21.899  1.00  0.00     0.045 C 
ATOM     18  C   UNL     1       4.475   9.441  23.218  1.00  0.00    -0.006 A 
ATOM     19  C   UNL     1       6.816   9.071  23.854  1.00  0.00     0.072 A 
ATOM     20  C   UNL     1       4.186   8.080  23.547  1.00  0.00     0.008 A 
ATOM     21  C   UNL     1       6.478   7.804  24.352  1.00  0.00     0.169 A 
ATOM     22  C   UNL     1       5.152   7.340  24.265  1.00  0.00     0.162 A 
BRANCH  13  23
ATOM     23  O   UNL     1       7.275  11.898  23.502  1.00  0.00    -0.507 OA
ATOM     24  H   UNL     1       8.088  11.356  23.766  1.00  0.00     0.293 HD
ENDBRANCH  13  23
BRANCH  19  25
ATOM     25  C   UNL     1       8.261   9.387  23.762  1.00  0.00     0.264 C 
ATOM     26  O   UNL     1       8.934   9.625  24.800  1.00  0.00    -0.298 OA
ENDBRANCH  19  25
BRANCH  20  27
ATOM     27  C   UNL     1       2.836   7.431  23.193  1.00  0.00     0.017 C 
ATOM     28  C   UNL     1       1.886   7.452  24.394  1.00  0.00     0.012 C 
ATOM     29  C   UNL     1       2.963   6.014  22.604  1.00  0.00     0.012 C 
ENDBRANCH  20  27
BRANCH  21  30
ATOM     30  O   UNL     1       7.495   7.005  24.886  1.00  0.00    -0.504 OA
ATOM     31  H   UNL     1       7.339   6.137  25.381  1.00  0.00     0.293 HD
ENDBRANCH  21  30
BRANCH  22  32
ATOM     32  O   UNL     1       4.771   6.148  24.887  1.00  0.00    -0.504 OA
ATOM     33  H   UNL     1       5.308   5.293  24.860  1.00  0.00     0.293 HD
ENDBRANCH  22  32
ENDBRANCH  11  12
BRANCH  10  34
ATOM     34  O   UNL     1       4.441  14.213  24.495  1.00  0.00    -0.507 OA
ATOM     35  H   UNL     1       4.816  13.503  25.111  1.00  0.00     0.293 HD
ENDBRANCH  10  34
BRANCH   9  36
ATOM     36  C   UNL     1       7.252  18.000  20.309  1.00  0.00     0.017 C 
ATOM     37  C   UNL     1       6.461  18.759  19.238  1.00  0.00     0.012 C 
ATOM     38  C   UNL     1       8.534  18.755  20.702  1.00  0.00     0.012 C 
ENDBRANCH   9  36
BRANCH   6  39
ATOM     39  C   UNL     1       4.356  16.739  25.221  1.00  0.00     0.264 C 
ATOM     40  O   UNL     1       3.122  16.946  25.374  1.00  0.00    -0.298 OA
ENDBRANCH   6  39
BRANCH   8  41
ATOM     41  O   UNL     1       6.090  19.997  22.028  1.00  0.00    -0.504 OA
ATOM     42  H   UNL     1       5.464  20.737  22.322  1.00  0.00     0.293 HD
ENDBRANCH   8  41
BRANCH   7  43
ATOM     43  O   UNL     1       4.906  19.401  24.423  1.00  0.00    -0.504 OA
ATOM     44  H   UNL     1       5.244  20.348  24.319  1.00  0.00     0.293 HD
ENDBRANCH   7  43
TORSDOF 11
ENDMDL
MODEL 4
REMARK VINA RESULT:    -7.096      3.599      5.853
REMARK INTER + INTRA:         -11.697
REMARK INTER:                 -10.480
REMARK INTRA:                  -1.217
REMARK UNBOUND:                -1.282
REMARK SMILES Cc1cc2c(C(C)C)c(O)c(O)c(C=O)c2c(O)c1-c1c(C)cc2c(C(C)C)c(O)c(O)c(C=O)c2c1O
REMARK SMILES IDX 1 1 2 2 3 3 4 4 16 5 13 6 11 7 9 8 5 9 17 10 19 11 20 12
REMARK SMILES IDX 37 13 21 14 36 15 23 16 22 17 24 18 33 19 25 20 31 21 29 22
REMARK SMILES IDX 38 23 34 25 35 26 26 27 27 28 28 29 32 30 30 32 18 34 6 36
REMARK SMILES IDX 7 37 8 38 14 39 15 40 10 41 12 43
REMARK H PARENT 38 24 32 31 30 33 18 35 10 42 12 44
REMARK Flexibility Score: inf
ROOT
ATOM      1  C   UNL     1      13.858  17.006  12.803  1.00  0.00     0.045 C 
ATOM      2  C   UNL     1      14.507  17.208  14.150  1.00  0.00    -0.039 A 
ATOM      3  C   UNL     1      13.848  16.764  15.298  1.00  0.00     0.013 A 
ATOM      4  C   UNL     1      14.407  16.916  16.585  1.00  0.00    -0.006 A 
ATOM      5  C   UNL     1      15.743  17.409  16.699  1.00  0.00     0.039 A 
ATOM      6  C   UNL     1      16.370  17.405  17.981  1.00  0.00     0.072 A 
ATOM      7  C   UNL     1      15.686  16.883  19.099  1.00  0.00     0.169 A 
ATOM      8  C   UNL     1      14.367  16.436  18.978  1.00  0.00     0.162 A 
ATOM      9  C   UNL     1      13.674  16.545  17.753  1.00  0.00     0.008 A 
ATOM     10  C   UNL     1      16.417  17.857  15.521  1.00  0.00     0.132 A 
ATOM     11  C   UNL     1      15.784  17.779  14.262  1.00  0.00     0.031 A 
ENDROOT
BRANCH  11  12
ATOM     12  C   UNL     1      16.476  18.291  13.051  1.00  0.00     0.031 A 
ATOM     13  C   UNL     1      17.284  17.434  12.273  1.00  0.00     0.132 A 
ATOM     14  C   UNL     1      16.298  19.631  12.666  1.00  0.00    -0.039 A 
ATOM     15  C   UNL     1      18.000  17.941  11.151  1.00  0.00     0.039 A 
ATOM     16  C   UNL     1      16.906  20.097  11.498  1.00  0.00     0.013 A 
ATOM     17  C   UNL     1      15.403  20.554  13.456  1.00  0.00     0.045 C 
ATOM     18  C   UNL     1      17.785  19.291  10.741  1.00  0.00    -0.006 A 
ATOM     19  C   UNL     1      18.884  17.125  10.388  1.00  0.00     0.072 A 
ATOM     20  C   UNL     1      18.414  19.786   9.557  1.00  0.00     0.008 A 
ATOM     21  C   UNL     1      19.337  17.563   9.135  1.00  0.00     0.169 A 
ATOM     22  C   UNL     1      19.041  18.864   8.689  1.00  0.00     0.162 A 
BRANCH  13  23
ATOM     23  O   UNL     1      17.332  16.071  12.581  1.00  0.00    -0.507 OA
ATOM     24  H   UNL     1      16.800  15.364  12.090  1.00  0.00     0.293 HD
ENDBRANCH  13  23
BRANCH  19  25
ATOM     25  C   UNL     1      19.435  15.843  10.886  1.00  0.00     0.264 C 
ATOM     26  O   UNL     1      19.012  14.745  10.437  1.00  0.00    -0.298 OA
ENDBRANCH  19  25
BRANCH  20  27
ATOM     27  C   UNL     1      18.373  21.279   9.182  1.00  0.00     0.017 C 
ATOM     28  C   UNL     1      19.470  22.058   9.914  1.00  0.00     0.012 C 
ATOM     29  C   UNL     1      16.993  21.933   9.382  1.00  0.00     0.012 C 
ENDBRANCH  20  27
BRANCH  21  30
ATOM     30  O   UNL     1      20.124  16.693   8.371  1.00  0.00    -0.504 OA
ATOM     31  H   UNL     1      19.871  15.739   8.149  1.00  0.00     0.293 HD
ENDBRANCH  21  30
BRANCH  22  32
ATOM     32  O   UNL     1      19.356  19.262   7.387  1.00  0.00    -0.504 OA
ATOM     33  H   UNL     1      19.202  20.191   7.022  1.00  0.00     0.293 HD
ENDBRANCH  22  32
ENDBRANCH  11  12
BRANCH  10  34
ATOM     34  O   UNL     1      17.715  18.375  15.599  1.00  0.00    -0.507 OA
ATOM     35  H   UNL     1      18.098  19.048  14.948  1.00  0.00     0.293 HD
ENDBRANCH  10  34
BRANCH   9  36
ATOM     36  C   UNL     1      12.162  16.257  17.706  1.00  0.00     0.017 C 
ATOM     37  C   UNL     1      11.871  14.792  18.048  1.00  0.00     0.012 C 
ATOM     38  C   UNL     1      11.322  17.213  18.571  1.00  0.00     0.012 C 
ENDBRANCH   9  36
BRANCH   6  39
ATOM     39  C   UNL     1      17.746  17.897  18.184  1.00  0.00     0.264 C 
ATOM     40  O   UNL     1      17.948  19.055  18.639  1.00  0.00    -0.298 OA
ENDBRANCH   6  39
BRANCH   8  41
ATOM     41  O   UNL     1      13.734  15.874  20.089  1.00  0.00    -0.504 OA
ATOM     42  H   UNL     1      12.777  16.083  20.345  1.00  0.00     0.293 HD
ENDBRANCH   8  41
BRANCH   7  43
ATOM     43  O   UNL     1      16.288  16.822  20.362  1.00  0.00    -0.504 OA
ATOM     44  H   UNL     1      17.237  17.115  20.551  1.00  0.00     0.293 HD
ENDBRANCH   7  43
TORSDOF 11
ENDMDL
MODEL 5
REMARK VINA RESULT:    -7.080      8.518     11.047
REMARK INTER + INTRA:         -11.674
REMARK INTER:                 -10.286
REMARK INTRA:                  -1.388
REMARK UNBOUND:                -1.282
REMARK SMILES Cc1cc2c(C(C)C)c(O)c(O)c(C=O)c2c(O)c1-c1c(C)cc2c(C(C)C)c(O)c(O)c(C=O)c2c1O
REMARK SMILES IDX 1 1 2 2 3 3 4 4 16 5 13 6 11 7 9 8 5 9 17 10 19 11 20 12
REMARK SMILES IDX 37 13 21 14 36 15 23 16 22 17 24 18 33 19 25 20 31 21 29 22
REMARK SMILES IDX 38 23 34 25 35 26 26 27 27 28 28 29 32 30 30 32 18 34 6 36
REMARK SMILES IDX 7 37 8 38 14 39 15 40 10 41 12 43
REMARK H PARENT 38 24 32 31 30 33 18 35 10 42 12 44
REMARK Flexibility Score: inf
ROOT
ATOM      1  C   UNL     1      11.412  13.737  18.264  1.00  0.00     0.045 C 
ATOM      2  C   UNL     1      10.627  14.734  19.081  1.00  0.00    -0.039 A 
ATOM      3  C   UNL     1       9.591  14.280  19.899  1.00  0.00     0.013 A 
ATOM      4  C   UNL     1       8.827  15.161  20.693  1.00  0.00    -0.006 A 
ATOM      5  C   UNL     1       9.218  16.533  20.766  1.00  0.00     0.039 A 
ATOM      6  C   UNL     1       8.553  17.388  21.696  1.00  0.00     0.072 A 
ATOM      7  C   UNL     1       7.559  16.866  22.548  1.00  0.00     0.169 A 
ATOM      8  C   UNL     1       7.164  15.529  22.442  1.00  0.00     0.162 A 
ATOM      9  C   UNL     1       7.709  14.689  21.447  1.00  0.00     0.008 A 
ATOM     10  C   UNL     1      10.282  16.994  19.931  1.00  0.00     0.132 A 
ATOM     11  C   UNL     1      10.959  16.098  19.076  1.00  0.00     0.031 A 
ENDROOT
BRANCH  11  12
ATOM     12  C   UNL     1      12.032  16.597  18.178  1.00  0.00     0.031 A 
ATOM     13  C   UNL     1      11.711  17.144  16.917  1.00  0.00     0.132 A 
ATOM     14  C   UNL     1      13.371  16.549  18.603  1.00  0.00    -0.039 A 
ATOM     15  C   UNL     1      12.744  17.561  16.028  1.00  0.00     0.039 A 
ATOM     16  C   UNL     1      14.373  17.066  17.780  1.00  0.00     0.013 A 
ATOM     17  C   UNL     1      13.734  16.010  19.965  1.00  0.00     0.045 C 
ATOM     18  C   UNL     1      14.097  17.547  16.480  1.00  0.00    -0.006 A 
ATOM     19  C   UNL     1      12.463  18.045  14.719  1.00  0.00     0.072 A 
ATOM     20  C   UNL     1      15.136  18.058  15.641  1.00  0.00     0.008 A 
ATOM     21  C   UNL     1      13.457  18.715  13.990  1.00  0.00     0.169 A 
ATOM     22  C   UNL     1      14.772  18.784  14.484  1.00  0.00     0.162 A 
BRANCH  13  23
ATOM     23  O   UNL     1      10.369  17.323  16.568  1.00  0.00    -0.507 OA
ATOM     24  H   UNL     1       9.678  17.732  17.184  1.00  0.00     0.293 HD
ENDBRANCH  13  23
BRANCH  19  25
ATOM     25  C   UNL     1      11.175  17.807  14.026  1.00  0.00     0.264 C 
ATOM     26  O   UNL     1      10.304  18.715  13.962  1.00  0.00    -0.298 OA
ENDBRANCH  19  25
BRANCH  20  27
ATOM     27  C   UNL     1      16.623  17.886  15.998  1.00  0.00     0.017 C 
ATOM     28  C   UNL     1      17.226  19.208  16.483  1.00  0.00     0.012 C 
ATOM     29  C   UNL     1      17.467  17.267  14.869  1.00  0.00     0.012 C 
ENDBRANCH  20  27
BRANCH  21  30
ATOM     30  O   UNL     1      13.116  19.263  12.748  1.00  0.00    -0.504 OA
ATOM     31  H   UNL     1      13.488  20.131  12.386  1.00  0.00     0.293 HD
ENDBRANCH  21  30
BRANCH  22  32
ATOM     32  O   UNL     1      15.735  19.572  13.846  1.00  0.00    -0.504 OA
ATOM     33  H   UNL     1      15.530  20.415  13.329  1.00  0.00     0.293 HD
ENDBRANCH  22  32
ENDBRANCH  11  12
BRANCH  10  34
ATOM     34  O   UNL     1      10.672  18.338  19.953  1.00  0.00    -0.507 OA
ATOM     35  H   UNL     1      11.583  18.670  19.665  1.00  0.00     0.293 HD
ENDBRANCH  10  34
BRANCH   9  36
ATOM     36  C   UNL     1       7.097  13.297  21.207  1.00  0.00     0.017 C 
ATOM     37  C   UNL     1       7.398  12.355  22.377  1.00  0.00     0.012 C 
ATOM     38  C   UNL     1       5.592  13.329  20.884  1.00  0.00     0.012 C 
ENDBRANCH   9  36
BRANCH   6  39
ATOM     39  C   UNL     1       8.897  18.817  21.833  1.00  0.00     0.264 C 
ATOM     40  O   UNL     1       8.154  19.702  21.329  1.00  0.00    -0.298 OA
ENDBRANCH   6  39
BRANCH   8  41
ATOM     41  O   UNL     1       6.217  15.025  23.336  1.00  0.00    -0.504 OA
ATOM     42  H   UNL     1       5.660  15.616  23.943  1.00  0.00     0.293 HD
ENDBRANCH   8  41
BRANCH   7  43
ATOM     43  O   UNL     1       6.919  17.666  23.503  1.00  0.00    -0.504 OA
ATOM     44  H   UNL     1       7.373  18.036  24.327  1.00  0.00     0.293 HD
ENDBRANCH   7  43
TORSDOF 11
ENDMDL
MODEL 6
REMARK VINA RESULT:    -7.038      2.682      4.782
REMARK INTER + INTRA:         -11.612
REMARK INTER:                 -10.565
REMARK INTRA:                  -1.047
REMARK UNBOUND:                -1.282
REMARK SMILES Cc1cc2c(C(C)C)c(O)c(O)c(C=O)c2c(O)c1-c1c(C)cc2c(C(C)C)c(O)c(O)c(C=O)c2c1O
REMARK SMILES IDX 1 1 2 2 3 3 4 4 16 5 13 6 11 7 9 8 5 9 17 10 19 11 20 12
REMARK SMILES IDX 37 13 21 14 36 15 23 16 22 17 24 18 33 19 25 20 31 21 29 22
REMARK SMILES IDX 38 23 34 25 35 26 26 27 27 28 28 29 32 30 30 32 18 34 6 36
REMARK SMILES IDX 7 37 8 38 14 39 15 40 10 41 12 43
REMARK H PARENT 38 24 32 31 30 33 18 35 10 42 12 44
REMARK Flexibility Score: inf
ROOT
ATOM      1  C   UNL     1      14.684  14.802  11.589  1.00  0.00     0.045 C 
ATOM      2  C   UNL     1      16.059  14.185  11.509  1.00  0.00    -0.039 A 
ATOM      3  C   UNL     1      16.178  12.799  11.391  1.00  0.00     0.013 A 
ATOM      4  C   UNL     1      17.435  12.164  11.303  1.00  0.00    -0.006 A 
ATOM      5  C   UNL     1      18.607  12.973  11.191  1.00  0.00     0.039 A 
ATOM      6  C   UNL     1      19.859  12.337  10.934  1.00  0.00     0.072 A 
ATOM      7  C   UNL     1      19.917  10.940  10.755  1.00  0.00     0.169 A 
ATOM      8  C   UNL     1      18.767  10.158  10.900  1.00  0.00     0.162 A 
ATOM      9  C   UNL     1      17.538  10.739  11.281  1.00  0.00     0.008 A 
ATOM     10  C   UNL     1      18.481  14.391  11.308  1.00  0.00     0.132 A 
ATOM     11  C   UNL     1      17.213  14.983  11.494  1.00  0.00     0.031 A 
ENDROOT
BRANCH  11  12
ATOM     12  C   UNL     1      17.099  16.456  11.662  1.00  0.00     0.031 A 
ATOM     13  C   UNL     1      16.997  17.022  12.951  1.00  0.00     0.132 A 
ATOM     14  C   UNL     1      17.123  17.286  10.529  1.00  0.00    -0.039 A 
ATOM     15  C   UNL     1      16.821  18.426  13.109  1.00  0.00     0.039 A 
ATOM     16  C   UNL     1      17.069  18.672  10.691  1.00  0.00     0.013 A 
ATOM     17  C   UNL     1      17.277  16.707   9.144  1.00  0.00     0.045 C 
ATOM     18  C   UNL     1      16.885  19.269  11.959  1.00  0.00    -0.006 A 
ATOM     19  C   UNL     1      16.636  19.024  14.388  1.00  0.00     0.072 A 
ATOM     20  C   UNL     1      16.814  20.688  12.109  1.00  0.00     0.008 A 
ATOM     21  C   UNL     1      16.762  20.414  14.537  1.00  0.00     0.169 A 
ATOM     22  C   UNL     1      16.923  21.236  13.407  1.00  0.00     0.162 A 
BRANCH  13  23
ATOM     23  O   UNL     1      17.125  16.198  14.074  1.00  0.00    -0.507 OA
ATOM     24  H   UNL     1      17.306  15.204  14.025  1.00  0.00     0.293 HD
ENDBRANCH  13  23
BRANCH  19  25
ATOM     25  C   UNL     1      16.230  18.259  15.590  1.00  0.00     0.264 C 
ATOM     26  O   UNL     1      17.066  17.993  16.494  1.00  0.00    -0.298 OA
ENDBRANCH  19  25
BRANCH  20  27
ATOM     27  C   UNL     1      16.682  21.625  10.895  1.00  0.00     0.017 C 
ATOM     28  C   UNL     1      15.491  21.224  10.019  1.00  0.00     0.012 C 
ATOM     29  C   UNL     1      17.972  21.751  10.063  1.00  0.00     0.012 C 
ENDBRANCH  20  27
BRANCH  21  30
ATOM     30  O   UNL     1      16.672  20.956  15.825  1.00  0.00    -0.504 OA
ATOM     31  H   UNL     1      16.869  21.921  16.053  1.00  0.00     0.293 HD
ENDBRANCH  21  30
BRANCH  22  32
ATOM     32  O   UNL     1      17.197  22.599  13.549  1.00  0.00    -0.504 OA
ATOM     33  H   UNL     1      18.094  22.975  13.822  1.00  0.00     0.293 HD
ENDBRANCH  22  32
ENDBRANCH  11  12
BRANCH  10  34
ATOM     34  O   UNL     1      19.611  15.214  11.236  1.00  0.00    -0.507 OA
ATOM     35  H   UNL     1      20.502  14.922  10.857  1.00  0.00     0.293 HD
ENDBRANCH  10  34
BRANCH   9  36
ATOM     36  C   UNL     1      16.350   9.832  11.652  1.00  0.00     0.017 C 
ATOM     37  C   UNL     1      16.056   9.900  13.154  1.00  0.00     0.012 C 
ATOM     38  C   UNL     1      15.084  10.099  10.818  1.00  0.00     0.012 C 
ENDBRANCH   9  36
BRANCH   6  39
ATOM     39  C   UNL     1      21.116  13.101  10.806  1.00  0.00     0.264 C 
ATOM     40  O   UNL     1      21.948  12.812   9.905  1.00  0.00    -0.298 OA
ENDBRANCH   6  39
BRANCH   8  41
ATOM     41  O   UNL     1      18.843   8.784  10.662  1.00  0.00    -0.504 OA
ATOM     42  H   UNL     1      18.035   8.173  10.682  1.00  0.00     0.293 HD
ENDBRANCH   8  41
BRANCH   7  43
ATOM     43  O   UNL     1      21.120  10.290  10.456  1.00  0.00    -0.504 OA
ATOM     44  H   UNL     1      21.179   9.395   9.988  1.00  0.00     0.293 HD
ENDBRANCH   7  43
TORSDOF 11
ENDMDL
MODEL 7
REMARK VINA RESULT:    -6.992      8.491     13.166
REMARK INTER + INTRA:         -11.544
REMARK INTER:                 -10.120
REMARK INTRA:                  -1.424
REMARK UNBOUND:                -1.282
REMARK SMILES Cc1cc2c(C(C)C)c(O)c(O)c(C=O)c2c(O)c1-c1c(C)cc2c(C(C)C)c(O)c(O)c(C=O)c2c1O
REMARK SMILES IDX 1 1 2 2 3 3 4 4 16 5 13 6 11 7 9 8 5 9 17 10 19 11 20 12
REMARK SMILES IDX 37 13 21 14 36 15 23 16 22 17 24 18 33 19 25 20 31 21 29 22
REMARK SMILES IDX 38 23 34 25 35 26 26 27 27 28 28 29 32 30 30 32 18 34 6 36
REMARK SMILES IDX 7 37 8 38 14 39 15 40 10 41 12 43
REMARK H PARENT 38 24 32 31 30 33 18 35 10 42 12 44
REMARK Flexibility Score: inf
ROOT
ATOM      1  C   UNL     1      13.761  15.949  19.894  1.00  0.00     0.045 C 
ATOM      2  C   UNL     1      13.380  16.622  18.599  1.00  0.00    -0.039 A 
ATOM      3  C   UNL     1      14.381  17.172  17.796  1.00  0.00     0.013 A 
ATOM      4  C   UNL     1      14.089  17.806  16.570  1.00  0.00    -0.006 A 
ATOM      5  C   UNL     1      12.750  17.759  16.074  1.00  0.00     0.039 A 
ATOM      6  C   UNL     1      12.486  18.251  14.760  1.00  0.00     0.072 A 
ATOM      7  C   UNL     1      13.543  18.734  13.962  1.00  0.00     0.169 A 
ATOM      8  C   UNL     1      14.843  18.805  14.473  1.00  0.00     0.162 A 
ATOM      9  C   UNL     1      15.116  18.448  15.811  1.00  0.00     0.008 A 
ATOM     10  C   UNL     1      11.729  17.191  16.896  1.00  0.00     0.132 A 
ATOM     11  C   UNL     1      12.046  16.653  18.162  1.00  0.00     0.031 A 
ENDROOT
BRANCH  11  12
ATOM     12  C   UNL     1      10.969  16.108  19.029  1.00  0.00     0.031 A 
ATOM     13  C   UNL     1      10.286  16.950  19.933  1.00  0.00     0.132 A 
ATOM     14  C   UNL     1      10.613  14.754  18.922  1.00  0.00    -0.039 A 
ATOM     15  C   UNL     1       9.300  16.415  20.810  1.00  0.00     0.039 A 
ATOM     16  C   UNL     1       9.565  14.255  19.699  1.00  0.00     0.013 A 
ATOM     17  C   UNL     1      11.298  13.846  17.931  1.00  0.00     0.045 C 
ATOM     18  C   UNL     1       8.914  15.048  20.671  1.00  0.00    -0.006 A 
ATOM     19  C   UNL     1       8.645  17.216  21.788  1.00  0.00     0.072 A 
ATOM     20  C   UNL     1       7.854  14.520  21.472  1.00  0.00     0.008 A 
ATOM     21  C   UNL     1       7.488  16.742  22.424  1.00  0.00     0.169 A 
ATOM     22  C   UNL     1       7.053  15.421  22.210  1.00  0.00     0.162 A 
BRANCH  13  23
ATOM     23  O   UNL     1      10.546  18.324  19.922  1.00  0.00    -0.507 OA
ATOM     24  H   UNL     1       9.992  18.998  19.411  1.00  0.00     0.293 HD
ENDBRANCH  13  23
BRANCH  19  25
ATOM     25  C   UNL     1       9.169  18.524  22.248  1.00  0.00     0.264 C 
ATOM     26  O   UNL     1       8.749  19.598  21.742  1.00  0.00    -0.298 OA
ENDBRANCH  19  25
BRANCH  20  27
ATOM     27  C   UNL     1       7.533  13.015  21.501  1.00  0.00     0.017 C 
ATOM     28  C   UNL     1       6.308  12.699  20.639  1.00  0.00     0.012 C 
ATOM     29  C   UNL     1       7.383  12.437  22.921  1.00  0.00     0.012 C 
ENDBRANCH  20  27
BRANCH  21  30
ATOM     30  O   UNL     1       6.816  17.596  23.307  1.00  0.00    -0.504 OA
ATOM     31  H   UNL     1       7.274  18.209  23.967  1.00  0.00     0.293 HD
ENDBRANCH  21  30
BRANCH  22  32
ATOM     32  O   UNL     1       5.827  14.982  22.716  1.00  0.00    -0.504 OA
ATOM     33  H   UNL     1       5.662  14.741  23.684  1.00  0.00     0.293 HD
ENDBRANCH  22  32
ENDBRANCH  11  12
BRANCH  10  34
ATOM     34  O   UNL     1      10.400  17.156  16.457  1.00  0.00    -0.507 OA
ATOM     35  H   UNL     1       9.890  16.306  16.259  1.00  0.00     0.293 HD
ENDBRANCH  10  34
BRANCH   9  36
ATOM     36  C   UNL     1      16.502  18.748  16.411  1.00  0.00     0.017 C 
ATOM     37  C   UNL     1      17.555  17.772  15.876  1.00  0.00     0.012 C 
ATOM     38  C   UNL     1      16.949  20.210  16.236  1.00  0.00     0.012 C 
ENDBRANCH   9  36
BRANCH   6  39
ATOM     39  C   UNL     1      11.131  18.239  14.175  1.00  0.00     0.264 C 
ATOM     40  O   UNL     1      10.810  17.362  13.328  1.00  0.00    -0.298 OA
ENDBRANCH   6  39
BRANCH   8  41
ATOM     41  O   UNL     1      15.879  19.236  13.642  1.00  0.00    -0.504 OA
ATOM     42  H   UNL     1      16.598  19.882  13.944  1.00  0.00     0.293 HD
ENDBRANCH   8  41
BRANCH   7  43
ATOM     43  O   UNL     1      13.326  19.181  12.653  1.00  0.00    -0.504 OA
ATOM     44  H   UNL     1      13.422  20.144  12.361  1.00  0.00     0.293 HD
ENDBRANCH   7  43
TORSDOF 11
ENDMDL
MODEL 8
REMARK VINA RESULT:    -6.876      3.357      5.107
REMARK INTER + INTRA:         -11.374
REMARK INTER:                 -10.832
REMARK INTRA:                  -0.542
REMARK UNBOUND:                -1.282
REMARK SMILES Cc1cc2c(C(C)C)c(O)c(O)c(C=O)c2c(O)c1-c1c(C)cc2c(C(C)C)c(O)c(O)c(C=O)c2c1O
REMARK SMILES IDX 1 1 2 2 3 3 4 4 16 5 13 6 11 7 9 8 5 9 17 10 19 11 20 12
REMARK SMILES IDX 37 13 21 14 36 15 23 16 22 17 24 18 33 19 25 20 31 21 29 22
REMARK SMILES IDX 38 23 34 25 35 26 26 27 27 28 28 29 32 30 30 32 18 34 6 36
REMARK SMILES IDX 7 37 8 38 14 39 15 40 10 41 12 43
REMARK H PARENT 38 24 32 31 30 33 18 35 10 42 12 44
REMARK Flexibility Score: inf
ROOT
ATOM      1  C   UNL     1      14.299  16.318  12.432  1.00  0.00     0.045 C 
ATOM      2  C   UNL     1      14.672  16.645  13.857  1.00  0.00    -0.039 A 
ATOM      3  C   UNL     1      13.870  16.175  14.897  1.00  0.00     0.013 A 
ATOM      4  C   UNL     1      14.171  16.440  16.250  1.00  0.00    -0.006 A 
ATOM      5  C   UNL     1      15.406  17.086  16.564  1.00  0.00     0.039 A 
ATOM      6  C   UNL     1      15.790  17.204  17.934  1.00  0.00     0.072 A 
ATOM      7  C   UNL     1      14.978  16.652  18.945  1.00  0.00     0.169 A 
ATOM      8  C   UNL     1      13.756  16.052  18.624  1.00  0.00     0.162 A 
ATOM      9  C   UNL     1      13.285  16.033  17.294  1.00  0.00     0.008 A 
ATOM     10  C   UNL     1      16.228  17.562  15.497  1.00  0.00     0.132 A 
ATOM     11  C   UNL     1      15.842  17.362  14.154  1.00  0.00     0.031 A 
ENDROOT
BRANCH  11  12
ATOM     12  C   UNL     1      16.680  17.903  13.052  1.00  0.00     0.031 A 
ATOM     13  C   UNL     1      16.301  19.085  12.380  1.00  0.00     0.132 A 
ATOM     14  C   UNL     1      17.872  17.246  12.702  1.00  0.00    -0.039 A 
ATOM     15  C   UNL     1      17.069  19.567  11.282  1.00  0.00     0.039 A 
ATOM     16  C   UNL     1      18.685  17.785  11.702  1.00  0.00     0.013 A 
ATOM     17  C   UNL     1      18.320  16.007  13.436  1.00  0.00     0.045 C 
ATOM     18  C   UNL     1      18.298  18.920  10.955  1.00  0.00    -0.006 A 
ATOM     19  C   UNL     1      16.676  20.711  10.530  1.00  0.00     0.072 A 
ATOM     20  C   UNL     1      19.132  19.450   9.923  1.00  0.00     0.008 A 
ATOM     21  C   UNL     1      17.588  21.327   9.660  1.00  0.00     0.169 A 
ATOM     22  C   UNL     1      18.841  20.736   9.414  1.00  0.00     0.162 A 
BRANCH  13  23
ATOM     23  O   UNL     1      15.196  19.810  12.837  1.00  0.00    -0.507 OA
ATOM     24  H   UNL     1      14.923  19.867  13.810  1.00  0.00     0.293 HD
ENDBRANCH  13  23
BRANCH  19  25
ATOM     25  C   UNL     1      15.300  21.260  10.550  1.00  0.00     0.264 C 
ATOM     26  O   UNL     1      14.624  21.338   9.490  1.00  0.00    -0.298 OA
ENDBRANCH  19  25
BRANCH  20  27
ATOM     27  C   UNL     1      20.362  18.684   9.402  1.00  0.00     0.017 C 
ATOM     28  C   UNL     1      19.940  17.500   8.527  1.00  0.00     0.012 C 
ATOM     29  C   UNL     1      21.336  18.244  10.511  1.00  0.00     0.012 C 
ENDBRANCH  20  27
BRANCH  21  30
ATOM     30  O   UNL     1      17.200  22.506   9.014  1.00  0.00    -0.504 OA
ATOM     31  H   UNL     1      16.708  23.268   9.463  1.00  0.00     0.293 HD
ENDBRANCH  21  30
BRANCH  22  32
ATOM     32  O   UNL     1      19.814  21.409   8.670  1.00  0.00    -0.504 OA
ATOM     33  H   UNL     1      20.757  21.076   8.531  1.00  0.00     0.293 HD
ENDBRANCH  22  32
ENDBRANCH  11  12
BRANCH  10  34
ATOM     34  O   UNL     1      17.429  18.227  15.767  1.00  0.00    -0.507 OA
ATOM     35  H   UNL     1      17.740  18.483  16.695  1.00  0.00     0.293 HD
ENDBRANCH  10  34
BRANCH   9  36
ATOM     36  C   UNL     1      11.844  15.572  17.003  1.00  0.00     0.017 C 
ATOM     37  C   UNL     1      11.503  14.304  17.793  1.00  0.00     0.012 C 
ATOM     38  C   UNL     1      10.787  16.670  17.218  1.00  0.00     0.012 C 
ENDBRANCH   9  36
BRANCH   6  39
ATOM     39  C   UNL     1      17.049  17.858  18.342  1.00  0.00     0.264 C 
ATOM     40  O   UNL     1      17.974  17.186  18.872  1.00  0.00    -0.298 OA
ENDBRANCH   6  39
BRANCH   8  41
ATOM     41  O   UNL     1      12.998  15.465  19.640  1.00  0.00    -0.504 OA
ATOM     42  H   UNL     1      12.108  15.011  19.474  1.00  0.00     0.293 HD
ENDBRANCH   8  41
BRANCH   7  43
ATOM     43  O   UNL     1      15.347  16.709  20.294  1.00  0.00    -0.504 OA
ATOM     44  H   UNL     1      15.156  15.978  20.965  1.00  0.00     0.293 HD
ENDBRANCH   7  43
TORSDOF 11
ENDMDL
MODEL 9
REMARK VINA RESULT:    -6.692     13.834     19.151
REMARK INTER + INTRA:         -11.104
REMARK INTER:                  -9.719
REMARK INTRA:                  -1.385
REMARK UNBOUND:                -1.282
REMARK SMILES Cc1cc2c(C(C)C)c(O)c(O)c(C=O)c2c(O)c1-c1c(C)cc2c(C(C)C)c(O)c(O)c(C=O)c2c1O
REMARK SMILES IDX 1 1 2 2 3 3 4 4 16 5 13 6 11 7 9 8 5 9 17 10 19 11 20 12
REMARK SMILES IDX 37 13 21 14 36 15 23 16 22 17 24 18 33 19 25 20 31 21 29 22
REMARK SMILES IDX 38 23 34 25 35 26 26 27 27 28 28 29 32 30 30 32 18 34 6 36
REMARK SMILES IDX 7 37 8 38 14 39 15 40 10 41 12 43
REMARK H PARENT 38 24 32 31 30 33 18 35 10 42 12 44
REMARK Flexibility Score: inf
ROOT
ATOM      1  C   UNL     1       5.262  14.762  23.801  1.00  0.00     0.045 C 
ATOM      2  C   UNL     1       5.838  14.886  22.413  1.00  0.00    -0.039 A 
ATOM      3  C   UNL     1       6.208  16.146  21.938  1.00  0.00     0.013 A 
ATOM      4  C   UNL     1       6.761  16.326  20.653  1.00  0.00    -0.006 A 
ATOM      5  C   UNL     1       7.078  15.171  19.874  1.00  0.00     0.039 A 
ATOM      6  C   UNL     1       7.790  15.342  18.648  1.00  0.00     0.072 A 
ATOM      7  C   UNL     1       8.201  16.629  18.246  1.00  0.00     0.169 A 
ATOM      8  C   UNL     1       7.854  17.754  19.001  1.00  0.00     0.162 A 
ATOM      9  C   UNL     1       7.042  17.633  20.149  1.00  0.00     0.008 A 
ATOM     10  C   UNL     1       6.703  13.882  20.365  1.00  0.00     0.132 A 
ATOM     11  C   UNL     1       6.062  13.753  21.615  1.00  0.00     0.031 A 
ENDROOT
BRANCH  11  12
ATOM     12  C   UNL     1       5.633  12.413  22.094  1.00  0.00     0.031 A 
ATOM     13  C   UNL     1       6.547  11.564  22.754  1.00  0.00     0.132 A 
ATOM     14  C   UNL     1       4.300  12.006  21.913  1.00  0.00    -0.039 A 
ATOM     15  C   UNL     1       6.155  10.254  23.154  1.00  0.00     0.039 A 
ATOM     16  C   UNL     1       3.885  10.769  22.411  1.00  0.00     0.013 A 
ATOM     17  C   UNL     1       3.293  12.915  21.252  1.00  0.00     0.045 C 
ATOM     18  C   UNL     1       4.791   9.861  23.003  1.00  0.00    -0.006 A 
ATOM     19  C   UNL     1       7.070   9.341  23.751  1.00  0.00     0.072 A 
ATOM     20  C   UNL     1       4.357   8.590  23.493  1.00  0.00     0.008 A 
ATOM     21  C   UNL     1       6.593   8.189  24.394  1.00  0.00     0.169 A 
ATOM     22  C   UNL     1       5.228   7.854  24.327  1.00  0.00     0.162 A 
BRANCH  13  23
ATOM     23  O   UNL     1       7.826  12.039  23.061  1.00  0.00    -0.507 OA
ATOM     24  H   UNL     1       8.274  12.803  22.573  1.00  0.00     0.293 HD
ENDBRANCH  13  23
BRANCH  19  25
ATOM     25  C   UNL     1       8.541   9.495  23.664  1.00  0.00     0.264 C 
ATOM     26  O   UNL     1       9.209   9.860  24.668  1.00  0.00    -0.298 OA
ENDBRANCH  19  25
BRANCH  20  27
ATOM     27  C   UNL     1       2.952   8.040  23.182  1.00  0.00     0.017 C 
ATOM     28  C   UNL     1       2.001   8.270  24.361  1.00  0.00     0.012 C 
ATOM     29  C   UNL     1       2.946   6.566  22.736  1.00  0.00     0.012 C 
ENDBRANCH  20  27
BRANCH  21  30
ATOM     30  O   UNL     1       7.513   7.367  25.056  1.00  0.00    -0.504 OA
ATOM     31  H   UNL     1       8.049   7.647  25.866  1.00  0.00     0.293 HD
ENDBRANCH  21  30
BRANCH  22  32
ATOM     32  O   UNL     1       4.714   6.796  25.082  1.00  0.00    -0.504 OA
ATOM     33  H   UNL     1       4.753   6.743  26.090  1.00  0.00     0.293 HD
ENDBRANCH  22  32
ENDBRANCH  11  12
BRANCH  10  34
ATOM     34  O   UNL     1       6.969  12.731  19.615  1.00  0.00    -0.507 OA
ATOM     35  H   UNL     1       6.742  12.627  18.634  1.00  0.00     0.293 HD
ENDBRANCH  10  34
BRANCH   9  36
ATOM     36  C   UNL     1       6.491  18.901  20.829  1.00  0.00     0.017 C 
ATOM     37  C   UNL     1       7.630  19.810  21.300  1.00  0.00     0.012 C 
ATOM     38  C   UNL     1       5.474  19.672  19.968  1.00  0.00     0.012 C 
ENDBRANCH   9  36
BRANCH   6  39
ATOM     39  C   UNL     1       8.154  14.201  17.786  1.00  0.00     0.264 C 
ATOM     40  O   UNL     1       9.340  13.775  17.761  1.00  0.00    -0.298 OA
ENDBRANCH   6  39
BRANCH   8  41
ATOM     41  O   UNL     1       8.322  19.009  18.608  1.00  0.00    -0.504 OA
ATOM     42  H   UNL     1       7.709  19.763  18.323  1.00  0.00     0.293 HD
ENDBRANCH   8  41
BRANCH   7  43
ATOM     43  O   UNL     1       8.940  16.828  17.073  1.00  0.00    -0.504 OA
ATOM     44  H   UNL     1       9.732  16.263  16.801  1.00  0.00     0.293 HD
ENDBRANCH   7  43
TORSDOF 11
ENDMDL
