MODEL 1
REMARK VINA RESULT:    -5.695      0.000      0.000
REMARK INTER + INTRA:          -9.452
REMARK INTER:                  -8.858
REMARK INTRA:                  -0.594
REMARK UNBOUND:                -0.594
REMARK SMILES COc1cc(CNC(=O)CCCCC=CC(C)C)ccc1O
REMARK SMILES IDX 11 1 12 2 13 3 14 4 15 5 16 6 17 7 18 8 10 9 8 10 9 11 7 12
REMARK SMILES IDX 6 14 5 15 4 16 19 17 3 18 20 19 21 20 2 21 1 22 22 23
REMARK H PARENT 7 13 22 24
REMARK Flexibility Score: inf
ROOT
ATOM      1  C   UNL     1     115.539 258.244 346.835  1.00  0.00     0.010 C 
ENDROOT
BRANCH   1   2
ATOM      2  C   UNL     1     115.791 259.737 347.090  1.00  0.00     0.005 C 
BRANCH   2   3
ATOM      3  C   UNL     1     116.809 259.979 348.215  1.00  0.00     0.027 C 
BRANCH   3   4
ATOM      4  C   UNL     1     116.379 261.124 349.095  1.00  0.00    -0.031 C 
ATOM      5  C   UNL     1     116.429 261.116 350.441  1.00  0.00    -0.028 C 
BRANCH   5   6
ATOM      6  C   UNL     1     116.852 259.930 351.283  1.00  0.00     0.005 C 
ATOM      7  C   UNL     1     117.910 260.366 352.301  1.00  0.00     0.012 C 
ATOM      8  C   UNL     1     115.631 259.338 351.994  1.00  0.00     0.012 C 
ENDBRANCH   5   6
ENDBRANCH   3   4
ENDBRANCH   2   3
ENDBRANCH   1   2
BRANCH   1   9
ATOM      9  C   UNL     1     114.205 257.984 346.122  1.00  0.00     0.100 C 
BRANCH   9  10
ATOM     10  C   UNL     1     114.375 256.934 345.066  1.00  0.00     0.220 C 
ATOM     11  O   UNL     1     113.803 255.818 345.202  1.00  0.00    -0.275 OA
ATOM     12  N   UNL     1     115.146 257.217 343.889  1.00  0.00    -0.352 N 
ATOM     13  H   UNL     1     115.551 258.173 343.765  1.00  0.00     0.163 HD
BRANCH  12  14
ATOM     14  C   UNL     1     115.373 256.225 342.841  1.00  0.00     0.151 C 
BRANCH  14  15
ATOM     15  C   UNL     1     116.432 256.709 341.886  1.00  0.00    -0.025 A 
ATOM     16  C   UNL     1     116.077 257.392 340.712  1.00  0.00     0.056 A 
ATOM     17  C   UNL     1     117.783 256.448 342.152  1.00  0.00     0.009 A 
ATOM     18  C   UNL     1     117.068 257.819 339.804  1.00  0.00     0.160 A 
ATOM     19  C   UNL     1     118.769 256.870 341.257  1.00  0.00     0.050 A 
ATOM     20  C   UNL     1     118.420 257.551 340.088  1.00  0.00     0.157 A 
BRANCH  18  21
ATOM     21  O   UNL     1     116.746 258.503 338.621  1.00  0.00    -0.493 OA
ATOM     22  C   UNL     1     115.421 258.705 338.139  1.00  0.00     0.278 C 
ENDBRANCH  18  21
BRANCH  20  23
ATOM     23  O   UNL     1     119.433 257.954 339.216  1.00  0.00    -0.504 OA
ATOM     24  H   UNL     1     119.318 258.728 338.573  1.00  0.00     0.293 HD
ENDBRANCH  20  23
ENDBRANCH  14  15
ENDBRANCH  12  14
ENDBRANCH   9  10
ENDBRANCH   1   9
TORSDOF 10
ENDMDL
MODEL 2
REMARK VINA RESULT:    -5.608      2.677     10.324
REMARK INTER + INTRA:          -9.316
REMARK INTER:                  -8.689
REMARK INTRA:                  -0.628
REMARK UNBOUND:                -0.594
REMARK SMILES COc1cc(CNC(=O)CCCCC=CC(C)C)ccc1O
REMARK SMILES IDX 11 1 12 2 13 3 14 4 15 5 16 6 17 7 18 8 10 9 8 10 9 11 7 12
REMARK SMILES IDX 6 14 5 15 4 16 19 17 3 18 20 19 21 20 2 21 1 22 22 23
REMARK H PARENT 7 13 22 24
REMARK Flexibility Score: inf
ROOT
ATOM      1  C   UNL     1     115.496 258.171 338.446  1.00  0.00     0.010 C 
ENDROOT
BRANCH   1   2
ATOM      2  C   UNL     1     114.672 259.428 338.135  1.00  0.00     0.005 C 
BRANCH   2   3
ATOM      3  C   UNL     1     113.674 259.208 336.986  1.00  0.00     0.027 C 
BRANCH   3   4
ATOM      4  C   UNL     1     113.649 260.395 336.058  1.00  0.00    -0.031 C 
ATOM      5  C   UNL     1     113.635 260.315 334.714  1.00  0.00    -0.028 C 
BRANCH   5   6
ATOM      6  C   UNL     1     113.719 259.025 333.924  1.00  0.00     0.005 C 
ATOM      7  C   UNL     1     112.585 258.969 332.896  1.00  0.00     0.012 C 
ATOM      8  C   UNL     1     115.082 258.931 333.230  1.00  0.00     0.012 C 
ENDBRANCH   5   6
ENDBRANCH   3   4
ENDBRANCH   2   3
ENDBRANCH   1   2
BRANCH   1   9
ATOM      9  C   UNL     1     116.930 258.500 338.882  1.00  0.00     0.100 C 
BRANCH   9  10
ATOM     10  C   UNL     1     117.318 257.671 340.069  1.00  0.00     0.220 C 
ATOM     11  O   UNL     1     118.511 257.281 340.192  1.00  0.00    -0.275 OA
ATOM     12  N   UNL     1     116.345 257.362 341.078  1.00  0.00    -0.352 N 
ATOM     13  H   UNL     1     115.380 257.755 340.990  1.00  0.00     0.163 HD
BRANCH  12  14
ATOM     14  C   UNL     1     116.654 256.533 342.240  1.00  0.00     0.151 C 
BRANCH  14  15
ATOM     15  C   UNL     1     115.478 256.497 343.181  1.00  0.00    -0.025 A 
ATOM     16  C   UNL     1     115.465 257.287 344.340  1.00  0.00     0.056 A 
ATOM     17  C   UNL     1     114.400 255.640 342.918  1.00  0.00     0.009 A 
ATOM     18  C   UNL     1     114.377 257.230 345.235  1.00  0.00     0.160 A 
ATOM     19  C   UNL     1     113.319 255.580 343.799  1.00  0.00     0.050 A 
ATOM     20  C   UNL     1     113.302 256.367 344.953  1.00  0.00     0.157 A 
BRANCH  18  21
ATOM     21  O   UNL     1     114.335 258.008 346.403  1.00  0.00    -0.493 OA
ATOM     22  C   UNL     1     115.394 258.846 346.855  1.00  0.00     0.278 C 
ENDBRANCH  18  21
BRANCH  20  23
ATOM     23  O   UNL     1     112.206 256.278 345.813  1.00  0.00    -0.504 OA
ATOM     24  H   UNL     1     111.490 255.569 345.707  1.00  0.00     0.293 HD
ENDBRANCH  20  23
ENDBRANCH  14  15
ENDBRANCH  12  14
ENDBRANCH   9  10
ENDBRANCH   1   9
TORSDOF 10
ENDMDL
MODEL 3
REMARK VINA RESULT:    -3.745      3.706     10.020
REMARK INTER + INTRA:          -6.418
REMARK INTER:                  -5.950
REMARK INTRA:                  -0.468
REMARK UNBOUND:                -0.594
REMARK SMILES COc1cc(CNC(=O)CCCCC=CC(C)C)ccc1O
REMARK SMILES IDX 11 1 12 2 13 3 14 4 15 5 16 6 17 7 18 8 10 9 8 10 9 11 7 12
REMARK SMILES IDX 6 14 5 15 4 16 19 17 3 18 20 19 21 20 2 21 1 22 22 23
REMARK H PARENT 7 13 22 24
REMARK Flexibility Score: inf
ROOT
ATOM      1  C   UNL     1     115.263 258.692 338.535  1.00  0.00     0.010 C 
ENDROOT
BRANCH   1   2
ATOM      2  C   UNL     1     114.848 259.959 337.774  1.00  0.00     0.005 C 
BRANCH   2   3
ATOM      3  C   UNL     1     113.338 260.008 337.491  1.00  0.00     0.027 C 
BRANCH   3   4
ATOM      4  C   UNL     1     112.901 258.811 336.687  1.00  0.00    -0.031 C 
ATOM      5  C   UNL     1     113.171 258.627 335.380  1.00  0.00    -0.028 C 
BRANCH   5   6
ATOM      6  C   UNL     1     113.888 259.627 334.497  1.00  0.00     0.005 C 
ATOM      7  C   UNL     1     114.753 258.889 333.471  1.00  0.00     0.012 C 
ATOM      8  C   UNL     1     112.864 260.524 333.794  1.00  0.00     0.012 C 
ENDBRANCH   5   6
ENDBRANCH   3   4
ENDBRANCH   2   3
ENDBRANCH   1   2
BRANCH   1   9
ATOM      9  C   UNL     1     116.679 258.791 339.118  1.00  0.00     0.100 C 
BRANCH   9  10
ATOM     10  C   UNL     1     116.936 257.655 340.061  1.00  0.00     0.220 C 
ATOM     11  O   UNL     1     118.033 257.037 340.006  1.00  0.00    -0.275 OA
ATOM     12  N   UNL     1     115.954 257.305 341.048  1.00  0.00    -0.352 N 
ATOM     13  H   UNL     1     115.082 257.878 341.122  1.00  0.00     0.163 HD
BRANCH  12  14
ATOM     14  C   UNL     1     116.132 256.189 341.973  1.00  0.00     0.151 C 
BRANCH  14  15
ATOM     15  C   UNL     1     115.285 256.391 343.202  1.00  0.00    -0.025 A 
ATOM     16  C   UNL     1     113.888 256.279 343.135  1.00  0.00     0.056 A 
ATOM     17  C   UNL     1     115.892 256.729 344.420  1.00  0.00     0.009 A 
ATOM     18  C   UNL     1     113.094 256.497 344.280  1.00  0.00     0.160 A 
ATOM     19  C   UNL     1     115.113 256.945 345.558  1.00  0.00     0.050 A 
ATOM     20  C   UNL     1     113.721 256.832 345.495  1.00  0.00     0.157 A 
BRANCH  18  21
ATOM     21  O   UNL     1     111.695 256.392 344.244  1.00  0.00    -0.493 OA
ATOM     22  C   UNL     1     110.798 257.474 344.476  1.00  0.00     0.278 C 
ENDBRANCH  18  21
BRANCH  20  23
ATOM     23  O   UNL     1     112.974 257.058 346.652  1.00  0.00    -0.504 OA
ATOM     24  H   UNL     1     113.099 257.884 347.225  1.00  0.00     0.293 HD
ENDBRANCH  20  23
ENDBRANCH  14  15
ENDBRANCH  12  14
ENDBRANCH   9  10
ENDBRANCH   1   9
TORSDOF 10
ENDMDL
MODEL 4
REMARK VINA RESULT:    -2.968      4.747     10.574
REMARK INTER + INTRA:          -5.211
REMARK INTER:                  -4.442
REMARK INTRA:                  -0.768
REMARK UNBOUND:                -0.594
REMARK SMILES COc1cc(CNC(=O)CCCCC=CC(C)C)ccc1O
REMARK SMILES IDX 11 1 12 2 13 3 14 4 15 5 16 6 17 7 18 8 10 9 8 10 9 11 7 12
REMARK SMILES IDX 6 14 5 15 4 16 19 17 3 18 20 19 21 20 2 21 1 22 22 23
REMARK H PARENT 7 13 22 24
REMARK Flexibility Score: inf
ROOT
ATOM      1  C   UNL     1     112.291 258.422 337.347  1.00  0.00     0.010 C 
ENDROOT
BRANCH   1   2
ATOM      2  C   UNL     1     112.502 258.168 335.848  1.00  0.00     0.005 C 
BRANCH   2   3
ATOM      3  C   UNL     1     112.389 259.452 335.012  1.00  0.00     0.027 C 
BRANCH   3   4
ATOM      4  C   UNL     1     112.506 259.149 333.540  1.00  0.00    -0.031 C 
ATOM      5  C   UNL     1     113.671 259.023 332.875  1.00  0.00    -0.028 C 
BRANCH   5   6
ATOM      6  C   UNL     1     115.041 259.242 333.483  1.00  0.00     0.005 C 
ATOM      7  C   UNL     1     116.010 258.166 332.985  1.00  0.00     0.012 C 
ATOM      8  C   UNL     1     115.552 260.639 333.118  1.00  0.00     0.012 C 
ENDBRANCH   5   6
ENDBRANCH   3   4
ENDBRANCH   2   3
ENDBRANCH   1   2
BRANCH   1   9
ATOM      9  C   UNL     1     112.665 259.852 337.761  1.00  0.00     0.100 C 
BRANCH   9  10
ATOM     10  C   UNL     1     114.154 259.991 337.869  1.00  0.00     0.220 C 
ATOM     11  O   UNL     1     114.689 261.115 337.670  1.00  0.00    -0.275 OA
ATOM     12  N   UNL     1     114.955 258.860 338.240  1.00  0.00    -0.352 N 
ATOM     13  H   UNL     1     114.483 257.956 338.470  1.00  0.00     0.163 HD
BRANCH  12  14
ATOM     14  C   UNL     1     116.411 258.925 338.331  1.00  0.00     0.151 C 
BRANCH  14  15
ATOM     15  C   UNL     1     116.897 258.116 339.505  1.00  0.00    -0.025 A 
ATOM     16  C   UNL     1     115.991 257.624 340.458  1.00  0.00     0.056 A 
ATOM     17  C   UNL     1     118.268 257.879 339.670  1.00  0.00     0.009 A 
ATOM     18  C   UNL     1     116.450 256.892 341.573  1.00  0.00     0.160 A 
ATOM     19  C   UNL     1     118.729 257.154 340.771  1.00  0.00     0.050 A 
ATOM     20  C   UNL     1     117.830 256.661 341.720  1.00  0.00     0.157 A 
BRANCH  18  21
ATOM     21  O   UNL     1     115.570 256.387 342.543  1.00  0.00    -0.493 OA
ATOM     22  C   UNL     1     115.143 257.103 343.698  1.00  0.00     0.278 C 
ENDBRANCH  18  21
BRANCH  20  23
ATOM     23  O   UNL     1     118.328 255.943 342.809  1.00  0.00    -0.504 OA
ATOM     24  H   UNL     1     119.106 256.274 343.366  1.00  0.00     0.293 HD
ENDBRANCH  20  23
ENDBRANCH  14  15
ENDBRANCH  12  14
ENDBRANCH   9  10
ENDBRANCH   1   9
TORSDOF 10
ENDMDL
