MODEL 1
REMARK VINA RESULT:    -2.937      0.000      0.000
REMARK INTER + INTRA:          -4.496
REMARK INTER:                  -4.482
REMARK INTRA:                  -0.014
REMARK UNBOUND:                -0.014
REMARK SMILES CC1=CCC[C@H](C)C(=O)C[C@H](C(C)C)C(=O)C1
REMARK SMILES IDX 8 1 9 2 6 3 7 4 5 5 4 6 3 7 2 8 1 9 10 11 11 12 15 13 16 14
REMARK SMILES IDX 17 15 12 17 13 18 14 19
REMARK H PARENT
REMARK Flexibility Score: 70.00
ROOT
ATOM      1  C   UNL     1       2.274 -16.028  12.343  1.00  0.00     0.136 C 
ATOM      2  O   UNL     1       3.322 -16.654  12.396  1.00  0.00    -0.299 OA
ENDROOT
BRANCH   1   3
ATOM      3  C   UNL     1       1.799 -15.296  13.589  1.00  0.00     0.053 C 
ATOM      4  C   UNL     1       1.096 -16.240  14.576  1.00  0.00     0.016 C 
BRANCH   3   5
ATOM      5  C   UNL     1       2.904 -14.370  14.188  1.00  0.00     0.015 C 
BRANCH   5   6
ATOM      6  C   UNL     1       3.314 -13.086  13.434  1.00  0.00     0.028 C 
BRANCH   6   7
ATOM      7  C   UNL     1       4.519 -13.166  12.525  1.00  0.00    -0.028 C 
ATOM      8  C   UNL     1       4.547 -12.934  11.193  1.00  0.00    -0.070 CG0
ATOM      9  C   UNL     1       5.898 -12.883  10.521  1.00  0.00     0.039 C 
ATOM     10  G   UNL     1       3.311 -12.790  10.330  1.00  0.00     0.000 G0
ENDBRANCH   6   7
ENDBRANCH   5   6
ENDBRANCH   3   5
ENDBRANCH   1   3
BRANCH   1  11
ATOM     11  C   UNL     1       1.500 -16.017  11.044  1.00  0.00     0.087 C 
BRANCH  11  12
ATOM     12  C   UNL     1       1.365 -14.583  10.444  1.00  0.00     0.066 C 
BRANCH  12  13
ATOM     13  C   UNL     1       2.730 -14.133   9.948  1.00  0.00     0.140 C 
ATOM     14  O   UNL     1       3.446 -14.917   9.342  1.00  0.00    -0.299 OA
BRANCH  13  15
ATOM     15  C   UNL     1       3.288 -12.780  10.324  1.00  0.00     0.106 CG0
ATOM     16  G   UNL     1       4.537 -12.954  11.162  1.00  0.00     0.000 G0
ENDBRANCH  13  15
ENDBRANCH  12  13
BRANCH  12  17
ATOM     17  C   UNL     1       0.277 -14.483   9.324  1.00  0.00    -0.006 C 
ATOM     18  C   UNL     1       0.022 -15.854   8.667  1.00  0.00     0.008 C 
ATOM     19  C   UNL     1       0.667 -13.481   8.223  1.00  0.00     0.008 C 
ENDBRANCH  12  17
ENDBRANCH  11  12
ENDBRANCH   1  11
TORSDOF 1
ENDMDL
MODEL 2
REMARK VINA RESULT:    -2.910      1.651      3.055
REMARK INTER + INTRA:          -4.455
REMARK INTER:                  -4.103
REMARK INTRA:                  -0.352
REMARK UNBOUND:                -0.014
REMARK SMILES CC1=CCC[C@H](C)C(=O)C[C@H](C(C)C)C(=O)C1
REMARK SMILES IDX 8 1 9 2 6 3 7 4 5 5 4 6 3 7 2 8 1 9 10 11 11 12 15 13 16 14
REMARK SMILES IDX 17 15 12 17 13 18 14 19
REMARK H PARENT
REMARK Flexibility Score: 70.00
ROOT
ATOM      1  C   UNL     1       2.960 -15.628   9.501  1.00  0.00     0.136 C 
ATOM      2  O   UNL     1       3.421 -16.732   9.255  1.00  0.00    -0.299 OA
ENDROOT
BRANCH   1   3
ATOM      3  C   UNL     1       1.571 -15.539  10.115  1.00  0.00     0.053 C 
ATOM      4  C   UNL     1       0.493 -16.109   9.181  1.00  0.00     0.016 C 
BRANCH   3   5
ATOM      5  C   UNL     1       1.544 -16.045  11.591  1.00  0.00     0.015 C 
BRANCH   5   6
ATOM      6  C   UNL     1       1.985 -15.099  12.730  1.00  0.00     0.028 C 
BRANCH   6   7
ATOM      7  C   UNL     1       3.467 -14.873  12.914  1.00  0.00    -0.028 C 
ATOM      8  C   UNL     1       4.137 -13.709  12.758  1.00  0.00    -0.070 CG0
ATOM      9  C   UNL     1       5.585 -13.672  13.182  1.00  0.00     0.039 C 
ATOM     10  G   UNL     1       3.543 -12.467  12.125  1.00  0.00     0.000 G0
ENDBRANCH   6   7
ENDBRANCH   5   6
ENDBRANCH   3   5
ENDBRANCH   1   3
BRANCH   1  11
ATOM     11  C   UNL     1       3.791 -14.407   9.178  1.00  0.00     0.087 C 
BRANCH  11  12
ATOM     12  C   UNL     1       3.088 -13.079   9.602  1.00  0.00     0.066 C 
BRANCH  12  13
ATOM     13  C   UNL     1       3.944 -12.390  10.653  1.00  0.00     0.140 C 
ATOM     14  O   UNL     1       5.013 -11.889  10.334  1.00  0.00    -0.299 OA
BRANCH  13  15
ATOM     15  C   UNL     1       3.574 -12.445  12.117  1.00  0.00     0.106 CG0
ATOM     16  G   UNL     1       4.131 -13.708  12.740  1.00  0.00     0.000 G0
ENDBRANCH  13  15
ENDBRANCH  12  13
BRANCH  12  17
ATOM     17  C   UNL     1       2.774 -12.134   8.395  1.00  0.00    -0.006 C 
ATOM     18  C   UNL     1       1.382 -12.428   7.801  1.00  0.00     0.008 C 
ATOM     19  C   UNL     1       3.819 -12.259   7.272  1.00  0.00     0.008 C 
ENDBRANCH  12  17
ENDBRANCH  11  12
ENDBRANCH   1  11
TORSDOF 1
ENDMDL
MODEL 3
REMARK VINA RESULT:    -2.745      2.359      4.629
REMARK INTER + INTRA:          -4.203
REMARK INTER:                  -4.078
REMARK INTRA:                  -0.125
REMARK UNBOUND:                -0.014
REMARK SMILES CC1=CCC[C@H](C)C(=O)C[C@H](C(C)C)C(=O)C1
REMARK SMILES IDX 8 1 9 2 6 3 7 4 5 5 4 6 3 7 2 8 1 9 10 11 11 12 15 13 16 14
REMARK SMILES IDX 17 15 12 17 13 18 14 19
REMARK H PARENT
REMARK Flexibility Score: 70.00
ROOT
ATOM      1  C   UNL     1       1.670 -15.207  11.570  1.00  0.00     0.136 C 
ATOM      2  O   UNL     1       1.297 -14.051  11.438  1.00  0.00    -0.299 OA
ENDROOT
BRANCH   1   3
ATOM      3  C   UNL     1       2.261 -15.924  10.367  1.00  0.00     0.053 C 
ATOM      4  C   UNL     1       1.208 -16.182   9.278  1.00  0.00     0.016 C 
BRANCH   3   5
ATOM      5  C   UNL     1       3.600 -15.279   9.893  1.00  0.00     0.015 C 
BRANCH   5   6
ATOM      6  C   UNL     1       4.895 -15.531  10.697  1.00  0.00     0.028 C 
BRANCH   6   7
ATOM      7  C   UNL     1       5.232 -14.555  11.800  1.00  0.00    -0.028 C 
ATOM      8  C   UNL     1       5.441 -14.845  13.104  1.00  0.00    -0.070 CG0
ATOM      9  C   UNL     1       5.954 -13.739  13.993  1.00  0.00     0.039 C 
ATOM     10  G   UNL     1       5.128 -16.186  13.736  1.00  0.00     0.000 G0
ENDBRANCH   6   7
ENDBRANCH   5   6
ENDBRANCH   3   5
ENDBRANCH   1   3
BRANCH   1  11
ATOM     11  C   UNL     1       1.520 -15.867  12.922  1.00  0.00     0.087 C 
BRANCH  11  12
ATOM     12  C   UNL     1       2.652 -16.902  13.209  1.00  0.00     0.066 C 
BRANCH  12  13
ATOM     13  C   UNL     1       3.672 -16.262  14.138  1.00  0.00     0.140 C 
ATOM     14  O   UNL     1       3.296 -15.687  15.150  1.00  0.00    -0.299 OA
BRANCH  13  15
ATOM     15  C   UNL     1       5.132 -16.187  13.759  1.00  0.00     0.106 CG0
ATOM     16  G   UNL     1       5.424 -14.855  13.101  1.00  0.00     0.000 G0
ENDBRANCH  13  15
ENDBRANCH  12  13
BRANCH  12  17
ATOM     17  C   UNL     1       2.119 -18.259  13.775  1.00  0.00    -0.006 C 
ATOM     18  C   UNL     1       1.075 -18.031  14.886  1.00  0.00     0.008 C 
ATOM     19  C   UNL     1       3.250 -19.136  14.343  1.00  0.00     0.008 C 
ENDBRANCH  12  17
ENDBRANCH  11  12
ENDBRANCH   1  11
TORSDOF 1
ENDMDL
MODEL 4
REMARK VINA RESULT:    -2.707      1.448      3.858
REMARK INTER + INTRA:          -4.145
REMARK INTER:                  -4.697
REMARK INTRA:                   0.553
REMARK UNBOUND:                -0.014
REMARK SMILES CC1=CCC[C@H](C)C(=O)C[C@H](C(C)C)C(=O)C1
REMARK SMILES IDX 8 1 9 2 6 3 7 4 5 5 4 6 3 7 2 8 1 9 10 11 11 12 15 13 16 14
REMARK SMILES IDX 17 15 12 17 13 18 14 19
REMARK H PARENT
REMARK Flexibility Score: 70.00
ROOT
ATOM      1  C   UNL     1       1.475 -15.880  10.124  1.00  0.00     0.136 C 
ATOM      2  O   UNL     1       2.094 -16.794   9.601  1.00  0.00    -0.299 OA
ENDROOT
BRANCH   1   3
ATOM      3  C   UNL     1       0.691 -14.929   9.233  1.00  0.00     0.053 C 
ATOM      4  C   UNL     1      -0.414 -15.654   8.450  1.00  0.00     0.016 C 
BRANCH   3   5
ATOM      5  C   UNL     1       0.265 -13.630   9.987  1.00  0.00     0.015 C 
BRANCH   5   6
ATOM      6  C   UNL     1       1.183 -12.389   9.947  1.00  0.00     0.028 C 
BRANCH   6   7
ATOM      7  C   UNL     1       2.621 -12.598   9.532  1.00  0.00    -0.028 C 
ATOM      8  C   UNL     1       3.588 -13.223  10.241  1.00  0.00    -0.070 CG0
ATOM      9  C   UNL     1       4.904 -13.485   9.549  1.00  0.00     0.039 C 
ATOM     10  G   UNL     1       3.454 -13.613  11.698  1.00  0.00     0.000 G0
ENDBRANCH   6   7
ENDBRANCH   5   6
ENDBRANCH   3   5
ENDBRANCH   1   3
BRANCH   1  11
ATOM     11  C   UNL     1       1.524 -15.738  11.628  1.00  0.00     0.087 C 
BRANCH  11  12
ATOM     12  C   UNL     1       2.909 -16.147  12.219  1.00  0.00     0.066 C 
BRANCH  12  13
ATOM     13  C   UNL     1       3.909 -15.039  11.926  1.00  0.00     0.140 C 
ATOM     14  O   UNL     1       5.109 -15.271  11.985  1.00  0.00    -0.299 OA
BRANCH  13  15
ATOM     15  C   UNL     1       3.453 -13.615  11.714  1.00  0.00     0.106 CG0
ATOM     16  G   UNL     1       3.568 -13.251  10.249  1.00  0.00     0.000 G0
ENDBRANCH  13  15
ENDBRANCH  12  13
BRANCH  12  17
ATOM     17  C   UNL     1       2.853 -16.491  13.744  1.00  0.00    -0.006 C 
ATOM     18  C   UNL     1       2.871 -18.015  13.975  1.00  0.00     0.008 C 
ATOM     19  C   UNL     1       1.600 -15.910  14.425  1.00  0.00     0.008 C 
ENDBRANCH  12  17
ENDBRANCH  11  12
ENDBRANCH   1  11
TORSDOF 1
ENDMDL
MODEL 5
REMARK VINA RESULT:    -2.569      4.102      6.072
REMARK INTER + INTRA:          -3.935
REMARK INTER:                  -3.489
REMARK INTRA:                  -0.446
REMARK UNBOUND:                -0.014
REMARK SMILES CC1=CCC[C@H](C)C(=O)C[C@H](C(C)C)C(=O)C1
REMARK SMILES IDX 8 1 9 2 6 3 7 4 5 5 4 6 3 7 2 8 1 9 10 11 11 12 15 13 16 14
REMARK SMILES IDX 17 15 12 17 13 18 14 19
REMARK H PARENT
REMARK Flexibility Score: 70.00
ROOT
ATOM      1  C   UNL     1       0.646 -18.117  15.381  1.00  0.00     0.136 C 
ATOM      2  O   UNL     1      -0.438 -18.673  15.290  1.00  0.00    -0.299 OA
ENDROOT
BRANCH   1   3
ATOM      3  C   UNL     1       1.041 -17.508  16.717  1.00  0.00     0.053 C 
ATOM      4  C   UNL     1      -0.072 -16.623  17.297  1.00  0.00     0.016 C 
BRANCH   3   5
ATOM      5  C   UNL     1       1.662 -18.562  17.687  1.00  0.00     0.015 C 
BRANCH   5   6
ATOM      6  C   UNL     1       2.448 -19.759  17.110  1.00  0.00     0.028 C 
BRANCH   6   7
ATOM      7  C   UNL     1       3.953 -19.640  17.046  1.00  0.00    -0.028 C 
ATOM      8  C   UNL     1       4.691 -19.245  15.984  1.00  0.00    -0.070 CG0
ATOM      9  C   UNL     1       6.167 -19.015  16.205  1.00  0.00     0.039 C 
ATOM     10  G   UNL     1       4.143 -19.086  14.581  1.00  0.00     0.000 G0
ENDBRANCH   6   7
ENDBRANCH   5   6
ENDBRANCH   3   5
ENDBRANCH   1   3
BRANCH   1  11
ATOM     11  C   UNL     1       1.535 -18.058  14.160  1.00  0.00     0.087 C 
BRANCH  11  12
ATOM     12  C   UNL     1       2.641 -16.964  14.282  1.00  0.00     0.066 C 
BRANCH  12  13
ATOM     13  C   UNL     1       4.003 -17.639  14.216  1.00  0.00     0.140 C 
ATOM     14  O   UNL     1       4.960 -17.033  13.756  1.00  0.00    -0.299 OA
BRANCH  13  15
ATOM     15  C   UNL     1       4.165 -19.100  14.565  1.00  0.00     0.106 CG0
ATOM     16  G   UNL     1       4.699 -19.235  15.976  1.00  0.00     0.000 G0
ENDBRANCH  13  15
ENDBRANCH  12  13
BRANCH  12  17
ATOM     17  C   UNL     1       2.504 -15.826  13.217  1.00  0.00    -0.006 C 
ATOM     18  C   UNL     1       1.501 -14.749  13.675  1.00  0.00     0.008 C 
ATOM     19  C   UNL     1       2.051 -16.363  11.848  1.00  0.00     0.008 C 
ENDBRANCH  12  17
ENDBRANCH  11  12
ENDBRANCH   1  11
TORSDOF 1
ENDMDL
MODEL 6
REMARK VINA RESULT:    -2.513      3.928      6.438
REMARK INTER + INTRA:          -3.849
REMARK INTER:                  -3.383
REMARK INTRA:                  -0.467
REMARK UNBOUND:                -0.014
REMARK SMILES CC1=CCC[C@H](C)C(=O)C[C@H](C(C)C)C(=O)C1
REMARK SMILES IDX 8 1 9 2 6 3 7 4 5 5 4 6 3 7 2 8 1 9 10 11 11 12 15 13 16 14
REMARK SMILES IDX 17 15 12 17 13 18 14 19
REMARK H PARENT
REMARK Flexibility Score: 70.00
ROOT
ATOM      1  C   UNL     1       2.495 -16.803  12.986  1.00  0.00     0.136 C 
ATOM      2  O   UNL     1       2.205 -16.656  11.808  1.00  0.00    -0.299 OA
ENDROOT
BRANCH   1   3
ATOM      3  C   UNL     1       3.478 -15.833  13.621  1.00  0.00     0.053 C 
ATOM      4  C   UNL     1       4.807 -15.777  12.853  1.00  0.00     0.016 C 
BRANCH   3   5
ATOM      5  C   UNL     1       2.818 -14.460  13.960  1.00  0.00     0.015 C 
BRANCH   5   6
ATOM      6  C   UNL     1       1.308 -14.397  14.276  1.00  0.00     0.028 C 
BRANCH   6   7
ATOM      7  C   UNL     1       0.899 -14.404  15.731  1.00  0.00    -0.028 C 
ATOM      8  C   UNL     1       0.393 -15.447  16.427  1.00  0.00    -0.070 CG0
ATOM      9  C   UNL     1       0.235 -15.281  17.918  1.00  0.00     0.039 C 
ATOM     10  G   UNL     1      -0.083 -16.738  15.794  1.00  0.00     0.000 G0
ENDBRANCH   6   7
ENDBRANCH   5   6
ENDBRANCH   3   5
ENDBRANCH   1   3
BRANCH   1  11
ATOM     11  C   UNL     1       1.865 -17.947  13.750  1.00  0.00     0.087 C 
BRANCH  11  12
ATOM     12  C   UNL     1       2.217 -17.912  15.270  1.00  0.00     0.066 C 
BRANCH  12  13
ATOM     13  C   UNL     1       0.923 -17.844  16.067  1.00  0.00     0.140 C 
ATOM     14  O   UNL     1       0.628 -18.757  16.826  1.00  0.00    -0.299 OA
BRANCH  13  15
ATOM     15  C   UNL     1      -0.085 -16.745  15.824  1.00  0.00     0.106 CG0
ATOM     16  G   UNL     1       0.410 -15.451  16.435  1.00  0.00     0.000 G0
ENDBRANCH  13  15
ENDBRANCH  12  13
BRANCH  12  17
ATOM     17  C   UNL     1       3.118 -19.108  15.723  1.00  0.00    -0.006 C 
ATOM     18  C   UNL     1       4.614 -18.762  15.592  1.00  0.00     0.008 C 
ATOM     19  C   UNL     1       2.840 -20.385  14.910  1.00  0.00     0.008 C 
ENDBRANCH  12  17
ENDBRANCH  11  12
ENDBRANCH   1  11
TORSDOF 1
ENDMDL
MODEL 7
REMARK VINA RESULT:    -2.425      4.726      6.951
REMARK INTER + INTRA:          -3.714
REMARK INTER:                  -3.265
REMARK INTRA:                  -0.449
REMARK UNBOUND:                -0.014
REMARK SMILES CC1=CCC[C@H](C)C(=O)C[C@H](C(C)C)C(=O)C1
REMARK SMILES IDX 8 1 9 2 6 3 7 4 5 5 4 6 3 7 2 8 1 9 10 11 11 12 15 13 16 14
REMARK SMILES IDX 17 15 12 17 13 18 14 19
REMARK H PARENT
REMARK Flexibility Score: 70.00
ROOT
ATOM      1  C   UNL     1       2.151 -16.313  14.186  1.00  0.00     0.136 C 
ATOM      2  O   UNL     1       1.589 -15.464  13.510  1.00  0.00    -0.299 OA
ENDROOT
BRANCH   1   3
ATOM      3  C   UNL     1       1.691 -16.523  15.620  1.00  0.00     0.053 C 
ATOM      4  C   UNL     1       1.897 -15.268  16.480  1.00  0.00     0.016 C 
BRANCH   3   5
ATOM      5  C   UNL     1       0.281 -17.188  15.696  1.00  0.00     0.015 C 
BRANCH   5   6
ATOM      6  C   UNL     1       0.152 -18.722  15.567  1.00  0.00     0.028 C 
BRANCH   6   7
ATOM      7  C   UNL     1       1.105 -19.572  16.375  1.00  0.00    -0.028 C 
ATOM      8  C   UNL     1       2.315 -20.032  15.982  1.00  0.00    -0.070 CG0
ATOM      9  C   UNL     1       3.179 -20.702  17.022  1.00  0.00     0.039 C 
ATOM     10  G   UNL     1       2.822 -19.976  14.556  1.00  0.00     0.000 G0
ENDBRANCH   6   7
ENDBRANCH   5   6
ENDBRANCH   3   5
ENDBRANCH   1   3
BRANCH   1  11
ATOM     11  C   UNL     1       3.280 -17.104  13.566  1.00  0.00     0.087 C 
BRANCH  11  12
ATOM     12  C   UNL     1       4.219 -17.741  14.637  1.00  0.00     0.066 C 
BRANCH  12  13
ATOM     13  C   UNL     1       4.158 -19.255  14.500  1.00  0.00     0.140 C 
ATOM     14  O   UNL     1       5.168 -19.881  14.213  1.00  0.00    -0.299 OA
BRANCH  13  15
ATOM     15  C   UNL     1       2.838 -19.988  14.558  1.00  0.00     0.106 CG0
ATOM     16  G   UNL     1       2.330 -20.019  15.984  1.00  0.00     0.000 G0
ENDBRANCH  13  15
ENDBRANCH  12  13
BRANCH  12  17
ATOM     17  C   UNL     1       5.689 -17.210  14.563  1.00  0.00    -0.006 C 
ATOM     18  C   UNL     1       6.040 -16.362  15.802  1.00  0.00     0.008 C 
ATOM     19  C   UNL     1       5.937 -16.360  13.305  1.00  0.00     0.008 C 
ENDBRANCH  12  17
ENDBRANCH  11  12
ENDBRANCH   1  11
TORSDOF 1
ENDMDL
MODEL 8
REMARK VINA RESULT:    -2.393      2.106      4.006
REMARK INTER + INTRA:          -3.666
REMARK INTER:                  -3.120
REMARK INTRA:                  -0.546
REMARK UNBOUND:                -0.014
REMARK SMILES CC1=CCC[C@H](C)C(=O)C[C@H](C(C)C)C(=O)C1
REMARK SMILES IDX 8 1 9 2 6 3 7 4 5 5 4 6 3 7 2 8 1 9 10 11 11 12 15 13 16 14
REMARK SMILES IDX 17 15 12 17 13 18 14 19
REMARK H PARENT
REMARK Flexibility Score: 70.00
ROOT
ATOM      1  C   UNL     1       2.423 -13.933   9.965  1.00  0.00     0.136 C 
ATOM      2  O   UNL     1       2.308 -13.455   8.847  1.00  0.00    -0.299 OA
ENDROOT
BRANCH   1   3
ATOM      3  C   UNL     1       2.380 -15.446  10.119  1.00  0.00     0.053 C 
ATOM      4  C   UNL     1       1.041 -16.033   9.648  1.00  0.00     0.016 C 
BRANCH   3   5
ATOM      5  C   UNL     1       3.667 -16.132   9.565  1.00  0.00     0.015 C 
BRANCH   5   6
ATOM      6  C   UNL     1       5.019 -15.389   9.636  1.00  0.00     0.028 C 
BRANCH   6   7
ATOM      7  C   UNL     1       5.890 -15.638  10.846  1.00  0.00    -0.028 C 
ATOM      8  C   UNL     1       5.989 -14.861  11.949  1.00  0.00    -0.070 CG0
ATOM      9  C   UNL     1       6.776 -15.402  13.117  1.00  0.00     0.039 C 
ATOM     10  G   UNL     1       5.417 -13.462  12.055  1.00  0.00     0.000 G0
ENDBRANCH   6   7
ENDBRANCH   5   6
ENDBRANCH   3   5
ENDBRANCH   1   3
BRANCH   1  11
ATOM     11  C   UNL     1       2.595 -12.997  11.140  1.00  0.00     0.087 C 
BRANCH  11  12
ATOM     12  C   UNL     1       2.842 -13.760  12.478  1.00  0.00     0.066 C 
BRANCH  12  13
ATOM     13  C   UNL     1       4.236 -13.419  12.982  1.00  0.00     0.140 C 
ATOM     14  O   UNL     1       4.384 -12.995  14.120  1.00  0.00    -0.299 OA
BRANCH  13  15
ATOM     15  C   UNL     1       5.427 -13.446  12.054  1.00  0.00     0.106 CG0
ATOM     16  G   UNL     1       5.981 -14.853  11.968  1.00  0.00     0.000 G0
ENDBRANCH  13  15
ENDBRANCH  12  13
BRANCH  12  17
ATOM     17  C   UNL     1       1.748 -13.481  13.560  1.00  0.00    -0.006 C 
ATOM     18  C   UNL     1       1.131 -14.792  14.085  1.00  0.00     0.008 C 
ATOM     19  C   UNL     1       0.613 -12.590  13.023  1.00  0.00     0.008 C 
ENDBRANCH  12  17
ENDBRANCH  11  12
ENDBRANCH   1  11
TORSDOF 1
ENDMDL
MODEL 9
REMARK VINA RESULT:    -2.287      1.881      3.965
REMARK INTER + INTRA:          -3.505
REMARK INTER:                  -2.989
REMARK INTRA:                  -0.515
REMARK UNBOUND:                -0.014
REMARK SMILES CC1=CCC[C@H](C)C(=O)C[C@H](C(C)C)C(=O)C1
REMARK SMILES IDX 8 1 9 2 6 3 7 4 5 5 4 6 3 7 2 8 1 9 10 11 11 12 15 13 16 14
REMARK SMILES IDX 17 15 12 17 13 18 14 19
REMARK H PARENT
REMARK Flexibility Score: 70.00
ROOT
ATOM      1  C   UNL     1       1.365 -14.407  10.994  1.00  0.00     0.136 C 
ATOM      2  O   UNL     1       0.481 -13.999  10.257  1.00  0.00    -0.299 OA
ENDROOT
BRANCH   1   3
ATOM      3  C   UNL     1       2.378 -15.396  10.439  1.00  0.00     0.053 C 
ATOM      4  C   UNL     1       1.708 -16.685   9.940  1.00  0.00     0.016 C 
BRANCH   3   5
ATOM      5  C   UNL     1       3.389 -14.720   9.461  1.00  0.00     0.015 C 
BRANCH   5   6
ATOM      6  C   UNL     1       3.719 -13.219   9.621  1.00  0.00     0.028 C 
BRANCH   6   7
ATOM      7  C   UNL     1       4.960 -12.858  10.404  1.00  0.00    -0.028 C 
ATOM      8  C   UNL     1       5.014 -12.411  11.679  1.00  0.00    -0.070 CG0
ATOM      9  C   UNL     1       6.374 -12.295  12.323  1.00  0.00     0.039 C 
ATOM     10  G   UNL     1       3.805 -11.958  12.471  1.00  0.00     0.000 G0
ENDBRANCH   6   7
ENDBRANCH   5   6
ENDBRANCH   3   5
ENDBRANCH   1   3
BRANCH   1  11
ATOM     11  C   UNL     1       1.404 -13.913  12.423  1.00  0.00     0.087 C 
BRANCH  11  12
ATOM     12  C   UNL     1       2.736 -14.284  13.145  1.00  0.00     0.066 C 
BRANCH  12  13
ATOM     13  C   UNL     1       3.456 -12.999  13.529  1.00  0.00     0.140 C 
ATOM     14  O   UNL     1       3.648 -12.739  14.708  1.00  0.00    -0.299 OA
BRANCH  13  15
ATOM     15  C   UNL     1       3.801 -11.960  12.488  1.00  0.00     0.106 CG0
ATOM     16  G   UNL     1       5.000 -12.417  11.684  1.00  0.00     0.000 G0
ENDBRANCH  13  15
ENDBRANCH  12  13
BRANCH  12  17
ATOM     17  C   UNL     1       2.530 -15.225  14.378  1.00  0.00    -0.006 C 
ATOM     18  C   UNL     1       3.375 -16.508  14.250  1.00  0.00     0.008 C 
ATOM     19  C   UNL     1       1.056 -15.629  14.560  1.00  0.00     0.008 C 
ENDBRANCH  12  17
ENDBRANCH  11  12
ENDBRANCH   1  11
TORSDOF 1
ENDMDL
