MODEL 1
REMARK VINA RESULT:    -7.586      0.000      0.000
REMARK INTER + INTRA:          -9.380
REMARK INTER:                  -9.138
REMARK INTRA:                  -0.242
REMARK UNBOUND:                -0.242
REMARK SMILES O=c1c(O)c(-c2ccc(O)c(O)c2)oc2cc(O)cc(O)c12
REMARK SMILES IDX 5 1 3 2 2 3 1 4 22 5 20 6 19 7 17 8 16 9 15 10 14 11 6 12
REMARK SMILES IDX 7 13 8 14 9 15 13 16 11 17 10 18 12 20 4 22 21 24 18 26
REMARK H PARENT 10 19 12 21 4 23 21 25 18 27
REMARK Flexibility Score: inf
ROOT
ATOM      1  C   UNL     1      39.304 -11.982   8.291  1.00  0.00     0.180 A 
ATOM      2  C   UNL     1      39.516 -10.708   8.852  1.00  0.00     0.208 A 
ATOM      3  C   UNL     1      40.556 -10.539   9.779  1.00  0.00     0.238 A 
ATOM      4  O   UNL     1      40.763  -9.401  10.280  1.00  0.00    -0.285 OA
ATOM      5  C   UNL     1      41.351 -11.646  10.142  1.00  0.00     0.111 A 
ATOM      6  C   UNL     1      42.417 -11.561  11.071  1.00  0.00     0.134 A 
ATOM      7  C   UNL     1      43.156 -12.710  11.388  1.00  0.00     0.093 A 
ATOM      8  C   UNL     1      42.852 -13.939  10.797  1.00  0.00     0.123 A 
ATOM      9  C   UNL     1      41.801 -14.028   9.879  1.00  0.00     0.094 A 
ATOM     10  C   UNL     1      41.053 -12.895   9.549  1.00  0.00     0.146 A 
ATOM     11  O   UNL     1      40.064 -13.006   8.669  1.00  0.00    -0.452 OA
ENDROOT
BRANCH   1  12
ATOM     12  C   UNL     1      38.239 -12.236   7.294  1.00  0.00     0.025 A 
ATOM     13  C   UNL     1      37.153 -13.056   7.636  1.00  0.00     0.016 A 
ATOM     14  C   UNL     1      36.147 -13.326   6.705  1.00  0.00     0.051 A 
ATOM     15  C   UNL     1      36.219 -12.793   5.414  1.00  0.00     0.157 A 
ATOM     16  C   UNL     1      38.320 -11.718   5.988  1.00  0.00     0.062 A 
ATOM     17  C   UNL     1      37.312 -11.989   5.052  1.00  0.00     0.158 A 
BRANCH  15  18
ATOM     18  O   UNL     1      35.199 -13.077   4.506  1.00  0.00    -0.504 OA
ATOM     19  H   UNL     1      34.917 -12.418   3.791  1.00  0.00     0.293 HD
ENDBRANCH  15  18
BRANCH  17  20
ATOM     20  O   UNL     1      37.397 -11.467   3.761  1.00  0.00    -0.504 OA
ATOM     21  H   UNL     1      37.131 -10.511   3.556  1.00  0.00     0.293 HD
ENDBRANCH  17  20
ENDBRANCH   1  12
BRANCH   2  22
ATOM     22  O   UNL     1      38.682  -9.639   8.512  1.00  0.00    -0.502 OA
ATOM     23  H   UNL     1      37.677  -9.673   8.639  1.00  0.00     0.293 HD
ENDBRANCH   2  22
BRANCH   6  24
ATOM     24  O   UNL     1      42.746 -10.349  11.679  1.00  0.00    -0.507 OA
ATOM     25  H   UNL     1      43.592 -10.239  12.225  1.00  0.00     0.293 HD
ENDBRANCH   6  24
BRANCH   8  26
ATOM     26  O   UNL     1      43.601 -15.066  11.130  1.00  0.00    -0.508 OA
ATOM     27  H   UNL     1      44.603 -15.097  10.983  1.00  0.00     0.293 HD
ENDBRANCH   8  26
TORSDOF 6
ENDMDL
MODEL 2
REMARK VINA RESULT:    -7.479      6.440      9.709
REMARK INTER + INTRA:          -9.252
REMARK INTER:                  -8.950
REMARK INTRA:                  -0.302
REMARK UNBOUND:                -0.242
REMARK SMILES O=c1c(O)c(-c2ccc(O)c(O)c2)oc2cc(O)cc(O)c12
REMARK SMILES IDX 5 1 3 2 2 3 1 4 22 5 20 6 19 7 17 8 16 9 15 10 14 11 6 12
REMARK SMILES IDX 7 13 8 14 9 15 13 16 11 17 10 18 12 20 4 22 21 24 18 26
REMARK H PARENT 10 19 12 21 4 23 21 25 18 27
REMARK Flexibility Score: inf
ROOT
ATOM      1  C   UNL     1      33.366 -14.188   1.815  1.00  0.00     0.180 A 
ATOM      2  C   UNL     1      34.039 -15.001   2.747  1.00  0.00     0.208 A 
ATOM      3  C   UNL     1      35.160 -14.484   3.414  1.00  0.00     0.238 A 
ATOM      4  O   UNL     1      35.764 -15.198   4.259  1.00  0.00    -0.285 OA
ATOM      5  C   UNL     1      35.601 -13.175   3.124  1.00  0.00     0.111 A 
ATOM      6  C   UNL     1      36.724 -12.581   3.748  1.00  0.00     0.134 A 
ATOM      7  C   UNL     1      37.105 -11.277   3.399  1.00  0.00     0.093 A 
ATOM      8  C   UNL     1      36.388 -10.558   2.439  1.00  0.00     0.123 A 
ATOM      9  C   UNL     1      35.278 -11.140   1.819  1.00  0.00     0.094 A 
ATOM     10  C   UNL     1      34.881 -12.437   2.155  1.00  0.00     0.146 A 
ATOM     11  O   UNL     1      33.819 -12.965   1.556  1.00  0.00    -0.452 OA
ENDROOT
BRANCH   1  12
ATOM     12  C   UNL     1      32.165 -14.655   1.085  1.00  0.00     0.025 A 
ATOM     13  C   UNL     1      32.278 -15.034  -0.261  1.00  0.00     0.016 A 
ATOM     14  C   UNL     1      31.155 -15.459  -0.975  1.00  0.00     0.051 A 
ATOM     15  C   UNL     1      29.900 -15.496  -0.359  1.00  0.00     0.157 A 
ATOM     16  C   UNL     1      30.898 -14.674   1.696  1.00  0.00     0.062 A 
ATOM     17  C   UNL     1      29.769 -15.098   0.981  1.00  0.00     0.158 A 
BRANCH  15  18
ATOM     18  O   UNL     1      28.797 -15.927  -1.096  1.00  0.00    -0.504 OA
ATOM     19  H   UNL     1      28.370 -15.352  -1.812  1.00  0.00     0.293 HD
ENDBRANCH  15  18
BRANCH  17  20
ATOM     20  O   UNL     1      28.517 -15.119   1.596  1.00  0.00    -0.504 OA
ATOM     21  H   UNL     1      28.410 -15.364   2.574  1.00  0.00     0.293 HD
ENDBRANCH  17  20
ENDBRANCH   1  12
BRANCH   2  22
ATOM     22  O   UNL     1      33.612 -16.311   2.979  1.00  0.00    -0.502 OA
ATOM     23  H   UNL     1      34.070 -16.921   3.645  1.00  0.00     0.293 HD
ENDBRANCH   2  22
BRANCH   6  24
ATOM     24  O   UNL     1      37.462 -13.273   4.710  1.00  0.00    -0.507 OA
ATOM     25  H   UNL     1      38.284 -12.869   5.144  1.00  0.00     0.293 HD
ENDBRANCH   6  24
BRANCH   8  26
ATOM     26  O   UNL     1      36.788  -9.265   2.110  1.00  0.00    -0.508 OA
ATOM     27  H   UNL     1      37.752  -9.050   1.883  1.00  0.00     0.293 HD
ENDBRANCH   8  26
TORSDOF 6
ENDMDL
MODEL 3
REMARK VINA RESULT:    -7.412      0.630      1.438
REMARK INTER + INTRA:          -9.170
REMARK INTER:                  -8.871
REMARK INTRA:                  -0.299
REMARK UNBOUND:                -0.242
REMARK SMILES O=c1c(O)c(-c2ccc(O)c(O)c2)oc2cc(O)cc(O)c12
REMARK SMILES IDX 5 1 3 2 2 3 1 4 22 5 20 6 19 7 17 8 16 9 15 10 14 11 6 12
REMARK SMILES IDX 7 13 8 14 9 15 13 16 11 17 10 18 12 20 4 22 21 24 18 26
REMARK H PARENT 10 19 12 21 4 23 21 25 18 27
REMARK Flexibility Score: inf
ROOT
ATOM      1  C   UNL     1      39.183 -11.786   8.118  1.00  0.00     0.180 A 
ATOM      2  C   UNL     1      39.348 -10.528   8.728  1.00  0.00     0.208 A 
ATOM      3  C   UNL     1      40.355 -10.368   9.692  1.00  0.00     0.238 A 
ATOM      4  O   UNL     1      40.519  -9.244  10.238  1.00  0.00    -0.285 OA
ATOM      5  C   UNL     1      41.165 -11.469  10.043  1.00  0.00     0.111 A 
ATOM      6  C   UNL     1      42.199 -11.392  11.007  1.00  0.00     0.134 A 
ATOM      7  C   UNL     1      42.955 -12.535  11.307  1.00  0.00     0.093 A 
ATOM      8  C   UNL     1      42.699 -13.749  10.665  1.00  0.00     0.123 A 
ATOM      9  C   UNL     1      41.678 -13.830   9.713  1.00  0.00     0.094 A 
ATOM     10  C   UNL     1      40.915 -12.703   9.398  1.00  0.00     0.146 A 
ATOM     11  O   UNL     1      39.956 -12.805   8.484  1.00  0.00    -0.452 OA
ENDROOT
BRANCH   1  12
ATOM     12  C   UNL     1      38.156 -12.030   7.079  1.00  0.00     0.025 A 
ATOM     13  C   UNL     1      38.400 -11.626   5.758  1.00  0.00     0.016 A 
ATOM     14  C   UNL     1      37.437 -11.827   4.766  1.00  0.00     0.051 A 
ATOM     15  C   UNL     1      36.210 -12.419   5.082  1.00  0.00     0.157 A 
ATOM     16  C   UNL     1      36.913 -12.606   7.400  1.00  0.00     0.062 A 
ATOM     17  C   UNL     1      35.944 -12.807   6.405  1.00  0.00     0.158 A 
BRANCH  15  18
ATOM     18  O   UNL     1      35.269 -12.609   4.071  1.00  0.00    -0.504 OA
ATOM     19  H   UNL     1      35.097 -11.911   3.359  1.00  0.00     0.293 HD
ENDBRANCH  15  18
BRANCH  17  20
ATOM     20  O   UNL     1      34.717 -13.385   6.730  1.00  0.00    -0.504 OA
ATOM     21  H   UNL     1      34.627 -14.048   7.491  1.00  0.00     0.293 HD
ENDBRANCH  17  20
ENDBRANCH   1  12
BRANCH   2  22
ATOM     22  O   UNL     1      38.499  -9.468   8.399  1.00  0.00    -0.502 OA
ATOM     23  H   UNL     1      38.222  -9.271   7.445  1.00  0.00     0.293 HD
ENDBRANCH   2  22
BRANCH   6  24
ATOM     24  O   UNL     1      42.480 -10.195  11.666  1.00  0.00    -0.507 OA
ATOM     25  H   UNL     1      42.525 -10.140  12.677  1.00  0.00     0.293 HD
ENDBRANCH   6  24
BRANCH   8  26
ATOM     26  O   UNL     1      43.464 -14.869  10.983  1.00  0.00    -0.508 OA
ATOM     27  H   UNL     1      44.475 -14.822  11.034  1.00  0.00     0.293 HD
ENDBRANCH   8  26
TORSDOF 6
ENDMDL
MODEL 4
REMARK VINA RESULT:    -7.386      1.736      7.173
REMARK INTER + INTRA:          -9.139
REMARK INTER:                  -8.890
REMARK INTRA:                  -0.249
REMARK UNBOUND:                -0.242
REMARK SMILES O=c1c(O)c(-c2ccc(O)c(O)c2)oc2cc(O)cc(O)c12
REMARK SMILES IDX 5 1 3 2 2 3 1 4 22 5 20 6 19 7 17 8 16 9 15 10 14 11 6 12
REMARK SMILES IDX 7 13 8 14 9 15 13 16 11 17 10 18 12 20 4 22 21 24 18 26
REMARK H PARENT 10 19 12 21 4 23 21 25 18 27
REMARK Flexibility Score: inf
ROOT
ATOM      1  C   UNL     1      39.236 -11.398   7.974  1.00  0.00     0.180 A 
ATOM      2  C   UNL     1      38.013 -12.012   8.308  1.00  0.00     0.208 A 
ATOM      3  C   UNL     1      37.057 -12.212   7.300  1.00  0.00     0.238 A 
ATOM      4  O   UNL     1      35.963 -12.771   7.585  1.00  0.00    -0.285 OA
ATOM      5  C   UNL     1      37.329 -11.778   5.986  1.00  0.00     0.111 A 
ATOM      6  C   UNL     1      36.417 -11.939   4.914  1.00  0.00     0.134 A 
ATOM      7  C   UNL     1      36.758 -11.472   3.636  1.00  0.00     0.093 A 
ATOM      8  C   UNL     1      37.988 -10.850   3.409  1.00  0.00     0.123 A 
ATOM      9  C   UNL     1      38.892 -10.689   4.464  1.00  0.00     0.094 A 
ATOM     10  C   UNL     1      38.572 -11.149   5.744  1.00  0.00     0.146 A 
ATOM     11  O   UNL     1      39.451 -10.989   6.727  1.00  0.00    -0.452 OA
ENDROOT
BRANCH   1  12
ATOM     12  C   UNL     1      40.302 -11.170   8.976  1.00  0.00     0.025 A 
ATOM     13  C   UNL     1      41.434 -11.998   8.981  1.00  0.00     0.016 A 
ATOM     14  C   UNL     1      42.443 -11.814   9.930  1.00  0.00     0.051 A 
ATOM     15  C   UNL     1      42.328 -10.811  10.898  1.00  0.00     0.157 A 
ATOM     16  C   UNL     1      40.178 -10.175   9.963  1.00  0.00     0.062 A 
ATOM     17  C   UNL     1      41.189  -9.990  10.918  1.00  0.00     0.158 A 
BRANCH  15  18
ATOM     18  O   UNL     1      43.352 -10.648  11.830  1.00  0.00    -0.504 OA
ATOM     19  H   UNL     1      43.166 -10.550  12.821  1.00  0.00     0.293 HD
ENDBRANCH  15  18
BRANCH  17  20
ATOM     20  O   UNL     1      41.061  -8.997  11.889  1.00  0.00    -0.504 OA
ATOM     21  H   UNL     1      41.721  -8.230  11.955  1.00  0.00     0.293 HD
ENDBRANCH  17  20
ENDBRANCH   1  12
BRANCH   2  22
ATOM     22  O   UNL     1      37.749 -12.387   9.628  1.00  0.00    -0.502 OA
ATOM     23  H   UNL     1      38.356 -12.130  10.397  1.00  0.00     0.293 HD
ENDBRANCH   2  22
BRANCH   6  24
ATOM     24  O   UNL     1      35.180 -12.555   5.109  1.00  0.00    -0.507 OA
ATOM     25  H   UNL     1      34.791 -13.196   4.427  1.00  0.00     0.293 HD
ENDBRANCH   6  24
BRANCH   8  26
ATOM     26  O   UNL     1      38.301 -10.395   2.130  1.00  0.00    -0.508 OA
ATOM     27  H   UNL     1      38.323 -11.023   1.335  1.00  0.00     0.293 HD
ENDBRANCH   8  26
TORSDOF 6
ENDMDL
MODEL 5
REMARK VINA RESULT:    -7.338      1.565      7.076
REMARK INTER + INTRA:          -9.082
REMARK INTER:                  -8.790
REMARK INTRA:                  -0.292
REMARK UNBOUND:                -0.242
REMARK SMILES O=c1c(O)c(-c2ccc(O)c(O)c2)oc2cc(O)cc(O)c12
REMARK SMILES IDX 5 1 3 2 2 3 1 4 22 5 20 6 19 7 17 8 16 9 15 10 14 11 6 12
REMARK SMILES IDX 7 13 8 14 9 15 13 16 11 17 10 18 12 20 4 22 21 24 18 26
REMARK H PARENT 10 19 12 21 4 23 21 25 18 27
REMARK Flexibility Score: inf
ROOT
ATOM      1  C   UNL     1      39.771 -11.748   8.622  1.00  0.00     0.180 A 
ATOM      2  C   UNL     1      38.512 -12.312   8.906  1.00  0.00     0.208 A 
ATOM      3  C   UNL     1      37.524 -12.302   7.909  1.00  0.00     0.238 A 
ATOM      4  O   UNL     1      36.396 -12.813   8.147  1.00  0.00    -0.285 OA
ATOM      5  C   UNL     1      37.803 -11.713   6.658  1.00  0.00     0.111 A 
ATOM      6  C   UNL     1      36.861 -11.658   5.602  1.00  0.00     0.134 A 
ATOM      7  C   UNL     1      37.211 -11.046   4.389  1.00  0.00     0.093 A 
ATOM      8  C   UNL     1      38.480 -10.490   4.212  1.00  0.00     0.123 A 
ATOM      9  C   UNL     1      39.414 -10.541   5.252  1.00  0.00     0.094 A 
ATOM     10  C   UNL     1      39.085 -11.148   6.467  1.00  0.00     0.146 A 
ATOM     11  O   UNL     1      39.993 -11.188   7.436  1.00  0.00    -0.452 OA
ENDROOT
BRANCH   1  12
ATOM     12  C   UNL     1      40.870 -11.737   9.614  1.00  0.00     0.025 A 
ATOM     13  C   UNL     1      41.205 -10.538  10.261  1.00  0.00     0.016 A 
ATOM     14  C   UNL     1      42.252 -10.500  11.186  1.00  0.00     0.051 A 
ATOM     15  C   UNL     1      42.989 -11.655  11.466  1.00  0.00     0.157 A 
ATOM     16  C   UNL     1      41.627 -12.893   9.882  1.00  0.00     0.062 A 
ATOM     17  C   UNL     1      42.679 -12.856  10.808  1.00  0.00     0.158 A 
BRANCH  15  18
ATOM     18  O   UNL     1      44.027 -11.588  12.395  1.00  0.00    -0.504 OA
ATOM     19  H   UNL     1      44.959 -11.923  12.186  1.00  0.00     0.293 HD
ENDBRANCH  15  18
BRANCH  17  20
ATOM     20  O   UNL     1      43.420 -14.008  11.072  1.00  0.00    -0.504 OA
ATOM     21  H   UNL     1      43.244 -14.877  10.581  1.00  0.00     0.293 HD
ENDBRANCH  17  20
ENDBRANCH   1  12
BRANCH   2  22
ATOM     22  O   UNL     1      38.246 -12.844  10.170  1.00  0.00    -0.502 OA
ATOM     23  H   UNL     1      38.648 -13.719  10.487  1.00  0.00     0.293 HD
ENDBRANCH   2  22
BRANCH   6  24
ATOM     24  O   UNL     1      35.585 -12.204   5.747  1.00  0.00    -0.507 OA
ATOM     25  H   UNL     1      35.182 -12.383   6.660  1.00  0.00     0.293 HD
ENDBRANCH   6  24
BRANCH   8  26
ATOM     26  O   UNL     1      38.802  -9.887   2.998  1.00  0.00    -0.508 OA
ATOM     27  H   UNL     1      39.068  -8.911   2.945  1.00  0.00     0.293 HD
ENDBRANCH   8  26
TORSDOF 6
ENDMDL
MODEL 6
REMARK VINA RESULT:    -7.262      6.123     12.032
REMARK INTER + INTRA:          -8.989
REMARK INTER:                  -8.899
REMARK INTRA:                  -0.090
REMARK UNBOUND:                -0.242
REMARK SMILES O=c1c(O)c(-c2ccc(O)c(O)c2)oc2cc(O)cc(O)c12
REMARK SMILES IDX 5 1 3 2 2 3 1 4 22 5 20 6 19 7 17 8 16 9 15 10 14 11 6 12
REMARK SMILES IDX 7 13 8 14 9 15 13 16 11 17 10 18 12 20 4 22 21 24 18 26
REMARK H PARENT 10 19 12 21 4 23 21 25 18 27
REMARK Flexibility Score: inf
ROOT
ATOM      1  C   UNL     1      33.101 -14.240   2.120  1.00  0.00     0.180 A 
ATOM      2  C   UNL     1      33.213 -14.746   0.811  1.00  0.00     0.208 A 
ATOM      3  C   UNL     1      32.049 -15.148   0.137  1.00  0.00     0.238 A 
ATOM      4  O   UNL     1      32.135 -15.593  -1.039  1.00  0.00    -0.285 OA
ATOM      5  C   UNL     1      30.801 -15.056   0.788  1.00  0.00     0.111 A 
ATOM      6  C   UNL     1      29.582 -15.443   0.180  1.00  0.00     0.134 A 
ATOM      7  C   UNL     1      28.381 -15.330   0.896  1.00  0.00     0.093 A 
ATOM      8  C   UNL     1      28.375 -14.839   2.204  1.00  0.00     0.123 A 
ATOM      9  C   UNL     1      29.576 -14.455   2.809  1.00  0.00     0.094 A 
ATOM     10  C   UNL     1      30.783 -14.558   2.112  1.00  0.00     0.146 A 
ATOM     11  O   UNL     1      31.909 -14.181   2.707  1.00  0.00    -0.452 OA
ENDROOT
BRANCH   1  12
ATOM     12  C   UNL     1      34.279 -13.778   2.889  1.00  0.00     0.025 A 
ATOM     13  C   UNL     1      35.089 -12.759   2.366  1.00  0.00     0.016 A 
ATOM     14  C   UNL     1      36.218 -12.321   3.065  1.00  0.00     0.051 A 
ATOM     15  C   UNL     1      36.562 -12.906   4.288  1.00  0.00     0.157 A 
ATOM     16  C   UNL     1      34.639 -14.379   4.109  1.00  0.00     0.062 A 
ATOM     17  C   UNL     1      35.772 -13.943   4.811  1.00  0.00     0.158 A 
BRANCH  15  18
ATOM     18  O   UNL     1      37.692 -12.447   4.964  1.00  0.00    -0.504 OA
ATOM     19  H   UNL     1      38.036 -11.501   4.856  1.00  0.00     0.293 HD
ENDBRANCH  15  18
BRANCH  17  20
ATOM     20  O   UNL     1      36.118 -14.540   6.023  1.00  0.00    -0.504 OA
ATOM     21  H   UNL     1      36.545 -14.010   6.773  1.00  0.00     0.293 HD
ENDBRANCH  17  20
ENDBRANCH   1  12
BRANCH   2  22
ATOM     22  O   UNL     1      34.467 -14.873   0.208  1.00  0.00    -0.502 OA
ATOM     23  H   UNL     1      35.003 -14.072  -0.103  1.00  0.00     0.293 HD
ENDBRANCH   2  22
BRANCH   6  24
ATOM     24  O   UNL     1      29.554 -15.938  -1.125  1.00  0.00    -0.507 OA
ATOM     25  H   UNL     1      29.258 -16.885  -1.330  1.00  0.00     0.293 HD
ENDBRANCH   6  24
BRANCH   8  26
ATOM     26  O   UNL     1      27.169 -14.738   2.894  1.00  0.00    -0.508 OA
ATOM     27  H   UNL     1      26.507 -13.996   2.697  1.00  0.00     0.293 HD
ENDBRANCH   8  26
TORSDOF 6
ENDMDL
MODEL 7
REMARK VINA RESULT:    -7.252      6.445      9.946
REMARK INTER + INTRA:          -8.978
REMARK INTER:                  -8.757
REMARK INTRA:                  -0.220
REMARK UNBOUND:                -0.242
REMARK SMILES O=c1c(O)c(-c2ccc(O)c(O)c2)oc2cc(O)cc(O)c12
REMARK SMILES IDX 5 1 3 2 2 3 1 4 22 5 20 6 19 7 17 8 16 9 15 10 14 11 6 12
REMARK SMILES IDX 7 13 8 14 9 15 13 16 11 17 10 18 12 20 4 22 21 24 18 26
REMARK H PARENT 10 19 12 21 4 23 21 25 18 27
REMARK Flexibility Score: inf
ROOT
ATOM      1  C   UNL     1      32.444 -13.997   1.603  1.00  0.00     0.180 A 
ATOM      2  C   UNL     1      32.996 -12.836   1.028  1.00  0.00     0.208 A 
ATOM      3  C   UNL     1      34.229 -12.364   1.505  1.00  0.00     0.238 A 
ATOM      4  O   UNL     1      34.738 -11.331   0.991  1.00  0.00    -0.285 OA
ATOM      5  C   UNL     1      34.877 -13.045   2.556  1.00  0.00     0.111 A 
ATOM      6  C   UNL     1      36.119 -12.633   3.096  1.00  0.00     0.134 A 
ATOM      7  C   UNL     1      36.696 -13.359   4.147  1.00  0.00     0.093 A 
ATOM      8  C   UNL     1      36.057 -14.486   4.670  1.00  0.00     0.123 A 
ATOM      9  C   UNL     1      34.830 -14.898   4.141  1.00  0.00     0.094 A 
ATOM     10  C   UNL     1      34.239 -14.189   3.091  1.00  0.00     0.146 A 
ATOM     11  O   UNL     1      33.076 -14.605   2.603  1.00  0.00    -0.452 OA
ENDROOT
BRANCH   1  12
ATOM     12  C   UNL     1      31.157 -14.567   1.143  1.00  0.00     0.025 A 
ATOM     13  C   UNL     1      31.080 -15.165  -0.124  1.00  0.00     0.016 A 
ATOM     14  C   UNL     1      29.871 -15.692  -0.587  1.00  0.00     0.051 A 
ATOM     15  C   UNL     1      28.719 -15.615   0.202  1.00  0.00     0.157 A 
ATOM     16  C   UNL     1      29.992 -14.473   1.927  1.00  0.00     0.062 A 
ATOM     17  C   UNL     1      28.778 -15.000   1.463  1.00  0.00     0.158 A 
BRANCH  15  18
ATOM     18  O   UNL     1      27.528 -16.152  -0.285  1.00  0.00    -0.504 OA
ATOM     19  H   UNL     1      27.289 -16.125  -1.268  1.00  0.00     0.293 HD
ENDBRANCH  15  18
BRANCH  17  20
ATOM     20  O   UNL     1      27.629 -14.908   2.248  1.00  0.00    -0.504 OA
ATOM     21  H   UNL     1      26.707 -15.069   1.862  1.00  0.00     0.293 HD
ENDBRANCH  17  20
ENDBRANCH   1  12
BRANCH   2  22
ATOM     22  O   UNL     1      32.309 -12.151   0.023  1.00  0.00    -0.502 OA
ATOM     23  H   UNL     1      31.507 -12.547  -0.453  1.00  0.00     0.293 HD
ENDBRANCH   2  22
BRANCH   6  24
ATOM     24  O   UNL     1      36.783 -11.511   2.596  1.00  0.00    -0.507 OA
ATOM     25  H   UNL     1      37.661 -11.589   2.097  1.00  0.00     0.293 HD
ENDBRANCH   6  24
BRANCH   8  26
ATOM     26  O   UNL     1      36.651 -15.190   5.716  1.00  0.00    -0.508 OA
ATOM     27  H   UNL     1      36.467 -16.175   5.862  1.00  0.00     0.293 HD
ENDBRANCH   8  26
TORSDOF 6
ENDMDL
MODEL 8
REMARK VINA RESULT:    -7.161      1.586      6.930
REMARK INTER + INTRA:          -8.868
REMARK INTER:                  -8.620
REMARK INTRA:                  -0.248
REMARK UNBOUND:                -0.242
REMARK SMILES O=c1c(O)c(-c2ccc(O)c(O)c2)oc2cc(O)cc(O)c12
REMARK SMILES IDX 5 1 3 2 2 3 1 4 22 5 20 6 19 7 17 8 16 9 15 10 14 11 6 12
REMARK SMILES IDX 7 13 8 14 9 15 13 16 11 17 10 18 12 20 4 22 21 24 18 26
REMARK H PARENT 10 19 12 21 4 23 21 25 18 27
REMARK Flexibility Score: inf
ROOT
ATOM      1  C   UNL     1      40.416 -11.396   8.222  1.00  0.00     0.180 A 
ATOM      2  C   UNL     1      40.735 -10.647   7.074  1.00  0.00     0.208 A 
ATOM      3  C   UNL     1      39.793 -10.559   6.038  1.00  0.00     0.238 A 
ATOM      4  O   UNL     1      40.063  -9.883   5.008  1.00  0.00    -0.285 OA
ATOM      5  C   UNL     1      38.560 -11.234   6.158  1.00  0.00     0.111 A 
ATOM      6  C   UNL     1      37.558 -11.199   5.159  1.00  0.00     0.134 A 
ATOM      7  C   UNL     1      36.361 -11.905   5.349  1.00  0.00     0.093 A 
ATOM      8  C   UNL     1      36.147 -12.644   6.515  1.00  0.00     0.123 A 
ATOM      9  C   UNL     1      37.133 -12.682   7.506  1.00  0.00     0.094 A 
ATOM     10  C   UNL     1      38.332 -11.984   7.336  1.00  0.00     0.146 A 
ATOM     11  O   UNL     1      39.250 -12.031   8.295  1.00  0.00    -0.452 OA
ENDROOT
BRANCH   1  12
ATOM     12  C   UNL     1      41.350 -11.521   9.365  1.00  0.00     0.025 A 
ATOM     13  C   UNL     1      41.557 -10.422  10.212  1.00  0.00     0.016 A 
ATOM     14  C   UNL     1      42.448 -10.510  11.284  1.00  0.00     0.051 A 
ATOM     15  C   UNL     1      43.157 -11.693  11.517  1.00  0.00     0.157 A 
ATOM     16  C   UNL     1      42.080 -12.703   9.589  1.00  0.00     0.062 A 
ATOM     17  C   UNL     1      42.976 -12.793  10.663  1.00  0.00     0.158 A 
BRANCH  15  18
ATOM     18  O   UNL     1      44.038 -11.753  12.596  1.00  0.00    -0.504 OA
ATOM     19  H   UNL     1      43.862 -12.341  13.402  1.00  0.00     0.293 HD
ENDBRANCH  15  18
BRANCH  17  20
ATOM     20  O   UNL     1      43.691 -13.971  10.882  1.00  0.00    -0.504 OA
ATOM     21  H   UNL     1      43.483 -14.821  10.371  1.00  0.00     0.293 HD
ENDBRANCH  17  20
ENDBRANCH   1  12
BRANCH   2  22
ATOM     22  O   UNL     1      41.984 -10.030   6.958  1.00  0.00    -0.502 OA
ATOM     23  H   UNL     1      42.499  -9.694   7.762  1.00  0.00     0.293 HD
ENDBRANCH   2  22
BRANCH   6  24
ATOM     24  O   UNL     1      37.741 -10.471   3.982  1.00  0.00    -0.507 OA
ATOM     25  H   UNL     1      37.175  -9.660   3.763  1.00  0.00     0.293 HD
ENDBRANCH   6  24
BRANCH   8  26
ATOM     26  O   UNL     1      34.949 -13.337   6.679  1.00  0.00    -0.508 OA
ATOM     27  H   UNL     1      34.887 -14.151   7.279  1.00  0.00     0.293 HD
ENDBRANCH   8  26
TORSDOF 6
ENDMDL
MODEL 9
REMARK VINA RESULT:    -6.938      4.534     10.472
REMARK INTER + INTRA:          -8.599
REMARK INTER:                  -8.267
REMARK INTRA:                  -0.332
REMARK UNBOUND:                -0.242
REMARK SMILES O=c1c(O)c(-c2ccc(O)c(O)c2)oc2cc(O)cc(O)c12
REMARK SMILES IDX 5 1 3 2 2 3 1 4 22 5 20 6 19 7 17 8 16 9 15 10 14 11 6 12
REMARK SMILES IDX 7 13 8 14 9 15 13 16 11 17 10 18 12 20 4 22 21 24 18 26
REMARK H PARENT 10 19 12 21 4 23 21 25 18 27
REMARK Flexibility Score: inf
ROOT
ATOM      1  C   UNL     1      34.744 -14.093   3.350  1.00  0.00     0.180 A 
ATOM      2  C   UNL     1      35.237 -14.065   2.031  1.00  0.00     0.208 A 
ATOM      3  C   UNL     1      34.340 -14.251   0.967  1.00  0.00     0.238 A 
ATOM      4  O   UNL     1      34.768 -14.218  -0.218  1.00  0.00    -0.285 OA
ATOM      5  C   UNL     1      32.975 -14.481   1.239  1.00  0.00     0.111 A 
ATOM      6  C   UNL     1      32.008 -14.681   0.225  1.00  0.00     0.134 A 
ATOM      7  C   UNL     1      30.670 -14.912   0.576  1.00  0.00     0.093 A 
ATOM      8  C   UNL     1      30.281 -14.948   1.917  1.00  0.00     0.123 A 
ATOM      9  C   UNL     1      31.232 -14.751   2.923  1.00  0.00     0.094 A 
ATOM     10  C   UNL     1      32.570 -14.517   2.594  1.00  0.00     0.146 A 
ATOM     11  O   UNL     1      33.453 -14.327   3.568  1.00  0.00    -0.452 OA
ENDROOT
BRANCH   1  12
ATOM     12  C   UNL     1      35.623 -13.887   4.524  1.00  0.00     0.025 A 
ATOM     13  C   UNL     1      36.137 -15.001   5.206  1.00  0.00     0.016 A 
ATOM     14  C   UNL     1      36.951 -14.830   6.328  1.00  0.00     0.051 A 
ATOM     15  C   UNL     1      37.252 -13.546   6.794  1.00  0.00     0.157 A 
ATOM     16  C   UNL     1      35.909 -12.597   5.007  1.00  0.00     0.062 A 
ATOM     17  C   UNL     1      36.725 -12.424   6.134  1.00  0.00     0.158 A 
BRANCH  15  18
ATOM     18  O   UNL     1      38.070 -13.407   7.915  1.00  0.00    -0.504 OA
ATOM     19  H   UNL     1      38.161 -12.527   8.408  1.00  0.00     0.293 HD
ENDBRANCH  15  18
BRANCH  17  20
ATOM     20  O   UNL     1      37.010 -11.142   6.602  1.00  0.00    -0.504 OA
ATOM     21  H   UNL     1      37.957 -10.852   6.816  1.00  0.00     0.293 HD
ENDBRANCH  17  20
ENDBRANCH   1  12
BRANCH   2  22
ATOM     22  O   UNL     1      36.602 -13.886   1.792  1.00  0.00    -0.502 OA
ATOM     23  H   UNL     1      36.972 -13.715   0.865  1.00  0.00     0.293 HD
ENDBRANCH   2  22
BRANCH   6  24
ATOM     24  O   UNL     1      32.364 -14.652  -1.124  1.00  0.00    -0.507 OA
ATOM     25  H   UNL     1      32.204 -15.444  -1.736  1.00  0.00     0.293 HD
ENDBRANCH   6  24
BRANCH   8  26
ATOM     26  O   UNL     1      28.945 -15.181   2.239  1.00  0.00    -0.508 OA
ATOM     27  H   UNL     1      28.357 -14.449   2.620  1.00  0.00     0.293 HD
ENDBRANCH   8  26
TORSDOF 6
ENDMDL
