MODEL 1
REMARK VINA RESULT:    -3.367      0.000      0.000
REMARK INTER + INTRA:         -10.976
REMARK INTER:                  -7.304
REMARK INTRA:                  -3.672
REMARK UNBOUND:                -3.672
REMARK SMILES CCCCCCCCCCCCCCCCCCCCCC(=O)[O-]
REMARK SMILES IDX 12 1 11 2 10 3 9 4 8 5 7 6 6 7 5 8 4 9 3 10 2 11 1 12 13 13
REMARK SMILES IDX 14 14 15 15 16 16 17 17 18 18 19 19 20 20 21 21 22 22 23 23
REMARK SMILES IDX 24 24
REMARK H PARENT
REMARK Flexibility Score: inf
ROOT
ATOM      1  C   UNL     1      23.285   2.838  28.828  1.00  0.00     0.000 C 
ENDROOT
BRANCH   1   2
ATOM      2  C   UNL     1      22.435   2.213  29.956  1.00  0.00     0.000 C 
BRANCH   2   3
ATOM      3  C   UNL     1      23.175   1.131  30.764  1.00  0.00     0.000 C 
BRANCH   3   4
ATOM      4  C   UNL     1      24.648   1.447  31.088  1.00  0.00    -0.000 C 
BRANCH   4   5
ATOM      5  C   UNL     1      24.872   2.241  32.390  1.00  0.00    -0.000 C 
BRANCH   5   6
ATOM      6  C   UNL     1      24.920   3.759  32.164  1.00  0.00    -0.000 C 
BRANCH   6   7
ATOM      7  C   UNL     1      23.646   4.431  32.690  1.00  0.00    -0.000 C 
BRANCH   7   8
ATOM      8  C   UNL     1      22.963   3.564  33.754  1.00  0.00    -0.000 C 
BRANCH   8   9
ATOM      9  C   UNL     1      21.494   3.298  33.391  1.00  0.00    -0.000 C 
BRANCH   9  10
ATOM     10  C   UNL     1      20.604   4.546  33.538  1.00  0.00    -0.000 C 
BRANCH  10  11
ATOM     11  C   UNL     1      19.568   4.736  32.417  1.00  0.00    -0.003 C 
ATOM     12  C   UNL     1      20.202   4.871  31.034  1.00  0.00     0.004 C 
ENDBRANCH  10  11
ENDBRANCH   9  10
ENDBRANCH   8   9
ENDBRANCH   7   8
ENDBRANCH   6   7
ENDBRANCH   5   6
ENDBRANCH   4   5
ENDBRANCH   3   4
ENDBRANCH   2   3
ENDBRANCH   1   2
BRANCH   1  13
ATOM     13  C   UNL     1      23.245   4.376  28.850  1.00  0.00     0.000 C 
BRANCH  13  14
ATOM     14  C   UNL     1      23.909   5.009  27.617  1.00  0.00     0.000 C 
BRANCH  14  15
ATOM     15  C   UNL     1      23.008   6.056  26.938  1.00  0.00     0.000 C 
BRANCH  15  16
ATOM     16  C   UNL     1      23.619   7.469  26.937  1.00  0.00     0.000 C 
BRANCH  16  17
ATOM     17  C   UNL     1      24.972   7.606  27.667  1.00  0.00     0.000 C 
BRANCH  17  18
ATOM     18  C   UNL     1      24.924   8.373  29.002  1.00  0.00     0.000 C 
BRANCH  18  19
ATOM     19  C   UNL     1      23.492   8.561  29.531  1.00  0.00     0.000 C 
BRANCH  19  20
ATOM     20  C   UNL     1      23.162   7.606  30.698  1.00  0.00     0.006 C 
BRANCH  20  21
ATOM     21  C   UNL     1      21.922   8.025  31.507  1.00  0.00     0.053 C 
BRANCH  21  22
ATOM     22  C   UNL     1      22.157   7.982  32.985  1.00  0.00     0.041 C 
ATOM     23  O   UNL     1      23.329   7.895  33.438  1.00  0.00    -0.550 OA
ATOM     24  O   UNL     1      21.084   8.047  33.864  1.00  0.00    -0.550 OA
ENDBRANCH  21  22
ENDBRANCH  20  21
ENDBRANCH  19  20
ENDBRANCH  18  19
ENDBRANCH  17  18
ENDBRANCH  16  17
ENDBRANCH  15  16
ENDBRANCH  14  15
ENDBRANCH  13  14
ENDBRANCH   1  13
TORSDOF 20
ENDMDL
MODEL 2
REMARK VINA RESULT:    -3.359     17.139     19.855
REMARK INTER + INTRA:         -10.958
REMARK INTER:                  -7.761
REMARK INTRA:                  -3.197
REMARK UNBOUND:                -3.672
REMARK SMILES CCCCCCCCCCCCCCCCCCCCCC(=O)[O-]
REMARK SMILES IDX 12 1 11 2 10 3 9 4 8 5 7 6 6 7 5 8 4 9 3 10 2 11 1 12 13 13
REMARK SMILES IDX 14 14 15 15 16 16 17 17 18 18 19 19 20 20 21 21 22 22 23 23
REMARK SMILES IDX 24 24
REMARK H PARENT
REMARK Flexibility Score: inf
ROOT
ATOM      1  C   UNL     1      10.919  16.493  24.311  1.00  0.00     0.000 C 
ENDROOT
BRANCH   1   2
ATOM      2  C   UNL     1      11.367  17.262  23.048  1.00  0.00     0.000 C 
BRANCH   2   3
ATOM      3  C   UNL     1      10.331  18.284  22.543  1.00  0.00     0.000 C 
BRANCH   3   4
ATOM      4  C   UNL     1      10.629  19.752  22.902  1.00  0.00    -0.000 C 
BRANCH   4   5
ATOM      5  C   UNL     1       9.433  20.713  22.760  1.00  0.00    -0.000 C 
BRANCH   5   6
ATOM      6  C   UNL     1       8.832  21.125  24.111  1.00  0.00    -0.000 C 
BRANCH   6   7
ATOM      7  C   UNL     1       8.157  19.931  24.797  1.00  0.00    -0.000 C 
BRANCH   7   8
ATOM      8  C   UNL     1       8.519  19.872  26.285  1.00  0.00    -0.000 C 
BRANCH   8   9
ATOM      9  C   UNL     1      10.021  19.609  26.478  1.00  0.00    -0.000 C 
BRANCH   9  10
ATOM     10  C   UNL     1      10.330  18.798  27.749  1.00  0.00    -0.000 C 
BRANCH  10  11
ATOM     11  C   UNL     1       9.160  18.682  28.741  1.00  0.00    -0.003 C 
ATOM     12  C   UNL     1       9.235  17.425  29.608  1.00  0.00     0.004 C 
ENDBRANCH  10  11
ENDBRANCH   9  10
ENDBRANCH   8   9
ENDBRANCH   7   8
ENDBRANCH   6   7
ENDBRANCH   5   6
ENDBRANCH   4   5
ENDBRANCH   3   4
ENDBRANCH   2   3
ENDBRANCH   1   2
BRANCH   1  13
ATOM     13  C   UNL     1       9.388  16.404  24.429  1.00  0.00     0.000 C 
BRANCH  13  14
ATOM     14  C   UNL     1       8.913  16.147  25.867  1.00  0.00     0.000 C 
BRANCH  14  15
ATOM     15  C   UNL     1       8.084  14.856  25.989  1.00  0.00     0.000 C 
BRANCH  15  16
ATOM     16  C   UNL     1       8.262  13.910  24.787  1.00  0.00     0.000 C 
BRANCH  16  17
ATOM     17  C   UNL     1       9.154  12.676  25.043  1.00  0.00     0.000 C 
BRANCH  17  18
ATOM     18  C   UNL     1       9.892  12.130  23.806  1.00  0.00     0.000 C 
BRANCH  18  19
ATOM     19  C   UNL     1      10.742  13.199  23.098  1.00  0.00     0.000 C 
BRANCH  19  20
ATOM     20  C   UNL     1      10.089  13.709  21.797  1.00  0.00     0.006 C 
BRANCH  20  21
ATOM     21  C   UNL     1      11.059  14.469  20.876  1.00  0.00     0.053 C 
BRANCH  21  22
ATOM     22  C   UNL     1      10.371  15.088  19.698  1.00  0.00     0.041 C 
ATOM     23  O   UNL     1       9.163  15.436  19.782  1.00  0.00    -0.550 OA
ATOM     24  O   UNL     1      11.064  15.290  18.512  1.00  0.00    -0.550 OA
ENDBRANCH  21  22
ENDBRANCH  20  21
ENDBRANCH  19  20
ENDBRANCH  18  19
ENDBRANCH  17  18
ENDBRANCH  16  17
ENDBRANCH  15  16
ENDBRANCH  14  15
ENDBRANCH  13  14
ENDBRANCH   1  13
TORSDOF 20
ENDMDL
MODEL 3
REMARK VINA RESULT:    -3.353      2.685      3.814
REMARK INTER + INTRA:         -10.945
REMARK INTER:                  -7.099
REMARK INTRA:                  -3.846
REMARK UNBOUND:                -3.672
REMARK SMILES CCCCCCCCCCCCCCCCCCCCCC(=O)[O-]
REMARK SMILES IDX 12 1 11 2 10 3 9 4 8 5 7 6 6 7 5 8 4 9 3 10 2 11 1 12 13 13
REMARK SMILES IDX 14 14 15 15 16 16 17 17 18 18 19 19 20 20 21 21 22 22 23 23
REMARK SMILES IDX 24 24
REMARK H PARENT
REMARK Flexibility Score: inf
ROOT
ATOM      1  C   UNL     1      25.342   3.632  28.496  1.00  0.00     0.000 C 
ENDROOT
BRANCH   1   2
ATOM      2  C   UNL     1      25.525   4.710  29.586  1.00  0.00     0.000 C 
BRANCH   2   3
ATOM      3  C   UNL     1      25.239   4.206  31.013  1.00  0.00     0.000 C 
BRANCH   3   4
ATOM      4  C   UNL     1      25.516   5.224  32.136  1.00  0.00    -0.000 C 
BRANCH   4   5
ATOM      5  C   UNL     1      24.492   6.372  32.241  1.00  0.00    -0.000 C 
BRANCH   5   6
ATOM      6  C   UNL     1      23.047   5.874  32.375  1.00  0.00    -0.000 C 
BRANCH   6   7
ATOM      7  C   UNL     1      22.142   6.528  31.323  1.00  0.00    -0.000 C 
BRANCH   7   8
ATOM      8  C   UNL     1      21.214   5.495  30.674  1.00  0.00    -0.000 C 
BRANCH   8   9
ATOM      9  C   UNL     1      21.345   4.127  31.361  1.00  0.00    -0.000 C 
BRANCH   9  10
ATOM     10  C   UNL     1      21.700   2.995  30.380  1.00  0.00    -0.000 C 
BRANCH  10  11
ATOM     11  C   UNL     1      22.484   1.825  31.000  1.00  0.00    -0.003 C 
ATOM     12  C   UNL     1      22.666   1.963  32.511  1.00  0.00     0.004 C 
ENDBRANCH  10  11
ENDBRANCH   9  10
ENDBRANCH   8   9
ENDBRANCH   7   8
ENDBRANCH   6   7
ENDBRANCH   5   6
ENDBRANCH   4   5
ENDBRANCH   3   4
ENDBRANCH   2   3
ENDBRANCH   1   2
BRANCH   1  13
ATOM     13  C   UNL     1      24.033   3.813  27.708  1.00  0.00     0.000 C 
BRANCH  13  14
ATOM     14  C   UNL     1      23.451   5.230  27.835  1.00  0.00     0.000 C 
BRANCH  14  15
ATOM     15  C   UNL     1      23.589   6.038  26.532  1.00  0.00     0.000 C 
BRANCH  15  16
ATOM     16  C   UNL     1      24.161   7.450  26.756  1.00  0.00     0.000 C 
BRANCH  16  17
ATOM     17  C   UNL     1      23.714   8.147  28.059  1.00  0.00     0.000 C 
BRANCH  17  18
ATOM     18  C   UNL     1      24.844   8.459  29.058  1.00  0.00     0.000 C 
BRANCH  18  19
ATOM     19  C   UNL     1      24.395   9.393  30.195  1.00  0.00     0.000 C 
BRANCH  19  20
ATOM     20  C   UNL     1      23.131  10.201  29.833  1.00  0.00     0.006 C 
BRANCH  20  21
ATOM     21  C   UNL     1      23.319  11.724  29.947  1.00  0.00     0.053 C 
BRANCH  21  22
ATOM     22  C   UNL     1      23.831  12.339  28.681  1.00  0.00     0.041 C 
ATOM     23  O   UNL     1      23.027  12.689  27.777  1.00  0.00    -0.550 OA
ATOM     24  O   UNL     1      25.194  12.532  28.501  1.00  0.00    -0.550 OA
ENDBRANCH  21  22
ENDBRANCH  20  21
ENDBRANCH  19  20
ENDBRANCH  18  19
ENDBRANCH  17  18
ENDBRANCH  16  17
ENDBRANCH  15  16
ENDBRANCH  14  15
ENDBRANCH  13  14
ENDBRANCH   1  13
TORSDOF 20
ENDMDL
MODEL 4
REMARK VINA RESULT:    -3.352      1.863      5.506
REMARK INTER + INTRA:         -10.943
REMARK INTER:                  -7.476
REMARK INTRA:                  -3.468
REMARK UNBOUND:                -3.672
REMARK SMILES CCCCCCCCCCCCCCCCCCCCCC(=O)[O-]
REMARK SMILES IDX 12 1 11 2 10 3 9 4 8 5 7 6 6 7 5 8 4 9 3 10 2 11 1 12 13 13
REMARK SMILES IDX 14 14 15 15 16 16 17 17 18 18 19 19 20 20 21 21 22 22 23 23
REMARK SMILES IDX 24 24
REMARK H PARENT
REMARK Flexibility Score: inf
ROOT
ATOM      1  C   UNL     1      24.260   4.064  27.538  1.00  0.00     0.000 C 
ENDROOT
BRANCH   1   2
ATOM      2  C   UNL     1      23.286   5.199  27.924  1.00  0.00     0.000 C 
BRANCH   2   3
ATOM      3  C   UNL     1      22.904   6.117  26.748  1.00  0.00     0.000 C 
BRANCH   3   4
ATOM      4  C   UNL     1      23.902   7.253  26.452  1.00  0.00    -0.000 C 
BRANCH   4   5
ATOM      5  C   UNL     1      24.659   7.791  27.682  1.00  0.00    -0.000 C 
BRANCH   5   6
ATOM      6  C   UNL     1      23.809   8.736  28.542  1.00  0.00    -0.000 C 
BRANCH   6   7
ATOM      7  C   UNL     1      24.067   8.499  30.035  1.00  0.00    -0.000 C 
BRANCH   7   8
ATOM      8  C   UNL     1      22.993   7.589  30.644  1.00  0.00    -0.000 C 
BRANCH   8   9
ATOM      9  C   UNL     1      22.064   8.380  31.578  1.00  0.00    -0.000 C 
BRANCH   9  10
ATOM     10  C   UNL     1      22.743   9.619  32.190  1.00  0.00    -0.000 C 
BRANCH  10  11
ATOM     11  C   UNL     1      21.836  10.855  32.319  1.00  0.00    -0.003 C 
ATOM     12  C   UNL     1      20.535  10.566  33.067  1.00  0.00     0.004 C 
ENDBRANCH  10  11
ENDBRANCH   9  10
ENDBRANCH   8   9
ENDBRANCH   7   8
ENDBRANCH   6   7
ENDBRANCH   5   6
ENDBRANCH   4   5
ENDBRANCH   3   4
ENDBRANCH   2   3
ENDBRANCH   1   2
BRANCH   1  13
ATOM     13  C   UNL     1      25.438   3.945  28.520  1.00  0.00     0.000 C 
BRANCH  13  14
ATOM     14  C   UNL     1      25.253   4.802  29.782  1.00  0.00     0.000 C 
BRANCH  14  15
ATOM     15  C   UNL     1      25.410   3.982  31.075  1.00  0.00     0.000 C 
BRANCH  15  16
ATOM     16  C   UNL     1      25.532   2.469  30.818  1.00  0.00     0.000 C 
BRANCH  16  17
ATOM     17  C   UNL     1      24.276   1.636  31.154  1.00  0.00     0.000 C 
BRANCH  17  18
ATOM     18  C   UNL     1      23.344   1.343  29.963  1.00  0.00     0.000 C 
BRANCH  18  19
ATOM     19  C   UNL     1      22.086   2.228  29.957  1.00  0.00     0.000 C 
BRANCH  19  20
ATOM     20  C   UNL     1      21.873   2.964  31.296  1.00  0.00     0.006 C 
BRANCH  20  21
ATOM     21  C   UNL     1      21.429   4.428  31.133  1.00  0.00     0.053 C 
BRANCH  21  22
ATOM     22  C   UNL     1      19.999   4.644  31.524  1.00  0.00     0.041 C 
ATOM     23  O   UNL     1      19.087   4.560  30.660  1.00  0.00    -0.550 OA
ATOM     24  O   UNL     1      19.673   4.929  32.843  1.00  0.00    -0.550 OA
ENDBRANCH  21  22
ENDBRANCH  20  21
ENDBRANCH  19  20
ENDBRANCH  18  19
ENDBRANCH  17  18
ENDBRANCH  16  17
ENDBRANCH  15  16
ENDBRANCH  14  15
ENDBRANCH  13  14
ENDBRANCH   1  13
TORSDOF 20
ENDMDL
MODEL 5
REMARK VINA RESULT:    -3.349      2.868      4.051
REMARK INTER + INTRA:         -10.937
REMARK INTER:                  -7.008
REMARK INTRA:                  -3.930
REMARK UNBOUND:                -3.672
REMARK SMILES CCCCCCCCCCCCCCCCCCCCCC(=O)[O-]
REMARK SMILES IDX 12 1 11 2 10 3 9 4 8 5 7 6 6 7 5 8 4 9 3 10 2 11 1 12 13 13
REMARK SMILES IDX 14 14 15 15 16 16 17 17 18 18 19 19 20 20 21 21 22 22 23 23
REMARK SMILES IDX 24 24
REMARK H PARENT
REMARK Flexibility Score: inf
ROOT
ATOM      1  C   UNL     1      23.874   3.159  28.040  1.00  0.00     0.000 C 
ENDROOT
BRANCH   1   2
ATOM      2  C   UNL     1      23.014   3.441  29.291  1.00  0.00     0.000 C 
BRANCH   2   3
ATOM      3  C   UNL     1      22.476   2.170  29.975  1.00  0.00     0.000 C 
BRANCH   3   4
ATOM      4  C   UNL     1      22.492   2.197  31.515  1.00  0.00    -0.000 C 
BRANCH   4   5
ATOM      5  C   UNL     1      23.777   2.770  32.143  1.00  0.00    -0.000 C 
BRANCH   5   6
ATOM      6  C   UNL     1      23.546   3.370  33.537  1.00  0.00    -0.000 C 
BRANCH   6   7
ATOM      7  C   UNL     1      24.084   4.805  33.612  1.00  0.00    -0.000 C 
BRANCH   7   8
ATOM      8  C   UNL     1      22.949   5.827  33.471  1.00  0.00    -0.000 C 
BRANCH   8   9
ATOM      9  C   UNL     1      22.912   6.418  32.053  1.00  0.00    -0.000 C 
BRANCH   9  10
ATOM     10  C   UNL     1      21.536   6.275  31.379  1.00  0.00    -0.000 C 
BRANCH  10  11
ATOM     11  C   UNL     1      20.583   5.278  32.062  1.00  0.00    -0.003 C 
ATOM     12  C   UNL     1      19.661   4.562  31.076  1.00  0.00     0.004 C 
ENDBRANCH  10  11
ENDBRANCH   9  10
ENDBRANCH   8   9
ENDBRANCH   7   8
ENDBRANCH   6   7
ENDBRANCH   5   6
ENDBRANCH   4   5
ENDBRANCH   3   4
ENDBRANCH   2   3
ENDBRANCH   1   2
BRANCH   1  13
ATOM     13  C   UNL     1      24.661   1.842  28.156  1.00  0.00     0.000 C 
BRANCH  13  14
ATOM     14  C   UNL     1      26.174   2.062  28.310  1.00  0.00     0.000 C 
BRANCH  14  15
ATOM     15  C   UNL     1      26.542   2.669  29.676  1.00  0.00     0.000 C 
BRANCH  15  16
ATOM     16  C   UNL     1      27.442   3.913  29.561  1.00  0.00     0.000 C 
BRANCH  16  17
ATOM     17  C   UNL     1      27.074   5.086  30.495  1.00  0.00     0.000 C 
BRANCH  17  18
ATOM     18  C   UNL     1      25.710   5.744  30.217  1.00  0.00     0.000 C 
BRANCH  18  19
ATOM     19  C   UNL     1      25.511   6.105  28.735  1.00  0.00     0.000 C 
BRANCH  19  20
ATOM     20  C   UNL     1      24.539   7.287  28.539  1.00  0.00     0.006 C 
BRANCH  20  21
ATOM     21  C   UNL     1      24.349   7.692  27.067  1.00  0.00     0.053 C 
BRANCH  21  22
ATOM     22  C   UNL     1      23.597   6.666  26.278  1.00  0.00     0.041 C 
ATOM     23  O   UNL     1      22.506   6.208  26.711  1.00  0.00    -0.550 OA
ATOM     24  O   UNL     1      24.094   6.220  25.061  1.00  0.00    -0.550 OA
ENDBRANCH  21  22
ENDBRANCH  20  21
ENDBRANCH  19  20
ENDBRANCH  18  19
ENDBRANCH  17  18
ENDBRANCH  16  17
ENDBRANCH  15  16
ENDBRANCH  14  15
ENDBRANCH  13  14
ENDBRANCH   1  13
TORSDOF 20
ENDMDL
MODEL 6
REMARK VINA RESULT:    -3.330      2.355      4.573
REMARK INTER + INTRA:         -10.896
REMARK INTER:                  -6.996
REMARK INTRA:                  -3.900
REMARK UNBOUND:                -3.672
REMARK SMILES CCCCCCCCCCCCCCCCCCCCCC(=O)[O-]
REMARK SMILES IDX 12 1 11 2 10 3 9 4 8 5 7 6 6 7 5 8 4 9 3 10 2 11 1 12 13 13
REMARK SMILES IDX 14 14 15 15 16 16 17 17 18 18 19 19 20 20 21 21 22 22 23 23
REMARK SMILES IDX 24 24
REMARK H PARENT
REMARK Flexibility Score: inf
ROOT
ATOM      1  C   UNL     1      19.940   4.637  31.960  1.00  0.00     0.000 C 
ENDROOT
BRANCH   1   2
ATOM      2  C   UNL     1      20.798   4.473  33.234  1.00  0.00     0.000 C 
BRANCH   2   3
ATOM      3  C   UNL     1      21.372   3.056  33.418  1.00  0.00     0.000 C 
BRANCH   3   4
ATOM      4  C   UNL     1      22.907   2.953  33.324  1.00  0.00    -0.000 C 
BRANCH   4   5
ATOM      5  C   UNL     1      23.443   2.436  31.975  1.00  0.00    -0.000 C 
BRANCH   5   6
ATOM      6  C   UNL     1      22.369   1.734  31.133  1.00  0.00    -0.000 C 
BRANCH   6   7
ATOM      7  C   UNL     1      22.408   2.219  29.679  1.00  0.00    -0.000 C 
BRANCH   7   8
ATOM      8  C   UNL     1      23.452   1.443  28.867  1.00  0.00    -0.000 C 
BRANCH   8   9
ATOM      9  C   UNL     1      24.272   2.388  27.974  1.00  0.00    -0.000 C 
BRANCH   9  10
ATOM     10  C   UNL     1      25.770   2.395  28.325  1.00  0.00    -0.000 C 
BRANCH  10  11
ATOM     11  C   UNL     1      26.303   3.737  28.859  1.00  0.00    -0.003 C 
ATOM     12  C   UNL     1      26.403   3.775  30.383  1.00  0.00     0.004 C 
ENDBRANCH  10  11
ENDBRANCH   9  10
ENDBRANCH   8   9
ENDBRANCH   7   8
ENDBRANCH   6   7
ENDBRANCH   5   6
ENDBRANCH   4   5
ENDBRANCH   3   4
ENDBRANCH   2   3
ENDBRANCH   1   2
BRANCH   1  13
ATOM     13  C   UNL     1      20.712   5.326  30.821  1.00  0.00     0.000 C 
BRANCH  13  14
ATOM     14  C   UNL     1      21.927   6.124  31.319  1.00  0.00     0.000 C 
BRANCH  14  15
ATOM     15  C   UNL     1      23.203   5.806  30.519  1.00  0.00     0.000 C 
BRANCH  15  16
ATOM     16  C   UNL     1      22.949   5.668  29.007  1.00  0.00     0.000 C 
BRANCH  16  17
ATOM     17  C   UNL     1      23.902   6.474  28.098  1.00  0.00     0.000 C 
BRANCH  17  18
ATOM     18  C   UNL     1      25.068   7.172  28.823  1.00  0.00     0.000 C 
BRANCH  18  19
ATOM     19  C   UNL     1      24.945   8.706  28.813  1.00  0.00     0.000 C 
BRANCH  19  20
ATOM     20  C   UNL     1      24.306   9.257  30.105  1.00  0.00     0.006 C 
BRANCH  20  21
ATOM     21  C   UNL     1      22.953   9.953  29.876  1.00  0.00     0.053 C 
BRANCH  21  22
ATOM     22  C   UNL     1      23.048  11.096  28.913  1.00  0.00     0.041 C 
ATOM     23  O   UNL     1      23.738  12.109  29.198  1.00  0.00    -0.550 OA
ATOM     24  O   UNL     1      22.381  11.039  27.696  1.00  0.00    -0.550 OA
ENDBRANCH  21  22
ENDBRANCH  20  21
ENDBRANCH  19  20
ENDBRANCH  18  19
ENDBRANCH  17  18
ENDBRANCH  16  17
ENDBRANCH  15  16
ENDBRANCH  14  15
ENDBRANCH  13  14
ENDBRANCH   1  13
TORSDOF 20
ENDMDL
MODEL 7
REMARK VINA RESULT:    -3.310      2.022      5.001
REMARK INTER + INTRA:         -10.853
REMARK INTER:                  -6.953
REMARK INTRA:                  -3.900
REMARK UNBOUND:                -3.672
REMARK SMILES CCCCCCCCCCCCCCCCCCCCCC(=O)[O-]
REMARK SMILES IDX 12 1 11 2 10 3 9 4 8 5 7 6 6 7 5 8 4 9 3 10 2 11 1 12 13 13
REMARK SMILES IDX 14 14 15 15 16 16 17 17 18 18 19 19 20 20 21 21 22 22 23 23
REMARK SMILES IDX 24 24
REMARK H PARENT
REMARK Flexibility Score: inf
ROOT
ATOM      1  C   UNL     1      23.849   2.778  28.478  1.00  0.00     0.000 C 
ENDROOT
BRANCH   1   2
ATOM      2  C   UNL     1      24.070   3.955  27.502  1.00  0.00     0.000 C 
BRANCH   2   3
ATOM      3  C   UNL     1      23.286   5.227  27.876  1.00  0.00     0.000 C 
BRANCH   3   4
ATOM      4  C   UNL     1      23.000   6.188  26.706  1.00  0.00    -0.000 C 
BRANCH   4   5
ATOM      5  C   UNL     1      23.643   7.583  26.837  1.00  0.00    -0.000 C 
BRANCH   5   6
ATOM      6  C   UNL     1      24.916   7.576  27.694  1.00  0.00    -0.000 C 
BRANCH   6   7
ATOM      7  C   UNL     1      24.798   8.567  28.858  1.00  0.00    -0.000 C 
BRANCH   7   8
ATOM      8  C   UNL     1      23.521   9.407  28.740  1.00  0.00    -0.000 C 
BRANCH   8   9
ATOM      9  C   UNL     1      23.134  10.018  30.096  1.00  0.00    -0.000 C 
BRANCH   9  10
ATOM     10  C   UNL     1      23.212   9.006  31.254  1.00  0.00    -0.000 C 
BRANCH  10  11
ATOM     11  C   UNL     1      21.931   8.185  31.482  1.00  0.00    -0.003 C 
ATOM     12  C   UNL     1      21.739   7.772  32.941  1.00  0.00     0.004 C 
ENDBRANCH  10  11
ENDBRANCH   9  10
ENDBRANCH   8   9
ENDBRANCH   7   8
ENDBRANCH   6   7
ENDBRANCH   5   6
ENDBRANCH   4   5
ENDBRANCH   3   4
ENDBRANCH   2   3
ENDBRANCH   1   2
BRANCH   1  13
ATOM     13  C   UNL     1      25.125   2.421  29.261  1.00  0.00     0.000 C 
BRANCH  13  14
ATOM     14  C   UNL     1      26.399   2.996  28.622  1.00  0.00     0.000 C 
BRANCH  14  15
ATOM     15  C   UNL     1      27.202   3.870  29.603  1.00  0.00     0.000 C 
BRANCH  15  16
ATOM     16  C   UNL     1      26.524   5.220  29.902  1.00  0.00     0.000 C 
BRANCH  16  17
ATOM     17  C   UNL     1      26.654   5.717  31.358  1.00  0.00     0.000 C 
BRANCH  17  18
ATOM     18  C   UNL     1      25.322   5.971  32.087  1.00  0.00     0.000 C 
BRANCH  18  19
ATOM     19  C   UNL     1      24.119   5.329  31.374  1.00  0.00     0.000 C 
BRANCH  19  20
ATOM     20  C   UNL     1      23.368   4.322  32.270  1.00  0.00     0.006 C 
BRANCH  20  21
ATOM     21  C   UNL     1      22.173   3.648  31.573  1.00  0.00     0.053 C 
BRANCH  21  22
ATOM     22  C   UNL     1      20.897   4.414  31.747  1.00  0.00     0.041 C 
ATOM     23  O   UNL     1      20.445   5.112  30.802  1.00  0.00    -0.550 OA
ATOM     24  O   UNL     1      20.204   4.351  32.948  1.00  0.00    -0.550 OA
ENDBRANCH  21  22
ENDBRANCH  20  21
ENDBRANCH  19  20
ENDBRANCH  18  19
ENDBRANCH  17  18
ENDBRANCH  16  17
ENDBRANCH  15  16
ENDBRANCH  14  15
ENDBRANCH  13  14
ENDBRANCH   1  13
TORSDOF 20
ENDMDL
MODEL 8
REMARK VINA RESULT:    -3.293      2.792      4.782
REMARK INTER + INTRA:         -10.816
REMARK INTER:                  -7.269
REMARK INTRA:                  -3.546
REMARK UNBOUND:                -3.672
REMARK SMILES CCCCCCCCCCCCCCCCCCCCCC(=O)[O-]
REMARK SMILES IDX 12 1 11 2 10 3 9 4 8 5 7 6 6 7 5 8 4 9 3 10 2 11 1 12 13 13
REMARK SMILES IDX 14 14 15 15 16 16 17 17 18 18 19 19 20 20 21 21 22 22 23 23
REMARK SMILES IDX 24 24
REMARK H PARENT
REMARK Flexibility Score: inf
ROOT
ATOM      1  C   UNL     1      22.941   1.967  29.236  1.00  0.00     0.000 C 
ENDROOT
BRANCH   1   2
ATOM      2  C   UNL     1      22.691   1.260  30.586  1.00  0.00     0.000 C 
BRANCH   2   3
ATOM      3  C   UNL     1      23.889   1.325  31.552  1.00  0.00     0.000 C 
BRANCH   3   4
ATOM      4  C   UNL     1      23.944   2.579  32.444  1.00  0.00    -0.000 C 
BRANCH   4   5
ATOM      5  C   UNL     1      22.629   3.380  32.524  1.00  0.00    -0.000 C 
BRANCH   5   6
ATOM      6  C   UNL     1      22.831   4.885  32.306  1.00  0.00    -0.000 C 
BRANCH   6   7
ATOM      7  C   UNL     1      21.505   5.571  31.954  1.00  0.00    -0.000 C 
BRANCH   7   8
ATOM      8  C   UNL     1      21.747   6.901  31.230  1.00  0.00    -0.000 C 
BRANCH   8   9
ATOM      9  C   UNL     1      22.942   7.652  31.837  1.00  0.00    -0.000 C 
BRANCH   9  10
ATOM     10  C   UNL     1      23.137   9.055  31.235  1.00  0.00    -0.000 C 
BRANCH  10  11
ATOM     11  C   UNL     1      23.235   9.092  29.700  1.00  0.00    -0.003 C 
ATOM     12  C   UNL     1      23.222  10.512  29.135  1.00  0.00     0.004 C 
ENDBRANCH  10  11
ENDBRANCH   9  10
ENDBRANCH   8   9
ENDBRANCH   7   8
ENDBRANCH   6   7
ENDBRANCH   5   6
ENDBRANCH   4   5
ENDBRANCH   3   4
ENDBRANCH   2   3
ENDBRANCH   1   2
BRANCH   1  13
ATOM     13  C   UNL     1      23.614   1.042  28.206  1.00  0.00     0.000 C 
BRANCH  13  14
ATOM     14  C   UNL     1      24.871   1.661  27.577  1.00  0.00     0.000 C 
BRANCH  14  15
ATOM     15  C   UNL     1      26.160   1.228  28.298  1.00  0.00     0.000 C 
BRANCH  15  16
ATOM     16  C   UNL     1      26.722   2.315  29.234  1.00  0.00     0.000 C 
BRANCH  16  17
ATOM     17  C   UNL     1      26.397   3.769  28.831  1.00  0.00     0.000 C 
BRANCH  17  18
ATOM     18  C   UNL     1      25.601   4.577  29.873  1.00  0.00     0.000 C 
BRANCH  18  19
ATOM     19  C   UNL     1      24.770   5.708  29.243  1.00  0.00     0.000 C 
BRANCH  19  20
ATOM     20  C   UNL     1      23.641   5.179  28.335  1.00  0.00     0.006 C 
BRANCH  20  21
ATOM     21  C   UNL     1      23.048   6.247  27.400  1.00  0.00     0.053 C 
BRANCH  21  22
ATOM     22  C   UNL     1      24.019   6.703  26.355  1.00  0.00     0.041 C 
ATOM     23  O   UNL     1      23.955   6.240  25.186  1.00  0.00    -0.550 OA
ATOM     24  O   UNL     1      24.990   7.645  26.669  1.00  0.00    -0.550 OA
ENDBRANCH  21  22
ENDBRANCH  20  21
ENDBRANCH  19  20
ENDBRANCH  18  19
ENDBRANCH  17  18
ENDBRANCH  16  17
ENDBRANCH  15  16
ENDBRANCH  14  15
ENDBRANCH  13  14
ENDBRANCH   1  13
TORSDOF 20
ENDMDL
MODEL 9
REMARK VINA RESULT:    -3.282      3.089      4.180
REMARK INTER + INTRA:         -10.790
REMARK INTER:                  -7.314
REMARK INTRA:                  -3.476
REMARK UNBOUND:                -3.672
REMARK SMILES CCCCCCCCCCCCCCCCCCCCCC(=O)[O-]
REMARK SMILES IDX 12 1 11 2 10 3 9 4 8 5 7 6 6 7 5 8 4 9 3 10 2 11 1 12 13 13
REMARK SMILES IDX 14 14 15 15 16 16 17 17 18 18 19 19 20 20 21 21 22 22 23 23
REMARK SMILES IDX 24 24
REMARK H PARENT
REMARK Flexibility Score: inf
ROOT
ATOM      1  C   UNL     1      23.978   0.876  27.651  1.00  0.00     0.000 C 
ENDROOT
BRANCH   1   2
ATOM      2  C   UNL     1      23.314   1.729  28.754  1.00  0.00     0.000 C 
BRANCH   2   3
ATOM      3  C   UNL     1      23.344   1.074  30.148  1.00  0.00     0.000 C 
BRANCH   3   4
ATOM      4  C   UNL     1      24.733   1.009  30.812  1.00  0.00    -0.000 C 
BRANCH   4   5
ATOM      5  C   UNL     1      24.747   1.319  32.322  1.00  0.00    -0.000 C 
BRANCH   5   6
ATOM      6  C   UNL     1      25.260   2.731  32.638  1.00  0.00    -0.000 C 
BRANCH   6   7
ATOM      7  C   UNL     1      24.800   3.183  34.029  1.00  0.00    -0.000 C 
BRANCH   7   8
ATOM      8  C   UNL     1      23.539   4.052  33.939  1.00  0.00    -0.000 C 
BRANCH   8   9
ATOM      9  C   UNL     1      22.271   3.205  34.124  1.00  0.00    -0.000 C 
BRANCH   9  10
ATOM     10  C   UNL     1      21.434   3.090  32.837  1.00  0.00    -0.000 C 
BRANCH  10  11
ATOM     11  C   UNL     1      21.205   4.418  32.094  1.00  0.00    -0.003 C 
ATOM     12  C   UNL     1      21.970   4.503  30.774  1.00  0.00     0.004 C 
ENDBRANCH  10  11
ENDBRANCH   9  10
ENDBRANCH   8   9
ENDBRANCH   7   8
ENDBRANCH   6   7
ENDBRANCH   5   6
ENDBRANCH   4   5
ENDBRANCH   3   4
ENDBRANCH   2   3
ENDBRANCH   1   2
BRANCH   1  13
ATOM     13  C   UNL     1      24.700   1.739  26.601  1.00  0.00     0.000 C 
BRANCH  13  14
ATOM     14  C   UNL     1      26.198   1.416  26.490  1.00  0.00     0.000 C 
BRANCH  14  15
ATOM     15  C   UNL     1      26.903   1.429  27.858  1.00  0.00     0.000 C 
BRANCH  15  16
ATOM     16  C   UNL     1      27.589   2.772  28.170  1.00  0.00     0.000 C 
BRANCH  16  17
ATOM     17  C   UNL     1      27.401   3.293  29.611  1.00  0.00     0.000 C 
BRANCH  17  18
ATOM     18  C   UNL     1      26.564   4.579  29.740  1.00  0.00     0.000 C 
BRANCH  18  19
ATOM     19  C   UNL     1      25.220   4.495  28.996  1.00  0.00     0.000 C 
BRANCH  19  20
ATOM     20  C   UNL     1      24.826   5.832  28.333  1.00  0.00     0.006 C 
BRANCH  20  21
ATOM     21  C   UNL     1      23.570   5.736  27.449  1.00  0.00     0.053 C 
BRANCH  21  22
ATOM     22  C   UNL     1      23.614   6.672  26.281  1.00  0.00     0.041 C 
ATOM     23  O   UNL     1      23.985   6.258  25.151  1.00  0.00    -0.550 OA
ATOM     24  O   UNL     1      23.238   8.000  26.437  1.00  0.00    -0.550 OA
ENDBRANCH  21  22
ENDBRANCH  20  21
ENDBRANCH  19  20
ENDBRANCH  18  19
ENDBRANCH  17  18
ENDBRANCH  16  17
ENDBRANCH  15  16
ENDBRANCH  14  15
ENDBRANCH  13  14
ENDBRANCH   1  13
TORSDOF 20
ENDMDL
