MODEL 1
REMARK VINA RESULT:    -3.510      0.000      0.000
REMARK INTER + INTRA:          -4.264
REMARK INTER:                  -4.228
REMARK INTRA:                  -0.036
REMARK UNBOUND:                -0.036
REMARK SMILES OCC(O)CO
REMARK SMILES IDX 3 1 5 2 6 3 2 5 1 6 4 8
REMARK H PARENT 6 4 1 7 4 9
REMARK Flexibility Score: inf
ROOT
ATOM      1  C   UNL     1      -4.978 -14.084 -40.215  1.00  0.00     0.165 C 
ENDROOT
BRANCH   1   2
ATOM      2  C   UNL     1      -5.763 -14.849 -39.142  1.00  0.00     0.190 C 
BRANCH   2   3
ATOM      3  O   UNL     1      -6.730 -15.678 -39.731  1.00  0.00    -0.394 OA
ATOM      4  H   UNL     1      -6.827 -16.472 -39.143  1.00  0.00     0.210 HD
ENDBRANCH   2   3
ENDBRANCH   1   2
BRANCH   1   5
ATOM      5  C   UNL     1      -5.574 -12.686 -40.453  1.00  0.00     0.190 C 
BRANCH   5   6
ATOM      6  O   UNL     1      -6.347 -12.285 -39.354  1.00  0.00    -0.394 OA
ATOM      7  H   UNL     1      -7.016 -11.637 -39.699  1.00  0.00     0.210 HD
ENDBRANCH   5   6
ENDBRANCH   1   5
BRANCH   1   8
ATOM      8  O   UNL     1      -3.643 -13.965 -39.795  1.00  0.00    -0.388 OA
ATOM      9  H   UNL     1      -3.377 -13.019 -39.938  1.00  0.00     0.211 HD
ENDBRANCH   1   8
TORSDOF 5
ENDMDL
MODEL 2
REMARK VINA RESULT:    -3.330      1.079      2.614
REMARK INTER + INTRA:          -4.047
REMARK INTER:                  -3.826
REMARK INTRA:                  -0.221
REMARK UNBOUND:                -0.036
REMARK SMILES OCC(O)CO
REMARK SMILES IDX 3 1 5 2 6 3 2 5 1 6 4 8
REMARK H PARENT 6 4 1 7 4 9
REMARK Flexibility Score: inf
ROOT
ATOM      1  C   UNL     1      -5.712 -13.803 -40.122  1.00  0.00     0.165 C 
ENDROOT
BRANCH   1   2
ATOM      2  C   UNL     1      -4.185 -13.669 -40.183  1.00  0.00     0.190 C 
BRANCH   2   3
ATOM      3  O   UNL     1      -3.572 -14.551 -39.279  1.00  0.00    -0.394 OA
ATOM      4  H   UNL     1      -2.728 -14.858 -39.702  1.00  0.00     0.210 HD
ENDBRANCH   2   3
ENDBRANCH   1   2
BRANCH   1   5
ATOM      5  C   UNL     1      -6.131 -15.077 -39.369  1.00  0.00     0.190 C 
BRANCH   5   6
ATOM      6  O   UNL     1      -6.267 -14.818 -37.998  1.00  0.00    -0.394 OA
ATOM      7  H   UNL     1      -6.347 -13.832 -37.902  1.00  0.00     0.210 HD
ENDBRANCH   5   6
ENDBRANCH   1   5
BRANCH   1   8
ATOM      8  O   UNL     1      -6.236 -12.673 -39.472  1.00  0.00    -0.388 OA
ATOM      9  H   UNL     1      -7.082 -12.957 -39.036  1.00  0.00     0.211 HD
ENDBRANCH   1   8
TORSDOF 5
ENDMDL
MODEL 3
REMARK VINA RESULT:    -3.322      1.229      2.990
REMARK INTER + INTRA:          -4.038
REMARK INTER:                  -4.019
REMARK INTRA:                  -0.019
REMARK UNBOUND:                -0.036
REMARK SMILES OCC(O)CO
REMARK SMILES IDX 3 1 5 2 6 3 2 5 1 6 4 8
REMARK H PARENT 6 4 1 7 4 9
REMARK Flexibility Score: inf
ROOT
ATOM      1  C   UNL     1      -5.813 -14.629 -40.137  1.00  0.00     0.165 C 
ENDROOT
BRANCH   1   2
ATOM      2  C   UNL     1      -5.651 -13.121 -40.366  1.00  0.00     0.190 C 
BRANCH   2   3
ATOM      3  O   UNL     1      -6.352 -12.393 -39.392  1.00  0.00    -0.394 OA
ATOM      4  H   UNL     1      -6.766 -13.053 -38.778  1.00  0.00     0.210 HD
ENDBRANCH   2   3
ENDBRANCH   1   2
BRANCH   1   5
ATOM      5  C   UNL     1      -5.840 -14.967 -38.636  1.00  0.00     0.190 C 
BRANCH   5   6
ATOM      6  O   UNL     1      -4.651 -15.604 -38.252  1.00  0.00    -0.394 OA
ATOM      7  H   UNL     1      -4.476 -16.308 -38.931  1.00  0.00     0.210 HD
ENDBRANCH   5   6
ENDBRANCH   1   5
BRANCH   1   8
ATOM      8  O   UNL     1      -7.010 -15.049 -40.739  1.00  0.00    -0.388 OA
ATOM      9  H   UNL     1      -7.695 -14.358 -40.537  1.00  0.00     0.211 HD
ENDBRANCH   1   8
TORSDOF 5
ENDMDL
MODEL 4
REMARK VINA RESULT:    -3.264      1.491      2.260
REMARK INTER + INTRA:          -3.968
REMARK INTER:                  -3.934
REMARK INTRA:                  -0.034
REMARK UNBOUND:                -0.036
REMARK SMILES OCC(O)CO
REMARK SMILES IDX 3 1 5 2 6 3 2 5 1 6 4 8
REMARK H PARENT 6 4 1 7 4 9
REMARK Flexibility Score: inf
ROOT
ATOM      1  C   UNL     1      -6.151 -14.254 -39.881  1.00  0.00     0.165 C 
ENDROOT
BRANCH   1   2
ATOM      2  C   UNL     1      -5.750 -15.334 -38.868  1.00  0.00     0.190 C 
BRANCH   2   3
ATOM      3  O   UNL     1      -6.265 -15.037 -37.596  1.00  0.00    -0.394 OA
ATOM      4  H   UNL     1      -5.932 -14.134 -37.353  1.00  0.00     0.210 HD
ENDBRANCH   2   3
ENDBRANCH   1   2
BRANCH   1   5
ATOM      5  C   UNL     1      -4.915 -13.533 -40.447  1.00  0.00     0.190 C 
BRANCH   5   6
ATOM      6  O   UNL     1      -3.744 -14.016 -39.846  1.00  0.00    -0.394 OA
ATOM      7  H   UNL     1      -3.178 -13.223 -39.651  1.00  0.00     0.210 HD
ENDBRANCH   5   6
ENDBRANCH   1   5
BRANCH   1   8
ATOM      8  O   UNL     1      -6.865 -14.862 -40.926  1.00  0.00    -0.388 OA
ATOM      9  H   UNL     1      -6.593 -15.817 -40.946  1.00  0.00     0.211 HD
ENDBRANCH   1   8
TORSDOF 5
ENDMDL
MODEL 5
REMARK VINA RESULT:    -2.918      1.526      2.015
REMARK INTER + INTRA:          -3.551
REMARK INTER:                  -3.343
REMARK INTRA:                  -0.208
REMARK UNBOUND:                -0.036
REMARK SMILES OCC(O)CO
REMARK SMILES IDX 3 1 5 2 6 3 2 5 1 6 4 8
REMARK H PARENT 6 4 1 7 4 9
REMARK Flexibility Score: inf
ROOT
ATOM      1  C   UNL     1      -5.138 -13.995 -39.631  1.00  0.00     0.165 C 
ENDROOT
BRANCH   1   2
ATOM      2  C   UNL     1      -6.000 -14.071 -40.897  1.00  0.00     0.190 C 
BRANCH   2   3
ATOM      3  O   UNL     1      -7.005 -15.041 -40.756  1.00  0.00    -0.394 OA
ATOM      4  H   UNL     1      -7.574 -14.761 -39.993  1.00  0.00     0.210 HD
ENDBRANCH   2   3
ENDBRANCH   1   2
BRANCH   1   5
ATOM      5  C   UNL     1      -5.402 -15.193 -38.702  1.00  0.00     0.190 C 
BRANCH   5   6
ATOM      6  O   UNL     1      -6.379 -14.871 -37.749  1.00  0.00    -0.394 OA
ATOM      7  H   UNL     1      -5.921 -14.855 -36.868  1.00  0.00     0.210 HD
ENDBRANCH   5   6
ENDBRANCH   1   5
BRANCH   1   8
ATOM      8  O   UNL     1      -3.785 -13.978 -40.010  1.00  0.00    -0.388 OA
ATOM      9  H   UNL     1      -3.483 -14.923 -40.046  1.00  0.00     0.211 HD
ENDBRANCH   1   8
TORSDOF 5
ENDMDL
MODEL 6
REMARK VINA RESULT:    -2.712     12.826     13.095
REMARK INTER + INTRA:          -3.303
REMARK INTER:                  -3.275
REMARK INTRA:                  -0.028
REMARK UNBOUND:                -0.036
REMARK SMILES OCC(O)CO
REMARK SMILES IDX 3 1 5 2 6 3 2 5 1 6 4 8
REMARK H PARENT 6 4 1 7 4 9
REMARK Flexibility Score: inf
ROOT
ATOM      1  C   UNL     1     -16.819 -17.676 -33.727  1.00  0.00     0.165 C 
ENDROOT
BRANCH   1   2
ATOM      2  C   UNL     1     -16.731 -19.179 -34.021  1.00  0.00     0.190 C 
BRANCH   2   3
ATOM      3  O   UNL     1     -15.570 -19.475 -34.752  1.00  0.00    -0.394 OA
ATOM      4  H   UNL     1     -15.030 -20.098 -34.198  1.00  0.00     0.210 HD
ENDBRANCH   2   3
ENDBRANCH   1   2
BRANCH   1   5
ATOM      5  C   UNL     1     -16.549 -17.380 -32.242  1.00  0.00     0.190 C 
BRANCH   5   6
ATOM      6  O   UNL     1     -15.205 -17.033 -32.045  1.00  0.00    -0.394 OA
ATOM      7  H   UNL     1     -14.714 -17.880 -31.878  1.00  0.00     0.210 HD
ENDBRANCH   5   6
ENDBRANCH   1   5
BRANCH   1   8
ATOM      8  O   UNL     1     -15.876 -17.007 -34.524  1.00  0.00    -0.388 OA
ATOM      9  H   UNL     1     -16.383 -16.529 -35.233  1.00  0.00     0.211 HD
ENDBRANCH   1   8
TORSDOF 5
ENDMDL
MODEL 7
REMARK VINA RESULT:    -2.626      9.929     11.218
REMARK INTER + INTRA:          -3.199
REMARK INTER:                  -3.016
REMARK INTRA:                  -0.183
REMARK UNBOUND:                -0.036
REMARK SMILES OCC(O)CO
REMARK SMILES IDX 3 1 5 2 6 3 2 5 1 6 4 8
REMARK H PARENT 6 4 1 7 4 9
REMARK Flexibility Score: inf
ROOT
ATOM      1  C   UNL     1     -15.211 -19.714 -39.723  1.00  0.00     0.165 C 
ENDROOT
BRANCH   1   2
ATOM      2  C   UNL     1     -14.982 -18.305 -39.162  1.00  0.00     0.190 C 
BRANCH   2   3
ATOM      3  O   UNL     1     -13.661 -17.888 -39.389  1.00  0.00    -0.394 OA
ATOM      4  H   UNL     1     -13.108 -18.270 -38.659  1.00  0.00     0.210 HD
ENDBRANCH   2   3
ENDBRANCH   1   2
BRANCH   1   5
ATOM      5  C   UNL     1     -14.481 -20.775 -38.881  1.00  0.00     0.190 C 
BRANCH   5   6
ATOM      6  O   UNL     1     -13.650 -20.165 -37.930  1.00  0.00    -0.394 OA
ATOM      7  H   UNL     1     -14.083 -20.301 -37.047  1.00  0.00     0.210 HD
ENDBRANCH   5   6
ENDBRANCH   1   5
BRANCH   1   8
ATOM      8  O   UNL     1     -16.590 -19.977 -39.727  1.00  0.00    -0.388 OA
ATOM      9  H   UNL     1     -16.864 -20.103 -38.780  1.00  0.00     0.211 HD
ENDBRANCH   1   8
TORSDOF 5
ENDMDL
MODEL 8
REMARK VINA RESULT:    -2.622     10.668     11.183
REMARK INTER + INTRA:          -3.194
REMARK INTER:                  -2.989
REMARK INTRA:                  -0.205
REMARK UNBOUND:                -0.036
REMARK SMILES OCC(O)CO
REMARK SMILES IDX 3 1 5 2 6 3 2 5 1 6 4 8
REMARK H PARENT 6 4 1 7 4 9
REMARK Flexibility Score: inf
ROOT
ATOM      1  C   UNL     1     -14.713 -20.345 -38.640  1.00  0.00     0.165 C 
ENDROOT
BRANCH   1   2
ATOM      2  C   UNL     1     -15.793 -20.249 -37.555  1.00  0.00     0.190 C 
BRANCH   2   3
ATOM      3  O   UNL     1     -15.355 -19.449 -36.488  1.00  0.00    -0.394 OA
ATOM      4  H   UNL     1     -14.524 -19.863 -36.138  1.00  0.00     0.210 HD
ENDBRANCH   2   3
ENDBRANCH   1   2
BRANCH   1   5
ATOM      5  C   UNL     1     -14.965 -19.333 -39.771  1.00  0.00     0.190 C 
BRANCH   5   6
ATOM      6  O   UNL     1     -15.248 -18.065 -39.245  1.00  0.00    -0.394 OA
ATOM      7  H   UNL     1     -15.819 -18.211 -38.446  1.00  0.00     0.210 HD
ENDBRANCH   5   6
ENDBRANCH   1   5
BRANCH   1   8
ATOM      8  O   UNL     1     -13.462 -20.097 -38.051  1.00  0.00    -0.388 OA
ATOM      9  H   UNL     1     -13.072 -20.980 -37.817  1.00  0.00     0.211 HD
ENDBRANCH   1   8
TORSDOF 5
ENDMDL
MODEL 9
REMARK VINA RESULT:    -2.519     10.858     11.393
REMARK INTER + INTRA:          -3.070
REMARK INTER:                  -2.851
REMARK INTRA:                  -0.219
REMARK UNBOUND:                -0.036
REMARK SMILES OCC(O)CO
REMARK SMILES IDX 3 1 5 2 6 3 2 5 1 6 4 8
REMARK H PARENT 6 4 1 7 4 9
REMARK Flexibility Score: inf
ROOT
ATOM      1  C   UNL     1     -15.624 -19.229 -39.003  1.00  0.00     0.165 C 
ENDROOT
BRANCH   1   2
ATOM      2  C   UNL     1     -15.241 -20.140 -40.176  1.00  0.00     0.190 C 
BRANCH   2   3
ATOM      3  O   UNL     1     -15.452 -21.488 -39.847  1.00  0.00    -0.394 OA
ATOM      4  H   UNL     1     -14.635 -21.983 -40.118  1.00  0.00     0.210 HD
ENDBRANCH   2   3
ENDBRANCH   1   2
BRANCH   1   5
ATOM      5  C   UNL     1     -14.908 -19.652 -37.709  1.00  0.00     0.190 C 
BRANCH   5   6
ATOM      6  O   UNL     1     -13.589 -20.041 -37.980  1.00  0.00    -0.394 OA
ATOM      7  H   UNL     1     -13.604 -21.026 -38.104  1.00  0.00     0.210 HD
ENDBRANCH   5   6
ENDBRANCH   1   5
BRANCH   1   8
ATOM      8  O   UNL     1     -15.275 -17.908 -39.329  1.00  0.00    -0.388 OA
ATOM      9  H   UNL     1     -14.902 -17.925 -40.249  1.00  0.00     0.211 HD
ENDBRANCH   1   8
TORSDOF 5
ENDMDL
