MODEL 1
REMARK VINA RESULT:    -2.526      0.000      0.000
REMARK INTER + INTRA:          -2.833
REMARK INTER:                  -2.822
REMARK INTRA:                  -0.011
REMARK UNBOUND:                -0.011
REMARK SMILES CCCC(=O)[O-]
REMARK SMILES IDX 3 1 4 2 5 3 6 4 2 5 1 6
REMARK H PARENT
REMARK Flexibility Score: inf
ROOT
ATOM      1  C   UNL     1       7.274 -19.149  11.079  1.00  0.00     0.052 C 
ENDROOT
BRANCH   1   2
ATOM      2  C   UNL     1       6.859 -19.514   9.689  1.00  0.00     0.041 C 
ATOM      3  O   UNL     1       7.202 -20.621   9.195  1.00  0.00    -0.550 OA
ATOM      4  O   UNL     1       6.134 -18.612   8.921  1.00  0.00    -0.550 OA
ENDBRANCH   1   2
BRANCH   1   5
ATOM      5  C   UNL     1       8.536 -19.917  11.481  1.00  0.00     0.003 C 
ATOM      6  C   UNL     1       9.010 -19.509  12.872  1.00  0.00     0.004 C 
ENDBRANCH   1   5
TORSDOF 2
ENDMDL
MODEL 2
REMARK VINA RESULT:    -2.435      5.168      6.179
REMARK INTER + INTRA:          -2.730
REMARK INTER:                  -2.674
REMARK INTRA:                  -0.056
REMARK UNBOUND:                -0.011
REMARK SMILES CCCC(=O)[O-]
REMARK SMILES IDX 3 1 4 2 5 3 6 4 2 5 1 6
REMARK H PARENT
REMARK Flexibility Score: inf
ROOT
ATOM      1  C   UNL     1       8.087 -22.377  16.432  1.00  0.00     0.052 C 
ENDROOT
BRANCH   1   2
ATOM      2  C   UNL     1       7.969 -21.676  15.116  1.00  0.00     0.041 C 
ATOM      3  O   UNL     1       8.543 -20.570  14.933  1.00  0.00    -0.550 OA
ATOM      4  O   UNL     1       7.183 -22.219  14.107  1.00  0.00    -0.550 OA
ENDBRANCH   1   2
BRANCH   1   5
ATOM      5  C   UNL     1       7.367 -21.587  17.527  1.00  0.00     0.003 C 
ATOM      6  C   UNL     1       5.878 -21.919  17.557  1.00  0.00     0.004 C 
ENDBRANCH   1   5
TORSDOF 2
ENDMDL
MODEL 3
REMARK VINA RESULT:    -2.393     18.375     18.978
REMARK INTER + INTRA:          -2.683
REMARK INTER:                  -2.630
REMARK INTRA:                  -0.053
REMARK UNBOUND:                -0.011
REMARK SMILES CCCC(=O)[O-]
REMARK SMILES IDX 3 1 4 2 5 3 6 4 2 5 1 6
REMARK H PARENT
REMARK Flexibility Score: inf
ROOT
ATOM      1  C   UNL     1     -11.123 -20.723  15.549  1.00  0.00     0.052 C 
ENDROOT
BRANCH   1   2
ATOM      2  C   UNL     1     -10.881 -20.079  16.876  1.00  0.00     0.041 C 
ATOM      3  O   UNL     1     -11.125 -18.854  17.041  1.00  0.00    -0.550 OA
ATOM      4  O   UNL     1     -10.338 -20.818  17.920  1.00  0.00    -0.550 OA
ENDBRANCH   1   2
BRANCH   1   5
ATOM      5  C   UNL     1     -10.081 -20.258  14.529  1.00  0.00     0.003 C 
ATOM      6  C   UNL     1      -8.709 -20.854  14.832  1.00  0.00     0.004 C 
ENDBRANCH   1   5
TORSDOF 2
ENDMDL
MODEL 4
REMARK VINA RESULT:    -2.314      2.380      3.273
REMARK INTER + INTRA:          -2.595
REMARK INTER:                  -2.525
REMARK INTRA:                  -0.070
REMARK UNBOUND:                -0.011
REMARK SMILES CCCC(=O)[O-]
REMARK SMILES IDX 3 1 4 2 5 3 6 4 2 5 1 6
REMARK H PARENT
REMARK Flexibility Score: inf
ROOT
ATOM      1  C   UNL     1       7.177 -19.331  10.811  1.00  0.00     0.052 C 
ENDROOT
BRANCH   1   2
ATOM      2  C   UNL     1       7.994 -20.015  11.860  1.00  0.00     0.041 C 
ATOM      3  O   UNL     1       8.963 -19.418  12.399  1.00  0.00    -0.550 OA
ATOM      4  O   UNL     1       7.717 -21.331  12.209  1.00  0.00    -0.550 OA
ENDBRANCH   1   2
BRANCH   1   5
ATOM      5  C   UNL     1       7.138 -20.169   9.531  1.00  0.00     0.003 C 
ATOM      6  C   UNL     1       8.527 -20.290   8.910  1.00  0.00     0.004 C 
ENDBRANCH   1   5
TORSDOF 2
ENDMDL
MODEL 5
REMARK VINA RESULT:    -2.292     18.376     18.938
REMARK INTER + INTRA:          -2.570
REMARK INTER:                  -2.507
REMARK INTRA:                  -0.064
REMARK UNBOUND:                -0.011
REMARK SMILES CCCC(=O)[O-]
REMARK SMILES IDX 3 1 4 2 5 3 6 4 2 5 1 6
REMARK H PARENT
REMARK Flexibility Score: inf
ROOT
ATOM      1  C   UNL     1     -10.683 -19.948  16.241  1.00  0.00     0.052 C 
ENDROOT
BRANCH   1   2
ATOM      2  C   UNL     1     -10.430 -21.057  17.213  1.00  0.00     0.041 C 
ATOM      3  O   UNL     1     -11.124 -22.107  17.173  1.00  0.00    -0.550 OA
ATOM      4  O   UNL     1      -9.459 -20.912  18.196  1.00  0.00    -0.550 OA
ENDBRANCH   1   2
BRANCH   1   5
ATOM      5  C   UNL     1     -10.567 -20.460  14.803  1.00  0.00     0.003 C 
ATOM      6  C   UNL     1      -9.107 -20.641  14.399  1.00  0.00     0.004 C 
ENDBRANCH   1   5
TORSDOF 2
ENDMDL
MODEL 6
REMARK VINA RESULT:    -2.220      1.773      2.208
REMARK INTER + INTRA:          -2.491
REMARK INTER:                  -2.423
REMARK INTRA:                  -0.067
REMARK UNBOUND:                -0.011
REMARK SMILES CCCC(=O)[O-]
REMARK SMILES IDX 3 1 4 2 5 3 6 4 2 5 1 6
REMARK H PARENT
REMARK Flexibility Score: inf
ROOT
ATOM      1  C   UNL     1       7.158 -19.800   9.480  1.00  0.00     0.052 C 
ENDROOT
BRANCH   1   2
ATOM      2  C   UNL     1       7.560 -21.225   9.267  1.00  0.00     0.041 C 
ATOM      3  O   UNL     1       6.847 -22.159   9.719  1.00  0.00    -0.550 OA
ATOM      4  O   UNL     1       8.748 -21.522   8.611  1.00  0.00    -0.550 OA
ENDBRANCH   1   2
BRANCH   1   5
ATOM      5  C   UNL     1       7.044 -19.494  10.975  1.00  0.00     0.003 C 
ATOM      6  C   UNL     1       8.388 -19.662  11.677  1.00  0.00     0.004 C 
ENDBRANCH   1   5
TORSDOF 2
ENDMDL
MODEL 7
REMARK VINA RESULT:    -2.220      1.502      2.236
REMARK INTER + INTRA:          -2.490
REMARK INTER:                  -2.438
REMARK INTRA:                  -0.053
REMARK UNBOUND:                -0.011
REMARK SMILES CCCC(=O)[O-]
REMARK SMILES IDX 3 1 4 2 5 3 6 4 2 5 1 6
REMARK H PARENT
REMARK Flexibility Score: inf
ROOT
ATOM      1  C   UNL     1       8.982 -20.109  11.540  1.00  0.00     0.052 C 
ENDROOT
BRANCH   1   2
ATOM      2  C   UNL     1       7.544 -20.186  11.136  1.00  0.00     0.041 C 
ATOM      3  O   UNL     1       6.924 -19.145  10.794  1.00  0.00    -0.550 OA
ATOM      4  O   UNL     1       6.872 -21.402  11.186  1.00  0.00    -0.550 OA
ENDBRANCH   1   2
BRANCH   1   5
ATOM      5  C   UNL     1       9.125 -19.375  12.875  1.00  0.00     0.003 C 
ATOM      6  C   UNL     1       8.967 -20.334  14.051  1.00  0.00     0.004 C 
ENDBRANCH   1   5
TORSDOF 2
ENDMDL
MODEL 8
REMARK VINA RESULT:    -2.197      2.259      2.415
REMARK INTER + INTRA:          -2.464
REMARK INTER:                  -2.434
REMARK INTRA:                  -0.030
REMARK UNBOUND:                -0.011
REMARK SMILES CCCC(=O)[O-]
REMARK SMILES IDX 3 1 4 2 5 3 6 4 2 5 1 6
REMARK H PARENT
REMARK Flexibility Score: inf
ROOT
ATOM      1  C   UNL     1       7.283 -21.150  10.663  1.00  0.00     0.052 C 
ENDROOT
BRANCH   1   2
ATOM      2  C   UNL     1       7.229 -19.656  10.606  1.00  0.00     0.041 C 
ATOM      3  O   UNL     1       7.764 -18.967  11.514  1.00  0.00    -0.550 OA
ATOM      4  O   UNL     1       6.545 -19.024   9.575  1.00  0.00    -0.550 OA
ENDBRANCH   1   2
BRANCH   1   5
ATOM      5  C   UNL     1       7.441 -21.625  12.109  1.00  0.00     0.003 C 
ATOM      6  C   UNL     1       6.188 -22.350  12.591  1.00  0.00     0.004 C 
ENDBRANCH   1   5
TORSDOF 2
ENDMDL
MODEL 9
REMARK VINA RESULT:    -2.169      2.167      2.790
REMARK INTER + INTRA:          -2.433
REMARK INTER:                  -2.381
REMARK INTRA:                  -0.052
REMARK UNBOUND:                -0.011
REMARK SMILES CCCC(=O)[O-]
REMARK SMILES IDX 3 1 4 2 5 3 6 4 2 5 1 6
REMARK H PARENT
REMARK Flexibility Score: inf
ROOT
ATOM      1  C   UNL     1       7.264 -21.143  10.679  1.00  0.00     0.052 C 
ENDROOT
BRANCH   1   2
ATOM      2  C   UNL     1       7.227 -19.649  10.609  1.00  0.00     0.041 C 
ATOM      3  O   UNL     1       7.778 -18.958  11.506  1.00  0.00    -0.550 OA
ATOM      4  O   UNL     1       6.541 -19.018   9.579  1.00  0.00    -0.550 OA
ENDBRANCH   1   2
BRANCH   1   5
ATOM      5  C   UNL     1       7.284 -21.745   9.272  1.00  0.00     0.003 C 
ATOM      6  C   UNL     1       8.699 -21.760   8.700  1.00  0.00     0.004 C 
ENDBRANCH   1   5
TORSDOF 2
ENDMDL
