MODEL 1
REMARK VINA RESULT:    -3.865      0.000      0.000
REMARK INTER + INTRA:          -6.352
REMARK INTER:                  -5.898
REMARK INTRA:                  -0.454
REMARK UNBOUND:                -0.454
REMARK SMILES O=C([O-])CCCCCCCCC(=O)[O-]
REMARK SMILES IDX 7 1 6 2 5 3 4 4 2 5 1 6 3 7 8 8 9 9 10 10 11 11 12 12 13 13
REMARK SMILES IDX 14 14
REMARK H PARENT
REMARK Flexibility Score: inf
ROOT
ATOM      1  C   UNL     1      30.487  32.599  23.125  1.00  0.00     0.000 C 
ENDROOT
BRANCH   1   2
ATOM      2  C   UNL     1      30.895  34.046  22.797  1.00  0.00     0.000 C 
BRANCH   2   3
ATOM      3  C   UNL     1      32.409  34.195  22.576  1.00  0.00     0.006 C 
BRANCH   3   4
ATOM      4  C   UNL     1      33.081  32.877  22.171  1.00  0.00     0.053 C 
BRANCH   4   5
ATOM      5  C   UNL     1      33.481  32.918  20.730  1.00  0.00     0.041 C 
ATOM      6  O   UNL     1      32.910  33.711  19.935  1.00  0.00    -0.550 OA
ATOM      7  O   UNL     1      34.450  32.044  20.252  1.00  0.00    -0.550 OA
ENDBRANCH   4   5
ENDBRANCH   3   4
ENDBRANCH   2   3
ENDBRANCH   1   2
BRANCH   1   8
ATOM      8  C   UNL     1      29.000  32.319  22.843  1.00  0.00     0.000 C 
BRANCH   8   9
ATOM      9  C   UNL     1      28.216  33.494  22.222  1.00  0.00     0.000 C 
BRANCH   9  10
ATOM     10  C   UNL     1      27.763  33.282  20.763  1.00  0.00     0.006 C 
BRANCH  10  11
ATOM     11  C   UNL     1      26.662  34.247  20.296  1.00  0.00     0.053 C 
BRANCH  11  12
ATOM     12  C   UNL     1      25.520  33.523  19.651  1.00  0.00     0.041 C 
ATOM     13  O   UNL     1      25.067  33.912  18.543  1.00  0.00    -0.550 OA
ATOM     14  O   UNL     1      24.978  32.397  20.259  1.00  0.00    -0.550 OA
ENDBRANCH  11  12
ENDBRANCH  10  11
ENDBRANCH   9  10
ENDBRANCH   8   9
ENDBRANCH   1   8
TORSDOF 9
ENDMDL
MODEL 2
REMARK VINA RESULT:    -3.834     15.384     17.368
REMARK INTER + INTRA:          -6.305
REMARK INTER:                  -5.268
REMARK INTRA:                  -1.038
REMARK UNBOUND:                -0.454
REMARK SMILES O=C([O-])CCCCCCCCC(=O)[O-]
REMARK SMILES IDX 7 1 6 2 5 3 4 4 2 5 1 6 3 7 8 8 9 9 10 10 11 11 12 12 13 13
REMARK SMILES IDX 14 14
REMARK H PARENT
REMARK Flexibility Score: inf
ROOT
ATOM      1  C   UNL     1      38.331  21.958  31.626  1.00  0.00     0.000 C 
ENDROOT
BRANCH   1   2
ATOM      2  C   UNL     1      37.751  23.343  31.292  1.00  0.00     0.000 C 
BRANCH   2   3
ATOM      3  C   UNL     1      37.608  23.572  29.779  1.00  0.00     0.006 C 
BRANCH   3   4
ATOM      4  C   UNL     1      38.009  22.343  28.953  1.00  0.00     0.053 C 
BRANCH   4   5
ATOM      5  C   UNL     1      39.010  22.722  27.908  1.00  0.00     0.041 C 
ATOM      6  O   UNL     1      38.808  23.722  27.169  1.00  0.00    -0.550 OA
ATOM      7  O   UNL     1      40.142  21.941  27.714  1.00  0.00    -0.550 OA
ENDBRANCH   4   5
ENDBRANCH   3   4
ENDBRANCH   2   3
ENDBRANCH   1   2
BRANCH   1   8
ATOM      8  C   UNL     1      39.620  22.037  32.465  1.00  0.00     0.000 C 
BRANCH   8   9
ATOM      9  C   UNL     1      40.181  23.458  32.676  1.00  0.00     0.000 C 
BRANCH   9  10
ATOM     10  C   UNL     1      41.523  23.745  31.973  1.00  0.00     0.006 C 
BRANCH  10  11
ATOM     11  C   UNL     1      41.464  23.664  30.439  1.00  0.00     0.053 C 
BRANCH  11  12
ATOM     12  C   UNL     1      41.494  25.022  29.807  1.00  0.00     0.041 C 
ATOM     13  O   UNL     1      40.424  25.577  29.445  1.00  0.00    -0.550 OA
ATOM     14  O   UNL     1      42.704  25.688  29.647  1.00  0.00    -0.550 OA
ENDBRANCH  11  12
ENDBRANCH  10  11
ENDBRANCH   9  10
ENDBRANCH   8   9
ENDBRANCH   1   8
TORSDOF 9
ENDMDL
MODEL 3
REMARK VINA RESULT:    -3.785      1.280      5.968
REMARK INTER + INTRA:          -6.231
REMARK INTER:                  -5.638
REMARK INTRA:                  -0.593
REMARK UNBOUND:                -0.454
REMARK SMILES O=C([O-])CCCCCCCCC(=O)[O-]
REMARK SMILES IDX 7 1 6 2 5 3 4 4 2 5 1 6 3 7 8 8 9 9 10 10 11 11 12 12 13 13
REMARK SMILES IDX 14 14
REMARK H PARENT
REMARK Flexibility Score: inf
ROOT
ATOM      1  C   UNL     1      29.786  33.874  23.330  1.00  0.00     0.000 C 
ENDROOT
BRANCH   1   2
ATOM      2  C   UNL     1      28.460  33.344  22.758  1.00  0.00     0.000 C 
BRANCH   2   3
ATOM      3  C   UNL     1      28.633  32.697  21.373  1.00  0.00     0.006 C 
BRANCH   3   4
ATOM      4  C   UNL     1      28.471  33.703  20.226  1.00  0.00     0.053 C 
BRANCH   4   5
ATOM      5  C   UNL     1      27.032  34.082  20.066  1.00  0.00     0.041 C 
ATOM      6  O   UNL     1      26.655  35.257  20.315  1.00  0.00    -0.550 OA
ATOM      7  O   UNL     1      26.099  33.125  19.689  1.00  0.00    -0.550 OA
ENDBRANCH   4   5
ENDBRANCH   3   4
ENDBRANCH   2   3
ENDBRANCH   1   2
BRANCH   1   8
ATOM      8  C   UNL     1      30.984  32.962  23.008  1.00  0.00     0.000 C 
BRANCH   8   9
ATOM      9  C   UNL     1      32.254  33.691  22.523  1.00  0.00     0.000 C 
BRANCH   9  10
ATOM     10  C   UNL     1      33.319  32.787  21.870  1.00  0.00     0.006 C 
BRANCH  10  11
ATOM     11  C   UNL     1      33.826  33.288  20.508  1.00  0.00     0.053 C 
BRANCH  11  12
ATOM     12  C   UNL     1      33.091  32.650  19.369  1.00  0.00     0.041 C 
ATOM     13  O   UNL     1      33.623  31.715  18.716  1.00  0.00    -0.550 OA
ATOM     14  O   UNL     1      31.804  33.067  19.052  1.00  0.00    -0.550 OA
ENDBRANCH  11  12
ENDBRANCH  10  11
ENDBRANCH   9  10
ENDBRANCH   8   9
ENDBRANCH   1   8
TORSDOF 9
ENDMDL
MODEL 4
REMARK VINA RESULT:    -3.777      2.474      5.693
REMARK INTER + INTRA:          -6.218
REMARK INTER:                  -5.392
REMARK INTRA:                  -0.826
REMARK UNBOUND:                -0.454
REMARK SMILES O=C([O-])CCCCCCCCC(=O)[O-]
REMARK SMILES IDX 7 1 6 2 5 3 4 4 2 5 1 6 3 7 8 8 9 9 10 10 11 11 12 12 13 13
REMARK SMILES IDX 14 14
REMARK H PARENT
REMARK Flexibility Score: inf
ROOT
ATOM      1  C   UNL     1      29.737  33.169  23.325  1.00  0.00     0.000 C 
ENDROOT
BRANCH   1   2
ATOM      2  C   UNL     1      28.269  33.385  22.922  1.00  0.00     0.000 C 
BRANCH   2   3
ATOM      3  C   UNL     1      28.119  33.824  21.456  1.00  0.00     0.006 C 
BRANCH   3   4
ATOM      4  C   UNL     1      28.905  32.931  20.487  1.00  0.00     0.053 C 
BRANCH   4   5
ATOM      5  C   UNL     1      30.004  33.710  19.837  1.00  0.00     0.041 C 
ATOM      6  O   UNL     1      30.107  34.950  20.034  1.00  0.00    -0.550 OA
ATOM      7  O   UNL     1      30.887  33.076  18.971  1.00  0.00    -0.550 OA
ENDBRANCH   4   5
ENDBRANCH   3   4
ENDBRANCH   2   3
ENDBRANCH   1   2
BRANCH   1   8
ATOM      8  C   UNL     1      30.494  34.490  23.557  1.00  0.00     0.000 C 
BRANCH   8   9
ATOM      9  C   UNL     1      31.970  34.488  23.109  1.00  0.00     0.000 C 
BRANCH   9  10
ATOM     10  C   UNL     1      32.483  33.147  22.546  1.00  0.00     0.006 C 
BRANCH  10  11
ATOM     11  C   UNL     1      33.981  33.135  22.203  1.00  0.00     0.053 C 
BRANCH  11  12
ATOM     12  C   UNL     1      34.217  33.035  20.728  1.00  0.00     0.041 C 
ATOM     13  O   UNL     1      33.889  31.992  20.103  1.00  0.00    -0.550 OA
ATOM     14  O   UNL     1      34.767  34.107  20.037  1.00  0.00    -0.550 OA
ENDBRANCH  11  12
ENDBRANCH  10  11
ENDBRANCH   9  10
ENDBRANCH   8   9
ENDBRANCH   1   8
TORSDOF 9
ENDMDL
MODEL 5
REMARK VINA RESULT:    -3.752      2.424      2.869
REMARK INTER + INTRA:          -6.180
REMARK INTER:                  -5.234
REMARK INTRA:                  -0.946
REMARK UNBOUND:                -0.454
REMARK SMILES O=C([O-])CCCCCCCCC(=O)[O-]
REMARK SMILES IDX 7 1 6 2 5 3 4 4 2 5 1 6 3 7 8 8 9 9 10 10 11 11 12 12 13 13
REMARK SMILES IDX 14 14
REMARK H PARENT
REMARK Flexibility Score: inf
ROOT
ATOM      1  C   UNL     1      30.071  35.383  23.286  1.00  0.00     0.000 C 
ENDROOT
BRANCH   1   2
ATOM      2  C   UNL     1      31.363  34.694  23.755  1.00  0.00     0.000 C 
BRANCH   2   3
ATOM      3  C   UNL     1      32.362  34.472  22.607  1.00  0.00     0.006 C 
BRANCH   3   4
ATOM      4  C   UNL     1      32.648  32.987  22.351  1.00  0.00     0.053 C 
BRANCH   4   5
ATOM      5  C   UNL     1      33.848  32.832  21.471  1.00  0.00     0.041 C 
ATOM      6  O   UNL     1      33.870  31.944  20.578  1.00  0.00    -0.550 OA
ATOM      7  O   UNL     1      34.964  33.636  21.669  1.00  0.00    -0.550 OA
ENDBRANCH   4   5
ENDBRANCH   3   4
ENDBRANCH   2   3
ENDBRANCH   1   2
BRANCH   1   8
ATOM      8  C   UNL     1      28.802  34.729  23.864  1.00  0.00     0.000 C 
BRANCH   8   9
ATOM      9  C   UNL     1      28.411  33.380  23.228  1.00  0.00     0.000 C 
BRANCH   9  10
ATOM     10  C   UNL     1      28.021  33.446  21.737  1.00  0.00     0.006 C 
BRANCH  10  11
ATOM     11  C   UNL     1      28.965  32.676  20.800  1.00  0.00     0.053 C 
BRANCH  11  12
ATOM     12  C   UNL     1      29.816  33.599  19.983  1.00  0.00     0.041 C 
ATOM     13  O   UNL     1      29.638  34.844  20.041  1.00  0.00    -0.550 OA
ATOM     14  O   UNL     1      30.829  33.084  19.182  1.00  0.00    -0.550 OA
ENDBRANCH  11  12
ENDBRANCH  10  11
ENDBRANCH   9  10
ENDBRANCH   8   9
ENDBRANCH   1   8
TORSDOF 9
ENDMDL
MODEL 6
REMARK VINA RESULT:    -3.702      1.299      5.869
REMARK INTER + INTRA:          -6.103
REMARK INTER:                  -5.261
REMARK INTRA:                  -0.842
REMARK UNBOUND:                -0.454
REMARK SMILES O=C([O-])CCCCCCCCC(=O)[O-]
REMARK SMILES IDX 7 1 6 2 5 3 4 4 2 5 1 6 3 7 8 8 9 9 10 10 11 11 12 12 13 13
REMARK SMILES IDX 14 14
REMARK H PARENT
REMARK Flexibility Score: inf
ROOT
ATOM      1  C   UNL     1      28.723  34.049  22.826  1.00  0.00     0.000 C 
ENDROOT
BRANCH   1   2
ATOM      2  C   UNL     1      28.619  32.798  21.936  1.00  0.00     0.000 C 
BRANCH   2   3
ATOM      3  C   UNL     1      28.145  33.127  20.511  1.00  0.00     0.006 C 
BRANCH   3   4
ATOM      4  C   UNL     1      27.037  34.187  20.485  1.00  0.00     0.053 C 
BRANCH   4   5
ATOM      5  C   UNL     1      25.849  33.682  19.729  1.00  0.00     0.041 C 
ATOM      6  O   UNL     1      25.573  34.151  18.593  1.00  0.00    -0.550 OA
ATOM      7  O   UNL     1      25.016  32.727  20.300  1.00  0.00    -0.550 OA
ENDBRANCH   4   5
ENDBRANCH   3   4
ENDBRANCH   2   3
ENDBRANCH   1   2
BRANCH   1   8
ATOM      8  C   UNL     1      30.131  34.246  23.417  1.00  0.00     0.000 C 
BRANCH   8   9
ATOM      9  C   UNL     1      31.177  33.197  22.986  1.00  0.00     0.000 C 
BRANCH   9  10
ATOM     10  C   UNL     1      32.400  33.762  22.236  1.00  0.00     0.006 C 
BRANCH  10  11
ATOM     11  C   UNL     1      32.618  33.162  20.837  1.00  0.00     0.053 C 
BRANCH  11  12
ATOM     12  C   UNL     1      31.700  33.768  19.821  1.00  0.00     0.041 C 
ATOM     13  O   UNL     1      31.395  33.128  18.780  1.00  0.00    -0.550 OA
ATOM     14  O   UNL     1      31.154  35.027  20.039  1.00  0.00    -0.550 OA
ENDBRANCH  11  12
ENDBRANCH  10  11
ENDBRANCH   9  10
ENDBRANCH   8   9
ENDBRANCH   1   8
TORSDOF 9
ENDMDL
MODEL 7
REMARK VINA RESULT:    -3.692      1.709      5.994
REMARK INTER + INTRA:          -6.089
REMARK INTER:                  -5.606
REMARK INTRA:                  -0.483
REMARK UNBOUND:                -0.454
REMARK SMILES O=C([O-])CCCCCCCCC(=O)[O-]
REMARK SMILES IDX 7 1 6 2 5 3 4 4 2 5 1 6 3 7 8 8 9 9 10 10 11 11 12 12 13 13
REMARK SMILES IDX 14 14
REMARK H PARENT
REMARK Flexibility Score: inf
ROOT
ATOM      1  C   UNL     1      31.175  33.253  23.015  1.00  0.00     0.000 C 
ENDROOT
BRANCH   1   2
ATOM      2  C   UNL     1      30.136  34.246  23.562  1.00  0.00     0.000 C 
BRANCH   2   3
ATOM      3  C   UNL     1      28.696  33.859  23.185  1.00  0.00     0.006 C 
BRANCH   3   4
ATOM      4  C   UNL     1      28.635  32.635  22.262  1.00  0.00     0.053 C 
BRANCH   4   5
ATOM      5  C   UNL     1      28.275  33.049  20.870  1.00  0.00     0.041 C 
ATOM      6  O   UNL     1      29.152  33.064  19.966  1.00  0.00    -0.550 OA
ATOM      7  O   UNL     1      26.982  33.467  20.582  1.00  0.00    -0.550 OA
ENDBRANCH   4   5
ENDBRANCH   3   4
ENDBRANCH   2   3
ENDBRANCH   1   2
BRANCH   1   8
ATOM      8  C   UNL     1      32.412  33.950  22.418  1.00  0.00     0.000 C 
BRANCH   8   9
ATOM      9  C   UNL     1      33.656  33.053  22.254  1.00  0.00     0.000 C 
BRANCH   9  10
ATOM     10  C   UNL     1      34.413  33.221  20.920  1.00  0.00     0.006 C 
BRANCH  10  11
ATOM     11  C   UNL     1      34.527  31.932  20.090  1.00  0.00     0.053 C 
BRANCH  11  12
ATOM     12  C   UNL     1      33.612  31.948  18.904  1.00  0.00     0.041 C 
ATOM     13  O   UNL     1      33.863  31.232  17.900  1.00  0.00    -0.550 OA
ATOM     14  O   UNL     1      32.464  32.731  18.923  1.00  0.00    -0.550 OA
ENDBRANCH  11  12
ENDBRANCH  10  11
ENDBRANCH   9  10
ENDBRANCH   8   9
ENDBRANCH   1   8
TORSDOF 9
ENDMDL
MODEL 8
REMARK VINA RESULT:    -3.668      1.978      5.739
REMARK INTER + INTRA:          -6.052
REMARK INTER:                  -5.167
REMARK INTRA:                  -0.886
REMARK UNBOUND:                -0.454
REMARK SMILES O=C([O-])CCCCCCCCC(=O)[O-]
REMARK SMILES IDX 7 1 6 2 5 3 4 4 2 5 1 6 3 7 8 8 9 9 10 10 11 11 12 12 13 13
REMARK SMILES IDX 14 14
REMARK H PARENT
REMARK Flexibility Score: inf
ROOT
ATOM      1  C   UNL     1      30.921  33.688  22.947  1.00  0.00     0.000 C 
ENDROOT
BRANCH   1   2
ATOM      2  C   UNL     1      29.790  32.649  23.042  1.00  0.00     0.000 C 
BRANCH   2   3
ATOM      3  C   UNL     1      28.456  33.179  22.492  1.00  0.00     0.006 C 
BRANCH   3   4
ATOM      4  C   UNL     1      28.360  33.070  20.964  1.00  0.00     0.053 C 
BRANCH   4   5
ATOM      5  C   UNL     1      27.955  34.383  20.373  1.00  0.00     0.041 C 
ATOM      6  O   UNL     1      26.904  34.471  19.685  1.00  0.00    -0.550 OA
ATOM      7  O   UNL     1      28.765  35.499  20.538  1.00  0.00    -0.550 OA
ENDBRANCH   4   5
ENDBRANCH   3   4
ENDBRANCH   2   3
ENDBRANCH   1   2
BRANCH   1   8
ATOM      8  C   UNL     1      32.292  33.052  22.650  1.00  0.00     0.000 C 
BRANCH   8   9
ATOM      9  C   UNL     1      32.944  33.489  21.322  1.00  0.00     0.000 C 
BRANCH   9  10
ATOM     10  C   UNL     1      31.970  34.050  20.266  1.00  0.00     0.006 C 
BRANCH  10  11
ATOM     11  C   UNL     1      31.751  33.129  19.055  1.00  0.00     0.053 C 
BRANCH  11  12
ATOM     12  C   UNL     1      33.047  32.677  18.455  1.00  0.00     0.041 C 
ATOM     13  O   UNL     1      33.377  31.463  18.500  1.00  0.00    -0.550 OA
ATOM     14  O   UNL     1      33.875  33.592  17.817  1.00  0.00    -0.550 OA
ENDBRANCH  11  12
ENDBRANCH  10  11
ENDBRANCH   9  10
ENDBRANCH   8   9
ENDBRANCH   1   8
TORSDOF 9
ENDMDL
MODEL 9
REMARK VINA RESULT:    -3.645      1.871      2.793
REMARK INTER + INTRA:          -6.016
REMARK INTER:                  -5.379
REMARK INTRA:                  -0.638
REMARK UNBOUND:                -0.454
REMARK SMILES O=C([O-])CCCCCCCCC(=O)[O-]
REMARK SMILES IDX 7 1 6 2 5 3 4 4 2 5 1 6 3 7 8 8 9 9 10 10 11 11 12 12 13 13
REMARK SMILES IDX 14 14
REMARK H PARENT
REMARK Flexibility Score: inf
ROOT
ATOM      1  C   UNL     1      32.103  34.606  22.763  1.00  0.00     0.000 C 
ENDROOT
BRANCH   1   2
ATOM      2  C   UNL     1      32.358  33.093  22.662  1.00  0.00     0.000 C 
BRANCH   2   3
ATOM      3  C   UNL     1      33.549  32.756  21.749  1.00  0.00     0.006 C 
BRANCH   3   4
ATOM      4  C   UNL     1      33.222  32.928  20.260  1.00  0.00     0.053 C 
BRANCH   4   5
ATOM      5  C   UNL     1      34.436  32.670  19.427  1.00  0.00     0.041 C 
ATOM      6  O   UNL     1      34.702  33.413  18.445  1.00  0.00    -0.550 OA
ATOM      7  O   UNL     1      35.249  31.577  19.702  1.00  0.00    -0.550 OA
ENDBRANCH   4   5
ENDBRANCH   3   4
ENDBRANCH   2   3
ENDBRANCH   1   2
BRANCH   1   8
ATOM      8  C   UNL     1      31.024  34.962  23.803  1.00  0.00     0.000 C 
BRANCH   8   9
ATOM      9  C   UNL     1      29.601  35.144  23.237  1.00  0.00     0.000 C 
BRANCH   9  10
ATOM     10  C   UNL     1      28.614  34.006  23.568  1.00  0.00     0.006 C 
BRANCH  10  11
ATOM     11  C   UNL     1      28.760  32.761  22.677  1.00  0.00     0.053 C 
BRANCH  11  12
ATOM     12  C   UNL     1      28.472  33.067  21.239  1.00  0.00     0.041 C 
ATOM     13  O   UNL     1      27.294  33.302  20.864  1.00  0.00    -0.550 OA
ATOM     14  O   UNL     1      29.512  33.124  20.319  1.00  0.00    -0.550 OA
ENDBRANCH  11  12
ENDBRANCH  10  11
ENDBRANCH   9  10
ENDBRANCH   8   9
ENDBRANCH   1   8
TORSDOF 9
ENDMDL
