MODEL 1
REMARK VINA RESULT:    -4.709      0.000      0.000
REMARK INTER + INTRA:          -9.479
REMARK INTER:                  -8.563
REMARK INTRA:                  -0.915
REMARK UNBOUND:                -0.915
REMARK SMILES CCCCCCCCCCCCCCCC(=O)[O-]
REMARK SMILES IDX 9 1 10 2 11 3 12 4 13 5 14 6 15 7 16 8 17 9 18 10 8 11 7 12
REMARK SMILES IDX 6 13 5 14 4 15 3 16 2 17 1 18
REMARK H PARENT
REMARK Flexibility Score: inf
ROOT
ATOM      1  C   UNL     1      -6.307  -8.035  -2.935  1.00  0.00     0.000 C 
ENDROOT
BRANCH   1   2
ATOM      2  C   UNL     1      -6.521  -9.468  -2.406  1.00  0.00     0.000 C 
BRANCH   2   3
ATOM      3  C   UNL     1      -7.053  -9.562  -0.962  1.00  0.00     0.000 C 
BRANCH   3   4
ATOM      4  C   UNL     1      -8.587  -9.557  -0.838  1.00  0.00     0.000 C 
BRANCH   4   5
ATOM      5  C   UNL     1      -9.066  -9.400   0.616  1.00  0.00     0.000 C 
BRANCH   5   6
ATOM      6  C   UNL     1      -8.077  -9.994   1.630  1.00  0.00     0.006 C 
BRANCH   6   7
ATOM      7  C   UNL     1      -8.543  -9.814   3.081  1.00  0.00     0.053 C 
BRANCH   7   8
ATOM      8  C   UNL     1      -7.367  -9.732   4.001  1.00  0.00     0.041 C 
ATOM      9  O   UNL     1      -7.529  -9.820   5.246  1.00  0.00    -0.550 OA
ATOM     10  O   UNL     1      -6.095  -9.506   3.487  1.00  0.00    -0.550 OA
ENDBRANCH   7   8
ENDBRANCH   6   7
ENDBRANCH   5   6
ENDBRANCH   4   5
ENDBRANCH   3   4
ENDBRANCH   2   3
ENDBRANCH   1   2
BRANCH   1  11
ATOM     11  C   UNL     1      -7.436  -7.492  -3.828  1.00  0.00     0.000 C 
BRANCH  11  12
ATOM     12  C   UNL     1      -7.840  -8.472  -4.943  1.00  0.00    -0.000 C 
BRANCH  12  13
ATOM     13  C   UNL     1      -7.846  -7.821  -6.337  1.00  0.00    -0.000 C 
BRANCH  13  14
ATOM     14  C   UNL     1      -7.188  -6.428  -6.419  1.00  0.00    -0.000 C 
BRANCH  14  15
ATOM     15  C   UNL     1      -5.939  -6.343  -7.315  1.00  0.00    -0.000 C 
BRANCH  15  16
ATOM     16  C   UNL     1      -5.490  -7.716  -7.844  1.00  0.00    -0.000 C 
BRANCH  16  17
ATOM     17  C   UNL     1      -5.532  -7.798  -9.378  1.00  0.00    -0.003 C 
ATOM     18  C   UNL     1      -4.497  -8.766  -9.950  1.00  0.00     0.004 C 
ENDBRANCH  16  17
ENDBRANCH  15  16
ENDBRANCH  14  15
ENDBRANCH  13  14
ENDBRANCH  12  13
ENDBRANCH  11  12
ENDBRANCH   1  11
TORSDOF 14
ENDMDL
MODEL 2
REMARK VINA RESULT:    -4.700      3.132      5.310
REMARK INTER + INTRA:          -9.462
REMARK INTER:                  -8.144
REMARK INTRA:                  -1.317
REMARK UNBOUND:                -0.915
REMARK SMILES CCCCCCCCCCCCCCCC(=O)[O-]
REMARK SMILES IDX 9 1 10 2 11 3 12 4 13 5 14 6 15 7 16 8 17 9 18 10 8 11 7 12
REMARK SMILES IDX 6 13 5 14 4 15 3 16 2 17 1 18
REMARK H PARENT
REMARK Flexibility Score: inf
ROOT
ATOM      1  C   UNL     1      -6.073  -7.105  -6.440  1.00  0.00     0.000 C 
ENDROOT
BRANCH   1   2
ATOM      2  C   UNL     1      -7.568  -6.742  -6.324  1.00  0.00     0.000 C 
BRANCH   2   3
ATOM      3  C   UNL     1      -7.996  -6.147  -4.968  1.00  0.00     0.000 C 
BRANCH   3   4
ATOM      4  C   UNL     1      -9.065  -6.958  -4.216  1.00  0.00     0.000 C 
BRANCH   4   5
ATOM      5  C   UNL     1      -9.125  -8.428  -4.668  1.00  0.00     0.000 C 
BRANCH   5   6
ATOM      6  C   UNL     1      -8.543  -9.390  -3.622  1.00  0.00     0.006 C 
BRANCH   6   7
ATOM      7  C   UNL     1      -8.321  -8.717  -2.261  1.00  0.00     0.053 C 
BRANCH   7   8
ATOM      8  C   UNL     1      -6.871  -8.742  -1.895  1.00  0.00     0.041 C 
ATOM      9  O   UNL     1      -6.026  -8.146  -2.612  1.00  0.00    -0.550 OA
ATOM     10  O   UNL     1      -6.445  -9.467  -0.789  1.00  0.00    -0.550 OA
ENDBRANCH   7   8
ENDBRANCH   6   7
ENDBRANCH   5   6
ENDBRANCH   4   5
ENDBRANCH   3   4
ENDBRANCH   2   3
ENDBRANCH   1   2
BRANCH   1  11
ATOM     11  C   UNL     1      -5.520  -7.154  -7.875  1.00  0.00     0.000 C 
BRANCH  11  12
ATOM     12  C   UNL     1      -6.616  -6.988  -8.942  1.00  0.00    -0.000 C 
BRANCH  12  13
ATOM     13  C   UNL     1      -6.381  -5.771  -9.855  1.00  0.00    -0.000 C 
BRANCH  13  14
ATOM     14  C   UNL     1      -7.040  -4.457  -9.387  1.00  0.00    -0.000 C 
BRANCH  14  15
ATOM     15  C   UNL     1      -6.235  -3.652  -8.351  1.00  0.00    -0.000 C 
BRANCH  15  16
ATOM     16  C   UNL     1      -6.787  -2.232  -8.138  1.00  0.00    -0.000 C 
BRANCH  16  17
ATOM     17  C   UNL     1      -5.679  -1.168  -8.113  1.00  0.00    -0.003 C 
ATOM     18  C   UNL     1      -4.838  -1.155  -9.390  1.00  0.00     0.004 C 
ENDBRANCH  16  17
ENDBRANCH  15  16
ENDBRANCH  14  15
ENDBRANCH  13  14
ENDBRANCH  12  13
ENDBRANCH  11  12
ENDBRANCH   1  11
TORSDOF 14
ENDMDL
MODEL 3
REMARK VINA RESULT:    -4.602     15.329     18.090
REMARK INTER + INTRA:          -9.284
REMARK INTER:                  -7.716
REMARK INTRA:                  -1.568
REMARK UNBOUND:                -0.915
REMARK SMILES CCCCCCCCCCCCCCCC(=O)[O-]
REMARK SMILES IDX 9 1 10 2 11 3 12 4 13 5 14 6 15 7 16 8 17 9 18 10 8 11 7 12
REMARK SMILES IDX 6 13 5 14 4 15 3 16 2 17 1 18
REMARK H PARENT
REMARK Flexibility Score: inf
ROOT
ATOM      1  C   UNL     1      -1.407   1.993   8.416  1.00  0.00     0.000 C 
ENDROOT
BRANCH   1   2
ATOM      2  C   UNL     1      -2.115   0.667   8.762  1.00  0.00     0.000 C 
BRANCH   2   3
ATOM      3  C   UNL     1      -1.839  -0.498   7.791  1.00  0.00     0.000 C 
BRANCH   3   4
ATOM      4  C   UNL     1      -0.530  -1.264   8.056  1.00  0.00     0.000 C 
BRANCH   4   5
ATOM      5  C   UNL     1       0.638  -0.763   7.190  1.00  0.00     0.000 C 
BRANCH   5   6
ATOM      6  C   UNL     1       0.185  -0.311   5.793  1.00  0.00     0.006 C 
BRANCH   6   7
ATOM      7  C   UNL     1       1.044   0.832   5.237  1.00  0.00     0.053 C 
BRANCH   7   8
ATOM      8  C   UNL     1       0.185   1.844   4.548  1.00  0.00     0.041 C 
ATOM      9  O   UNL     1      -1.013   2.002   4.897  1.00  0.00    -0.550 OA
ATOM     10  O   UNL     1       0.694   2.579   3.484  1.00  0.00    -0.550 OA
ENDBRANCH   7   8
ENDBRANCH   6   7
ENDBRANCH   5   6
ENDBRANCH   4   5
ENDBRANCH   3   4
ENDBRANCH   2   3
ENDBRANCH   1   2
BRANCH   1  11
ATOM     11  C   UNL     1      -0.898   2.798   9.624  1.00  0.00     0.000 C 
BRANCH  11  12
ATOM     12  C   UNL     1       0.500   3.400   9.394  1.00  0.00    -0.000 C 
BRANCH  12  13
ATOM     13  C   UNL     1       1.032   3.145   7.972  1.00  0.00    -0.000 C 
BRANCH  13  14
ATOM     14  C   UNL     1       2.247   4.002   7.559  1.00  0.00    -0.000 C 
BRANCH  14  15
ATOM     15  C   UNL     1       2.131   5.502   7.879  1.00  0.00    -0.000 C 
BRANCH  15  16
ATOM     16  C   UNL     1       3.155   5.970   8.927  1.00  0.00    -0.000 C 
BRANCH  16  17
ATOM     17  C   UNL     1       4.473   5.182   8.855  1.00  0.00    -0.003 C 
ATOM     18  C   UNL     1       5.514   5.675   9.860  1.00  0.00     0.004 C 
ENDBRANCH  16  17
ENDBRANCH  15  16
ENDBRANCH  14  15
ENDBRANCH  13  14
ENDBRANCH  12  13
ENDBRANCH  11  12
ENDBRANCH   1  11
TORSDOF 14
ENDMDL
MODEL 4
REMARK VINA RESULT:    -4.476     15.957     18.186
REMARK INTER + INTRA:          -9.054
REMARK INTER:                  -7.876
REMARK INTRA:                  -1.179
REMARK UNBOUND:                -0.915
REMARK SMILES CCCCCCCCCCCCCCCC(=O)[O-]
REMARK SMILES IDX 9 1 10 2 11 3 12 4 13 5 14 6 15 7 16 8 17 9 18 10 8 11 7 12
REMARK SMILES IDX 6 13 5 14 4 15 3 16 2 17 1 18
REMARK H PARENT
REMARK Flexibility Score: inf
ROOT
ATOM      1  C   UNL     1       1.345   2.494   6.298  1.00  0.00     0.000 C 
ENDROOT
BRANCH   1   2
ATOM      2  C   UNL     1       0.779   1.260   5.565  1.00  0.00     0.000 C 
BRANCH   2   3
ATOM      3  C   UNL     1      -0.525   1.504   4.780  1.00  0.00     0.000 C 
BRANCH   3   4
ATOM      4  C   UNL     1      -1.742   0.712   5.288  1.00  0.00     0.000 C 
BRANCH   4   5
ATOM      5  C   UNL     1      -2.348   1.308   6.570  1.00  0.00     0.000 C 
BRANCH   5   6
ATOM      6  C   UNL     1      -1.920   0.545   7.834  1.00  0.00     0.006 C 
BRANCH   6   7
ATOM      7  C   UNL     1      -1.471  -0.890   7.531  1.00  0.00     0.053 C 
BRANCH   7   8
ATOM      8  C   UNL     1      -0.381  -1.305   8.467  1.00  0.00     0.041 C 
ATOM      9  O   UNL     1      -0.643  -2.026   9.466  1.00  0.00    -0.550 OA
ATOM     10  O   UNL     1       0.918  -0.855   8.266  1.00  0.00    -0.550 OA
ENDBRANCH   7   8
ENDBRANCH   6   7
ENDBRANCH   5   6
ENDBRANCH   4   5
ENDBRANCH   3   4
ENDBRANCH   2   3
ENDBRANCH   1   2
BRANCH   1  11
ATOM     11  C   UNL     1       0.891   2.653   7.759  1.00  0.00     0.000 C 
BRANCH  11  12
ATOM     12  C   UNL     1       1.558   3.848   8.464  1.00  0.00    -0.000 C 
BRANCH  12  13
ATOM     13  C   UNL     1       2.466   4.664   7.526  1.00  0.00    -0.000 C 
BRANCH  13  14
ATOM     14  C   UNL     1       3.125   5.906   8.161  1.00  0.00    -0.000 C 
BRANCH  14  15
ATOM     15  C   UNL     1       3.981   5.629   9.410  1.00  0.00    -0.000 C 
BRANCH  15  16
ATOM     16  C   UNL     1       5.487   5.588   9.104  1.00  0.00    -0.000 C 
BRANCH  16  17
ATOM     17  C   UNL     1       6.097   6.991   8.954  1.00  0.00    -0.003 C 
ATOM     18  C   UNL     1       6.593   7.274   7.536  1.00  0.00     0.004 C 
ENDBRANCH  16  17
ENDBRANCH  15  16
ENDBRANCH  14  15
ENDBRANCH  13  14
ENDBRANCH  12  13
ENDBRANCH  11  12
ENDBRANCH   1  11
TORSDOF 14
ENDMDL
MODEL 5
REMARK VINA RESULT:    -4.453     15.700     18.387
REMARK INTER + INTRA:          -9.013
REMARK INTER:                  -7.282
REMARK INTRA:                  -1.732
REMARK UNBOUND:                -0.915
REMARK SMILES CCCCCCCCCCCCCCCC(=O)[O-]
REMARK SMILES IDX 9 1 10 2 11 3 12 4 13 5 14 6 15 7 16 8 17 9 18 10 8 11 7 12
REMARK SMILES IDX 6 13 5 14 4 15 3 16 2 17 1 18
REMARK H PARENT
REMARK Flexibility Score: inf
ROOT
ATOM      1  C   UNL     1      -1.632   2.345   8.825  1.00  0.00     0.000 C 
ENDROOT
BRANCH   1   2
ATOM      2  C   UNL     1      -0.880   3.116   9.929  1.00  0.00     0.000 C 
BRANCH   2   3
ATOM      3  C   UNL     1       0.543   3.575   9.556  1.00  0.00     0.000 C 
BRANCH   3   4
ATOM      4  C   UNL     1       1.009   3.156   8.150  1.00  0.00     0.000 C 
BRANCH   4   5
ATOM      5  C   UNL     1       2.044   4.125   7.553  1.00  0.00     0.000 C 
BRANCH   5   6
ATOM      6  C   UNL     1       2.639   5.075   8.605  1.00  0.00     0.006 C 
BRANCH   6   7
ATOM      7  C   UNL     1       3.606   6.097   7.995  1.00  0.00     0.053 C 
BRANCH   7   8
ATOM      8  C   UNL     1       4.950   5.996   8.642  1.00  0.00     0.041 C 
ATOM      9  O   UNL     1       5.118   5.249   9.641  1.00  0.00    -0.550 OA
ATOM     10  O   UNL     1       6.008   6.766   8.173  1.00  0.00    -0.550 OA
ENDBRANCH   7   8
ENDBRANCH   6   7
ENDBRANCH   5   6
ENDBRANCH   4   5
ENDBRANCH   3   4
ENDBRANCH   2   3
ENDBRANCH   1   2
BRANCH   1  11
ATOM     11  C   UNL     1      -2.341   1.061   9.289  1.00  0.00     0.000 C 
BRANCH  11  12
ATOM     12  C   UNL     1      -1.380  -0.134   9.426  1.00  0.00    -0.000 C 
BRANCH  12  13
ATOM     13  C   UNL     1      -1.627  -1.223   8.367  1.00  0.00    -0.000 C 
BRANCH  13  14
ATOM     14  C   UNL     1      -0.480  -1.433   7.356  1.00  0.00    -0.000 C 
BRANCH  14  15
ATOM     15  C   UNL     1       0.361  -0.182   7.047  1.00  0.00    -0.000 C 
BRANCH  15  16
ATOM     16  C   UNL     1       0.248   0.266   5.580  1.00  0.00    -0.000 C 
BRANCH  16  17
ATOM     17  C   UNL     1      -0.744   1.426   5.393  1.00  0.00    -0.003 C 
ATOM     18  C   UNL     1      -2.202   0.967   5.397  1.00  0.00     0.004 C 
ENDBRANCH  16  17
ENDBRANCH  15  16
ENDBRANCH  14  15
ENDBRANCH  13  14
ENDBRANCH  12  13
ENDBRANCH  11  12
ENDBRANCH   1  11
TORSDOF 14
ENDMDL
MODEL 6
REMARK VINA RESULT:    -4.452      1.778      2.681
REMARK INTER + INTRA:          -9.012
REMARK INTER:                  -8.459
REMARK INTRA:                  -0.553
REMARK UNBOUND:                -0.915
REMARK SMILES CCCCCCCCCCCCCCCC(=O)[O-]
REMARK SMILES IDX 9 1 10 2 11 3 12 4 13 5 14 6 15 7 16 8 17 9 18 10 8 11 7 12
REMARK SMILES IDX 6 13 5 14 4 15 3 16 2 17 1 18
REMARK H PARENT
REMARK Flexibility Score: inf
ROOT
ATOM      1  C   UNL     1      -6.884  -7.716  -3.935  1.00  0.00     0.000 C 
ENDROOT
BRANCH   1   2
ATOM      2  C   UNL     1      -6.470  -8.635  -2.767  1.00  0.00     0.000 C 
BRANCH   2   3
ATOM      3  C   UNL     1      -7.439  -8.650  -1.568  1.00  0.00     0.000 C 
BRANCH   3   4
ATOM      4  C   UNL     1      -8.190  -9.977  -1.360  1.00  0.00     0.000 C 
BRANCH   4   5
ATOM      5  C   UNL     1      -8.852 -10.075   0.025  1.00  0.00     0.000 C 
BRANCH   5   6
ATOM      6  C   UNL     1      -7.836  -9.974   1.173  1.00  0.00     0.006 C 
BRANCH   6   7
ATOM      7  C   UNL     1      -8.486  -9.558   2.499  1.00  0.00     0.053 C 
BRANCH   7   8
ATOM      8  C   UNL     1      -7.506  -9.682   3.623  1.00  0.00     0.041 C 
ATOM      9  O   UNL     1      -6.270  -9.701   3.387  1.00  0.00    -0.550 OA
ATOM     10  O   UNL     1      -7.960  -9.826   4.928  1.00  0.00    -0.550 OA
ENDBRANCH   7   8
ENDBRANCH   6   7
ENDBRANCH   5   6
ENDBRANCH   4   5
ENDBRANCH   3   4
ENDBRANCH   2   3
ENDBRANCH   1   2
BRANCH   1  11
ATOM     11  C   UNL     1      -7.831  -8.354  -4.966  1.00  0.00     0.000 C 
BRANCH  11  12
ATOM     12  C   UNL     1      -7.812  -7.628  -6.323  1.00  0.00    -0.000 C 
BRANCH  12  13
ATOM     13  C   UNL     1      -6.448  -6.988  -6.638  1.00  0.00    -0.000 C 
BRANCH  13  14
ATOM     14  C   UNL     1      -6.320  -6.363  -8.043  1.00  0.00    -0.000 C 
BRANCH  14  15
ATOM     15  C   UNL     1      -6.027  -4.852  -8.066  1.00  0.00    -0.000 C 
BRANCH  15  16
ATOM     16  C   UNL     1      -6.809  -4.108  -9.161  1.00  0.00    -0.000 C 
BRANCH  16  17
ATOM     17  C   UNL     1      -6.378  -2.639  -9.298  1.00  0.00    -0.003 C 
ATOM     18  C   UNL     1      -6.454  -1.873  -7.978  1.00  0.00     0.004 C 
ENDBRANCH  16  17
ENDBRANCH  15  16
ENDBRANCH  14  15
ENDBRANCH  13  14
ENDBRANCH  12  13
ENDBRANCH  11  12
ENDBRANCH   1  11
TORSDOF 14
ENDMDL
MODEL 7
REMARK VINA RESULT:    -4.385     14.459     17.087
REMARK INTER + INTRA:          -8.889
REMARK INTER:                  -6.896
REMARK INTRA:                  -1.993
REMARK UNBOUND:                -0.915
REMARK SMILES CCCCCCCCCCCCCCCC(=O)[O-]
REMARK SMILES IDX 9 1 10 2 11 3 12 4 13 5 14 6 15 7 16 8 17 9 18 10 8 11 7 12
REMARK SMILES IDX 6 13 5 14 4 15 3 16 2 17 1 18
REMARK H PARENT
REMARK Flexibility Score: inf
ROOT
ATOM      1  C   UNL     1      -2.556  -1.000   8.691  1.00  0.00     0.000 C 
ENDROOT
BRANCH   1   2
ATOM      2  C   UNL     1      -2.184   0.241   9.528  1.00  0.00     0.000 C 
BRANCH   2   3
ATOM      3  C   UNL     1      -2.408   1.596   8.828  1.00  0.00     0.000 C 
BRANCH   3   4
ATOM      4  C   UNL     1      -1.868   2.816   9.594  1.00  0.00     0.000 C 
BRANCH   4   5
ATOM      5  C   UNL     1      -0.433   2.608  10.108  1.00  0.00     0.000 C 
BRANCH   5   6
ATOM      6  C   UNL     1       0.417   3.885  10.019  1.00  0.00     0.006 C 
BRANCH   6   7
ATOM      7  C   UNL     1       1.366   3.877   8.814  1.00  0.00     0.053 C 
BRANCH   7   8
ATOM      8  C   UNL     1       2.213   5.110   8.807  1.00  0.00     0.041 C 
ATOM      9  O   UNL     1       1.896   6.093   8.087  1.00  0.00    -0.550 OA
ATOM     10  O   UNL     1       3.381   5.155   9.558  1.00  0.00    -0.550 OA
ENDBRANCH   7   8
ENDBRANCH   6   7
ENDBRANCH   5   6
ENDBRANCH   4   5
ENDBRANCH   3   4
ENDBRANCH   2   3
ENDBRANCH   1   2
BRANCH   1  11
ATOM     11  C   UNL     1      -1.464  -2.080   8.601  1.00  0.00     0.000 C 
BRANCH  11  12
ATOM     12  C   UNL     1      -0.044  -1.490   8.548  1.00  0.00    -0.000 C 
BRANCH  12  13
ATOM     13  C   UNL     1       0.323  -0.943   7.157  1.00  0.00    -0.000 C 
BRANCH  13  14
ATOM     14  C   UNL     1       0.629   0.569   7.101  1.00  0.00    -0.000 C 
BRANCH  14  15
ATOM     15  C   UNL     1       0.765   1.159   5.686  1.00  0.00    -0.000 C 
BRANCH  15  16
ATOM     16  C   UNL     1      -0.434   0.826   4.782  1.00  0.00    -0.000 C 
BRANCH  16  17
ATOM     17  C   UNL     1      -1.750   1.423   5.304  1.00  0.00    -0.003 C 
ATOM     18  C   UNL     1      -2.896   0.412   5.318  1.00  0.00     0.004 C 
ENDBRANCH  16  17
ENDBRANCH  15  16
ENDBRANCH  14  15
ENDBRANCH  13  14
ENDBRANCH  12  13
ENDBRANCH  11  12
ENDBRANCH   1  11
TORSDOF 14
ENDMDL
MODEL 8
REMARK VINA RESULT:    -4.301     18.005     20.193
REMARK INTER + INTRA:          -8.737
REMARK INTER:                  -7.723
REMARK INTRA:                  -1.014
REMARK UNBOUND:                -0.915
REMARK SMILES CCCCCCCCCCCCCCCC(=O)[O-]
REMARK SMILES IDX 9 1 10 2 11 3 12 4 13 5 14 6 15 7 16 8 17 9 18 10 8 11 7 12
REMARK SMILES IDX 6 13 5 14 4 15 3 16 2 17 1 18
REMARK H PARENT
REMARK Flexibility Score: inf
ROOT
ATOM      1  C   UNL     1       2.163   4.243   7.376  1.00  0.00     0.000 C 
ENDROOT
BRANCH   1   2
ATOM      2  C   UNL     1       2.401   4.950   8.726  1.00  0.00     0.000 C 
BRANCH   2   3
ATOM      3  C   UNL     1       3.386   6.134   8.682  1.00  0.00     0.000 C 
BRANCH   3   4
ATOM      4  C   UNL     1       4.731   5.882   9.386  1.00  0.00     0.000 C 
BRANCH   4   5
ATOM      5  C   UNL     1       5.928   6.444   8.600  1.00  0.00     0.000 C 
BRANCH   5   6
ATOM      6  C   UNL     1       5.517   7.535   7.599  1.00  0.00     0.006 C 
BRANCH   6   7
ATOM      7  C   UNL     1       6.715   8.114   6.836  1.00  0.00     0.053 C 
BRANCH   7   8
ATOM      8  C   UNL     1       6.504   7.991   5.361  1.00  0.00     0.041 C 
ATOM      9  O   UNL     1       5.342   7.857   4.895  1.00  0.00    -0.550 OA
ATOM     10  O   UNL     1       7.596   7.974   4.501  1.00  0.00    -0.550 OA
ENDBRANCH   7   8
ENDBRANCH   6   7
ENDBRANCH   5   6
ENDBRANCH   4   5
ENDBRANCH   3   4
ENDBRANCH   2   3
ENDBRANCH   1   2
BRANCH   1  11
ATOM     11  C   UNL     1       1.327   2.953   7.449  1.00  0.00     0.000 C 
BRANCH  11  12
ATOM     12  C   UNL     1       0.218   3.022   8.513  1.00  0.00    -0.000 C 
BRANCH  12  13
ATOM     13  C   UNL     1      -0.655   1.754   8.548  1.00  0.00    -0.000 C 
BRANCH  13  14
ATOM     14  C   UNL     1      -1.931   1.806   7.683  1.00  0.00    -0.000 C 
BRANCH  14  15
ATOM     15  C   UNL     1      -2.049   0.698   6.620  1.00  0.00    -0.000 C 
BRANCH  15  16
ATOM     16  C   UNL     1      -1.605   1.161   5.223  1.00  0.00    -0.000 C 
BRANCH  16  17
ATOM     17  C   UNL     1      -0.161   0.748   4.897  1.00  0.00    -0.003 C 
ATOM     18  C   UNL     1       0.596   1.812   4.102  1.00  0.00     0.004 C 
ENDBRANCH  16  17
ENDBRANCH  15  16
ENDBRANCH  14  15
ENDBRANCH  13  14
ENDBRANCH  12  13
ENDBRANCH  11  12
ENDBRANCH   1  11
TORSDOF 14
ENDMDL
MODEL 9
REMARK VINA RESULT:    -4.260     15.823     18.478
REMARK INTER + INTRA:          -8.661
REMARK INTER:                  -7.254
REMARK INTRA:                  -1.407
REMARK UNBOUND:                -0.915
REMARK SMILES CCCCCCCCCCCCCCCC(=O)[O-]
REMARK SMILES IDX 9 1 10 2 11 3 12 4 13 5 14 6 15 7 16 8 17 9 18 10 8 11 7 12
REMARK SMILES IDX 6 13 5 14 4 15 3 16 2 17 1 18
REMARK H PARENT
REMARK Flexibility Score: inf
ROOT
ATOM      1  C   UNL     1      -0.499   2.880  10.058  1.00  0.00     0.000 C 
ENDROOT
BRANCH   1   2
ATOM      2  C   UNL     1      -1.392   2.143   9.040  1.00  0.00     0.000 C 
BRANCH   2   3
ATOM      3  C   UNL     1      -1.344   0.604   9.118  1.00  0.00     0.000 C 
BRANCH   3   4
ATOM      4  C   UNL     1      -1.834  -0.123   7.853  1.00  0.00     0.000 C 
BRANCH   4   5
ATOM      5  C   UNL     1      -0.709  -0.879   7.127  1.00  0.00     0.000 C 
BRANCH   5   6
ATOM      6  C   UNL     1       0.437   0.047   6.690  1.00  0.00     0.006 C 
BRANCH   6   7
ATOM      7  C   UNL     1       0.512   0.212   5.167  1.00  0.00     0.053 C 
BRANCH   7   8
ATOM      8  C   UNL     1      -0.006   1.556   4.761  1.00  0.00     0.041 C 
ATOM      9  O   UNL     1      -1.062   2.010   5.273  1.00  0.00    -0.550 OA
ATOM     10  O   UNL     1       0.652   2.287   3.779  1.00  0.00    -0.550 OA
ENDBRANCH   7   8
ENDBRANCH   6   7
ENDBRANCH   5   6
ENDBRANCH   4   5
ENDBRANCH   3   4
ENDBRANCH   2   3
ENDBRANCH   1   2
BRANCH   1  11
ATOM     11  C   UNL     1       0.651   3.701   9.447  1.00  0.00     0.000 C 
BRANCH  11  12
ATOM     12  C   UNL     1       1.052   3.213   8.045  1.00  0.00    -0.000 C 
BRANCH  12  13
ATOM     13  C   UNL     1       2.131   4.095   7.392  1.00  0.00    -0.000 C 
BRANCH  13  14
ATOM     14  C   UNL     1       3.059   4.841   8.374  1.00  0.00    -0.000 C 
BRANCH  14  15
ATOM     15  C   UNL     1       3.240   6.343   8.093  1.00  0.00    -0.000 C 
BRANCH  15  16
ATOM     16  C   UNL     1       1.908   7.071   7.850  1.00  0.00    -0.000 C 
BRANCH  16  17
ATOM     17  C   UNL     1       1.162   7.386   9.157  1.00  0.00    -0.003 C 
ATOM     18  C   UNL     1       0.876   8.877   9.332  1.00  0.00     0.004 C 
ENDBRANCH  16  17
ENDBRANCH  15  16
ENDBRANCH  14  15
ENDBRANCH  13  14
ENDBRANCH  12  13
ENDBRANCH  11  12
ENDBRANCH   1  11
TORSDOF 14
ENDMDL
