MODEL 1
REMARK VINA RESULT:    -5.315      0.000      0.000
REMARK INTER + INTRA:          -5.315
REMARK INTER:                  -5.315
REMARK INTRA:                   0.000
REMARK UNBOUND:                 0.000
REMARK SMILES C=C1CCC[C@@]2(C)CC(=O)C(=C(C)C)C[C@@H]12
REMARK SMILES IDX 13 1 12 2 11 3 15 4 16 5 2 6 1 7 3 8 4 9 5 10 6 11 8 12 9 13
REMARK SMILES IDX 10 14 7 15 14 16
REMARK H PARENT
REMARK Flexibility Score: inf
ROOT
ATOM      1  C   UNL     1      15.584   6.878  26.183  1.00  0.00     0.039 C 
ATOM      2  C   UNL     1      16.147   8.221  25.776  1.00  0.00    -0.070 C 
ATOM      3  C   UNL     1      15.412   9.364  25.889  1.00  0.00    -0.006 C 
ATOM      4  C   UNL     1      15.973  10.724  25.519  1.00  0.00     0.047 C 
ATOM      5  C   UNL     1      15.440  11.873  26.413  1.00  0.00     0.025 C 
ATOM      6  C   UNL     1      15.870  13.199  25.807  1.00  0.00    -0.073 C 
ATOM      7  C   UNL     1      16.953  13.842  26.271  1.00  0.00     0.008 C 
ATOM      8  C   UNL     1      15.152  13.702  24.571  1.00  0.00     0.031 C 
ATOM      9  C   UNL     1      13.629  13.597  24.721  1.00  0.00     0.005 C 
ATOM     10  C   UNL     1      13.176  12.234  25.278  1.00  0.00     0.008 C 
ATOM     11  C   UNL     1      13.890  11.857  26.610  1.00  0.00    -0.018 C 
ATOM     12  C   UNL     1      13.422  10.457  27.087  1.00  0.00     0.088 C 
ATOM     13  C   UNL     1      13.977   9.348  26.252  1.00  0.00     0.159 C 
ATOM     14  O   UNL     1      13.213   8.422  25.867  1.00  0.00    -0.295 OA
ATOM     15  C   UNL     1      13.495  12.866  27.722  1.00  0.00     0.012 C 
ATOM     16  C   UNL     1      17.572   8.250  25.274  1.00  0.00     0.039 C 
ENDROOT
TORSDOF 0
ENDMDL
MODEL 2
REMARK VINA RESULT:    -5.165      2.072      4.765
REMARK INTER + INTRA:          -5.165
REMARK INTER:                  -5.165
REMARK INTRA:                   0.000
REMARK UNBOUND:                 0.000
REMARK SMILES C=C1CCC[C@@]2(C)CC(=O)C(=C(C)C)C[C@@H]12
REMARK SMILES IDX 13 1 12 2 11 3 15 4 16 5 2 6 1 7 3 8 4 9 5 10 6 11 8 12 9 13
REMARK SMILES IDX 10 14 7 15 14 16
REMARK H PARENT
REMARK Flexibility Score: inf
ROOT
ATOM      1  C   UNL     1      12.463  12.249  28.576  1.00  0.00     0.039 C 
ATOM      2  C   UNL     1      13.779  11.837  27.958  1.00  0.00    -0.070 C 
ATOM      3  C   UNL     1      13.927  10.632  27.336  1.00  0.00    -0.006 C 
ATOM      4  C   UNL     1      15.229  10.217  26.680  1.00  0.00     0.047 C 
ATOM      5  C   UNL     1      15.030   9.348  25.412  1.00  0.00     0.025 C 
ATOM      6  C   UNL     1      16.380   8.794  24.985  1.00  0.00    -0.073 C 
ATOM      7  C   UNL     1      17.084   9.390  24.009  1.00  0.00     0.008 C 
ATOM      8  C   UNL     1      16.987   7.659  25.783  1.00  0.00     0.031 C 
ATOM      9  C   UNL     1      15.964   6.549  26.055  1.00  0.00     0.005 C 
ATOM     10  C   UNL     1      14.610   7.094  26.547  1.00  0.00     0.008 C 
ATOM     11  C   UNL     1      14.013   8.176  25.600  1.00  0.00    -0.018 C 
ATOM     12  C   UNL     1      12.677   8.712  26.179  1.00  0.00     0.088 C 
ATOM     13  C   UNL     1      12.876   9.590  27.372  1.00  0.00     0.159 C 
ATOM     14  O   UNL     1      12.150   9.424  28.390  1.00  0.00    -0.295 OA
ATOM     15  C   UNL     1      13.683   7.545  24.221  1.00  0.00     0.012 C 
ATOM     16  C   UNL     1      14.914  12.832  28.022  1.00  0.00     0.039 C 
ENDROOT
TORSDOF 0
ENDMDL
MODEL 3
REMARK VINA RESULT:    -5.127      2.883      4.657
REMARK INTER + INTRA:          -5.127
REMARK INTER:                  -5.127
REMARK INTRA:                   0.000
REMARK UNBOUND:                 0.000
REMARK SMILES C=C1CCC[C@@]2(C)CC(=O)C(=C(C)C)C[C@@H]12
REMARK SMILES IDX 13 1 12 2 11 3 15 4 16 5 2 6 1 7 3 8 4 9 5 10 6 11 8 12 9 13
REMARK SMILES IDX 10 14 7 15 14 16
REMARK H PARENT
REMARK Flexibility Score: inf
ROOT
ATOM      1  C   UNL     1      11.084   7.160  21.845  1.00  0.00     0.039 C 
ATOM      2  C   UNL     1      12.509   6.959  22.306  1.00  0.00    -0.070 C 
ATOM      3  C   UNL     1      13.014   7.637  23.376  1.00  0.00    -0.006 C 
ATOM      4  C   UNL     1      14.429   7.422  23.874  1.00  0.00     0.047 C 
ATOM      5  C   UNL     1      14.568   7.555  25.412  1.00  0.00     0.025 C 
ATOM      6  C   UNL     1      16.046   7.563  25.769  1.00  0.00    -0.073 C 
ATOM      7  C   UNL     1      16.653   6.441  26.187  1.00  0.00     0.008 C 
ATOM      8  C   UNL     1      16.855   8.813  25.493  1.00  0.00     0.031 C 
ATOM      9  C   UNL     1      16.132  10.074  25.985  1.00  0.00     0.005 C 
ATOM     10  C   UNL     1      14.647  10.107  25.578  1.00  0.00     0.008 C 
ATOM     11  C   UNL     1      13.873   8.824  26.004  1.00  0.00    -0.018 C 
ATOM     12  C   UNL     1      12.401   8.904  25.523  1.00  0.00     0.088 C 
ATOM     13  C   UNL     1      12.267   8.727  24.045  1.00  0.00     0.159 C 
ATOM     14  O   UNL     1      11.524   9.510  23.393  1.00  0.00    -0.295 OA
ATOM     15  C   UNL     1      13.835   8.723  27.552  1.00  0.00     0.012 C 
ATOM     16  C   UNL     1      13.342   5.945  21.556  1.00  0.00     0.039 C 
ENDROOT
TORSDOF 0
ENDMDL
MODEL 4
REMARK VINA RESULT:    -4.969     10.984     12.454
REMARK INTER + INTRA:          -4.969
REMARK INTER:                  -4.969
REMARK INTRA:                   0.000
REMARK UNBOUND:                 0.000
REMARK SMILES C=C1CCC[C@@]2(C)CC(=O)C(=C(C)C)C[C@@H]12
REMARK SMILES IDX 13 1 12 2 11 3 15 4 16 5 2 6 1 7 3 8 4 9 5 10 6 11 8 12 9 13
REMARK SMILES IDX 10 14 7 15 14 16
REMARK H PARENT
REMARK Flexibility Score: inf
ROOT
ATOM      1  C   UNL     1      13.479   1.655  12.594  1.00  0.00     0.039 C 
ATOM      2  C   UNL     1      14.349   2.648  13.328  1.00  0.00    -0.070 C 
ATOM      3  C   UNL     1      13.976   3.167  14.533  1.00  0.00    -0.006 C 
ATOM      4  C   UNL     1      14.853   4.137  15.301  1.00  0.00     0.047 C 
ATOM      5  C   UNL     1      14.752   3.973  16.839  1.00  0.00     0.025 C 
ATOM      6  C   UNL     1      15.471   5.138  17.500  1.00  0.00    -0.073 C 
ATOM      7  C   UNL     1      16.731   5.000  17.944  1.00  0.00     0.008 C 
ATOM      8  C   UNL     1      14.803   6.498  17.507  1.00  0.00     0.031 C 
ATOM      9  C   UNL     1      13.333   6.403  17.936  1.00  0.00     0.005 C 
ATOM     10  C   UNL     1      12.577   5.263  17.227  1.00  0.00     0.008 C 
ATOM     11  C   UNL     1      13.286   3.884  17.373  1.00  0.00    -0.018 C 
ATOM     12  C   UNL     1      12.497   2.795  16.598  1.00  0.00     0.088 C 
ATOM     13  C   UNL     1      12.636   2.928  15.116  1.00  0.00     0.159 C 
ATOM     14  O   UNL     1      11.611   2.837  14.388  1.00  0.00    -0.295 OA
ATOM     15  C   UNL     1      13.299   3.454  18.864  1.00  0.00     0.012 C 
ATOM     16  C   UNL     1      15.670   3.015  12.691  1.00  0.00     0.039 C 
ENDROOT
TORSDOF 0
ENDMDL
MODEL 5
REMARK VINA RESULT:    -4.904     10.209     11.730
REMARK INTER + INTRA:          -4.904
REMARK INTER:                  -4.904
REMARK INTRA:                   0.000
REMARK UNBOUND:                 0.000
REMARK SMILES C=C1CCC[C@@]2(C)CC(=O)C(=C(C)C)C[C@@H]12
REMARK SMILES IDX 13 1 12 2 11 3 15 4 16 5 2 6 1 7 3 8 4 9 5 10 6 11 8 12 9 13
REMARK SMILES IDX 10 14 7 15 14 16
REMARK H PARENT
REMARK Flexibility Score: inf
ROOT
ATOM      1  C   UNL     1      15.339  -0.974  21.537  1.00  0.00     0.039 C 
ATOM      2  C   UNL     1      14.615   0.253  21.033  1.00  0.00    -0.070 C 
ATOM      3  C   UNL     1      15.160   1.058  20.076  1.00  0.00    -0.006 C 
ATOM      4  C   UNL     1      14.433   2.272  19.533  1.00  0.00     0.047 C 
ATOM      5  C   UNL     1      14.719   2.541  18.033  1.00  0.00     0.025 C 
ATOM      6  C   UNL     1      14.144   3.899  17.664  1.00  0.00    -0.073 C 
ATOM      7  C   UNL     1      12.945   3.993  17.068  1.00  0.00     0.008 C 
ATOM      8  C   UNL     1      14.870   5.147  18.123  1.00  0.00     0.031 C 
ATOM      9  C   UNL     1      16.377   5.058  17.844  1.00  0.00     0.005 C 
ATOM     10  C   UNL     1      16.983   3.708  18.269  1.00  0.00     0.008 C 
ATOM     11  C   UNL     1      16.235   2.487  17.657  1.00  0.00    -0.018 C 
ATOM     12  C   UNL     1      16.868   1.164  18.163  1.00  0.00     0.088 C 
ATOM     13  C   UNL     1      16.550   0.885  19.596  1.00  0.00     0.159 C 
ATOM     14  O   UNL     1      17.471   0.511  20.372  1.00  0.00    -0.295 OA
ATOM     15  C   UNL     1      16.388   2.497  16.112  1.00  0.00     0.012 C 
ATOM     16  C   UNL     1      13.244   0.531  21.604  1.00  0.00     0.039 C 
ENDROOT
TORSDOF 0
ENDMDL
MODEL 6
REMARK VINA RESULT:    -4.898      1.860      3.606
REMARK INTER + INTRA:          -4.898
REMARK INTER:                  -4.898
REMARK INTRA:                   0.000
REMARK UNBOUND:                 0.000
REMARK SMILES C=C1CCC[C@@]2(C)CC(=O)C(=C(C)C)C[C@@H]12
REMARK SMILES IDX 13 1 12 2 11 3 15 4 16 5 2 6 1 7 3 8 4 9 5 10 6 11 8 12 9 13
REMARK SMILES IDX 10 14 7 15 14 16
REMARK H PARENT
REMARK Flexibility Score: inf
ROOT
ATOM      1  C   UNL     1      12.653   8.908  25.388  1.00  0.00     0.039 C 
ATOM      2  C   UNL     1      12.577  10.408  25.559  1.00  0.00    -0.070 C 
ATOM      3  C   UNL     1      13.701  11.165  25.713  1.00  0.00    -0.006 C 
ATOM      4  C   UNL     1      13.646  12.674  25.850  1.00  0.00     0.047 C 
ATOM      5  C   UNL     1      14.855  13.395  25.202  1.00  0.00     0.025 C 
ATOM      6  C   UNL     1      14.821  14.860  25.607  1.00  0.00    -0.073 C 
ATOM      7  C   UNL     1      14.305  15.785  24.782  1.00  0.00     0.008 C 
ATOM      8  C   UNL     1      15.232  15.236  27.016  1.00  0.00     0.031 C 
ATOM      9  C   UNL     1      16.542  14.550  27.425  1.00  0.00     0.005 C 
ATOM     10  C   UNL     1      16.565  13.051  27.073  1.00  0.00     0.008 C 
ATOM     11  C   UNL     1      16.239  12.774  25.576  1.00  0.00    -0.018 C 
ATOM     12  C   UNL     1      16.234  11.247  25.304  1.00  0.00     0.088 C 
ATOM     13  C   UNL     1      15.041  10.562  25.890  1.00  0.00     0.159 C 
ATOM     14  O   UNL     1      15.198   9.485  26.527  1.00  0.00    -0.295 OA
ATOM     15  C   UNL     1      17.346  13.386  24.675  1.00  0.00     0.012 C 
ATOM     16  C   UNL     1      11.205  11.041  25.515  1.00  0.00     0.039 C 
ENDROOT
TORSDOF 0
ENDMDL
MODEL 7
REMARK VINA RESULT:    -4.891      3.068      5.779
REMARK INTER + INTRA:          -4.891
REMARK INTER:                  -4.891
REMARK INTRA:                   0.000
REMARK UNBOUND:                 0.000
REMARK SMILES C=C1CCC[C@@]2(C)CC(=O)C(=C(C)C)C[C@@H]12
REMARK SMILES IDX 13 1 12 2 11 3 15 4 16 5 2 6 1 7 3 8 4 9 5 10 6 11 8 12 9 13
REMARK SMILES IDX 10 14 7 15 14 16
REMARK H PARENT
REMARK Flexibility Score: inf
ROOT
ATOM      1  C   UNL     1      10.800  16.033  23.909  1.00  0.00     0.039 C 
ATOM      2  C   UNL     1      11.710  14.827  23.868  1.00  0.00    -0.070 C 
ATOM      3  C   UNL     1      12.925  14.831  24.488  1.00  0.00    -0.006 C 
ATOM      4  C   UNL     1      13.835  13.618  24.487  1.00  0.00     0.047 C 
ATOM      5  C   UNL     1      14.656  13.464  25.793  1.00  0.00     0.025 C 
ATOM      6  C   UNL     1      15.697  12.375  25.588  1.00  0.00    -0.073 C 
ATOM      7  C   UNL     1      15.472  11.125  26.024  1.00  0.00     0.008 C 
ATOM      8  C   UNL     1      16.918  12.683  24.745  1.00  0.00     0.031 C 
ATOM      9  C   UNL     1      17.550  14.025  25.137  1.00  0.00     0.005 C 
ATOM     10  C   UNL     1      16.512  15.152  25.290  1.00  0.00     0.008 C 
ATOM     11  C   UNL     1      15.354  14.782  26.263  1.00  0.00    -0.018 C 
ATOM     12  C   UNL     1      14.324  15.940  26.332  1.00  0.00     0.088 C 
ATOM     13  C   UNL     1      13.502  16.055  25.089  1.00  0.00     0.159 C 
ATOM     14  O   UNL     1      13.316  17.190  24.573  1.00  0.00    -0.295 OA
ATOM     15  C   UNL     1      15.914  14.592  27.698  1.00  0.00     0.012 C 
ATOM     16  C   UNL     1      11.203  13.601  23.144  1.00  0.00     0.039 C 
ENDROOT
TORSDOF 0
ENDMDL
MODEL 8
REMARK VINA RESULT:    -4.875     10.209     12.533
REMARK INTER + INTRA:          -4.875
REMARK INTER:                  -4.875
REMARK INTRA:                   0.000
REMARK UNBOUND:                 0.000
REMARK SMILES C=C1CCC[C@@]2(C)CC(=O)C(=C(C)C)C[C@@H]12
REMARK SMILES IDX 13 1 12 2 11 3 15 4 16 5 2 6 1 7 3 8 4 9 5 10 6 11 8 12 9 13
REMARK SMILES IDX 10 14 7 15 14 16
REMARK H PARENT
REMARK Flexibility Score: inf
ROOT
ATOM      1  C   UNL     1      16.324   5.373  17.876  1.00  0.00     0.039 C 
ATOM      2  C   UNL     1      15.174   4.461  18.235  1.00  0.00    -0.070 C 
ATOM      3  C   UNL     1      15.383   3.169  18.617  1.00  0.00    -0.006 C 
ATOM      4  C   UNL     1      14.244   2.250  19.016  1.00  0.00     0.047 C 
ATOM      5  C   UNL     1      14.626   1.244  20.131  1.00  0.00     0.025 C 
ATOM      6  C   UNL     1      13.504   0.229  20.276  1.00  0.00    -0.073 C 
ATOM      7  C   UNL     1      12.577   0.369  21.237  1.00  0.00     0.008 C 
ATOM      8  C   UNL     1      13.357  -0.850  19.223  1.00  0.00     0.031 C 
ATOM      9  C   UNL     1      14.703  -1.513  18.902  1.00  0.00     0.005 C 
ATOM     10  C   UNL     1      15.836  -0.492  18.694  1.00  0.00     0.008 C 
ATOM     11  C   UNL     1      15.980   0.505  19.882  1.00  0.00    -0.018 C 
ATOM     12  C   UNL     1      17.106   1.530  19.585  1.00  0.00     0.088 C 
ATOM     13  C   UNL     1      16.716   2.528  18.543  1.00  0.00     0.159 C 
ATOM     14  O   UNL     1      17.526   2.804  17.617  1.00  0.00    -0.295 OA
ATOM     15  C   UNL     1      16.399  -0.263  21.164  1.00  0.00     0.012 C 
ATOM     16  C   UNL     1      13.783   5.052  18.192  1.00  0.00     0.039 C 
ENDROOT
TORSDOF 0
ENDMDL
MODEL 9
REMARK VINA RESULT:    -4.724      2.668      5.622
REMARK INTER + INTRA:          -4.724
REMARK INTER:                  -4.724
REMARK INTRA:                   0.000
REMARK UNBOUND:                 0.000
REMARK SMILES C=C1CCC[C@@]2(C)CC(=O)C(=C(C)C)C[C@@H]12
REMARK SMILES IDX 13 1 12 2 11 3 15 4 16 5 2 6 1 7 3 8 4 9 5 10 6 11 8 12 9 13
REMARK SMILES IDX 10 14 7 15 14 16
REMARK H PARENT
REMARK Flexibility Score: inf
ROOT
ATOM      1  C   UNL     1      13.000  16.842  23.817  1.00  0.00     0.039 C 
ATOM      2  C   UNL     1      13.498  16.430  25.183  1.00  0.00    -0.070 C 
ATOM      3  C   UNL     1      14.064  15.208  25.396  1.00  0.00    -0.006 C 
ATOM      4  C   UNL     1      14.602  14.792  26.751  1.00  0.00     0.047 C 
ATOM      5  C   UNL     1      15.851  13.878  26.664  1.00  0.00     0.025 C 
ATOM      6  C   UNL     1      16.151  13.332  28.050  1.00  0.00    -0.073 C 
ATOM      7  C   UNL     1      17.088  13.906  28.821  1.00  0.00     0.008 C 
ATOM      8  C   UNL     1      15.269  12.233  28.608  1.00  0.00     0.031 C 
ATOM      9  C   UNL     1      15.040  11.117  27.581  1.00  0.00     0.005 C 
ATOM     10  C   UNL     1      14.675  11.656  26.185  1.00  0.00     0.008 C 
ATOM     11  C   UNL     1      15.703  12.697  25.650  1.00  0.00    -0.018 C 
ATOM     12  C   UNL     1      15.250  13.231  24.266  1.00  0.00     0.088 C 
ATOM     13  C   UNL     1      14.075  14.151  24.359  1.00  0.00     0.159 C 
ATOM     14  O   UNL     1      13.113  14.008  23.557  1.00  0.00    -0.295 OA
ATOM     15  C   UNL     1      17.081  12.015  25.439  1.00  0.00     0.012 C 
ATOM     16  C   UNL     1      13.379  17.445  26.297  1.00  0.00     0.039 C 
ENDROOT
TORSDOF 0
ENDMDL
