MODEL 1
REMARK VINA RESULT:    -4.795      0.000      0.000
REMARK INTER + INTRA:          -7.525
REMARK INTER:                  -7.037
REMARK INTRA:                  -0.488
REMARK UNBOUND:                -0.488
REMARK SMILES O=C([O-])CCCCCCCC(=O)[O-]
REMARK SMILES IDX 7 1 6 2 5 3 4 4 2 5 1 6 3 7 8 8 9 9 10 10 11 11 12 12 13 13
REMARK H PARENT
REMARK Flexibility Score: inf
ROOT
ATOM      1  C   UNL     1       9.685   1.448 -34.094  1.00  0.00     0.000 C 
ENDROOT
BRANCH   1   2
ATOM      2  C   UNL     1      10.999   1.174 -33.349  1.00  0.00     0.000 C 
BRANCH   2   3
ATOM      3  C   UNL     1      11.685   2.488 -32.942  1.00  0.00     0.006 C 
BRANCH   3   4
ATOM      4  C   UNL     1      13.181   2.491 -33.280  1.00  0.00     0.053 C 
BRANCH   4   5
ATOM      5  C   UNL     1      13.418   2.422 -34.757  1.00  0.00     0.041 C 
ATOM      6  O   UNL     1      14.083   1.472 -35.248  1.00  0.00    -0.550 OA
ATOM      7  O   UNL     1      12.935   3.425 -35.588  1.00  0.00    -0.550 OA
ENDBRANCH   4   5
ENDBRANCH   3   4
ENDBRANCH   2   3
ENDBRANCH   1   2
BRANCH   1   8
ATOM      8  C   UNL     1       9.877   1.604 -35.613  1.00  0.00     0.000 C 
BRANCH   8   9
ATOM      9  C   UNL     1       8.668   2.188 -36.366  1.00  0.00     0.006 C 
BRANCH   9  10
ATOM     10  C   UNL     1       7.662   1.116 -36.806  1.00  0.00     0.053 C 
BRANCH  10  11
ATOM     11  C   UNL     1       8.365  -0.005 -37.503  1.00  0.00     0.041 C 
ATOM     12  O   UNL     1       8.205  -1.192 -37.115  1.00  0.00    -0.550 OA
ATOM     13  O   UNL     1       9.161   0.255 -38.612  1.00  0.00    -0.550 OA
ENDBRANCH  10  11
ENDBRANCH   9  10
ENDBRANCH   8   9
ENDBRANCH   1   8
TORSDOF 8
ENDMDL
MODEL 2
REMARK VINA RESULT:    -4.778      2.178      2.837
REMARK INTER + INTRA:          -7.500
REMARK INTER:                  -7.111
REMARK INTRA:                  -0.389
REMARK UNBOUND:                -0.488
REMARK SMILES O=C([O-])CCCCCCCC(=O)[O-]
REMARK SMILES IDX 7 1 6 2 5 3 4 4 2 5 1 6 3 7 8 8 9 9 10 10 11 11 12 12 13 13
REMARK H PARENT
REMARK Flexibility Score: inf
ROOT
ATOM      1  C   UNL     1       9.633   1.397 -35.561  1.00  0.00     0.000 C 
ENDROOT
BRANCH   1   2
ATOM      2  C   UNL     1      10.959   2.171 -35.591  1.00  0.00     0.000 C 
BRANCH   2   3
ATOM      3  C   UNL     1      11.745   1.966 -34.287  1.00  0.00     0.006 C 
BRANCH   3   4
ATOM      4  C   UNL     1      10.908   1.270 -33.206  1.00  0.00     0.053 C 
BRANCH   4   5
ATOM      5  C   UNL     1      10.809   2.097 -31.961  1.00  0.00     0.041 C 
ATOM      6  O   UNL     1       9.928   1.840 -31.099  1.00  0.00    -0.550 OA
ATOM      7  O   UNL     1      11.667   3.172 -31.768  1.00  0.00    -0.550 OA
ENDBRANCH   4   5
ENDBRANCH   3   4
ENDBRANCH   2   3
ENDBRANCH   1   2
BRANCH   1   8
ATOM      8  C   UNL     1       8.489   2.139 -36.275  1.00  0.00     0.000 C 
BRANCH   8   9
ATOM      9  C   UNL     1       8.131   1.596 -37.670  1.00  0.00     0.006 C 
BRANCH   9  10
ATOM     10  C   UNL     1       9.066   0.468 -38.131  1.00  0.00     0.053 C 
BRANCH  10  11
ATOM     11  C   UNL     1       8.322  -0.827 -38.207  1.00  0.00     0.041 C 
ATOM     12  O   UNL     1       7.860  -1.229 -39.307  1.00  0.00    -0.550 OA
ATOM     13  O   UNL     1       8.180  -1.615 -37.071  1.00  0.00    -0.550 OA
ENDBRANCH  10  11
ENDBRANCH   9  10
ENDBRANCH   8   9
ENDBRANCH   1   8
TORSDOF 8
ENDMDL
MODEL 3
REMARK VINA RESULT:    -4.603      2.827      3.468
REMARK INTER + INTRA:          -7.243
REMARK INTER:                  -6.853
REMARK INTRA:                  -0.390
REMARK UNBOUND:                -0.488
REMARK SMILES O=C([O-])CCCCCCCC(=O)[O-]
REMARK SMILES IDX 7 1 6 2 5 3 4 4 2 5 1 6 3 7 8 8 9 9 10 10 11 11 12 12 13 13
REMARK H PARENT
REMARK Flexibility Score: inf
ROOT
ATOM      1  C   UNL     1      13.181   2.070 -35.284  1.00  0.00     0.000 C 
ENDROOT
BRANCH   1   2
ATOM      2  C   UNL     1      13.427   1.518 -33.872  1.00  0.00     0.000 C 
BRANCH   2   3
ATOM      3  C   UNL     1      13.570   2.659 -32.853  1.00  0.00     0.006 C 
BRANCH   3   4
ATOM      4  C   UNL     1      12.401   2.702 -31.861  1.00  0.00     0.053 C 
BRANCH   4   5
ATOM      5  C   UNL     1      12.796   3.337 -30.563  1.00  0.00     0.041 C 
ATOM      6  O   UNL     1      12.044   3.243 -29.557  1.00  0.00    -0.550 OA
ATOM      7  O   UNL     1      13.977   4.063 -30.473  1.00  0.00    -0.550 OA
ENDBRANCH   4   5
ENDBRANCH   3   4
ENDBRANCH   2   3
ENDBRANCH   1   2
BRANCH   1   8
ATOM      8  C   UNL     1      11.769   2.658 -35.462  1.00  0.00     0.000 C 
BRANCH   8   9
ATOM      9  C   UNL     1      10.620   1.746 -34.992  1.00  0.00     0.006 C 
BRANCH   9  10
ATOM     10  C   UNL     1       9.754   1.232 -36.150  1.00  0.00     0.053 C 
BRANCH  10  11
ATOM     11  C   UNL     1       8.424   1.917 -36.151  1.00  0.00     0.041 C 
ATOM     12  O   UNL     1       7.744   1.984 -35.093  1.00  0.00    -0.550 OA
ATOM     13  O   UNL     1       7.957   2.525 -37.310  1.00  0.00    -0.550 OA
ENDBRANCH  10  11
ENDBRANCH   9  10
ENDBRANCH   8   9
ENDBRANCH   1   8
TORSDOF 8
ENDMDL
MODEL 4
REMARK VINA RESULT:    -4.600      1.458      2.032
REMARK INTER + INTRA:          -7.239
REMARK INTER:                  -6.860
REMARK INTRA:                  -0.380
REMARK UNBOUND:                -0.488
REMARK SMILES O=C([O-])CCCCCCCC(=O)[O-]
REMARK SMILES IDX 7 1 6 2 5 3 4 4 2 5 1 6 3 7 8 8 9 9 10 10 11 11 12 12 13 13
REMARK H PARENT
REMARK Flexibility Score: inf
ROOT
ATOM      1  C   UNL     1       9.476   1.407 -34.664  1.00  0.00     0.000 C 
ENDROOT
BRANCH   1   2
ATOM      2  C   UNL     1      10.258   2.177 -35.739  1.00  0.00     0.000 C 
BRANCH   2   3
ATOM      3  C   UNL     1      11.750   2.258 -35.381  1.00  0.00     0.006 C 
BRANCH   3   4
ATOM      4  C   UNL     1      12.035   1.760 -33.959  1.00  0.00     0.053 C 
BRANCH   4   5
ATOM      5  C   UNL     1      13.337   2.285 -33.436  1.00  0.00     0.041 C 
ATOM      6  O   UNL     1      13.424   2.693 -32.248  1.00  0.00    -0.550 OA
ATOM      7  O   UNL     1      14.445   2.357 -34.270  1.00  0.00    -0.550 OA
ENDBRANCH   4   5
ENDBRANCH   3   4
ENDBRANCH   2   3
ENDBRANCH   1   2
BRANCH   1   8
ATOM      8  C   UNL     1       7.957   1.404 -34.914  1.00  0.00     0.000 C 
BRANCH   8   9
ATOM      9  C   UNL     1       7.532   1.015 -36.342  1.00  0.00     0.006 C 
BRANCH   9  10
ATOM     10  C   UNL     1       7.993  -0.393 -36.740  1.00  0.00     0.053 C 
BRANCH  10  11
ATOM     11  C   UNL     1       8.464  -0.406 -38.160  1.00  0.00     0.041 C 
ATOM     12  O   UNL     1       9.414   0.337 -38.520  1.00  0.00    -0.550 OA
ATOM     13  O   UNL     1       7.885  -1.276 -39.076  1.00  0.00    -0.550 OA
ENDBRANCH  10  11
ENDBRANCH   9  10
ENDBRANCH   8   9
ENDBRANCH   1   8
TORSDOF 8
ENDMDL
MODEL 5
REMARK VINA RESULT:    -4.528      3.497      5.672
REMARK INTER + INTRA:          -7.134
REMARK INTER:                  -6.755
REMARK INTRA:                  -0.379
REMARK UNBOUND:                -0.488
REMARK SMILES O=C([O-])CCCCCCCC(=O)[O-]
REMARK SMILES IDX 7 1 6 2 5 3 4 4 2 5 1 6 3 7 8 8 9 9 10 10 11 11 12 12 13 13
REMARK H PARENT
REMARK Flexibility Score: inf
ROOT
ATOM      1  C   UNL     1      11.545   1.409 -33.383  1.00  0.00     0.000 C 
ENDROOT
BRANCH   1   2
ATOM      2  C   UNL     1      11.037   1.901 -34.746  1.00  0.00     0.000 C 
BRANCH   2   3
ATOM      3  C   UNL     1       9.642   1.335 -35.050  1.00  0.00     0.006 C 
BRANCH   3   4
ATOM      4  C   UNL     1       9.107   1.804 -36.409  1.00  0.00     0.053 C 
BRANCH   4   5
ATOM      5  C   UNL     1       8.657   0.654 -37.257  1.00  0.00     0.041 C 
ATOM      6  O   UNL     1       7.744  -0.112 -36.852  1.00  0.00    -0.550 OA
ATOM      7  O   UNL     1       9.270   0.408 -38.479  1.00  0.00    -0.550 OA
ENDBRANCH   4   5
ENDBRANCH   3   4
ENDBRANCH   2   3
ENDBRANCH   1   2
BRANCH   1   8
ATOM      8  C   UNL     1      11.103   2.311 -32.216  1.00  0.00     0.000 C 
BRANCH   8   9
ATOM      9  C   UNL     1      10.160   1.643 -31.198  1.00  0.00     0.006 C 
BRANCH   9  10
ATOM     10  C   UNL     1       8.677   1.802 -31.561  1.00  0.00     0.053 C 
BRANCH  10  11
ATOM     11  C   UNL     1       7.814   1.481 -30.383  1.00  0.00     0.041 C 
ATOM     12  O   UNL     1       8.249   0.744 -29.459  1.00  0.00    -0.550 OA
ATOM     13  O   UNL     1       6.544   2.036 -30.280  1.00  0.00    -0.550 OA
ENDBRANCH  10  11
ENDBRANCH   9  10
ENDBRANCH   8   9
ENDBRANCH   1   8
TORSDOF 8
ENDMDL
MODEL 6
REMARK VINA RESULT:    -4.480      2.012      2.235
REMARK INTER + INTRA:          -7.062
REMARK INTER:                  -6.576
REMARK INTRA:                  -0.486
REMARK UNBOUND:                -0.488
REMARK SMILES O=C([O-])CCCCCCCC(=O)[O-]
REMARK SMILES IDX 7 1 6 2 5 3 4 4 2 5 1 6 3 7 8 8 9 9 10 10 11 11 12 12 13 13
REMARK H PARENT
REMARK Flexibility Score: inf
ROOT
ATOM      1  C   UNL     1       9.688   1.495 -33.678  1.00  0.00     0.000 C 
ENDROOT
BRANCH   1   2
ATOM      2  C   UNL     1      11.109   1.184 -33.186  1.00  0.00     0.000 C 
BRANCH   2   3
ATOM      3  C   UNL     1      11.854   2.473 -32.805  1.00  0.00     0.006 C 
BRANCH   3   4
ATOM      4  C   UNL     1      13.286   2.500 -33.352  1.00  0.00     0.053 C 
BRANCH   4   5
ATOM      5  C   UNL     1      13.312   2.418 -34.848  1.00  0.00     0.041 C 
ATOM      6  O   UNL     1      14.035   1.561 -35.422  1.00  0.00    -0.550 OA
ATOM      7  O   UNL     1      12.566   3.310 -35.608  1.00  0.00    -0.550 OA
ENDBRANCH   4   5
ENDBRANCH   3   4
ENDBRANCH   2   3
ENDBRANCH   1   2
BRANCH   1   8
ATOM      8  C   UNL     1       9.562   1.457 -35.212  1.00  0.00     0.000 C 
BRANCH   8   9
ATOM      9  C   UNL     1       8.137   1.672 -35.753  1.00  0.00     0.006 C 
BRANCH   9  10
ATOM     10  C   UNL     1       7.297   0.387 -35.755  1.00  0.00     0.053 C 
BRANCH  10  11
ATOM     11  C   UNL     1       6.137   0.522 -34.821  1.00  0.00     0.041 C 
ATOM     12  O   UNL     1       5.088  -0.147 -35.013  1.00  0.00    -0.550 OA
ATOM     13  O   UNL     1       6.232   1.350 -33.709  1.00  0.00    -0.550 OA
ENDBRANCH  10  11
ENDBRANCH   9  10
ENDBRANCH   8   9
ENDBRANCH   1   8
TORSDOF 8
ENDMDL
MODEL 7
REMARK VINA RESULT:    -4.473      2.442      2.704
REMARK INTER + INTRA:          -7.053
REMARK INTER:                  -6.766
REMARK INTRA:                  -0.287
REMARK UNBOUND:                -0.488
REMARK SMILES O=C([O-])CCCCCCCC(=O)[O-]
REMARK SMILES IDX 7 1 6 2 5 3 4 4 2 5 1 6 3 7 8 8 9 9 10 10 11 11 12 12 13 13
REMARK H PARENT
REMARK Flexibility Score: inf
ROOT
ATOM      1  C   UNL     1      10.987   1.452 -34.279  1.00  0.00     0.000 C 
ENDROOT
BRANCH   1   2
ATOM      2  C   UNL     1       9.975   1.415 -33.125  1.00  0.00     0.000 C 
BRANCH   2   3
ATOM      3  C   UNL     1      10.601   1.947 -31.827  1.00  0.00     0.006 C 
BRANCH   3   4
ATOM      4  C   UNL     1      11.856   2.791 -32.089  1.00  0.00     0.053 C 
BRANCH   4   5
ATOM      5  C   UNL     1      12.516   3.217 -30.814  1.00  0.00     0.041 C 
ATOM      6  O   UNL     1      13.677   3.706 -30.835  1.00  0.00    -0.550 OA
ATOM      7  O   UNL     1      11.865   3.043 -29.600  1.00  0.00    -0.550 OA
ENDBRANCH   4   5
ENDBRANCH   3   4
ENDBRANCH   2   3
ENDBRANCH   1   2
BRANCH   1   8
ATOM      8  C   UNL     1      10.406   2.062 -35.568  1.00  0.00     0.000 C 
BRANCH   8   9
ATOM      9  C   UNL     1       9.103   1.411 -36.066  1.00  0.00     0.006 C 
BRANCH   9  10
ATOM     10  C   UNL     1       9.218   0.857 -37.492  1.00  0.00     0.053 C 
BRANCH  10  11
ATOM     11  C   UNL     1       8.382  -0.375 -37.643  1.00  0.00     0.041 C 
ATOM     12  O   UNL     1       7.849  -0.906 -36.634  1.00  0.00    -0.550 OA
ATOM     13  O   UNL     1       8.152  -0.909 -38.905  1.00  0.00    -0.550 OA
ENDBRANCH  10  11
ENDBRANCH   9  10
ENDBRANCH   8   9
ENDBRANCH   1   8
TORSDOF 8
ENDMDL
MODEL 8
REMARK VINA RESULT:    -4.459      4.147      5.536
REMARK INTER + INTRA:          -7.031
REMARK INTER:                  -6.620
REMARK INTRA:                  -0.412
REMARK UNBOUND:                -0.488
REMARK SMILES O=C([O-])CCCCCCCC(=O)[O-]
REMARK SMILES IDX 7 1 6 2 5 3 4 4 2 5 1 6 3 7 8 8 9 9 10 10 11 11 12 12 13 13
REMARK H PARENT
REMARK Flexibility Score: inf
ROOT
ATOM      1  C   UNL     1       6.248   0.482 -34.379  1.00  0.00     0.000 C 
ENDROOT
BRANCH   1   2
ATOM      2  C   UNL     1       7.057   0.703 -35.665  1.00  0.00     0.000 C 
BRANCH   2   3
ATOM      3  C   UNL     1       8.039   1.873 -35.504  1.00  0.00     0.006 C 
BRANCH   3   4
ATOM      4  C   UNL     1       9.482   1.471 -35.833  1.00  0.00     0.053 C 
BRANCH   4   5
ATOM      5  C   UNL     1      10.385   1.614 -34.646  1.00  0.00     0.041 C 
ATOM      6  O   UNL     1      11.580   1.981 -34.800  1.00  0.00    -0.550 OA
ATOM      7  O   UNL     1       9.917   1.309 -33.375  1.00  0.00    -0.550 OA
ENDBRANCH   4   5
ENDBRANCH   3   4
ENDBRANCH   2   3
ENDBRANCH   1   2
BRANCH   1   8
ATOM      8  C   UNL     1       6.633   1.459 -33.252  1.00  0.00     0.000 C 
BRANCH   8   9
ATOM      9  C   UNL     1       6.269   0.990 -31.831  1.00  0.00     0.006 C 
BRANCH   9  10
ATOM     10  C   UNL     1       6.849   1.895 -30.736  1.00  0.00     0.053 C 
BRANCH  10  11
ATOM     11  C   UNL     1       7.743   1.110 -29.830  1.00  0.00     0.041 C 
ATOM     12  O   UNL     1       7.260   0.234 -29.065  1.00  0.00    -0.550 OA
ATOM     13  O   UNL     1       9.118   1.311 -29.865  1.00  0.00    -0.550 OA
ENDBRANCH  10  11
ENDBRANCH   9  10
ENDBRANCH   8   9
ENDBRANCH   1   8
TORSDOF 8
ENDMDL
MODEL 9
REMARK VINA RESULT:    -4.349      4.456      6.647
REMARK INTER + INTRA:          -6.871
REMARK INTER:                  -6.635
REMARK INTRA:                  -0.236
REMARK UNBOUND:                -0.488
REMARK SMILES O=C([O-])CCCCCCCC(=O)[O-]
REMARK SMILES IDX 7 1 6 2 5 3 4 4 2 5 1 6 3 7 8 8 9 9 10 10 11 11 12 12 13 13
REMARK H PARENT
REMARK Flexibility Score: inf
ROOT
ATOM      1  C   UNL     1       6.642   1.808 -33.281  1.00  0.00     0.000 C 
ENDROOT
BRANCH   1   2
ATOM      2  C   UNL     1       6.986   0.862 -34.440  1.00  0.00     0.000 C 
BRANCH   2   3
ATOM      3  C   UNL     1       8.028   1.494 -35.376  1.00  0.00     0.006 C 
BRANCH   3   4
ATOM      4  C   UNL     1       7.647   1.349 -36.854  1.00  0.00     0.053 C 
BRANCH   4   5
ATOM      5  C   UNL     1       8.391   0.228 -37.513  1.00  0.00     0.041 C 
ATOM      6  O   UNL     1       9.237   0.473 -38.413  1.00  0.00    -0.550 OA
ATOM      7  O   UNL     1       8.124  -1.088 -37.159  1.00  0.00    -0.550 OA
ENDBRANCH   4   5
ENDBRANCH   3   4
ENDBRANCH   2   3
ENDBRANCH   1   2
BRANCH   1   8
ATOM      8  C   UNL     1       7.485   1.544 -32.020  1.00  0.00     0.000 C 
BRANCH   8   9
ATOM      9  C   UNL     1       6.764   1.818 -30.687  1.00  0.00     0.006 C 
BRANCH   9  10
ATOM     10  C   UNL     1       6.520   0.545 -29.866  1.00  0.00     0.053 C 
BRANCH  10  11
ATOM     11  C   UNL     1       7.663   0.298 -28.933  1.00  0.00     0.041 C 
ATOM     12  O   UNL     1       8.314   1.265 -28.458  1.00  0.00    -0.550 OA
ATOM     13  O   UNL     1       7.979  -1.000 -28.549  1.00  0.00    -0.550 OA
ENDBRANCH  10  11
ENDBRANCH   9  10
ENDBRANCH   8   9
ENDBRANCH   1   8
TORSDOF 8
ENDMDL
