MODEL 1
REMARK VINA RESULT:    -5.564      0.000      0.000
REMARK INTER + INTRA:          -5.564
REMARK INTER:                  -5.564
REMARK INTRA:                   0.000
REMARK UNBOUND:                 0.000
REMARK SMILES O=c1ccc2ccc3occc3c2o1
REMARK SMILES IDX 6 1 7 2 8 3 12 4 11 5 10 6 9 7 13 8 5 9 4 10 3 11 2 12 1 13
REMARK SMILES IDX 14 14
REMARK H PARENT
REMARK Flexibility Score: inf
ROOT
ATOM      1  C   UNL     1       7.116  -3.050  18.778  1.00  0.00     0.016 A 
ATOM      2  C   UNL     1       7.697  -1.905  18.203  1.00  0.00     0.048 A 
ATOM      3  C   UNL     1       9.078  -1.896  18.010  1.00  0.00     0.137 A 
ATOM      4  C   UNL     1       9.865  -2.959  18.362  1.00  0.00     0.064 A 
ATOM      5  C   UNL     1      11.159  -2.624  18.040  1.00  0.00     0.054 A 
ATOM      6  C   UNL     1      11.065  -1.345  17.500  1.00  0.00     0.196 A 
ATOM      7  O   UNL     1       9.808  -0.937  17.495  1.00  0.00    -0.464 OA
ATOM      8  C   UNL     1       9.327  -4.110  18.935  1.00  0.00     0.149 A 
ATOM      9  C   UNL     1       7.925  -4.154  19.145  1.00  0.00     0.018 A 
ATOM     10  C   UNL     1       7.380  -5.305  19.718  1.00  0.00     0.019 A 
ATOM     11  C   UNL     1       8.223  -6.365  20.060  1.00  0.00     0.094 A 
ATOM     12  C   UNL     1       9.599  -6.247  19.821  1.00  0.00     0.336 A 
ATOM     13  O   UNL     1      10.371  -7.193  20.125  1.00  0.00    -0.246 OA
ATOM     14  O   UNL     1      10.096  -5.140  19.274  1.00  0.00    -0.422 OA
ENDROOT
TORSDOF 0
ENDMDL
MODEL 2
REMARK VINA RESULT:    -5.448      1.404      2.587
REMARK INTER + INTRA:          -5.448
REMARK INTER:                  -5.448
REMARK INTRA:                   0.000
REMARK UNBOUND:                 0.000
REMARK SMILES O=c1ccc2ccc3occc3c2o1
REMARK SMILES IDX 6 1 7 2 8 3 12 4 11 5 10 6 9 7 13 8 5 9 4 10 3 11 2 12 1 13
REMARK SMILES IDX 14 14
REMARK H PARENT
REMARK Flexibility Score: inf
ROOT
ATOM      1  C   UNL     1      11.696  -4.103  19.565  1.00  0.00     0.016 A 
ATOM      2  C   UNL     1      11.609  -2.792  19.061  1.00  0.00     0.048 A 
ATOM      3  C   UNL     1      10.369  -2.344  18.608  1.00  0.00     0.137 A 
ATOM      4  C   UNL     1       9.255  -3.138  18.644  1.00  0.00     0.064 A 
ATOM      5  C   UNL     1       8.217  -2.397  18.130  1.00  0.00     0.054 A 
ATOM      6  C   UNL     1       8.789  -1.170  17.809  1.00  0.00     0.196 A 
ATOM      7  O   UNL     1      10.076  -1.168  18.107  1.00  0.00    -0.464 OA
ATOM      8  C   UNL     1       9.300  -4.442  19.135  1.00  0.00     0.149 A 
ATOM      9  C   UNL     1      10.547  -4.930  19.605  1.00  0.00     0.018 A 
ATOM     10  C   UNL     1      10.599  -6.236  20.099  1.00  0.00     0.019 A 
ATOM     11  C   UNL     1       9.436  -7.009  20.116  1.00  0.00     0.094 A 
ATOM     12  C   UNL     1       8.242  -6.455  19.635  1.00  0.00     0.336 A 
ATOM     13  O   UNL     1       7.185  -7.140  19.643  1.00  0.00    -0.246 OA
ATOM     14  O   UNL     1       8.215  -5.209  19.168  1.00  0.00    -0.422 OA
ENDROOT
TORSDOF 0
ENDMDL
MODEL 3
REMARK VINA RESULT:    -5.350      1.425      4.162
REMARK INTER + INTRA:          -5.350
REMARK INTER:                  -5.350
REMARK INTRA:                   0.000
REMARK UNBOUND:                 0.000
REMARK SMILES O=c1ccc2ccc3occc3c2o1
REMARK SMILES IDX 6 1 7 2 8 3 12 4 11 5 10 6 9 7 13 8 5 9 4 10 3 11 2 12 1 13
REMARK SMILES IDX 14 14
REMARK H PARENT
REMARK Flexibility Score: inf
ROOT
ATOM      1  C   UNL     1       7.631  -2.264  18.354  1.00  0.00     0.016 A 
ATOM      2  C   UNL     1       6.993  -3.389  18.910  1.00  0.00     0.048 A 
ATOM      3  C   UNL     1       7.787  -4.470  19.293  1.00  0.00     0.137 A 
ATOM      4  C   UNL     1       9.147  -4.459  19.143  1.00  0.00     0.064 A 
ATOM      5  C   UNL     1       9.612  -5.664  19.615  1.00  0.00     0.054 A 
ATOM      6  C   UNL     1       8.470  -6.341  20.030  1.00  0.00     0.196 A 
ATOM      7  O   UNL     1       7.394  -5.602  19.825  1.00  0.00    -0.464 OA
ATOM      8  C   UNL     1       9.815  -3.365  18.597  1.00  0.00     0.149 A 
ATOM      9  C   UNL     1       9.038  -2.247  18.196  1.00  0.00     0.018 A 
ATOM     10  C   UNL     1       9.702  -1.146  17.648  1.00  0.00     0.019 A 
ATOM     11  C   UNL     1      11.092  -1.181  17.515  1.00  0.00     0.094 A 
ATOM     12  C   UNL     1      11.789  -2.322  17.935  1.00  0.00     0.336 A 
ATOM     13  O   UNL     1      13.042  -2.368  17.821  1.00  0.00    -0.246 OA
ATOM     14  O   UNL     1      11.137  -3.359  18.454  1.00  0.00    -0.422 OA
ENDROOT
TORSDOF 0
ENDMDL
MODEL 4
REMARK VINA RESULT:    -5.324      1.768      2.568
REMARK INTER + INTRA:          -5.324
REMARK INTER:                  -5.324
REMARK INTRA:                   0.000
REMARK UNBOUND:                 0.000
REMARK SMILES O=c1ccc2ccc3occc3c2o1
REMARK SMILES IDX 6 1 7 2 8 3 12 4 11 5 10 6 9 7 13 8 5 9 4 10 3 11 2 12 1 13
REMARK SMILES IDX 14 14
REMARK H PARENT
REMARK Flexibility Score: inf
ROOT
ATOM      1  C   UNL     1       9.916  -1.826  17.832  1.00  0.00     0.016 A 
ATOM      2  C   UNL     1      11.180  -1.208  17.854  1.00  0.00     0.048 A 
ATOM      3  C   UNL     1      12.233  -1.889  18.465  1.00  0.00     0.137 A 
ATOM      4  C   UNL     1      12.064  -3.123  19.032  1.00  0.00     0.064 A 
ATOM      5  C   UNL     1      13.286  -3.503  19.537  1.00  0.00     0.054 A 
ATOM      6  C   UNL     1      14.134  -2.443  19.233  1.00  0.00     0.196 A 
ATOM      7  O   UNL     1      13.476  -1.494  18.591  1.00  0.00    -0.464 OA
ATOM      8  C   UNL     1      10.828  -3.767  19.030  1.00  0.00     0.149 A 
ATOM      9  C   UNL     1       9.735  -3.103  18.417  1.00  0.00     0.018 A 
ATOM     10  C   UNL     1       8.493  -3.743  18.412  1.00  0.00     0.019 A 
ATOM     11  C   UNL     1       8.370  -5.003  19.002  1.00  0.00     0.094 A 
ATOM     12  C   UNL     1       9.497  -5.595  19.588  1.00  0.00     0.336 A 
ATOM     13  O   UNL     1       9.401  -6.730  20.125  1.00  0.00    -0.246 OA
ATOM     14  O   UNL     1      10.670  -4.967  19.582  1.00  0.00    -0.422 OA
ENDROOT
TORSDOF 0
ENDMDL
MODEL 5
REMARK VINA RESULT:    -5.312      1.347      5.043
REMARK INTER + INTRA:          -5.312
REMARK INTER:                  -5.312
REMARK INTRA:                   0.000
REMARK UNBOUND:                 0.000
REMARK SMILES O=c1ccc2ccc3occc3c2o1
REMARK SMILES IDX 6 1 7 2 8 3 12 4 11 5 10 6 9 7 13 8 5 9 4 10 3 11 2 12 1 13
REMARK SMILES IDX 14 14
REMARK H PARENT
REMARK Flexibility Score: inf
ROOT
ATOM      1  C   UNL     1      12.169  -4.572  19.751  1.00  0.00     0.016 A 
ATOM      2  C   UNL     1      11.402  -5.691  20.125  1.00  0.00     0.048 A 
ATOM      3  C   UNL     1      10.043  -5.690  19.809  1.00  0.00     0.137 A 
ATOM      4  C   UNL     1       9.454  -4.642  19.154  1.00  0.00     0.064 A 
ATOM      5  C   UNL     1       8.124  -4.962  19.003  1.00  0.00     0.054 A 
ATOM      6  C   UNL     1       7.997  -6.215  19.593  1.00  0.00     0.196 A 
ATOM      7  O   UNL     1       9.161  -6.625  20.065  1.00  0.00    -0.464 OA
ATOM      8  C   UNL     1      10.180  -3.518  18.768  1.00  0.00     0.149 A 
ATOM      9  C   UNL     1      11.565  -3.486  19.073  1.00  0.00     0.018 A 
ATOM     10  C   UNL     1      12.298  -2.361  18.689  1.00  0.00     0.019 A 
ATOM     11  C   UNL     1      11.653  -1.317  18.022  1.00  0.00     0.094 A 
ATOM     12  C   UNL     1      10.281  -1.422  17.756  1.00  0.00     0.336 A 
ATOM     13  O   UNL     1       9.685  -0.489  17.156  1.00  0.00    -0.246 OA
ATOM     14  O   UNL     1       9.601  -2.503  18.132  1.00  0.00    -0.422 OA
ENDROOT
TORSDOF 0
ENDMDL
MODEL 6
REMARK VINA RESULT:    -5.226      2.011      4.320
REMARK INTER + INTRA:          -5.226
REMARK INTER:                  -5.226
REMARK INTRA:                   0.000
REMARK UNBOUND:                 0.000
REMARK SMILES O=c1ccc2ccc3occc3c2o1
REMARK SMILES IDX 6 1 7 2 8 3 12 4 11 5 10 6 9 7 13 8 5 9 4 10 3 11 2 12 1 13
REMARK SMILES IDX 14 14
REMARK H PARENT
REMARK Flexibility Score: inf
ROOT
ATOM      1  C   UNL     1       9.588  -2.753  18.283  1.00  0.00     0.016 A 
ATOM      2  C   UNL     1       8.552  -3.690  18.462  1.00  0.00     0.048 A 
ATOM      3  C   UNL     1       8.857  -4.891  19.101  1.00  0.00     0.137 A 
ATOM      4  C   UNL     1      10.119  -5.172  19.551  1.00  0.00     0.064 A 
ATOM      5  C   UNL     1      10.071  -6.421  20.125  1.00  0.00     0.054 A 
ATOM      6  C   UNL     1       8.747  -6.822  19.979  1.00  0.00     0.196 A 
ATOM      7  O   UNL     1       8.045  -5.886  19.364  1.00  0.00    -0.464 OA
ATOM      8  C   UNL     1      11.170  -4.271  19.393  1.00  0.00     0.149 A 
ATOM      9  C   UNL     1      10.895  -3.038  18.746  1.00  0.00     0.018 A 
ATOM     10  C   UNL     1      11.946  -2.131  18.585  1.00  0.00     0.019 A 
ATOM     11  C   UNL     1      13.216  -2.462  19.061  1.00  0.00     0.094 A 
ATOM     12  C   UNL     1      13.408  -3.699  19.689  1.00  0.00     0.336 A 
ATOM     13  O   UNL     1      14.548  -4.012  20.123  1.00  0.00    -0.246 OA
ATOM     14  O   UNL     1      12.394  -4.549  19.832  1.00  0.00    -0.422 OA
ENDROOT
TORSDOF 0
ENDMDL
MODEL 7
REMARK VINA RESULT:    -5.017      3.665      5.931
REMARK INTER + INTRA:          -5.017
REMARK INTER:                  -5.017
REMARK INTRA:                   0.000
REMARK UNBOUND:                 0.000
REMARK SMILES O=c1ccc2ccc3occc3c2o1
REMARK SMILES IDX 6 1 7 2 8 3 12 4 11 5 10 6 9 7 13 8 5 9 4 10 3 11 2 12 1 13
REMARK SMILES IDX 14 14
REMARK H PARENT
REMARK Flexibility Score: inf
ROOT
ATOM      1  C   UNL     1      10.536  -1.581  17.587  1.00  0.00     0.016 A 
ATOM      2  C   UNL     1      11.379  -2.708  17.575  1.00  0.00     0.048 A 
ATOM      3  C   UNL     1      12.614  -2.610  18.215  1.00  0.00     0.137 A 
ATOM      4  C   UNL     1      13.015  -1.462  18.843  1.00  0.00     0.064 A 
ATOM      5  C   UNL     1      14.265  -1.706  19.363  1.00  0.00     0.054 A 
ATOM      6  C   UNL     1      14.543  -3.021  19.003  1.00  0.00     0.196 A 
ATOM      7  O   UNL     1      13.537  -3.535  18.318  1.00  0.00    -0.464 OA
ATOM      8  C   UNL     1      12.209  -0.326  18.877  1.00  0.00     0.149 A 
ATOM      9  C   UNL     1      10.945  -0.390  18.236  1.00  0.00     0.018 A 
ATOM     10  C   UNL     1      10.133   0.746  18.267  1.00  0.00     0.019 A 
ATOM     11  C   UNL     1      10.585   1.894  18.921  1.00  0.00     0.094 A 
ATOM     12  C   UNL     1      11.846   1.880  19.531  1.00  0.00     0.336 A 
ATOM     13  O   UNL     1      12.267   2.907  20.125  1.00  0.00    -0.246 OA
ATOM     14  O   UNL     1      12.603   0.786  19.490  1.00  0.00    -0.422 OA
ENDROOT
TORSDOF 0
ENDMDL
MODEL 8
REMARK VINA RESULT:    -4.953      2.148      3.221
REMARK INTER + INTRA:          -4.953
REMARK INTER:                  -4.953
REMARK INTRA:                   0.000
REMARK UNBOUND:                 0.000
REMARK SMILES O=c1ccc2ccc3occc3c2o1
REMARK SMILES IDX 6 1 7 2 8 3 12 4 11 5 10 6 9 7 13 8 5 9 4 10 3 11 2 12 1 13
REMARK SMILES IDX 14 14
REMARK H PARENT
REMARK Flexibility Score: inf
ROOT
ATOM      1  C   UNL     1       9.149  -5.701  19.617  1.00  0.00     0.016 A 
ATOM      2  C   UNL     1       8.102  -4.899  19.125  1.00  0.00     0.048 A 
ATOM      3  C   UNL     1       8.414  -3.618  18.670  1.00  0.00     0.137 A 
ATOM      4  C   UNL     1       9.695  -3.135  18.691  1.00  0.00     0.064 A 
ATOM      5  C   UNL     1       9.651  -1.860  18.178  1.00  0.00     0.054 A 
ATOM      6  C   UNL     1       8.309  -1.652  17.874  1.00  0.00     0.196 A 
ATOM      7  O   UNL     1       7.595  -2.722  18.178  1.00  0.00    -0.464 OA
ATOM      8  C   UNL     1      10.758  -3.898  19.171  1.00  0.00     0.149 A 
ATOM      9  C   UNL     1      10.475  -5.207  19.642  1.00  0.00     0.018 A 
ATOM     10  C   UNL     1      11.537  -5.976  20.124  1.00  0.00     0.019 A 
ATOM     11  C   UNL     1      12.827  -5.441  20.125  1.00  0.00     0.094 A 
ATOM     12  C   UNL     1      13.026  -4.140  19.643  1.00  0.00     0.336 A 
ATOM     13  O   UNL     1      14.183  -3.643  19.638  1.00  0.00    -0.246 OA
ATOM     14  O   UNL     1      12.000  -3.424  19.188  1.00  0.00    -0.422 OA
ENDROOT
TORSDOF 0
ENDMDL
MODEL 9
REMARK VINA RESULT:    -4.943      1.429      4.382
REMARK INTER + INTRA:          -4.943
REMARK INTER:                  -4.943
REMARK INTRA:                   0.000
REMARK UNBOUND:                 0.000
REMARK SMILES O=c1ccc2ccc3occc3c2o1
REMARK SMILES IDX 6 1 7 2 8 3 12 4 11 5 10 6 9 7 13 8 5 9 4 10 3 11 2 12 1 13
REMARK SMILES IDX 14 14
REMARK H PARENT
REMARK Flexibility Score: inf
ROOT
ATOM      1  C   UNL     1       7.771  -3.605  18.507  1.00  0.00     0.016 A 
ATOM      2  C   UNL     1       8.110  -4.879  19.002  1.00  0.00     0.048 A 
ATOM      3  C   UNL     1       9.428  -5.098  19.399  1.00  0.00     0.137 A 
ATOM      4  C   UNL     1      10.381  -4.118  19.320  1.00  0.00     0.064 A 
ATOM      5  C   UNL     1      11.555  -4.662  19.786  1.00  0.00     0.054 A 
ATOM      6  C   UNL     1      11.224  -5.970  20.125  1.00  0.00     0.196 A 
ATOM      7  O   UNL     1       9.945  -6.201  19.883  1.00  0.00    -0.464 OA
ATOM      8  C   UNL     1      10.084  -2.846  18.836  1.00  0.00     0.149 A 
ATOM      9  C   UNL     1       8.752  -2.587  18.423  1.00  0.00     0.018 A 
ATOM     10  C   UNL     1       8.448  -1.313  17.936  1.00  0.00     0.019 A 
ATOM     11  C   UNL     1       9.453  -0.346  17.875  1.00  0.00     0.094 A 
ATOM     12  C   UNL     1      10.746  -0.677  18.302  1.00  0.00     0.336 A 
ATOM     13  O   UNL     1      11.663   0.184  18.252  1.00  0.00    -0.246 OA
ATOM     14  O   UNL     1      11.013  -1.897  18.761  1.00  0.00    -0.422 OA
ENDROOT
TORSDOF 0
ENDMDL
