MODEL 1
REMARK VINA RESULT:    -3.499      0.000      0.000
REMARK INTER + INTRA:          -5.347
REMARK INTER:                  -4.727
REMARK INTRA:                  -0.621
REMARK UNBOUND:                -0.621
REMARK SMILES CCCCCCCC(=O)[O-]
REMARK SMILES IDX 5 1 6 2 7 3 8 4 9 5 10 6 4 7 3 8 2 9 1 10
REMARK H PARENT
REMARK Flexibility Score: inf
ROOT
ATOM      1  C   UNL     1      23.317   6.341  27.169  1.00  0.00     0.000 C 
ENDROOT
BRANCH   1   2
ATOM      2  C   UNL     1      24.537   5.998  26.289  1.00  0.00     0.006 C 
BRANCH   2   3
ATOM      3  C   UNL     1      25.898   6.264  26.954  1.00  0.00     0.053 C 
BRANCH   3   4
ATOM      4  C   UNL     1      26.697   7.287  26.208  1.00  0.00     0.041 C 
ATOM      5  O   UNL     1      26.204   7.869  25.207  1.00  0.00    -0.550 OA
ATOM      6  O   UNL     1      28.000   7.571  26.597  1.00  0.00    -0.550 OA
ENDBRANCH   3   4
ENDBRANCH   2   3
ENDBRANCH   1   2
BRANCH   1   7
ATOM      7  C   UNL     1      23.510   7.538  28.118  1.00  0.00     0.000 C 
BRANCH   7   8
ATOM      8  C   UNL     1      23.410   8.894  27.401  1.00  0.00    -0.000 C 
BRANCH   8   9
ATOM      9  C   UNL     1      24.482   9.889  27.872  1.00  0.00    -0.003 C 
ATOM     10  C   UNL     1      25.233   9.408  29.114  1.00  0.00     0.004 C 
ENDBRANCH   8   9
ENDBRANCH   7   8
ENDBRANCH   1   7
TORSDOF 6
ENDMDL
MODEL 2
REMARK VINA RESULT:    -3.357      1.186      1.858
REMARK INTER + INTRA:          -5.155
REMARK INTER:                  -4.670
REMARK INTRA:                  -0.485
REMARK UNBOUND:                -0.621
REMARK SMILES CCCCCCCC(=O)[O-]
REMARK SMILES IDX 5 1 6 2 7 3 8 4 9 5 10 6 4 7 3 8 2 9 1 10
REMARK H PARENT
REMARK Flexibility Score: inf
ROOT
ATOM      1  C   UNL     1      25.378   5.977  26.919  1.00  0.00     0.000 C 
ENDROOT
BRANCH   1   2
ATOM      2  C   UNL     1      26.435   6.954  27.474  1.00  0.00     0.006 C 
BRANCH   2   3
ATOM      3  C   UNL     1      27.405   7.510  26.419  1.00  0.00     0.053 C 
BRANCH   3   4
ATOM      4  C   UNL     1      26.699   8.327  25.381  1.00  0.00     0.041 C 
ATOM      5  O   UNL     1      26.341   7.799  24.297  1.00  0.00    -0.550 OA
ATOM      6  O   UNL     1      26.467   9.679  25.599  1.00  0.00    -0.550 OA
ENDBRANCH   3   4
ENDBRANCH   2   3
ENDBRANCH   1   2
BRANCH   1   7
ATOM      7  C   UNL     1      23.921   6.466  27.014  1.00  0.00     0.000 C 
BRANCH   7   8
ATOM      8  C   UNL     1      23.731   7.584  28.052  1.00  0.00    -0.000 C 
BRANCH   8   9
ATOM      9  C   UNL     1      23.441   8.947  27.403  1.00  0.00    -0.003 C 
ATOM     10  C   UNL     1      24.132  10.105  28.123  1.00  0.00     0.004 C 
ENDBRANCH   8   9
ENDBRANCH   7   8
ENDBRANCH   1   7
TORSDOF 6
ENDMDL
MODEL 3
REMARK VINA RESULT:    -3.314      2.136      3.427
REMARK INTER + INTRA:          -5.097
REMARK INTER:                  -4.522
REMARK INTRA:                  -0.575
REMARK UNBOUND:                -0.621
REMARK SMILES CCCCCCCC(=O)[O-]
REMARK SMILES IDX 5 1 6 2 7 3 8 4 9 5 10 6 4 7 3 8 2 9 1 10
REMARK H PARENT
REMARK Flexibility Score: inf
ROOT
ATOM      1  C   UNL     1      24.792   6.272  26.244  1.00  0.00     0.000 C 
ENDROOT
BRANCH   1   2
ATOM      2  C   UNL     1      23.550   6.912  26.898  1.00  0.00     0.006 C 
BRANCH   2   3
ATOM      3  C   UNL     1      23.816   7.578  28.258  1.00  0.00     0.053 C 
BRANCH   3   4
ATOM      4  C   UNL     1      23.940   9.066  28.140  1.00  0.00     0.041 C 
ATOM      5  O   UNL     1      23.081   9.724  27.498  1.00  0.00    -0.550 OA
ATOM      6  O   UNL     1      25.024   9.721  28.711  1.00  0.00    -0.550 OA
ENDBRANCH   3   4
ENDBRANCH   2   3
ENDBRANCH   1   2
BRANCH   1   7
ATOM      7  C   UNL     1      26.093   6.386  27.059  1.00  0.00     0.000 C 
BRANCH   7   8
ATOM      8  C   UNL     1      27.044   7.468  26.521  1.00  0.00    -0.000 C 
BRANCH   8   9
ATOM      9  C   UNL     1      26.479   8.189  25.288  1.00  0.00    -0.003 C 
ATOM     10  C   UNL     1      26.437   9.708  25.457  1.00  0.00     0.004 C 
ENDBRANCH   8   9
ENDBRANCH   7   8
ENDBRANCH   1   7
TORSDOF 6
ENDMDL
MODEL 4
REMARK VINA RESULT:    -3.084      1.050      3.234
REMARK INTER + INTRA:          -4.786
REMARK INTER:                  -4.237
REMARK INTRA:                  -0.549
REMARK UNBOUND:                -0.621
REMARK SMILES CCCCCCCC(=O)[O-]
REMARK SMILES IDX 5 1 6 2 7 3 8 4 9 5 10 6 4 7 3 8 2 9 1 10
REMARK H PARENT
REMARK Flexibility Score: inf
ROOT
ATOM      1  C   UNL     1      23.655   8.570  27.278  1.00  0.00     0.000 C 
ENDROOT
BRANCH   1   2
ATOM      2  C   UNL     1      24.890   9.474  27.474  1.00  0.00     0.006 C 
BRANCH   2   3
ATOM      3  C   UNL     1      25.771   9.630  26.224  1.00  0.00     0.053 C 
BRANCH   3   4
ATOM      4  C   UNL     1      26.479   8.357  25.873  1.00  0.00     0.041 C 
ATOM      5  O   UNL     1      27.099   7.713  26.758  1.00  0.00    -0.550 OA
ATOM      6  O   UNL     1      26.482   7.902  24.561  1.00  0.00    -0.550 OA
ENDBRANCH   3   4
ENDBRANCH   2   3
ENDBRANCH   1   2
BRANCH   1   7
ATOM      7  C   UNL     1      23.638   7.291  28.135  1.00  0.00     0.000 C 
BRANCH   7   8
ATOM      8  C   UNL     1      23.153   6.056  27.358  1.00  0.00    -0.000 C 
BRANCH   8   9
ATOM      9  C   UNL     1      24.184   5.565  26.329  1.00  0.00    -0.003 C 
ATOM     10  C   UNL     1      23.714   5.749  24.886  1.00  0.00     0.004 C 
ENDBRANCH   8   9
ENDBRANCH   7   8
ENDBRANCH   1   7
TORSDOF 6
ENDMDL
MODEL 5
REMARK VINA RESULT:    -3.041      2.286      4.184
REMARK INTER + INTRA:          -4.729
REMARK INTER:                  -4.413
REMARK INTRA:                  -0.315
REMARK UNBOUND:                -0.621
REMARK SMILES CCCCCCCC(=O)[O-]
REMARK SMILES IDX 5 1 6 2 7 3 8 4 9 5 10 6 4 7 3 8 2 9 1 10
REMARK H PARENT
REMARK Flexibility Score: inf
ROOT
ATOM      1  C   UNL     1      26.536   7.583  27.208  1.00  0.00     0.000 C 
ENDROOT
BRANCH   1   2
ATOM      2  C   UNL     1      25.827   8.580  26.268  1.00  0.00     0.006 C 
BRANCH   2   3
ATOM      3  C   UNL     1      25.145   9.757  26.984  1.00  0.00     0.053 C 
BRANCH   3   4
ATOM      4  C   UNL     1      24.382   9.314  28.194  1.00  0.00     0.041 C 
ATOM      5  O   UNL     1      23.261   8.757  28.066  1.00  0.00    -0.550 OA
ATOM      6  O   UNL     1      24.895   9.548  29.464  1.00  0.00    -0.550 OA
ENDBRANCH   3   4
ENDBRANCH   2   3
ENDBRANCH   1   2
BRANCH   1   7
ATOM      7  C   UNL     1      26.166   6.104  26.992  1.00  0.00     0.000 C 
BRANCH   7   8
ATOM      8  C   UNL     1      24.700   5.908  26.570  1.00  0.00    -0.000 C 
BRANCH   8   9
ATOM      9  C   UNL     1      24.287   4.428  26.545  1.00  0.00    -0.003 C 
ATOM     10  C   UNL     1      22.964   4.170  27.265  1.00  0.00     0.004 C 
ENDBRANCH   8   9
ENDBRANCH   7   8
ENDBRANCH   1   7
TORSDOF 6
ENDMDL
MODEL 6
REMARK VINA RESULT:    -2.982      2.176      3.053
REMARK INTER + INTRA:          -4.648
REMARK INTER:                  -4.143
REMARK INTRA:                  -0.505
REMARK UNBOUND:                -0.621
REMARK SMILES CCCCCCCC(=O)[O-]
REMARK SMILES IDX 5 1 6 2 7 3 8 4 9 5 10 6 4 7 3 8 2 9 1 10
REMARK H PARENT
REMARK Flexibility Score: inf
ROOT
ATOM      1  C   UNL     1      26.115   6.320  26.955  1.00  0.00     0.000 C 
ENDROOT
BRANCH   1   2
ATOM      2  C   UNL     1      24.610   5.990  27.004  1.00  0.00     0.006 C 
BRANCH   2   3
ATOM      3  C   UNL     1      23.788   6.582  25.847  1.00  0.00     0.053 C 
BRANCH   3   4
ATOM      4  C   UNL     1      23.856   5.732  24.616  1.00  0.00     0.041 C 
ATOM      5  O   UNL     1      23.495   4.527  24.659  1.00  0.00    -0.550 OA
ATOM      6  O   UNL     1      24.352   6.261  23.431  1.00  0.00    -0.550 OA
ENDBRANCH   3   4
ENDBRANCH   2   3
ENDBRANCH   1   2
BRANCH   1   7
ATOM      7  C   UNL     1      26.508   7.677  27.567  1.00  0.00     0.000 C 
BRANCH   7   8
ATOM      8  C   UNL     1      25.673   8.040  28.806  1.00  0.00    -0.000 C 
BRANCH   8   9
ATOM      9  C   UNL     1      25.020   9.427  28.691  1.00  0.00    -0.003 C 
ATOM     10  C   UNL     1      24.898   9.906  27.244  1.00  0.00     0.004 C 
ENDBRANCH   8   9
ENDBRANCH   7   8
ENDBRANCH   1   7
TORSDOF 6
ENDMDL
MODEL 7
REMARK VINA RESULT:    -2.904      2.290      3.929
REMARK INTER + INTRA:          -4.544
REMARK INTER:                  -4.062
REMARK INTRA:                  -0.482
REMARK UNBOUND:                -0.621
REMARK SMILES CCCCCCCC(=O)[O-]
REMARK SMILES IDX 5 1 6 2 7 3 8 4 9 5 10 6 4 7 3 8 2 9 1 10
REMARK H PARENT
REMARK Flexibility Score: inf
ROOT
ATOM      1  C   UNL     1      25.132   6.903  25.952  1.00  0.00     0.000 C 
ENDROOT
BRANCH   1   2
ATOM      2  C   UNL     1      26.056   6.435  27.094  1.00  0.00     0.006 C 
BRANCH   2   3
ATOM      3  C   UNL     1      26.566   7.563  28.006  1.00  0.00     0.053 C 
BRANCH   3   4
ATOM      4  C   UNL     1      25.451   8.428  28.507  1.00  0.00     0.041 C 
ATOM      5  O   UNL     1      25.352   9.621  28.118  1.00  0.00    -0.550 OA
ATOM      6  O   UNL     1      24.542   7.926  29.429  1.00  0.00    -0.550 OA
ENDBRANCH   3   4
ENDBRANCH   2   3
ENDBRANCH   1   2
BRANCH   1   7
ATOM      7  C   UNL     1      23.790   6.156  25.847  1.00  0.00     0.000 C 
BRANCH   7   8
ATOM      8  C   UNL     1      23.352   5.522  27.178  1.00  0.00    -0.000 C 
BRANCH   8   9
ATOM      9  C   UNL     1      23.199   3.996  27.080  1.00  0.00    -0.003 C 
ATOM     10  C   UNL     1      24.178   3.363  26.091  1.00  0.00     0.004 C 
ENDBRANCH   8   9
ENDBRANCH   7   8
ENDBRANCH   1   7
TORSDOF 6
ENDMDL
MODEL 8
REMARK VINA RESULT:    -2.885      2.705      3.579
REMARK INTER + INTRA:          -4.517
REMARK INTER:                  -4.059
REMARK INTRA:                  -0.458
REMARK UNBOUND:                -0.621
REMARK SMILES CCCCCCCC(=O)[O-]
REMARK SMILES IDX 5 1 6 2 7 3 8 4 9 5 10 6 4 7 3 8 2 9 1 10
REMARK H PARENT
REMARK Flexibility Score: inf
ROOT
ATOM      1  C   UNL     1      25.875   6.327  26.997  1.00  0.00     0.000 C 
ENDROOT
BRANCH   1   2
ATOM      2  C   UNL     1      24.578   6.321  26.162  1.00  0.00     0.006 C 
BRANCH   2   3
ATOM      3  C   UNL     1      23.297   6.078  26.975  1.00  0.00     0.053 C 
BRANCH   3   4
ATOM      4  C   UNL     1      23.094   4.626  27.283  1.00  0.00     0.041 C 
ATOM      5  O   UNL     1      23.557   3.745  26.513  1.00  0.00    -0.550 OA
ATOM      6  O   UNL     1      22.363   4.248  28.402  1.00  0.00    -0.550 OA
ENDBRANCH   3   4
ENDBRANCH   2   3
ENDBRANCH   1   2
BRANCH   1   7
ATOM      7  C   UNL     1      26.459   7.721  27.290  1.00  0.00     0.000 C 
BRANCH   7   8
ATOM      8  C   UNL     1      25.689   8.853  26.590  1.00  0.00    -0.000 C 
BRANCH   8   9
ATOM      9  C   UNL     1      24.993   9.796  27.584  1.00  0.00    -0.003 C 
ATOM     10  C   UNL     1      23.470   9.768  27.460  1.00  0.00     0.004 C 
ENDBRANCH   8   9
ENDBRANCH   7   8
ENDBRANCH   1   7
TORSDOF 6
ENDMDL
MODEL 9
REMARK VINA RESULT:    -2.790      1.441      3.498
REMARK INTER + INTRA:          -4.389
REMARK INTER:                  -3.996
REMARK INTRA:                  -0.393
REMARK UNBOUND:                -0.621
REMARK SMILES CCCCCCCC(=O)[O-]
REMARK SMILES IDX 5 1 6 2 7 3 8 4 9 5 10 6 4 7 3 8 2 9 1 10
REMARK H PARENT
REMARK Flexibility Score: inf
ROOT
ATOM      1  C   UNL     1      23.619   7.214  27.718  1.00  0.00     0.000 C 
ENDROOT
BRANCH   1   2
ATOM      2  C   UNL     1      23.919   8.579  27.064  1.00  0.00     0.006 C 
BRANCH   2   3
ATOM      3  C   UNL     1      25.388   9.022  27.158  1.00  0.00     0.053 C 
BRANCH   3   4
ATOM      4  C   UNL     1      26.299   8.115  26.390  1.00  0.00     0.041 C 
ATOM      5  O   UNL     1      26.176   8.003  25.143  1.00  0.00    -0.550 OA
ATOM      6  O   UNL     1      27.260   7.367  27.057  1.00  0.00    -0.550 OA
ENDBRANCH   3   4
ENDBRANCH   2   3
ENDBRANCH   1   2
BRANCH   1   7
ATOM      7  C   UNL     1      23.146   6.115  26.749  1.00  0.00     0.000 C 
BRANCH   7   8
ATOM      8  C   UNL     1      24.240   5.079  26.440  1.00  0.00    -0.000 C 
BRANCH   8   9
ATOM      9  C   UNL     1      23.764   3.635  26.665  1.00  0.00    -0.003 C 
ATOM     10  C   UNL     1      22.734   3.519  27.789  1.00  0.00     0.004 C 
ENDBRANCH   8   9
ENDBRANCH   7   8
ENDBRANCH   1   7
TORSDOF 6
ENDMDL
