MODEL 1
REMARK VINA RESULT:    -4.769      0.000      0.000
REMARK INTER + INTRA:          -7.226
REMARK INTER:                  -6.721
REMARK INTRA:                  -0.506
REMARK UNBOUND:                -0.506
REMARK SMILES CCCCCCCCC(=O)[O-]
REMARK SMILES IDX 6 1 7 2 8 3 9 4 10 5 11 6 5 7 4 8 3 9 2 10 1 11
REMARK H PARENT
REMARK Flexibility Score: inf
ROOT
ATOM      1  C   UNL     1      21.670   9.804  11.083  1.00  0.00     0.000 C 
ENDROOT
BRANCH   1   2
ATOM      2  C   UNL     1      21.385  11.273  10.739  1.00  0.00     0.006 C 
BRANCH   2   3
ATOM      3  C   UNL     1      22.668  12.114  10.678  1.00  0.00     0.053 C 
BRANCH   3   4
ATOM      4  C   UNL     1      22.506  13.311   9.792  1.00  0.00     0.041 C 
ATOM      5  O   UNL     1      21.785  14.277  10.157  1.00  0.00    -0.550 OA
ATOM      6  O   UNL     1      23.124  13.346   8.549  1.00  0.00    -0.550 OA
ENDBRANCH   3   4
ENDBRANCH   2   3
ENDBRANCH   1   2
BRANCH   1   7
ATOM      7  C   UNL     1      22.699   9.694  12.215  1.00  0.00     0.000 C 
BRANCH   7   8
ATOM      8  C   UNL     1      22.131   8.908  13.402  1.00  0.00    -0.000 C 
BRANCH   8   9
ATOM      9  C   UNL     1      20.897   8.096  12.984  1.00  0.00    -0.000 C 
BRANCH   9  10
ATOM     10  C   UNL     1      19.689   8.342  13.901  1.00  0.00    -0.003 C 
ATOM     11  C   UNL     1      19.075   9.729  13.711  1.00  0.00     0.004 C 
ENDBRANCH   9  10
ENDBRANCH   8   9
ENDBRANCH   7   8
ENDBRANCH   1   7
TORSDOF 7
ENDMDL
MODEL 2
REMARK VINA RESULT:    -4.677      1.290      1.739
REMARK INTER + INTRA:          -7.097
REMARK INTER:                  -6.800
REMARK INTRA:                  -0.297
REMARK UNBOUND:                -0.506
REMARK SMILES CCCCCCCCC(=O)[O-]
REMARK SMILES IDX 6 1 7 2 8 3 9 4 10 5 11 6 5 7 4 8 3 9 2 10 1 11
REMARK H PARENT
REMARK Flexibility Score: inf
ROOT
ATOM      1  C   UNL     1      21.291  11.213  10.711  1.00  0.00     0.000 C 
ENDROOT
BRANCH   1   2
ATOM      2  C   UNL     1      22.440  12.231  10.691  1.00  0.00     0.006 C 
BRANCH   2   3
ATOM      3  C   UNL     1      22.815  12.657   9.265  1.00  0.00     0.053 C 
BRANCH   3   4
ATOM      4  C   UNL     1      24.220  13.170   9.188  1.00  0.00     0.041 C 
ATOM      5  O   UNL     1      24.675  13.611   8.100  1.00  0.00    -0.550 OA
ATOM      6  O   UNL     1      25.038  13.130  10.310  1.00  0.00    -0.550 OA
ENDBRANCH   3   4
ENDBRANCH   2   3
ENDBRANCH   1   2
BRANCH   1   7
ATOM      7  C   UNL     1      21.792   9.829  11.143  1.00  0.00     0.000 C 
BRANCH   7   8
ATOM      8  C   UNL     1      21.644   9.636  12.657  1.00  0.00    -0.000 C 
BRANCH   8   9
ATOM      9  C   UNL     1      21.116   8.232  12.983  1.00  0.00    -0.000 C 
BRANCH   9  10
ATOM     10  C   UNL     1      19.707   8.258  13.596  1.00  0.00    -0.003 C 
ATOM     11  C   UNL     1      19.140   9.673  13.716  1.00  0.00     0.004 C 
ENDBRANCH   9  10
ENDBRANCH   8   9
ENDBRANCH   7   8
ENDBRANCH   1   7
TORSDOF 7
ENDMDL
MODEL 3
REMARK VINA RESULT:    -4.496     13.007     13.845
REMARK INTER + INTRA:          -6.841
REMARK INTER:                  -6.338
REMARK INTRA:                  -0.503
REMARK UNBOUND:                -0.506
REMARK SMILES CCCCCCCCC(=O)[O-]
REMARK SMILES IDX 6 1 7 2 8 3 9 4 10 5 11 6 5 7 4 8 3 9 2 10 1 11
REMARK H PARENT
REMARK Flexibility Score: inf
ROOT
ATOM      1  C   UNL     1       9.968  13.123   5.257  1.00  0.00     0.000 C 
ENDROOT
BRANCH   1   2
ATOM      2  C   UNL     1      11.223  13.823   4.717  1.00  0.00     0.006 C 
BRANCH   2   3
ATOM      3  C   UNL     1      10.888  14.885   3.661  1.00  0.00     0.053 C 
BRANCH   3   4
ATOM      4  C   UNL     1      11.137  16.272   4.169  1.00  0.00     0.041 C 
ATOM      5  O   UNL     1      10.551  17.254   3.643  1.00  0.00    -0.550 OA
ATOM      6  O   UNL     1      12.042  16.484   5.201  1.00  0.00    -0.550 OA
ENDBRANCH   3   4
ENDBRANCH   2   3
ENDBRANCH   1   2
BRANCH   1   7
ATOM      7  C   UNL     1       8.947  12.885   4.137  1.00  0.00     0.000 C 
BRANCH   7   8
ATOM      8  C   UNL     1       8.520  11.413   4.084  1.00  0.00    -0.000 C 
BRANCH   8   9
ATOM      9  C   UNL     1       8.598  10.768   5.475  1.00  0.00    -0.000 C 
BRANCH   9  10
ATOM     10  C   UNL     1       9.242   9.373   5.444  1.00  0.00    -0.003 C 
ATOM     11  C   UNL     1      10.555   9.344   4.662  1.00  0.00     0.004 C 
ENDBRANCH   9  10
ENDBRANCH   8   9
ENDBRANCH   7   8
ENDBRANCH   1   7
TORSDOF 7
ENDMDL
MODEL 4
REMARK VINA RESULT:    -4.477      2.661      3.187
REMARK INTER + INTRA:          -6.815
REMARK INTER:                  -6.384
REMARK INTRA:                  -0.430
REMARK UNBOUND:                -0.506
REMARK SMILES CCCCCCCCC(=O)[O-]
REMARK SMILES IDX 6 1 7 2 8 3 9 4 10 5 11 6 5 7 4 8 3 9 2 10 1 11
REMARK H PARENT
REMARK Flexibility Score: inf
ROOT
ATOM      1  C   UNL     1      23.333   9.750  13.390  1.00  0.00     0.000 C 
ENDROOT
BRANCH   1   2
ATOM      2  C   UNL     1      24.719  10.408  13.448  1.00  0.00     0.006 C 
BRANCH   2   3
ATOM      3  C   UNL     1      24.727  11.803  12.807  1.00  0.00     0.053 C 
BRANCH   3   4
ATOM      4  C   UNL     1      25.932  12.011  11.942  1.00  0.00     0.041 C 
ATOM      5  O   UNL     1      25.814  12.546  10.809  1.00  0.00    -0.550 OA
ATOM      6  O   UNL     1      27.181  11.582  12.373  1.00  0.00    -0.550 OA
ENDBRANCH   3   4
ENDBRANCH   2   3
ENDBRANCH   1   2
BRANCH   1   7
ATOM      7  C   UNL     1      22.519  10.287  12.206  1.00  0.00     0.000 C 
BRANCH   7   8
ATOM      8  C   UNL     1      21.261   9.442  11.974  1.00  0.00    -0.000 C 
BRANCH   8   9
ATOM      9  C   UNL     1      21.190   8.276  12.971  1.00  0.00    -0.000 C 
BRANCH   9  10
ATOM     10  C   UNL     1      19.852   8.225  13.725  1.00  0.00    -0.003 C 
ATOM     11  C   UNL     1      19.139   9.577  13.758  1.00  0.00     0.004 C 
ENDBRANCH   9  10
ENDBRANCH   8   9
ENDBRANCH   7   8
ENDBRANCH   1   7
TORSDOF 7
ENDMDL
MODEL 5
REMARK VINA RESULT:    -4.326      2.594      3.699
REMARK INTER + INTRA:          -6.602
REMARK INTER:                  -5.969
REMARK INTRA:                  -0.633
REMARK UNBOUND:                -0.506
REMARK SMILES CCCCCCCCC(=O)[O-]
REMARK SMILES IDX 6 1 7 2 8 3 9 4 10 5 11 6 5 7 4 8 3 9 2 10 1 11
REMARK H PARENT
REMARK Flexibility Score: inf
ROOT
ATOM      1  C   UNL     1      23.301   9.895  13.697  1.00  0.00     0.000 C 
ENDROOT
BRANCH   1   2
ATOM      2  C   UNL     1      24.740  10.292  13.335  1.00  0.00     0.006 C 
BRANCH   2   3
ATOM      3  C   UNL     1      24.864  11.785  13.002  1.00  0.00     0.053 C 
BRANCH   3   4
ATOM      4  C   UNL     1      25.814  12.024  11.868  1.00  0.00     0.041 C 
ATOM      5  O   UNL     1      27.010  11.642  11.952  1.00  0.00    -0.550 OA
ATOM      6  O   UNL     1      25.386  12.699  10.732  1.00  0.00    -0.550 OA
ENDBRANCH   3   4
ENDBRANCH   2   3
ENDBRANCH   1   2
BRANCH   1   7
ATOM      7  C   UNL     1      22.788   8.787  12.769  1.00  0.00     0.000 C 
BRANCH   7   8
ATOM      8  C   UNL     1      21.258   8.822  12.663  1.00  0.00    -0.000 C 
BRANCH   8   9
ATOM      9  C   UNL     1      20.774  10.186  12.151  1.00  0.00    -0.000 C 
BRANCH   9  10
ATOM     10  C   UNL     1      21.262  10.489  10.726  1.00  0.00    -0.003 C 
ATOM     11  C   UNL     1      21.938  11.855  10.610  1.00  0.00     0.004 C 
ENDBRANCH   9  10
ENDBRANCH   8   9
ENDBRANCH   7   8
ENDBRANCH   1   7
TORSDOF 7
ENDMDL
MODEL 6
REMARK VINA RESULT:    -4.301      3.204      5.692
REMARK INTER + INTRA:          -6.567
REMARK INTER:                  -6.327
REMARK INTRA:                  -0.240
REMARK UNBOUND:                -0.506
REMARK SMILES CCCCCCCCC(=O)[O-]
REMARK SMILES IDX 6 1 7 2 8 3 9 4 10 5 11 6 5 7 4 8 3 9 2 10 1 11
REMARK H PARENT
REMARK Flexibility Score: inf
ROOT
ATOM      1  C   UNL     1      22.623   9.468  13.346  1.00  0.00     0.000 C 
ENDROOT
BRANCH   1   2
ATOM      2  C   UNL     1      21.654   8.736  12.405  1.00  0.00     0.006 C 
BRANCH   2   3
ATOM      3  C   UNL     1      20.640   7.876  13.172  1.00  0.00     0.053 C 
BRANCH   3   4
ATOM      4  C   UNL     1      19.631   8.715  13.894  1.00  0.00     0.041 C 
ATOM      5  O   UNL     1      19.295   9.838  13.433  1.00  0.00    -0.550 OA
ATOM      6  O   UNL     1      19.088   8.274  15.093  1.00  0.00    -0.550 OA
ENDBRANCH   3   4
ENDBRANCH   2   3
ENDBRANCH   1   2
BRANCH   1   7
ATOM      7  C   UNL     1      23.374  10.580  12.602  1.00  0.00     0.000 C 
BRANCH   7   8
ATOM      8  C   UNL     1      22.499  11.199  11.506  1.00  0.00    -0.000 C 
BRANCH   8   9
ATOM      9  C   UNL     1      23.228  12.356  10.809  1.00  0.00    -0.000 C 
BRANCH   9  10
ATOM     10  C   UNL     1      22.501  12.835   9.543  1.00  0.00    -0.003 C 
ATOM     11  C   UNL     1      23.458  13.151   8.394  1.00  0.00     0.004 C 
ENDBRANCH   9  10
ENDBRANCH   8   9
ENDBRANCH   7   8
ENDBRANCH   1   7
TORSDOF 7
ENDMDL
MODEL 7
REMARK VINA RESULT:    -4.299      3.155      5.748
REMARK INTER + INTRA:          -6.564
REMARK INTER:                  -6.214
REMARK INTRA:                  -0.350
REMARK UNBOUND:                -0.506
REMARK SMILES CCCCCCCCC(=O)[O-]
REMARK SMILES IDX 6 1 7 2 8 3 9 4 10 5 11 6 5 7 4 8 3 9 2 10 1 11
REMARK H PARENT
REMARK Flexibility Score: inf
ROOT
ATOM      1  C   UNL     1      24.372  11.225  13.038  1.00  0.00     0.000 C 
ENDROOT
BRANCH   1   2
ATOM      2  C   UNL     1      23.156  10.586  12.352  1.00  0.00     0.006 C 
BRANCH   2   3
ATOM      3  C   UNL     1      22.742   9.265  13.017  1.00  0.00     0.053 C 
BRANCH   3   4
ATOM      4  C   UNL     1      21.264   9.038  12.928  1.00  0.00     0.041 C 
ATOM      5  O   UNL     1      20.794   7.875  13.040  1.00  0.00    -0.550 OA
ATOM      6  O   UNL     1      20.408  10.105  12.689  1.00  0.00    -0.550 OA
ENDBRANCH   3   4
ENDBRANCH   2   3
ENDBRANCH   1   2
BRANCH   1   7
ATOM      7  C   UNL     1      25.211  12.026  12.034  1.00  0.00     0.000 C 
BRANCH   7   8
ATOM      8  C   UNL     1      24.318  12.708  10.991  1.00  0.00    -0.000 C 
BRANCH   8   9
ATOM      9  C   UNL     1      25.142  13.171   9.780  1.00  0.00    -0.000 C 
BRANCH   9  10
ATOM     10  C   UNL     1      24.283  13.375   8.524  1.00  0.00    -0.003 C 
ATOM     11  C   UNL     1      22.896  12.743   8.646  1.00  0.00     0.004 C 
ENDBRANCH   9  10
ENDBRANCH   8   9
ENDBRANCH   7   8
ENDBRANCH   1   7
TORSDOF 7
ENDMDL
MODEL 8
REMARK VINA RESULT:    -4.242      2.091      3.029
REMARK INTER + INTRA:          -6.484
REMARK INTER:                  -6.281
REMARK INTRA:                  -0.202
REMARK UNBOUND:                -0.506
REMARK SMILES CCCCCCCCC(=O)[O-]
REMARK SMILES IDX 6 1 7 2 8 3 9 4 10 5 11 6 5 7 4 8 3 9 2 10 1 11
REMARK H PARENT
REMARK Flexibility Score: inf
ROOT
ATOM      1  C   UNL     1      22.450  12.219   9.274  1.00  0.00     0.000 C 
ENDROOT
BRANCH   1   2
ATOM      2  C   UNL     1      23.200  13.559   9.239  1.00  0.00     0.006 C 
BRANCH   2   3
ATOM      3  C   UNL     1      24.532  13.459   8.481  1.00  0.00     0.053 C 
BRANCH   3   4
ATOM      4  C   UNL     1      25.704  13.465   9.413  1.00  0.00     0.041 C 
ATOM      5  O   UNL     1      25.617  12.919  10.545  1.00  0.00    -0.550 OA
ATOM      6  O   UNL     1      26.882  14.103   9.047  1.00  0.00    -0.550 OA
ENDBRANCH   3   4
ENDBRANCH   2   3
ENDBRANCH   1   2
BRANCH   1   7
ATOM      7  C   UNL     1      22.139  11.802  10.717  1.00  0.00     0.000 C 
BRANCH   7   8
ATOM      8  C   UNL     1      21.348  10.490  10.753  1.00  0.00    -0.000 C 
BRANCH   8   9
ATOM      9  C   UNL     1      20.649  10.306  12.108  1.00  0.00    -0.000 C 
BRANCH   9  10
ATOM     10  C   UNL     1      20.960   8.947  12.753  1.00  0.00    -0.003 C 
ATOM     11  C   UNL     1      19.897   8.514  13.762  1.00  0.00     0.004 C 
ENDBRANCH   9  10
ENDBRANCH   8   9
ENDBRANCH   7   8
ENDBRANCH   1   7
TORSDOF 7
ENDMDL
MODEL 9
REMARK VINA RESULT:    -4.217      3.410      6.122
REMARK INTER + INTRA:          -6.449
REMARK INTER:                  -6.155
REMARK INTRA:                  -0.294
REMARK UNBOUND:                -0.506
REMARK SMILES CCCCCCCCC(=O)[O-]
REMARK SMILES IDX 6 1 7 2 8 3 9 4 10 5 11 6 5 7 4 8 3 9 2 10 1 11
REMARK H PARENT
REMARK Flexibility Score: inf
ROOT
ATOM      1  C   UNL     1      21.749  11.452  11.067  1.00  0.00     0.000 C 
ENDROOT
BRANCH   1   2
ATOM      2  C   UNL     1      21.368  10.055  11.577  1.00  0.00     0.006 C 
BRANCH   2   3
ATOM      3  C   UNL     1      20.251  10.105  12.629  1.00  0.00     0.053 C 
BRANCH   3   4
ATOM      4  C   UNL     1      20.164   8.829  13.409  1.00  0.00     0.041 C 
ATOM      5  O   UNL     1      20.945   7.875  13.153  1.00  0.00    -0.550 OA
ATOM      6  O   UNL     1      19.199   8.681  14.397  1.00  0.00    -0.550 OA
ENDBRANCH   3   4
ENDBRANCH   2   3
ENDBRANCH   1   2
BRANCH   1   7
ATOM      7  C   UNL     1      23.238  11.735  11.304  1.00  0.00     0.000 C 
BRANCH   7   8
ATOM      8  C   UNL     1      23.654  13.066  10.665  1.00  0.00    -0.000 C 
BRANCH   8   9
ATOM      9  C   UNL     1      22.908  13.297   9.342  1.00  0.00    -0.000 C 
BRANCH   9  10
ATOM     10  C   UNL     1      23.844  13.269   8.124  1.00  0.00    -0.003 C 
ATOM     11  C   UNL     1      25.283  13.646   8.474  1.00  0.00     0.004 C 
ENDBRANCH   9  10
ENDBRANCH   8   9
ENDBRANCH   7   8
ENDBRANCH   1   7
TORSDOF 7
ENDMDL
