MODEL 1
REMARK VINA RESULT:    -2.536      0.000      0.000
REMARK INTER + INTRA:          -2.536
REMARK INTER:                  -2.536
REMARK INTRA:                   0.000
REMARK UNBOUND:                 0.000
REMARK SMILES CC(=O)[O-]
REMARK SMILES IDX 1 1 2 2 3 3 4 4
REMARK H PARENT
REMARK Flexibility Score: inf
ROOT
ATOM      1  C   UNL     1      15.414  44.404 -10.509  1.00  0.00     0.063 C 
ATOM      2  C   UNL     1      14.696  45.656 -10.881  1.00  0.00     0.038 C 
ATOM      3  O   UNL     1      14.244  45.803 -12.046  1.00  0.00    -0.550 OA
ATOM      4  O   UNL     1      14.477  46.643  -9.928  1.00  0.00    -0.550 OA
ENDROOT
TORSDOF 0
ENDMDL
MODEL 2
REMARK VINA RESULT:    -2.507      0.169      1.623
REMARK INTER + INTRA:          -2.507
REMARK INTER:                  -2.507
REMARK INTRA:                   0.000
REMARK UNBOUND:                 0.000
REMARK SMILES CC(=O)[O-]
REMARK SMILES IDX 1 1 2 2 3 3 4 4
REMARK H PARENT
REMARK Flexibility Score: inf
ROOT
ATOM      1  C   UNL     1      15.543  44.345 -10.506  1.00  0.00     0.063 C 
ATOM      2  C   UNL     1      14.726  45.565 -10.764  1.00  0.00     0.038 C 
ATOM      3  O   UNL     1      14.522  46.396  -9.841  1.00  0.00    -0.550 OA
ATOM      4  O   UNL     1      14.232  45.817 -12.038  1.00  0.00    -0.550 OA
ENDROOT
TORSDOF 0
ENDMDL
MODEL 3
REMARK VINA RESULT:    -2.406      1.307      1.826
REMARK INTER + INTRA:          -2.406
REMARK INTER:                  -2.406
REMARK INTRA:                   0.000
REMARK UNBOUND:                 0.000
REMARK SMILES CC(=O)[O-]
REMARK SMILES IDX 1 1 2 2 3 3 4 4
REMARK H PARENT
REMARK Flexibility Score: inf
ROOT
ATOM      1  C   UNL     1      14.213  47.312 -10.218  1.00  0.00     0.063 C 
ATOM      2  C   UNL     1      14.359  45.924 -10.741  1.00  0.00     0.038 C 
ATOM      3  O   UNL     1      14.206  45.691 -11.968  1.00  0.00    -0.550 OA
ATOM      4  O   UNL     1      14.717  44.890  -9.883  1.00  0.00    -0.550 OA
ENDROOT
TORSDOF 0
ENDMDL
MODEL 4
REMARK VINA RESULT:    -2.251      1.626      1.767
REMARK INTER + INTRA:          -2.251
REMARK INTER:                  -2.251
REMARK INTRA:                   0.000
REMARK UNBOUND:                 0.000
REMARK SMILES CC(=O)[O-]
REMARK SMILES IDX 1 1 2 2 3 3 4 4
REMARK H PARENT
REMARK Flexibility Score: inf
ROOT
ATOM      1  C   UNL     1      13.492  45.055 -10.162  1.00  0.00     0.063 C 
ATOM      2  C   UNL     1      14.935  45.317 -10.433  1.00  0.00     0.038 C 
ATOM      3  O   UNL     1      15.741  44.357 -10.547  1.00  0.00    -0.550 OA
ATOM      4  O   UNL     1      15.384  46.619 -10.614  1.00  0.00    -0.550 OA
ENDROOT
TORSDOF 0
ENDMDL
MODEL 5
REMARK VINA RESULT:    -2.167      2.109      2.225
REMARK INTER + INTRA:          -2.167
REMARK INTER:                  -2.167
REMARK INTRA:                   0.000
REMARK UNBOUND:                 0.000
REMARK SMILES CC(=O)[O-]
REMARK SMILES IDX 1 1 2 2 3 3 4 4
REMARK H PARENT
REMARK Flexibility Score: inf
ROOT
ATOM      1  C   UNL     1      15.380  44.749 -10.511  1.00  0.00     0.063 C 
ATOM      2  C   UNL     1      13.958  44.528 -10.123  1.00  0.00     0.038 C 
ATOM      3  O   UNL     1      13.137  45.481 -10.162  1.00  0.00    -0.550 OA
ATOM      4  O   UNL     1      13.522  43.257  -9.770  1.00  0.00    -0.550 OA
ENDROOT
TORSDOF 0
ENDMDL
MODEL 6
REMARK VINA RESULT:    -1.933     12.766     13.182
REMARK INTER + INTRA:          -1.933
REMARK INTER:                  -1.933
REMARK INTRA:                   0.000
REMARK UNBOUND:                 0.000
REMARK SMILES CC(=O)[O-]
REMARK SMILES IDX 1 1 2 2 3 3 4 4
REMARK H PARENT
REMARK Flexibility Score: inf
ROOT
ATOM      1  C   UNL     1       9.172  45.865  -0.019  1.00  0.00     0.063 C 
ATOM      2  C   UNL     1       8.077  44.971   0.454  1.00  0.00     0.038 C 
ATOM      3  O   UNL     1       6.958  44.983  -0.122  1.00  0.00    -0.550 OA
ATOM      4  O   UNL     1       8.305  44.083   1.498  1.00  0.00    -0.550 OA
ENDROOT
TORSDOF 0
ENDMDL
MODEL 7
REMARK VINA RESULT:    -1.882     16.471     16.856
REMARK INTER + INTRA:          -1.882
REMARK INTER:                  -1.882
REMARK INTRA:                   0.000
REMARK UNBOUND:                 0.000
REMARK SMILES CC(=O)[O-]
REMARK SMILES IDX 1 1 2 2 3 3 4 4
REMARK H PARENT
REMARK Flexibility Score: inf
ROOT
ATOM      1  C   UNL     1       3.346  50.780   1.774  1.00  0.00     0.063 C 
ATOM      2  C   UNL     1       4.470  51.472   1.082  1.00  0.00     0.038 C 
ATOM      3  O   UNL     1       4.368  51.782  -0.134  1.00  0.00    -0.550 OA
ATOM      4  O   UNL     1       5.613  51.824   1.789  1.00  0.00    -0.550 OA
ENDROOT
TORSDOF 0
ENDMDL
MODEL 8
REMARK VINA RESULT:    -1.846     17.275     17.427
REMARK INTER + INTRA:          -1.846
REMARK INTER:                  -1.846
REMARK INTRA:                   0.000
REMARK UNBOUND:                 0.000
REMARK SMILES CC(=O)[O-]
REMARK SMILES IDX 1 1 2 2 3 3 4 4
REMARK H PARENT
REMARK Flexibility Score: inf
ROOT
ATOM      1  C   UNL     1       3.743  51.113   1.473  1.00  0.00     0.063 C 
ATOM      2  C   UNL     1       2.670  51.016   0.443  1.00  0.00     0.038 C 
ATOM      3  O   UNL     1       2.250  49.890   0.071  1.00  0.00    -0.550 OA
ATOM      4  O   UNL     1       2.092  52.171  -0.072  1.00  0.00    -0.550 OA
ENDROOT
TORSDOF 0
ENDMDL
MODEL 9
REMARK VINA RESULT:    -1.768     12.209     12.601
REMARK INTER + INTRA:          -1.768
REMARK INTER:                  -1.768
REMARK INTRA:                   0.000
REMARK UNBOUND:                 0.000
REMARK SMILES CC(=O)[O-]
REMARK SMILES IDX 1 1 2 2 3 3 4 4
REMARK H PARENT
REMARK Flexibility Score: inf
ROOT
ATOM      1  C   UNL     1      11.532  52.616  -1.567  1.00  0.00     0.063 C 
ATOM      2  C   UNL     1      10.421  51.902  -0.876  1.00  0.00     0.038 C 
ATOM      3  O   UNL     1       9.389  51.567  -1.516  1.00  0.00    -0.550 OA
ATOM      4  O   UNL     1      10.542  51.556   0.464  1.00  0.00    -0.550 OA
ENDROOT
TORSDOF 0
ENDMDL
