MODEL 1
REMARK VINA RESULT:    -5.009      0.000      0.000
REMARK INTER + INTRA:          -5.009
REMARK INTER:                  -5.009
REMARK INTRA:                   0.000
REMARK UNBOUND:                 0.000
REMARK SMILES C=C1CCC[C@]2(C)C=C3OC(=O)C(C)=C3C[C@H]12
REMARK SMILES IDX 14 1 13 2 15 3 16 4 17 5 2 6 1 7 3 8 4 9 5 10 6 11 8 12 9 13
REMARK SMILES IDX 10 14 11 15 12 16 7 17
REMARK H PARENT
REMARK Flexibility Score: inf
ROOT
ATOM      1  C   UNL     1      -3.248  88.162  -6.744  1.00  0.00     0.053 C 
ATOM      2  C   UNL     1      -4.324  87.778  -7.708  1.00  0.00     0.041 C 
ATOM      3  C   UNL     1      -4.718  86.541  -8.004  1.00  0.00     0.005 C 
ATOM      4  C   UNL     1      -4.197  85.240  -7.493  1.00  0.00     0.049 C 
ATOM      5  C   UNL     1      -5.244  84.125  -7.753  1.00  0.00     0.029 C 
ATOM      6  C   UNL     1      -4.626  82.774  -7.436  1.00  0.00    -0.073 C 
ATOM      7  C   UNL     1      -4.799  82.213  -6.228  1.00  0.00     0.008 C 
ATOM      8  C   UNL     1      -3.683  82.150  -8.439  1.00  0.00     0.031 C 
ATOM      9  C   UNL     1      -4.279  82.184  -9.850  1.00  0.00     0.005 C 
ATOM     10  C   UNL     1      -4.793  83.583 -10.226  1.00  0.00     0.012 C 
ATOM     11  C   UNL     1      -5.835  84.138  -9.216  1.00  0.00    -0.004 C 
ATOM     12  C   UNL     1      -6.217  85.548  -9.661  1.00  0.00     0.027 C 
ATOM     13  C   UNL     1      -5.663  86.617  -9.099  1.00  0.00     0.131 C 
ATOM     14  O   UNL     1      -5.870  87.937  -9.466  1.00  0.00    -0.423 OA
ATOM     15  C   UNL     1      -5.045  88.670  -8.620  1.00  0.00     0.339 C 
ATOM     16  O   UNL     1      -4.935  89.923  -8.660  1.00  0.00    -0.246 OA
ATOM     17  C   UNL     1      -7.128  83.290  -9.255  1.00  0.00     0.016 C 
ENDROOT
TORSDOF 0
ENDMDL
MODEL 2
REMARK VINA RESULT:    -4.883      8.137     10.669
REMARK INTER + INTRA:          -4.883
REMARK INTER:                  -4.883
REMARK INTRA:                   0.000
REMARK UNBOUND:                 0.000
REMARK SMILES C=C1CCC[C@]2(C)C=C3OC(=O)C(C)=C3C[C@H]12
REMARK SMILES IDX 14 1 13 2 15 3 16 4 17 5 2 6 1 7 3 8 4 9 5 10 6 11 8 12 9 13
REMARK SMILES IDX 10 14 11 15 12 16 7 17
REMARK H PARENT
REMARK Flexibility Score: inf
ROOT
ATOM      1  C   UNL     1     -15.282  78.727  -6.767  1.00  0.00     0.053 C 
ATOM      2  C   UNL     1     -15.524  80.190  -6.964  1.00  0.00     0.041 C 
ATOM      3  C   UNL     1     -14.815  81.014  -7.732  1.00  0.00     0.005 C 
ATOM      4  C   UNL     1     -13.606  80.724  -8.559  1.00  0.00     0.049 C 
ATOM      5  C   UNL     1     -13.418  81.848  -9.611  1.00  0.00     0.029 C 
ATOM      6  C   UNL     1     -12.077  81.669 -10.300  1.00  0.00    -0.073 C 
ATOM      7  C   UNL     1     -11.992  81.004 -11.464  1.00  0.00     0.008 C 
ATOM      8  C   UNL     1     -10.823  82.107  -9.579  1.00  0.00     0.031 C 
ATOM      9  C   UNL     1     -10.981  83.518  -9.005  1.00  0.00     0.005 C 
ATOM     10  C   UNL     1     -12.281  83.670  -8.198  1.00  0.00     0.012 C 
ATOM     11  C   UNL     1     -13.549  83.303  -9.015  1.00  0.00    -0.004 C 
ATOM     12  C   UNL     1     -14.759  83.432  -8.092  1.00  0.00     0.027 C 
ATOM     13  C   UNL     1     -15.288  82.363  -7.505  1.00  0.00     0.131 C 
ATOM     14  O   UNL     1     -16.331  82.361  -6.593  1.00  0.00    -0.423 OA
ATOM     15  C   UNL     1     -16.487  81.025  -6.242  1.00  0.00     0.339 C 
ATOM     16  O   UNL     1     -17.333  80.613  -5.406  1.00  0.00    -0.246 OA
ATOM     17  C   UNL     1     -13.757  84.313 -10.169  1.00  0.00     0.016 C 
ENDROOT
TORSDOF 0
ENDMDL
MODEL 3
REMARK VINA RESULT:    -4.850      6.631      9.194
REMARK INTER + INTRA:          -4.850
REMARK INTER:                  -4.850
REMARK INTRA:                   0.000
REMARK UNBOUND:                 0.000
REMARK SMILES C=C1CCC[C@]2(C)C=C3OC(=O)C(C)=C3C[C@H]12
REMARK SMILES IDX 14 1 13 2 15 3 16 4 17 5 2 6 1 7 3 8 4 9 5 10 6 11 8 12 9 13
REMARK SMILES IDX 10 14 11 15 12 16 7 17
REMARK H PARENT
REMARK Flexibility Score: inf
ROOT
ATOM      1  C   UNL     1      -5.934  89.393 -12.687  1.00  0.00     0.053 C 
ATOM      2  C   UNL     1      -5.048  90.577 -12.909  1.00  0.00     0.041 C 
ATOM      3  C   UNL     1      -4.810  91.561 -12.045  1.00  0.00     0.005 C 
ATOM      4  C   UNL     1      -5.361  91.763 -10.672  1.00  0.00     0.049 C 
ATOM      5  C   UNL     1      -4.463  92.762  -9.896  1.00  0.00     0.029 C 
ATOM      6  C   UNL     1      -5.142  93.133  -8.589  1.00  0.00    -0.073 C 
ATOM      7  C   UNL     1      -4.842  92.477  -7.456  1.00  0.00     0.008 C 
ATOM      8  C   UNL     1      -6.272  94.137  -8.614  1.00  0.00     0.031 C 
ATOM      9  C   UNL     1      -5.889  95.378  -9.427  1.00  0.00     0.005 C 
ATOM     10  C   UNL     1      -5.317  95.011 -10.805  1.00  0.00     0.012 C 
ATOM     11  C   UNL     1      -4.095  94.057 -10.721  1.00  0.00    -0.004 C 
ATOM     12  C   UNL     1      -3.661  93.718 -12.145  1.00  0.00     0.027 C 
ATOM     13  C   UNL     1      -4.033  92.580 -12.721  1.00  0.00     0.131 C 
ATOM     14  O   UNL     1      -3.770  92.196 -14.027  1.00  0.00    -0.423 OA
ATOM     15  C   UNL     1      -4.396  90.962 -14.163  1.00  0.00     0.339 C 
ATOM     16  O   UNL     1      -4.402  90.293 -15.229  1.00  0.00    -0.246 OA
ATOM     17  C   UNL     1      -2.899  94.771 -10.047  1.00  0.00     0.016 C 
ENDROOT
TORSDOF 0
ENDMDL
MODEL 4
REMARK VINA RESULT:    -4.806      6.759      8.539
REMARK INTER + INTRA:          -4.806
REMARK INTER:                  -4.806
REMARK INTRA:                   0.000
REMARK UNBOUND:                 0.000
REMARK SMILES C=C1CCC[C@]2(C)C=C3OC(=O)C(C)=C3C[C@H]12
REMARK SMILES IDX 14 1 13 2 15 3 16 4 17 5 2 6 1 7 3 8 4 9 5 10 6 11 8 12 9 13
REMARK SMILES IDX 10 14 11 15 12 16 7 17
REMARK H PARENT
REMARK Flexibility Score: inf
ROOT
ATOM      1  C   UNL     1      -3.182  94.884 -10.754  1.00  0.00     0.053 C 
ATOM      2  C   UNL     1      -4.023  93.657 -10.605  1.00  0.00     0.041 C 
ATOM      3  C   UNL     1      -4.350  92.799 -11.569  1.00  0.00     0.005 C 
ATOM      4  C   UNL     1      -4.001  92.836 -13.020  1.00  0.00     0.049 C 
ATOM      5  C   UNL     1      -4.200  91.426 -13.636  1.00  0.00     0.029 C 
ATOM      6  C   UNL     1      -4.059  91.515 -15.145  1.00  0.00    -0.073 C 
ATOM      7  C   UNL     1      -2.880  91.257 -15.735  1.00  0.00     0.008 C 
ATOM      8  C   UNL     1      -5.217  92.053 -15.955  1.00  0.00     0.031 C 
ATOM      9  C   UNL     1      -6.533  91.385 -15.547  1.00  0.00     0.005 C 
ATOM     10  C   UNL     1      -6.742  91.404 -14.024  1.00  0.00     0.012 C 
ATOM     11  C   UNL     1      -5.570  90.749 -13.242  1.00  0.00    -0.004 C 
ATOM     12  C   UNL     1      -5.863  90.887 -11.751  1.00  0.00     0.027 C 
ATOM     13  C   UNL     1      -5.306  91.855 -11.030  1.00  0.00     0.131 C 
ATOM     14  O   UNL     1      -5.551  92.128  -9.693  1.00  0.00    -0.423 OA
ATOM     15  C   UNL     1      -4.771  93.244  -9.415  1.00  0.00     0.339 C 
ATOM     16  O   UNL     1      -4.738  93.815  -8.294  1.00  0.00    -0.246 OA
ATOM     17  C   UNL     1      -5.500  89.234 -13.547  1.00  0.00     0.016 C 
ENDROOT
TORSDOF 0
ENDMDL
MODEL 5
REMARK VINA RESULT:    -4.792      2.989      4.428
REMARK INTER + INTRA:          -4.792
REMARK INTER:                  -4.792
REMARK INTRA:                   0.000
REMARK UNBOUND:                 0.000
REMARK SMILES C=C1CCC[C@]2(C)C=C3OC(=O)C(C)=C3C[C@H]12
REMARK SMILES IDX 14 1 13 2 15 3 16 4 17 5 2 6 1 7 3 8 4 9 5 10 6 11 8 12 9 13
REMARK SMILES IDX 10 14 11 15 12 16 7 17
REMARK H PARENT
REMARK Flexibility Score: inf
ROOT
ATOM      1  C   UNL     1      -9.255  83.508  -6.067  1.00  0.00     0.053 C 
ATOM      2  C   UNL     1      -8.643  83.346  -7.421  1.00  0.00     0.041 C 
ATOM      3  C   UNL     1      -7.344  83.254  -7.697  1.00  0.00     0.005 C 
ATOM      4  C   UNL     1      -6.177  83.311  -6.767  1.00  0.00     0.049 C 
ATOM      5  C   UNL     1      -4.931  82.706  -7.464  1.00  0.00     0.029 C 
ATOM      6  C   UNL     1      -3.704  82.964  -6.607  1.00  0.00    -0.073 C 
ATOM      7  C   UNL     1      -3.273  82.035  -5.738  1.00  0.00     0.008 C 
ATOM      8  C   UNL     1      -3.074  84.338  -6.629  1.00  0.00     0.031 C 
ATOM      9  C   UNL     1      -2.876  84.829  -8.066  1.00  0.00     0.005 C 
ATOM     10  C   UNL     1      -4.154  84.688  -8.907  1.00  0.00     0.012 C 
ATOM     11  C   UNL     1      -4.705  83.236  -8.934  1.00  0.00    -0.004 C 
ATOM     12  C   UNL     1      -6.001  83.238  -9.741  1.00  0.00     0.027 C 
ATOM     13  C   UNL     1      -7.184  83.274  -9.136  1.00  0.00     0.131 C 
ATOM     14  O   UNL     1      -8.421  83.357  -9.756  1.00  0.00    -0.423 OA
ATOM     15  C   UNL     1      -9.335  83.408  -8.710  1.00  0.00     0.339 C 
ATOM     16  O   UNL     1     -10.579  83.511  -8.871  1.00  0.00    -0.246 OA
ATOM     17  C   UNL     1      -3.720  82.299  -9.671  1.00  0.00     0.016 C 
ENDROOT
TORSDOF 0
ENDMDL
MODEL 6
REMARK VINA RESULT:    -4.759      6.848      8.230
REMARK INTER + INTRA:          -4.759
REMARK INTER:                  -4.759
REMARK INTRA:                   0.000
REMARK UNBOUND:                 0.000
REMARK SMILES C=C1CCC[C@]2(C)C=C3OC(=O)C(C)=C3C[C@H]12
REMARK SMILES IDX 14 1 13 2 15 3 16 4 17 5 2 6 1 7 3 8 4 9 5 10 6 11 8 12 9 13
REMARK SMILES IDX 10 14 11 15 12 16 7 17
REMARK H PARENT
REMARK Flexibility Score: inf
ROOT
ATOM      1  C   UNL     1      -4.574  91.585  -9.033  1.00  0.00     0.053 C 
ATOM      2  C   UNL     1      -4.645  92.495 -10.218  1.00  0.00     0.041 C 
ATOM      3  C   UNL     1      -5.155  92.201 -11.412  1.00  0.00     0.005 C 
ATOM      4  C   UNL     1      -5.754  90.921 -11.891  1.00  0.00     0.049 C 
ATOM      5  C   UNL     1      -6.610  91.192 -13.156  1.00  0.00     0.029 C 
ATOM      6  C   UNL     1      -7.034  89.867 -13.766  1.00  0.00    -0.073 C 
ATOM      7  C   UNL     1      -8.227  89.329 -13.464  1.00  0.00     0.008 C 
ATOM      8  C   UNL     1      -6.031  89.088 -14.588  1.00  0.00     0.031 C 
ATOM      9  C   UNL     1      -5.341  89.991 -15.614  1.00  0.00     0.005 C 
ATOM     10  C   UNL     1      -4.796  91.279 -14.978  1.00  0.00     0.012 C 
ATOM     11  C   UNL     1      -5.887  92.095 -14.230  1.00  0.00    -0.004 C 
ATOM     12  C   UNL     1      -5.215  93.307 -13.592  1.00  0.00     0.027 C 
ATOM     13  C   UNL     1      -4.873  93.303 -12.308  1.00  0.00     0.131 C 
ATOM     14  O   UNL     1      -4.193  94.307 -11.636  1.00  0.00    -0.423 OA
ATOM     15  C   UNL     1      -4.037  93.821 -10.343  1.00  0.00     0.339 C 
ATOM     16  O   UNL     1      -3.440  94.444  -9.427  1.00  0.00    -0.246 OA
ATOM     17  C   UNL     1      -6.934  92.638 -15.232  1.00  0.00     0.016 C 
ENDROOT
TORSDOF 0
ENDMDL
MODEL 7
REMARK VINA RESULT:    -4.758      2.253      4.444
REMARK INTER + INTRA:          -4.758
REMARK INTER:                  -4.758
REMARK INTRA:                   0.000
REMARK UNBOUND:                 0.000
REMARK SMILES C=C1CCC[C@]2(C)C=C3OC(=O)C(C)=C3C[C@H]12
REMARK SMILES IDX 14 1 13 2 15 3 16 4 17 5 2 6 1 7 3 8 4 9 5 10 6 11 8 12 9 13
REMARK SMILES IDX 10 14 11 15 12 16 7 17
REMARK H PARENT
REMARK Flexibility Score: inf
ROOT
ATOM      1  C   UNL     1      -9.632  82.287  -9.552  1.00  0.00     0.053 C 
ATOM      2  C   UNL     1      -8.976  83.599  -9.265  1.00  0.00     0.041 C 
ATOM      3  C   UNL     1      -7.679  83.805  -9.047  1.00  0.00     0.005 C 
ATOM      4  C   UNL     1      -6.562  82.816  -9.003  1.00  0.00     0.049 C 
ATOM      5  C   UNL     1      -5.210  83.554  -9.181  1.00  0.00     0.029 C 
ATOM      6  C   UNL     1      -4.072  82.583  -8.916  1.00  0.00    -0.073 C 
ATOM      7  C   UNL     1      -3.484  81.930  -9.932  1.00  0.00     0.008 C 
ATOM      8  C   UNL     1      -3.721  82.243  -7.486  1.00  0.00     0.031 C 
ATOM      9  C   UNL     1      -3.596  83.509  -6.633  1.00  0.00     0.005 C 
ATOM     10  C   UNL     1      -4.808  84.440  -6.801  1.00  0.00     0.012 C 
ATOM     11  C   UNL     1      -5.066  84.841  -8.279  1.00  0.00    -0.004 C 
ATOM     12  C   UNL     1      -6.323  85.706  -8.320  1.00  0.00     0.027 C 
ATOM     13  C   UNL     1      -7.501  85.186  -8.650  1.00  0.00     0.131 C 
ATOM     14  O   UNL     1      -8.719  85.848  -8.649  1.00  0.00    -0.423 OA
ATOM     15  C   UNL     1      -9.644  84.880  -9.021  1.00  0.00     0.339 C 
ATOM     16  O   UNL     1     -10.881  85.091  -9.114  1.00  0.00    -0.246 OA
ATOM     17  C   UNL     1      -3.904  85.713  -8.811  1.00  0.00     0.016 C 
ENDROOT
TORSDOF 0
ENDMDL
MODEL 8
REMARK VINA RESULT:    -4.648      8.416     10.525
REMARK INTER + INTRA:          -4.648
REMARK INTER:                  -4.648
REMARK INTRA:                   0.000
REMARK UNBOUND:                 0.000
REMARK SMILES C=C1CCC[C@]2(C)C=C3OC(=O)C(C)=C3C[C@H]12
REMARK SMILES IDX 14 1 13 2 15 3 16 4 17 5 2 6 1 7 3 8 4 9 5 10 6 11 8 12 9 13
REMARK SMILES IDX 10 14 11 15 12 16 7 17
REMARK H PARENT
REMARK Flexibility Score: inf
ROOT
ATOM      1  C   UNL     1      -6.733  94.892 -17.872  1.00  0.00     0.053 C 
ATOM      2  C   UNL     1      -6.330  93.455 -17.951  1.00  0.00     0.041 C 
ATOM      3  C   UNL     1      -6.183  92.616 -16.927  1.00  0.00     0.005 C 
ATOM      4  C   UNL     1      -6.347  92.876 -15.467  1.00  0.00     0.049 C 
ATOM      5  C   UNL     1      -6.528  91.528 -14.720  1.00  0.00     0.029 C 
ATOM      6  C   UNL     1      -6.474  91.775 -13.222  1.00  0.00    -0.073 C 
ATOM      7  C   UNL     1      -7.605  91.951 -12.520  1.00  0.00     0.008 C 
ATOM      8  C   UNL     1      -5.128  91.982 -12.565  1.00  0.00     0.031 C 
ATOM      9  C   UNL     1      -4.132  90.902 -12.998  1.00  0.00     0.005 C 
ATOM     10  C   UNL     1      -4.090  90.734 -14.525  1.00  0.00     0.012 C 
ATOM     11  C   UNL     1      -5.481  90.424 -15.141  1.00  0.00    -0.004 C 
ATOM     12  C   UNL     1      -5.320  90.344 -16.656  1.00  0.00     0.027 C 
ATOM     13  C   UNL     1      -5.626  91.379 -17.433  1.00  0.00     0.131 C 
ATOM     14  O   UNL     1      -5.452  91.454 -18.806  1.00  0.00    -0.423 OA
ATOM     15  C   UNL     1      -5.876  92.735 -19.143  1.00  0.00     0.339 C 
ATOM     16  O   UNL     1      -5.850  93.196 -20.313  1.00  0.00    -0.246 OA
ATOM     17  C   UNL     1      -5.982  89.038 -14.670  1.00  0.00     0.016 C 
ENDROOT
TORSDOF 0
ENDMDL
MODEL 9
REMARK VINA RESULT:    -4.643      3.929      6.748
REMARK INTER + INTRA:          -4.643
REMARK INTER:                  -4.643
REMARK INTRA:                   0.000
REMARK UNBOUND:                 0.000
REMARK SMILES C=C1CCC[C@]2(C)C=C3OC(=O)C(C)=C3C[C@H]12
REMARK SMILES IDX 14 1 13 2 15 3 16 4 17 5 2 6 1 7 3 8 4 9 5 10 6 11 8 12 9 13
REMARK SMILES IDX 10 14 11 15 12 16 7 17
REMARK H PARENT
REMARK Flexibility Score: inf
ROOT
ATOM      1  C   UNL     1      -5.729  87.377  -8.324  1.00  0.00     0.053 C 
ATOM      2  C   UNL     1      -5.345  88.771  -8.704  1.00  0.00     0.041 C 
ATOM      3  C   UNL     1      -5.613  89.381  -9.857  1.00  0.00     0.005 C 
ATOM      4  C   UNL     1      -6.323  88.852 -11.059  1.00  0.00     0.049 C 
ATOM      5  C   UNL     1      -6.793  90.035 -11.944  1.00  0.00     0.029 C 
ATOM      6  C   UNL     1      -7.315  89.496 -13.264  1.00  0.00    -0.073 C 
ATOM      7  C   UNL     1      -8.627  89.264 -13.434  1.00  0.00     0.008 C 
ATOM      8  C   UNL     1      -6.323  89.073 -14.323  1.00  0.00     0.031 C 
ATOM      9  C   UNL     1      -5.250  90.146 -14.533  1.00  0.00     0.005 C 
ATOM     10  C   UNL     1      -4.627  90.607 -13.206  1.00  0.00     0.012 C 
ATOM     11  C   UNL     1      -5.679  91.126 -12.189  1.00  0.00    -0.004 C 
ATOM     12  C   UNL     1      -4.949  91.491 -10.899  1.00  0.00     0.027 C 
ATOM     13  C   UNL     1      -4.920  90.652  -9.868  1.00  0.00     0.131 C 
ATOM     14  O   UNL     1      -4.231  90.836  -8.680  1.00  0.00    -0.423 OA
ATOM     15  C   UNL     1      -4.477  89.679  -7.950  1.00  0.00     0.339 C 
ATOM     16  O   UNL     1      -3.998  89.455  -6.808  1.00  0.00    -0.246 OA
ATOM     17  C   UNL     1      -6.339  92.424 -12.712  1.00  0.00     0.016 C 
ENDROOT
TORSDOF 0
ENDMDL
