MODEL 1
REMARK VINA RESULT:    -6.764      0.000      0.000
REMARK INTER + INTRA:          -8.575
REMARK INTER:                  -8.149
REMARK INTRA:                  -0.426
REMARK UNBOUND:                -0.426
REMARK SMILES O=c1c(O)c(-c2ccc(O)cc2O)oc2cc(O)cc(O)c12
REMARK SMILES IDX 5 1 3 2 2 3 1 4 22 5 20 6 19 7 17 8 16 9 15 10 14 11 6 12
REMARK SMILES IDX 8 13 7 14 9 15 11 16 12 17 10 18 13 20 4 22 21 24 18 26
REMARK H PARENT 10 19 13 21 4 23 21 25 18 27
REMARK Flexibility Score: inf
ROOT
ATOM      1  C   UNL     1      13.098  -8.391   1.896  1.00  0.00     0.184 A 
ATOM      2  C   UNL     1      13.910  -7.651   2.769  1.00  0.00     0.208 A 
ATOM      3  C   UNL     1      14.197  -6.313   2.461  1.00  0.00     0.238 A 
ATOM      4  O   UNL     1      14.985  -5.677   3.209  1.00  0.00    -0.285 OA
ATOM      5  C   UNL     1      13.623  -5.715   1.312  1.00  0.00     0.111 A 
ATOM      6  C   UNL     1      13.810  -4.353   0.926  1.00  0.00     0.134 A 
ATOM      7  C   UNL     1      13.278  -3.900  -0.289  1.00  0.00     0.093 A 
ATOM      8  C   UNL     1      12.514  -4.743  -1.100  1.00  0.00     0.123 A 
ATOM      9  C   UNL     1      12.280  -6.058  -0.705  1.00  0.00     0.094 A 
ATOM     10  C   UNL     1      12.828  -6.549   0.482  1.00  0.00     0.146 A 
ATOM     11  O   UNL     1      12.598  -7.816   0.809  1.00  0.00    -0.451 OA
ENDROOT
BRANCH   1  12
ATOM     12  C   UNL     1      12.763  -9.806   2.158  1.00  0.00     0.063 A 
ATOM     13  C   UNL     1      11.496 -11.437   3.439  1.00  0.00     0.047 A 
ATOM     14  C   UNL     1      11.840 -10.111   3.170  1.00  0.00     0.020 A 
ATOM     15  C   UNL     1      12.061 -12.477   2.690  1.00  0.00     0.119 A 
ATOM     16  C   UNL     1      12.964 -12.181   1.665  1.00  0.00     0.093 A 
ATOM     17  C   UNL     1      13.310 -10.851   1.384  1.00  0.00     0.130 A 
BRANCH  15  18
ATOM     18  O   UNL     1      11.729 -13.803   2.952  1.00  0.00    -0.508 OA
ATOM     19  H   UNL     1      10.765 -14.116   2.963  1.00  0.00     0.293 HD
ENDBRANCH  15  18
BRANCH  17  20
ATOM     20  O   UNL     1      14.174 -10.567   0.326  1.00  0.00    -0.507 OA
ATOM     21  H   UNL     1      13.908 -10.735  -0.637  1.00  0.00     0.293 HD
ENDBRANCH  17  20
ENDBRANCH   1  12
BRANCH   2  22
ATOM     22  O   UNL     1      14.406  -8.243   3.934  1.00  0.00    -0.502 OA
ATOM     23  H   UNL     1      14.477  -7.741   4.811  1.00  0.00     0.293 HD
ENDBRANCH   2  22
BRANCH   6  24
ATOM     24  O   UNL     1      14.481  -3.403   1.702  1.00  0.00    -0.507 OA
ATOM     25  H   UNL     1      14.880  -3.578   2.611  1.00  0.00     0.293 HD
ENDBRANCH   6  24
BRANCH   8  26
ATOM     26  O   UNL     1      11.974  -4.280  -2.298  1.00  0.00    -0.508 OA
ATOM     27  H   UNL     1      12.521  -3.725  -2.945  1.00  0.00     0.293 HD
ENDBRANCH   8  26
TORSDOF 6
ENDMDL
MODEL 2
REMARK VINA RESULT:    -6.424      1.620      6.574
REMARK INTER + INTRA:          -8.165
REMARK INTER:                  -7.730
REMARK INTRA:                  -0.435
REMARK UNBOUND:                -0.426
REMARK SMILES O=c1c(O)c(-c2ccc(O)cc2O)oc2cc(O)cc(O)c12
REMARK SMILES IDX 5 1 3 2 2 3 1 4 22 5 20 6 19 7 17 8 16 9 15 10 14 11 6 12
REMARK SMILES IDX 8 13 7 14 9 15 11 16 12 17 10 18 13 20 4 22 21 24 18 26
REMARK H PARENT 10 19 13 21 4 23 21 25 18 27
REMARK Flexibility Score: inf
ROOT
ATOM      1  C   UNL     1      12.950  -7.778   1.614  1.00  0.00     0.184 A 
ATOM      2  C   UNL     1      12.219  -8.220   2.728  1.00  0.00     0.208 A 
ATOM      3  C   UNL     1      12.104  -9.599   2.963  1.00  0.00     0.238 A 
ATOM      4  O   UNL     1      11.387  -9.990   3.921  1.00  0.00    -0.285 OA
ATOM      5  C   UNL     1      12.767 -10.517   2.111  1.00  0.00     0.111 A 
ATOM      6  C   UNL     1      12.755 -11.935   2.279  1.00  0.00     0.134 A 
ATOM      7  C   UNL     1      13.359 -12.750   1.313  1.00  0.00     0.093 A 
ATOM      8  C   UNL     1      14.028 -12.196   0.219  1.00  0.00     0.123 A 
ATOM      9  C   UNL     1      14.092 -10.812   0.075  1.00  0.00     0.094 A 
ATOM     10  C   UNL     1      13.467  -9.974   1.001  1.00  0.00     0.146 A 
ATOM     11  O   UNL     1      13.535  -8.661   0.813  1.00  0.00    -0.451 OA
ENDROOT
BRANCH   1  12
ATOM     12  C   UNL     1      13.104  -6.342   1.305  1.00  0.00     0.063 A 
ATOM     13  C   UNL     1      14.229  -4.233   1.746  1.00  0.00     0.047 A 
ATOM     14  C   UNL     1      14.053  -5.591   2.017  1.00  0.00     0.020 A 
ATOM     15  C   UNL     1      13.467  -3.609   0.750  1.00  0.00     0.119 A 
ATOM     16  C   UNL     1      12.535  -4.354   0.021  1.00  0.00     0.093 A 
ATOM     17  C   UNL     1      12.356  -5.721   0.283  1.00  0.00     0.130 A 
BRANCH  15  18
ATOM     18  O   UNL     1      13.631  -2.254   0.474  1.00  0.00    -0.508 OA
ATOM     19  H   UNL     1      13.197  -1.822  -0.334  1.00  0.00     0.293 HD
ENDBRANCH  15  18
BRANCH  17  20
ATOM     20  O   UNL     1      11.459  -6.463  -0.485  1.00  0.00    -0.507 OA
ATOM     21  H   UNL     1      11.226  -7.421  -0.252  1.00  0.00     0.293 HD
ENDBRANCH  17  20
ENDBRANCH   1  12
BRANCH   2  22
ATOM     22  O   UNL     1      11.635  -7.292   3.594  1.00  0.00    -0.502 OA
ATOM     23  H   UNL     1      12.168  -6.552   4.036  1.00  0.00     0.293 HD
ENDBRANCH   2  22
BRANCH   6  24
ATOM     24  O   UNL     1      12.192 -12.589   3.380  1.00  0.00    -0.507 OA
ATOM     25  H   UNL     1      11.446 -12.222   3.950  1.00  0.00     0.293 HD
ENDBRANCH   6  24
BRANCH   8  26
ATOM     26  O   UNL     1      14.641 -13.013  -0.728  1.00  0.00    -0.508 OA
ATOM     27  H   UNL     1      15.650 -13.066  -0.808  1.00  0.00     0.293 HD
ENDBRANCH   8  26
TORSDOF 6
ENDMDL
MODEL 3
REMARK VINA RESULT:    -6.164      1.495      6.598
REMARK INTER + INTRA:          -7.851
REMARK INTER:                  -7.592
REMARK INTRA:                  -0.260
REMARK UNBOUND:                -0.426
REMARK SMILES O=c1c(O)c(-c2ccc(O)cc2O)oc2cc(O)cc(O)c12
REMARK SMILES IDX 5 1 3 2 2 3 1 4 22 5 20 6 19 7 17 8 16 9 15 10 14 11 6 12
REMARK SMILES IDX 8 13 7 14 9 15 11 16 12 17 10 18 13 20 4 22 21 24 18 26
REMARK H PARENT 10 19 13 21 4 23 21 25 18 27
REMARK Flexibility Score: inf
ROOT
ATOM      1  C   UNL     1      12.985  -7.737   1.100  1.00  0.00     0.184 A 
ATOM      2  C   UNL     1      12.431  -8.053   2.351  1.00  0.00     0.208 A 
ATOM      3  C   UNL     1      12.411  -9.393   2.767  1.00  0.00     0.238 A 
ATOM      4  O   UNL     1      11.848  -9.678   3.855  1.00  0.00    -0.285 OA
ATOM      5  C   UNL     1      12.995 -10.393   1.951  1.00  0.00     0.111 A 
ATOM      6  C   UNL     1      13.070 -11.778   2.291  1.00  0.00     0.134 A 
ATOM      7  C   UNL     1      13.575 -12.693   1.358  1.00  0.00     0.093 A 
ATOM      8  C   UNL     1      14.065 -12.265   0.122  1.00  0.00     0.123 A 
ATOM      9  C   UNL     1      14.047 -10.910  -0.198  1.00  0.00     0.094 A 
ATOM     10  C   UNL     1      13.515  -9.978   0.696  1.00  0.00     0.146 A 
ATOM     11  O   UNL     1      13.497  -8.698   0.340  1.00  0.00    -0.451 OA
ENDROOT
BRANCH   1  12
ATOM     12  C   UNL     1      13.032  -6.348   0.599  1.00  0.00     0.063 A 
ATOM     13  C   UNL     1      12.272  -4.696  -1.014  1.00  0.00     0.047 A 
ATOM     14  C   UNL     1      12.257  -6.001  -0.519  1.00  0.00     0.020 A 
ATOM     15  C   UNL     1      13.054  -3.715  -0.390  1.00  0.00     0.119 A 
ATOM     16  C   UNL     1      13.812  -4.047   0.737  1.00  0.00     0.093 A 
ATOM     17  C   UNL     1      13.797  -5.354   1.245  1.00  0.00     0.130 A 
BRANCH  15  18
ATOM     18  O   UNL     1      13.081  -2.412  -0.878  1.00  0.00    -0.508 OA
ATOM     19  H   UNL     1      12.937  -2.211  -1.860  1.00  0.00     0.293 HD
ENDBRANCH  15  18
BRANCH  17  20
ATOM     20  O   UNL     1      14.518  -5.659   2.400  1.00  0.00    -0.507 OA
ATOM     21  H   UNL     1      15.347  -5.138   2.661  1.00  0.00     0.293 HD
ENDBRANCH  17  20
ENDBRANCH   1  12
BRANCH   2  22
ATOM     22  O   UNL     1      11.927  -7.038   3.169  1.00  0.00    -0.502 OA
ATOM     23  H   UNL     1      10.996  -7.072   3.565  1.00  0.00     0.293 HD
ENDBRANCH   2  22
BRANCH   6  24
ATOM     24  O   UNL     1      12.690 -12.302   3.531  1.00  0.00    -0.507 OA
ATOM     25  H   UNL     1      12.927 -11.900   4.424  1.00  0.00     0.293 HD
ENDBRANCH   6  24
BRANCH   8  26
ATOM     26  O   UNL     1      14.582 -13.179  -0.793  1.00  0.00    -0.508 OA
ATOM     27  H   UNL     1      14.371 -14.168  -0.730  1.00  0.00     0.293 HD
ENDBRANCH   8  26
TORSDOF 6
ENDMDL
MODEL 4
REMARK VINA RESULT:    -6.047      1.641      6.867
REMARK INTER + INTRA:          -7.711
REMARK INTER:                  -7.304
REMARK INTRA:                  -0.406
REMARK UNBOUND:                -0.426
REMARK SMILES O=c1c(O)c(-c2ccc(O)cc2O)oc2cc(O)cc(O)c12
REMARK SMILES IDX 5 1 3 2 2 3 1 4 22 5 20 6 19 7 17 8 16 9 15 10 14 11 6 12
REMARK SMILES IDX 8 13 7 14 9 15 11 16 12 17 10 18 13 20 4 22 21 24 18 26
REMARK H PARENT 10 19 13 21 4 23 21 25 18 27
REMARK Flexibility Score: inf
ROOT
ATOM      1  C   UNL     1      13.211  -8.245   1.470  1.00  0.00     0.184 A 
ATOM      2  C   UNL     1      13.965  -9.127   0.680  1.00  0.00     0.208 A 
ATOM      3  C   UNL     1      13.853 -10.507   0.905  1.00  0.00     0.238 A 
ATOM      4  O   UNL     1      14.586 -11.288   0.244  1.00  0.00    -0.285 OA
ATOM      5  C   UNL     1      12.946 -10.991   1.880  1.00  0.00     0.111 A 
ATOM      6  C   UNL     1      12.717 -12.372   2.163  1.00  0.00     0.134 A 
ATOM      7  C   UNL     1      11.874 -12.729   3.223  1.00  0.00     0.093 A 
ATOM      8  C   UNL     1      11.203 -11.758   3.969  1.00  0.00     0.123 A 
ATOM      9  C   UNL     1      11.376 -10.410   3.666  1.00  0.00     0.094 A 
ATOM     10  C   UNL     1      12.239 -10.020   2.639  1.00  0.00     0.146 A 
ATOM     11  O   UNL     1      12.392  -8.723   2.398  1.00  0.00    -0.451 OA
ENDROOT
BRANCH   1  12
ATOM     12  C   UNL     1      13.288  -6.780   1.289  1.00  0.00     0.063 A 
ATOM     13  C   UNL     1      14.495  -4.703   1.659  1.00  0.00     0.047 A 
ATOM     14  C   UNL     1      14.388  -6.087   1.818  1.00  0.00     0.020 A 
ATOM     15  C   UNL     1      13.509  -3.996   0.959  1.00  0.00     0.119 A 
ATOM     16  C   UNL     1      12.422  -4.683   0.410  1.00  0.00     0.093 A 
ATOM     17  C   UNL     1      12.310  -6.073   0.559  1.00  0.00     0.130 A 
BRANCH  15  18
ATOM     18  O   UNL     1      13.603  -2.617   0.799  1.00  0.00    -0.508 OA
ATOM     19  H   UNL     1      12.808  -2.009   0.962  1.00  0.00     0.293 HD
ENDBRANCH  15  18
BRANCH  17  20
ATOM     20  O   UNL     1      11.246  -6.752  -0.036  1.00  0.00    -0.507 OA
ATOM     21  H   UNL     1      11.054  -7.724   0.172  1.00  0.00     0.293 HD
ENDBRANCH  17  20
ENDBRANCH   1  12
BRANCH   2  22
ATOM     22  O   UNL     1      14.799  -8.627  -0.325  1.00  0.00    -0.502 OA
ATOM     23  H   UNL     1      15.360  -7.793  -0.200  1.00  0.00     0.293 HD
ENDBRANCH   2  22
BRANCH   6  24
ATOM     24  O   UNL     1      13.268 -13.424   1.425  1.00  0.00    -0.507 OA
ATOM     25  H   UNL     1      12.872 -13.806   0.581  1.00  0.00     0.293 HD
ENDBRANCH   6  24
BRANCH   8  26
ATOM     26  O   UNL     1      10.352 -12.123   5.011  1.00  0.00    -0.508 OA
ATOM     27  H   UNL     1       9.379 -11.838   5.024  1.00  0.00     0.293 HD
ENDBRANCH   8  26
TORSDOF 6
ENDMDL
MODEL 5
REMARK VINA RESULT:    -5.939     11.808     13.776
REMARK INTER + INTRA:          -7.581
REMARK INTER:                  -7.332
REMARK INTRA:                  -0.249
REMARK UNBOUND:                -0.426
REMARK SMILES O=c1c(O)c(-c2ccc(O)cc2O)oc2cc(O)cc(O)c12
REMARK SMILES IDX 5 1 3 2 2 3 1 4 22 5 20 6 19 7 17 8 16 9 15 10 14 11 6 12
REMARK SMILES IDX 8 13 7 14 9 15 11 16 12 17 10 18 13 20 4 22 21 24 18 26
REMARK H PARENT 10 19 13 21 4 23 21 25 18 27
REMARK Flexibility Score: inf
ROOT
ATOM      1  C   UNL     1      22.389 -12.727  -5.773  1.00  0.00     0.184 A 
ATOM      2  C   UNL     1      22.791 -11.939  -6.863  1.00  0.00     0.208 A 
ATOM      3  C   UNL     1      22.286 -12.234  -8.138  1.00  0.00     0.238 A 
ATOM      4  O   UNL     1      22.706 -11.571  -9.122  1.00  0.00    -0.285 OA
ATOM      5  C   UNL     1      21.342 -13.278  -8.298  1.00  0.00     0.111 A 
ATOM      6  C   UNL     1      20.731 -13.638  -9.538  1.00  0.00     0.134 A 
ATOM      7  C   UNL     1      19.891 -14.757  -9.595  1.00  0.00     0.093 A 
ATOM      8  C   UNL     1      19.592 -15.493  -8.446  1.00  0.00     0.123 A 
ATOM      9  C   UNL     1      20.140 -15.119  -7.222  1.00  0.00     0.094 A 
ATOM     10  C   UNL     1      21.010 -14.029  -7.139  1.00  0.00     0.146 A 
ATOM     11  O   UNL     1      21.528 -13.720  -5.955  1.00  0.00    -0.451 OA
ENDROOT
BRANCH   1  12
ATOM     12  C   UNL     1      22.889 -12.475  -4.405  1.00  0.00     0.063 A 
ATOM     13  C   UNL     1      24.779 -12.172  -2.908  1.00  0.00     0.047 A 
ATOM     14  C   UNL     1      24.274 -12.415  -4.187  1.00  0.00     0.020 A 
ATOM     15  C   UNL     1      23.906 -11.973  -1.832  1.00  0.00     0.119 A 
ATOM     16  C   UNL     1      22.524 -12.009  -2.044  1.00  0.00     0.093 A 
ATOM     17  C   UNL     1      22.008 -12.247  -3.327  1.00  0.00     0.130 A 
BRANCH  15  18
ATOM     18  O   UNL     1      24.398 -11.735  -0.552  1.00  0.00    -0.508 OA
ATOM     19  H   UNL     1      23.818 -11.857   0.270  1.00  0.00     0.293 HD
ENDBRANCH  15  18
BRANCH  17  20
ATOM     20  O   UNL     1      20.628 -12.231  -3.534  1.00  0.00    -0.507 OA
ATOM     21  H   UNL     1      20.130 -11.369  -3.720  1.00  0.00     0.293 HD
ENDBRANCH  17  20
ENDBRANCH   1  12
BRANCH   2  22
ATOM     22  O   UNL     1      23.667 -10.869  -6.666  1.00  0.00    -0.502 OA
ATOM     23  H   UNL     1      24.005 -10.296  -7.430  1.00  0.00     0.293 HD
ENDBRANCH   2  22
BRANCH   6  24
ATOM     24  O   UNL     1      20.891 -12.920 -10.727  1.00  0.00    -0.507 OA
ATOM     25  H   UNL     1      21.774 -12.739 -11.178  1.00  0.00     0.293 HD
ENDBRANCH   6  24
BRANCH   8  26
ATOM     26  O   UNL     1      18.742 -16.596  -8.508  1.00  0.00    -0.508 OA
ATOM     27  H   UNL     1      17.997 -16.652  -9.193  1.00  0.00     0.293 HD
ENDBRANCH   8  26
TORSDOF 6
ENDMDL
MODEL 6
REMARK VINA RESULT:    -5.936      2.298      6.491
REMARK INTER + INTRA:          -7.577
REMARK INTER:                  -7.182
REMARK INTRA:                  -0.394
REMARK UNBOUND:                -0.426
REMARK SMILES O=c1c(O)c(-c2ccc(O)cc2O)oc2cc(O)cc(O)c12
REMARK SMILES IDX 5 1 3 2 2 3 1 4 22 5 20 6 19 7 17 8 16 9 15 10 14 11 6 12
REMARK SMILES IDX 8 13 7 14 9 15 11 16 12 17 10 18 13 20 4 22 21 24 18 26
REMARK H PARENT 10 19 13 21 4 23 21 25 18 27
REMARK Flexibility Score: inf
ROOT
ATOM      1  C   UNL     1      12.488  -7.625   2.227  1.00  0.00     0.184 A 
ATOM      2  C   UNL     1      13.435  -7.616   1.190  1.00  0.00     0.208 A 
ATOM      3  C   UNL     1      13.901  -8.838   0.684  1.00  0.00     0.238 A 
ATOM      4  O   UNL     1      14.803  -8.823  -0.194  1.00  0.00    -0.285 OA
ATOM      5  C   UNL     1      13.375 -10.055   1.183  1.00  0.00     0.111 A 
ATOM      6  C   UNL     1      13.743 -11.352   0.714  1.00  0.00     0.134 A 
ATOM      7  C   UNL     1      13.235 -12.489   1.356  1.00  0.00     0.093 A 
ATOM      8  C   UNL     1      12.324 -12.375   2.409  1.00  0.00     0.123 A 
ATOM      9  C   UNL     1      11.917 -11.115   2.838  1.00  0.00     0.094 A 
ATOM     10  C   UNL     1      12.434  -9.962   2.243  1.00  0.00     0.146 A 
ATOM     11  O   UNL     1      12.035  -8.780   2.699  1.00  0.00    -0.451 OA
ENDROOT
BRANCH   1  12
ATOM     12  C   UNL     1      11.961  -6.374   2.810  1.00  0.00     0.063 A 
ATOM     13  C   UNL     1      12.354  -4.370   4.127  1.00  0.00     0.047 A 
ATOM     14  C   UNL     1      12.819  -5.562   3.567  1.00  0.00     0.020 A 
ATOM     15  C   UNL     1      11.028  -3.967   3.925  1.00  0.00     0.119 A 
ATOM     16  C   UNL     1      10.173  -4.759   3.153  1.00  0.00     0.093 A 
ATOM     17  C   UNL     1      10.633  -5.955   2.583  1.00  0.00     0.130 A 
BRANCH  15  18
ATOM     18  O   UNL     1      10.553  -2.783   4.482  1.00  0.00    -0.508 OA
ATOM     19  H   UNL     1      11.071  -2.290   5.201  1.00  0.00     0.293 HD
ENDBRANCH  15  18
BRANCH  17  20
ATOM     20  O   UNL     1       9.784  -6.710   1.773  1.00  0.00    -0.507 OA
ATOM     21  H   UNL     1       9.681  -6.516   0.784  1.00  0.00     0.293 HD
ENDBRANCH  17  20
ENDBRANCH   1  12
BRANCH   2  22
ATOM     22  O   UNL     1      13.884  -6.401   0.665  1.00  0.00    -0.502 OA
ATOM     23  H   UNL     1      13.605  -6.068  -0.250  1.00  0.00     0.293 HD
ENDBRANCH   2  22
BRANCH   6  24
ATOM     24  O   UNL     1      14.577 -11.581  -0.385  1.00  0.00    -0.507 OA
ATOM     25  H   UNL     1      14.888 -10.872  -1.031  1.00  0.00     0.293 HD
ENDBRANCH   6  24
BRANCH   8  26
ATOM     26  O   UNL     1      11.810 -13.511   3.031  1.00  0.00    -0.508 OA
ATOM     27  H   UNL     1      12.214 -13.875   3.886  1.00  0.00     0.293 HD
ENDBRANCH   8  26
TORSDOF 6
ENDMDL
MODEL 7
REMARK VINA RESULT:    -5.926      1.564      1.578
REMARK INTER + INTRA:          -7.565
REMARK INTER:                  -7.250
REMARK INTRA:                  -0.315
REMARK UNBOUND:                -0.426
REMARK SMILES O=c1c(O)c(-c2ccc(O)cc2O)oc2cc(O)cc(O)c12
REMARK SMILES IDX 5 1 3 2 2 3 1 4 22 5 20 6 19 7 17 8 16 9 15 10 14 11 6 12
REMARK SMILES IDX 8 13 7 14 9 15 11 16 12 17 10 18 13 20 4 22 21 24 18 26
REMARK H PARENT 10 19 13 21 4 23 21 25 18 27
REMARK Flexibility Score: inf
ROOT
ATOM      1  C   UNL     1      13.034  -8.171   2.302  1.00  0.00     0.184 A 
ATOM      2  C   UNL     1      14.358  -7.711   2.373  1.00  0.00     0.208 A 
ATOM      3  C   UNL     1      14.611  -6.340   2.223  1.00  0.00     0.238 A 
ATOM      4  O   UNL     1      15.805  -5.944   2.214  1.00  0.00    -0.285 OA
ATOM      5  C   UNL     1      13.531  -5.438   2.058  1.00  0.00     0.111 A 
ATOM      6  C   UNL     1      13.666  -4.021   1.939  1.00  0.00     0.134 A 
ATOM      7  C   UNL     1      12.535  -3.238   1.674  1.00  0.00     0.093 A 
ATOM      8  C   UNL     1      11.265  -3.814   1.585  1.00  0.00     0.123 A 
ATOM      9  C   UNL     1      11.115  -5.188   1.754  1.00  0.00     0.094 A 
ATOM     10  C   UNL     1      12.229  -6.000   1.982  1.00  0.00     0.146 A 
ATOM     11  O   UNL     1      12.042  -7.309   2.115  1.00  0.00    -0.451 OA
ENDROOT
BRANCH   1  12
ATOM     12  C   UNL     1      12.699  -9.603   2.445  1.00  0.00     0.063 A 
ATOM     13  C   UNL     1      11.646 -11.370   3.739  1.00  0.00     0.047 A 
ATOM     14  C   UNL     1      11.984 -10.025   3.576  1.00  0.00     0.020 A 
ATOM     15  C   UNL     1      12.007 -12.310   2.766  1.00  0.00     0.119 A 
ATOM     16  C   UNL     1      12.700 -11.895   1.625  1.00  0.00     0.093 A 
ATOM     17  C   UNL     1      13.038 -10.545   1.451  1.00  0.00     0.130 A 
BRANCH  15  18
ATOM     18  O   UNL     1      11.680 -13.654   2.920  1.00  0.00    -0.508 OA
ATOM     19  H   UNL     1      12.263 -14.389   2.536  1.00  0.00     0.293 HD
ENDBRANCH  15  18
BRANCH  17  20
ATOM     20  O   UNL     1      13.686 -10.136   0.284  1.00  0.00    -0.507 OA
ATOM     21  H   UNL     1      13.500 -10.577  -0.609  1.00  0.00     0.293 HD
ENDBRANCH  17  20
ENDBRANCH   1  12
BRANCH   2  22
ATOM     22  O   UNL     1      15.399  -8.614   2.608  1.00  0.00    -0.502 OA
ATOM     23  H   UNL     1      15.307  -9.394   3.247  1.00  0.00     0.293 HD
ENDBRANCH   2  22
BRANCH   6  24
ATOM     24  O   UNL     1      14.874  -3.334   2.098  1.00  0.00    -0.507 OA
ATOM     25  H   UNL     1      15.638  -3.636   2.680  1.00  0.00     0.293 HD
ENDBRANCH   6  24
BRANCH   8  26
ATOM     26  O   UNL     1      10.143  -3.027   1.338  1.00  0.00    -0.508 OA
ATOM     27  H   UNL     1       9.682  -3.030   0.436  1.00  0.00     0.293 HD
ENDBRANCH   8  26
TORSDOF 6
ENDMDL
MODEL 8
REMARK VINA RESULT:    -5.808     12.191     14.036
REMARK INTER + INTRA:          -7.423
REMARK INTER:                  -7.009
REMARK INTRA:                  -0.414
REMARK UNBOUND:                -0.426
REMARK SMILES O=c1c(O)c(-c2ccc(O)cc2O)oc2cc(O)cc(O)c12
REMARK SMILES IDX 5 1 3 2 2 3 1 4 22 5 20 6 19 7 17 8 16 9 15 10 14 11 6 12
REMARK SMILES IDX 8 13 7 14 9 15 11 16 12 17 10 18 13 20 4 22 21 24 18 26
REMARK H PARENT 10 19 13 21 4 23 21 25 18 27
REMARK Flexibility Score: inf
ROOT
ATOM      1  C   UNL     1      21.886 -13.861  -7.217  1.00  0.00     0.184 A 
ATOM      2  C   UNL     1      23.190 -13.346  -7.307  1.00  0.00     0.208 A 
ATOM      3  C   UNL     1      23.755 -12.725  -6.183  1.00  0.00     0.238 A 
ATOM      4  O   UNL     1      24.894 -12.202  -6.293  1.00  0.00    -0.285 OA
ATOM      5  C   UNL     1      23.031 -12.675  -4.967  1.00  0.00     0.111 A 
ATOM      6  C   UNL     1      23.522 -12.107  -3.752  1.00  0.00     0.134 A 
ATOM      7  C   UNL     1      22.676 -12.019  -2.639  1.00  0.00     0.093 A 
ATOM      8  C   UNL     1      21.378 -12.532  -2.678  1.00  0.00     0.123 A 
ATOM      9  C   UNL     1      20.908 -13.137  -3.841  1.00  0.00     0.094 A 
ATOM     10  C   UNL     1      21.714 -13.207  -4.979  1.00  0.00     0.146 A 
ATOM     11  O   UNL     1      21.217 -13.772  -6.074  1.00  0.00    -0.451 OA
ENDROOT
BRANCH   1  12
ATOM     12  C   UNL     1      21.230 -14.521  -8.364  1.00  0.00     0.063 A 
ATOM     13  C   UNL     1      20.758 -16.564  -9.592  1.00  0.00     0.047 A 
ATOM     14  C   UNL     1      21.371 -15.908  -8.523  1.00  0.00     0.020 A 
ATOM     15  C   UNL     1      19.985 -15.843 -10.511  1.00  0.00     0.119 A 
ATOM     16  C   UNL     1      19.821 -14.464 -10.348  1.00  0.00     0.093 A 
ATOM     17  C   UNL     1      20.428 -13.798  -9.272  1.00  0.00     0.130 A 
BRANCH  15  18
ATOM     18  O   UNL     1      19.373 -16.486 -11.584  1.00  0.00    -0.508 OA
ATOM     19  H   UNL     1      19.831 -16.565 -12.485  1.00  0.00     0.293 HD
ENDBRANCH  15  18
BRANCH  17  20
ATOM     20  O   UNL     1      20.215 -12.431  -9.093  1.00  0.00    -0.507 OA
ATOM     21  H   UNL     1      19.418 -12.081  -8.576  1.00  0.00     0.293 HD
ENDBRANCH  17  20
ENDBRANCH   1  12
BRANCH   2  22
ATOM     22  O   UNL     1      23.910 -13.474  -8.498  1.00  0.00    -0.502 OA
ATOM     23  H   UNL     1      23.460 -13.645  -9.389  1.00  0.00     0.293 HD
ENDBRANCH   2  22
BRANCH   6  24
ATOM     24  O   UNL     1      24.830 -11.644  -3.576  1.00  0.00    -0.507 OA
ATOM     25  H   UNL     1      25.652 -12.226  -3.565  1.00  0.00     0.293 HD
ENDBRANCH   6  24
BRANCH   8  26
ATOM     26  O   UNL     1      20.549 -12.456  -1.561  1.00  0.00    -0.508 OA
ATOM     27  H   UNL     1      20.402 -11.582  -1.069  1.00  0.00     0.293 HD
ENDBRANCH   8  26
TORSDOF 6
ENDMDL
MODEL 9
REMARK VINA RESULT:    -5.799     12.423     14.466
REMARK INTER + INTRA:          -7.412
REMARK INTER:                  -7.037
REMARK INTRA:                  -0.374
REMARK UNBOUND:                -0.426
REMARK SMILES O=c1c(O)c(-c2ccc(O)cc2O)oc2cc(O)cc(O)c12
REMARK SMILES IDX 5 1 3 2 2 3 1 4 22 5 20 6 19 7 17 8 16 9 15 10 14 11 6 12
REMARK SMILES IDX 8 13 7 14 9 15 11 16 12 17 10 18 13 20 4 22 21 24 18 26
REMARK H PARENT 10 19 13 21 4 23 21 25 18 27
REMARK Flexibility Score: inf
ROOT
ATOM      1  C   UNL     1      21.655 -13.963  -6.930  1.00  0.00     0.184 A 
ATOM      2  C   UNL     1      22.740 -14.546  -7.603  1.00  0.00     0.208 A 
ATOM      3  C   UNL     1      22.542 -15.063  -8.892  1.00  0.00     0.238 A 
ATOM      4  O   UNL     1      23.499 -15.650  -9.460  1.00  0.00    -0.285 OA
ATOM      5  C   UNL     1      21.275 -14.941  -9.513  1.00  0.00     0.111 A 
ATOM      6  C   UNL     1      20.971 -15.391 -10.834  1.00  0.00     0.134 A 
ATOM      7  C   UNL     1      19.654 -15.313 -11.305  1.00  0.00     0.093 A 
ATOM      8  C   UNL     1      18.643 -14.745 -10.526  1.00  0.00     0.123 A 
ATOM      9  C   UNL     1      18.940 -14.254  -9.257  1.00  0.00     0.094 A 
ATOM     10  C   UNL     1      20.236 -14.351  -8.746  1.00  0.00     0.146 A 
ATOM     11  O   UNL     1      20.470 -13.889  -7.522  1.00  0.00    -0.451 OA
ENDROOT
BRANCH   1  12
ATOM     12  C   UNL     1      21.794 -13.405  -5.568  1.00  0.00     0.063 A 
ATOM     13  C   UNL     1      22.771 -11.733  -4.099  1.00  0.00     0.047 A 
ATOM     14  C   UNL     1      22.622 -12.289  -5.371  1.00  0.00     0.020 A 
ATOM     15  C   UNL     1      22.082 -12.279  -3.008  1.00  0.00     0.119 A 
ATOM     16  C   UNL     1      21.239 -13.377  -3.199  1.00  0.00     0.093 A 
ATOM     17  C   UNL     1      21.079 -13.937  -4.475  1.00  0.00     0.130 A 
BRANCH  15  18
ATOM     18  O   UNL     1      22.227 -11.736  -1.734  1.00  0.00    -0.508 OA
ATOM     19  H   UNL     1      23.128 -11.428  -1.389  1.00  0.00     0.293 HD
ENDBRANCH  15  18
BRANCH  17  20
ATOM     20  O   UNL     1      20.196 -15.001  -4.661  1.00  0.00    -0.507 OA
ATOM     21  H   UNL     1      20.332 -15.891  -4.198  1.00  0.00     0.293 HD
ENDBRANCH  17  20
ENDBRANCH   1  12
BRANCH   2  22
ATOM     22  O   UNL     1      23.999 -14.589  -6.996  1.00  0.00    -0.502 OA
ATOM     23  H   UNL     1      24.155 -15.036  -6.101  1.00  0.00     0.293 HD
ENDBRANCH   2  22
BRANCH   6  24
ATOM     24  O   UNL     1      21.921 -15.895 -11.728  1.00  0.00    -0.507 OA
ATOM     25  H   UNL     1      21.978 -15.655 -12.705  1.00  0.00     0.293 HD
ENDBRANCH   6  24
BRANCH   8  26
ATOM     26  O   UNL     1      17.339 -14.655 -11.008  1.00  0.00    -0.508 OA
ATOM     27  H   UNL     1      16.781 -13.820 -10.874  1.00  0.00     0.293 HD
ENDBRANCH   8  26
TORSDOF 6
ENDMDL
