MODEL 1
REMARK VINA RESULT:    -3.080      0.000      0.000
REMARK INTER + INTRA:          -6.341
REMARK INTER:                  -4.881
REMARK INTRA:                  -1.459
REMARK UNBOUND:                -1.459
REMARK SMILES CCCCCCCCCCCC(=O)[O-]
REMARK SMILES IDX 7 1 8 2 9 3 10 4 11 5 12 6 13 7 14 8 6 9 5 10 4 11 3 12 2 13
REMARK SMILES IDX 1 14
REMARK H PARENT
REMARK Flexibility Score: inf
ROOT
ATOM      1  C   UNL     1       5.562   9.771   8.632  1.00  0.00     0.000 C 
ENDROOT
BRANCH   1   2
ATOM      2  C   UNL     1       6.870   9.025   8.329  1.00  0.00     0.000 C 
BRANCH   2   3
ATOM      3  C   UNL     1       7.568   9.546   7.061  1.00  0.00     0.000 C 
BRANCH   3   4
ATOM      4  C   UNL     1       9.100   9.577   7.200  1.00  0.00     0.006 C 
BRANCH   4   5
ATOM      5  C   UNL     1       9.790  10.005   5.898  1.00  0.00     0.053 C 
BRANCH   5   6
ATOM      6  C   UNL     1      10.741   8.960   5.401  1.00  0.00     0.041 C 
ATOM      7  O   UNL     1      11.867   9.293   4.947  1.00  0.00    -0.550 OA
ATOM      8  O   UNL     1      10.396   7.616   5.468  1.00  0.00    -0.550 OA
ENDBRANCH   5   6
ENDBRANCH   4   5
ENDBRANCH   3   4
ENDBRANCH   2   3
ENDBRANCH   1   2
BRANCH   1   9
ATOM      9  C   UNL     1       5.249  10.795   7.535  1.00  0.00     0.000 C 
BRANCH   9  10
ATOM     10  C   UNL     1       5.092  12.206   8.125  1.00  0.00    -0.000 C 
BRANCH  10  11
ATOM     11  C   UNL     1       6.166  13.181   7.598  1.00  0.00    -0.000 C 
BRANCH  11  12
ATOM     12  C   UNL     1       7.538  13.008   8.273  1.00  0.00    -0.000 C 
BRANCH  12  13
ATOM     13  C   UNL     1       7.436  12.795   9.789  1.00  0.00    -0.003 C 
ATOM     14  C   UNL     1       8.422  11.731  10.264  1.00  0.00     0.004 C 
ENDBRANCH  12  13
ENDBRANCH  11  12
ENDBRANCH  10  11
ENDBRANCH   9  10
ENDBRANCH   1   9
TORSDOF 10
ENDMDL
MODEL 2
REMARK VINA RESULT:    -3.024      1.020      2.746
REMARK INTER + INTRA:          -6.252
REMARK INTER:                  -5.039
REMARK INTRA:                  -1.212
REMARK UNBOUND:                -1.459
REMARK SMILES CCCCCCCCCCCC(=O)[O-]
REMARK SMILES IDX 7 1 8 2 9 3 10 4 11 5 12 6 13 7 14 8 6 9 5 10 4 11 3 12 2 13
REMARK SMILES IDX 1 14
REMARK H PARENT
REMARK Flexibility Score: inf
ROOT
ATOM      1  C   UNL     1       7.698  12.483   9.387  1.00  0.00     0.000 C 
ENDROOT
BRANCH   1   2
ATOM      2  C   UNL     1       8.583  11.228   9.414  1.00  0.00     0.000 C 
BRANCH   2   3
ATOM      3  C   UNL     1       9.099  10.837   8.019  1.00  0.00     0.000 C 
BRANCH   3   4
ATOM      4  C   UNL     1       8.937   9.336   7.727  1.00  0.00     0.006 C 
BRANCH   4   5
ATOM      5  C   UNL     1      10.189   8.735   7.075  1.00  0.00     0.053 C 
BRANCH   5   6
ATOM      6  C   UNL     1      10.320   9.141   5.639  1.00  0.00     0.041 C 
ATOM      7  O   UNL     1      11.458   9.356   5.143  1.00  0.00    -0.550 OA
ATOM      8  O   UNL     1       9.190   9.250   4.840  1.00  0.00    -0.550 OA
ENDBRANCH   5   6
ENDBRANCH   4   5
ENDBRANCH   3   4
ENDBRANCH   2   3
ENDBRANCH   1   2
BRANCH   1   9
ATOM      9  C   UNL     1       7.648  13.088   7.979  1.00  0.00     0.000 C 
BRANCH   9  10
ATOM     10  C   UNL     1       6.197  13.261   7.503  1.00  0.00    -0.000 C 
BRANCH  10  11
ATOM     11  C   UNL     1       5.207  12.413   8.329  1.00  0.00    -0.000 C 
BRANCH  11  12
ATOM     12  C   UNL     1       4.757  11.125   7.618  1.00  0.00    -0.000 C 
BRANCH  12  13
ATOM     13  C   UNL     1       5.278   9.853   8.300  1.00  0.00    -0.003 C 
ATOM     14  C   UNL     1       5.340   8.686   7.319  1.00  0.00     0.004 C 
ENDBRANCH  12  13
ENDBRANCH  11  12
ENDBRANCH  10  11
ENDBRANCH   9  10
ENDBRANCH   1   9
TORSDOF 10
ENDMDL
MODEL 3
REMARK VINA RESULT:    -3.004      2.653      5.199
REMARK INTER + INTRA:          -6.220
REMARK INTER:                  -5.317
REMARK INTRA:                  -0.903
REMARK UNBOUND:                -1.459
REMARK SMILES CCCCCCCCCCCC(=O)[O-]
REMARK SMILES IDX 7 1 8 2 9 3 10 4 11 5 12 6 13 7 14 8 6 9 5 10 4 11 3 12 2 13
REMARK SMILES IDX 1 14
REMARK H PARENT
REMARK Flexibility Score: inf
ROOT
ATOM      1  C   UNL     1       6.680   9.762   8.831  1.00  0.00     0.000 C 
ENDROOT
BRANCH   1   2
ATOM      2  C   UNL     1       5.606   9.736   7.733  1.00  0.00     0.000 C 
BRANCH   2   3
ATOM      3  C   UNL     1       4.836  11.063   7.627  1.00  0.00     0.000 C 
BRANCH   3   4
ATOM      4  C   UNL     1       5.469  12.184   8.467  1.00  0.00     0.006 C 
BRANCH   4   5
ATOM      5  C   UNL     1       6.199  13.217   7.598  1.00  0.00     0.053 C 
BRANCH   5   6
ATOM      6  C   UNL     1       7.641  13.351   7.982  1.00  0.00     0.041 C 
ATOM      7  O   UNL     1       8.032  12.971   9.117  1.00  0.00    -0.550 OA
ATOM      8  O   UNL     1       8.558  13.865   7.074  1.00  0.00    -0.550 OA
ENDBRANCH   5   6
ENDBRANCH   4   5
ENDBRANCH   3   4
ENDBRANCH   2   3
ENDBRANCH   1   2
BRANCH   1   9
ATOM      9  C   UNL     1       8.076   9.539   8.236  1.00  0.00     0.000 C 
BRANCH   9  10
ATOM     10  C   UNL     1       8.122   9.965   6.761  1.00  0.00    -0.000 C 
BRANCH  10  11
ATOM     11  C   UNL     1       9.563  10.011   6.211  1.00  0.00    -0.000 C 
BRANCH  11  12
ATOM     12  C   UNL     1       9.911   8.826   5.295  1.00  0.00    -0.000 C 
BRANCH  12  13
ATOM     13  C   UNL     1      11.299   8.236   5.581  1.00  0.00    -0.003 C 
ATOM     14  C   UNL     1      12.348   8.809   4.633  1.00  0.00     0.004 C 
ENDBRANCH  12  13
ENDBRANCH  11  12
ENDBRANCH  10  11
ENDBRANCH   9  10
ENDBRANCH   1   9
TORSDOF 10
ENDMDL
MODEL 4
REMARK VINA RESULT:    -2.958      0.947      2.859
REMARK INTER + INTRA:          -6.147
REMARK INTER:                  -5.156
REMARK INTRA:                  -0.991
REMARK UNBOUND:                -1.459
REMARK SMILES CCCCCCCCCCCC(=O)[O-]
REMARK SMILES IDX 7 1 8 2 9 3 10 4 11 5 12 6 13 7 14 8 6 9 5 10 4 11 3 12 2 13
REMARK SMILES IDX 1 14
REMARK H PARENT
REMARK Flexibility Score: inf
ROOT
ATOM      1  C   UNL     1       8.787  11.442   9.739  1.00  0.00     0.000 C 
ENDROOT
BRANCH   1   2
ATOM      2  C   UNL     1       9.207  10.957   8.344  1.00  0.00     0.000 C 
BRANCH   2   3
ATOM      3  C   UNL     1       8.775   9.507   8.066  1.00  0.00     0.000 C 
BRANCH   3   4
ATOM      4  C   UNL     1       8.676   9.196   6.563  1.00  0.00     0.006 C 
BRANCH   4   5
ATOM      5  C   UNL     1       9.843   9.799   5.769  1.00  0.00     0.053 C 
BRANCH   5   6
ATOM      6  C   UNL     1      10.906   8.783   5.481  1.00  0.00     0.041 C 
ATOM      7  O   UNL     1      10.720   7.572   5.773  1.00  0.00    -0.550 OA
ATOM      8  O   UNL     1      12.088   9.168   4.862  1.00  0.00    -0.550 OA
ENDBRANCH   5   6
ENDBRANCH   4   5
ENDBRANCH   3   4
ENDBRANCH   2   3
ENDBRANCH   1   2
BRANCH   1   9
ATOM      9  C   UNL     1       7.613  12.424   9.646  1.00  0.00     0.000 C 
BRANCH   9  10
ATOM     10  C   UNL     1       7.442  12.947   8.212  1.00  0.00    -0.000 C 
BRANCH  10  11
ATOM     11  C   UNL     1       5.999  12.768   7.693  1.00  0.00    -0.000 C 
BRANCH  11  12
ATOM     12  C   UNL     1       5.550  11.298   7.617  1.00  0.00    -0.000 C 
BRANCH  12  13
ATOM     13  C   UNL     1       4.294  11.014   8.450  1.00  0.00    -0.003 C 
ATOM     14  C   UNL     1       3.261  10.233   7.643  1.00  0.00     0.004 C 
ENDBRANCH  12  13
ENDBRANCH  11  12
ENDBRANCH  10  11
ENDBRANCH   9  10
ENDBRANCH   1   9
TORSDOF 10
ENDMDL
MODEL 5
REMARK VINA RESULT:    -2.916      2.431      3.094
REMARK INTER + INTRA:          -6.080
REMARK INTER:                  -5.122
REMARK INTRA:                  -0.958
REMARK UNBOUND:                -1.459
REMARK SMILES CCCCCCCCCCCC(=O)[O-]
REMARK SMILES IDX 7 1 8 2 9 3 10 4 11 5 12 6 13 7 14 8 6 9 5 10 4 11 3 12 2 13
REMARK SMILES IDX 1 14
REMARK H PARENT
REMARK Flexibility Score: inf
ROOT
ATOM      1  C   UNL     1       4.672   9.943   7.615  1.00  0.00     0.000 C 
ENDROOT
BRANCH   1   2
ATOM      2  C   UNL     1       6.051   9.534   8.156  1.00  0.00     0.000 C 
BRANCH   2   3
ATOM      3  C   UNL     1       6.909   8.810   7.105  1.00  0.00     0.000 C 
BRANCH   3   4
ATOM      4  C   UNL     1       8.148   9.622   6.693  1.00  0.00     0.006 C 
BRANCH   4   5
ATOM      5  C   UNL     1       9.111   9.844   7.868  1.00  0.00     0.053 C 
BRANCH   5   6
ATOM      6  C   UNL     1       9.229  11.295   8.225  1.00  0.00     0.041 C 
ATOM      7  O   UNL     1       9.211  11.652   9.433  1.00  0.00    -0.550 OA
ATOM      8  O   UNL     1       9.390  12.247   7.227  1.00  0.00    -0.550 OA
ENDBRANCH   5   6
ENDBRANCH   4   5
ENDBRANCH   3   4
ENDBRANCH   2   3
ENDBRANCH   1   2
BRANCH   1   9
ATOM      9  C   UNL     1       4.495  11.465   7.665  1.00  0.00     0.000 C 
BRANCH   9  10
ATOM     10  C   UNL     1       5.737  12.147   8.260  1.00  0.00    -0.000 C 
BRANCH  10  11
ATOM     11  C   UNL     1       6.065  13.481   7.557  1.00  0.00    -0.000 C 
BRANCH  11  12
ATOM     12  C   UNL     1       4.846  14.404   7.390  1.00  0.00    -0.000 C 
BRANCH  12  13
ATOM     13  C   UNL     1       4.493  15.166   8.674  1.00  0.00    -0.003 C 
ATOM     14  C   UNL     1       5.748  15.686   9.369  1.00  0.00     0.004 C 
ENDBRANCH  12  13
ENDBRANCH  11  12
ENDBRANCH  10  11
ENDBRANCH   9  10
ENDBRANCH   1   9
TORSDOF 10
ENDMDL
MODEL 6
REMARK VINA RESULT:    -2.883      1.096      1.966
REMARK INTER + INTRA:          -6.028
REMARK INTER:                  -4.841
REMARK INTRA:                  -1.187
REMARK UNBOUND:                -1.459
REMARK SMILES CCCCCCCCCCCC(=O)[O-]
REMARK SMILES IDX 7 1 8 2 9 3 10 4 11 5 12 6 13 7 14 8 6 9 5 10 4 11 3 12 2 13
REMARK SMILES IDX 1 14
REMARK H PARENT
REMARK Flexibility Score: inf
ROOT
ATOM      1  C   UNL     1       5.853  11.779   7.855  1.00  0.00     0.000 C 
ENDROOT
BRANCH   1   2
ATOM      2  C   UNL     1       6.790  10.590   7.596  1.00  0.00     0.000 C 
BRANCH   2   3
ATOM      3  C   UNL     1       8.265  11.013   7.486  1.00  0.00     0.000 C 
BRANCH   3   4
ATOM      4  C   UNL     1       9.201   9.825   7.206  1.00  0.00     0.006 C 
BRANCH   4   5
ATOM      5  C   UNL     1       9.868   9.926   5.828  1.00  0.00     0.053 C 
BRANCH   5   6
ATOM      6  C   UNL     1      11.002   8.956   5.684  1.00  0.00     0.041 C 
ATOM      7  O   UNL     1      11.936   9.190   4.873  1.00  0.00    -0.550 OA
ATOM      8  O   UNL     1      11.042   7.811   6.468  1.00  0.00    -0.550 OA
ENDBRANCH   5   6
ENDBRANCH   4   5
ENDBRANCH   3   4
ENDBRANCH   2   3
ENDBRANCH   1   2
BRANCH   1   9
ATOM      9  C   UNL     1       6.651  13.074   8.047  1.00  0.00     0.000 C 
BRANCH   9  10
ATOM     10  C   UNL     1       6.441  13.649   9.457  1.00  0.00    -0.000 C 
BRANCH  10  11
ATOM     11  C   UNL     1       7.511  13.154  10.454  1.00  0.00    -0.000 C 
BRANCH  11  12
ATOM     12  C   UNL     1       7.082  11.908  11.248  1.00  0.00    -0.000 C 
BRANCH  12  13
ATOM     13  C   UNL     1       8.162  10.819  11.278  1.00  0.00    -0.003 C 
ATOM     14  C   UNL     1       9.543  11.403  10.995  1.00  0.00     0.004 C 
ENDBRANCH  12  13
ENDBRANCH  11  12
ENDBRANCH  10  11
ENDBRANCH   9  10
ENDBRANCH   1   9
TORSDOF 10
ENDMDL
MODEL 7
REMARK VINA RESULT:    -2.863      1.847      2.511
REMARK INTER + INTRA:          -5.996
REMARK INTER:                  -4.653
REMARK INTRA:                  -1.343
REMARK UNBOUND:                -1.459
REMARK SMILES CCCCCCCCCCCC(=O)[O-]
REMARK SMILES IDX 7 1 8 2 9 3 10 4 11 5 12 6 13 7 14 8 6 9 5 10 4 11 3 12 2 13
REMARK SMILES IDX 1 14
REMARK H PARENT
REMARK Flexibility Score: inf
ROOT
ATOM      1  C   UNL     1       4.782  10.979   7.509  1.00  0.00     0.000 C 
ENDROOT
BRANCH   1   2
ATOM      2  C   UNL     1       5.044   9.802   8.461  1.00  0.00     0.000 C 
BRANCH   2   3
ATOM      3  C   UNL     1       6.535   9.628   8.791  1.00  0.00     0.000 C 
BRANCH   3   4
ATOM      4  C   UNL     1       7.449   9.973   7.603  1.00  0.00     0.006 C 
BRANCH   4   5
ATOM      5  C   UNL     1       8.688  10.766   8.037  1.00  0.00     0.053 C 
BRANCH   5   6
ATOM      6  C   UNL     1       9.337  11.464   6.880  1.00  0.00     0.041 C 
ATOM      7  O   UNL     1       9.709  10.808   5.872  1.00  0.00    -0.550 OA
ATOM      8  O   UNL     1       9.502  12.843   6.903  1.00  0.00    -0.550 OA
ENDBRANCH   5   6
ENDBRANCH   4   5
ENDBRANCH   3   4
ENDBRANCH   2   3
ENDBRANCH   1   2
BRANCH   1   9
ATOM      9  C   UNL     1       4.769  12.309   8.273  1.00  0.00     0.000 C 
BRANCH   9  10
ATOM     10  C   UNL     1       5.698  13.337   7.609  1.00  0.00    -0.000 C 
BRANCH  10  11
ATOM     11  C   UNL     1       6.665  13.989   8.620  1.00  0.00    -0.000 C 
BRANCH  11  12
ATOM     12  C   UNL     1       6.413  13.562  10.077  1.00  0.00    -0.000 C 
BRANCH  12  13
ATOM     13  C   UNL     1       7.621  12.860  10.711  1.00  0.00    -0.003 C 
ATOM     14  C   UNL     1       8.117  13.617  11.939  1.00  0.00     0.004 C 
ENDBRANCH  12  13
ENDBRANCH  11  12
ENDBRANCH  10  11
ENDBRANCH   9  10
ENDBRANCH   1   9
TORSDOF 10
ENDMDL
MODEL 8
REMARK VINA RESULT:    -2.845      3.116      5.087
REMARK INTER + INTRA:          -5.967
REMARK INTER:                  -4.685
REMARK INTRA:                  -1.282
REMARK UNBOUND:                -1.459
REMARK SMILES CCCCCCCCCCCC(=O)[O-]
REMARK SMILES IDX 7 1 8 2 9 3 10 4 11 5 12 6 13 7 14 8 6 9 5 10 4 11 3 12 2 13
REMARK SMILES IDX 1 14
REMARK H PARENT
REMARK Flexibility Score: inf
ROOT
ATOM      1  C   UNL     1       4.257  11.516   7.896  1.00  0.00     0.000 C 
ENDROOT
BRANCH   1   2
ATOM      2  C   UNL     1       5.246  12.633   7.528  1.00  0.00     0.000 C 
BRANCH   2   3
ATOM      3  C   UNL     1       4.944  13.954   8.254  1.00  0.00     0.000 C 
BRANCH   3   4
ATOM      4  C   UNL     1       6.071  14.374   9.212  1.00  0.00     0.006 C 
BRANCH   4   5
ATOM      5  C   UNL     1       7.300  13.463   9.096  1.00  0.00     0.053 C 
BRANCH   5   6
ATOM      6  C   UNL     1       7.572  12.727  10.373  1.00  0.00     0.041 C 
ATOM      7  O   UNL     1       6.633  12.151  10.983  1.00  0.00    -0.550 OA
ATOM      8  O   UNL     1       8.866  12.651  10.870  1.00  0.00    -0.550 OA
ENDBRANCH   5   6
ENDBRANCH   4   5
ENDBRANCH   3   4
ENDBRANCH   2   3
ENDBRANCH   1   2
BRANCH   1   9
ATOM      9  C   UNL     1       4.943  10.145   7.860  1.00  0.00     0.000 C 
BRANCH   9  10
ATOM     10  C   UNL     1       6.426  10.278   7.480  1.00  0.00    -0.000 C 
BRANCH  10  11
ATOM     11  C   UNL     1       7.356   9.616   8.518  1.00  0.00    -0.000 C 
BRANCH  11  12
ATOM     12  C   UNL     1       8.849   9.895   8.274  1.00  0.00    -0.000 C 
BRANCH  12  13
ATOM     13  C   UNL     1       9.095  10.814   7.069  1.00  0.00    -0.003 C 
ATOM     14  C   UNL     1       9.752  10.053   5.921  1.00  0.00     0.004 C 
ENDBRANCH  12  13
ENDBRANCH  11  12
ENDBRANCH  10  11
ENDBRANCH   9  10
ENDBRANCH   1   9
TORSDOF 10
ENDMDL
MODEL 9
REMARK VINA RESULT:    -2.836      3.479      5.667
REMARK INTER + INTRA:          -5.953
REMARK INTER:                  -4.681
REMARK INTRA:                  -1.272
REMARK UNBOUND:                -1.459
REMARK SMILES CCCCCCCCCCCC(=O)[O-]
REMARK SMILES IDX 7 1 8 2 9 3 10 4 11 5 12 6 13 7 14 8 6 9 5 10 4 11 3 12 2 13
REMARK SMILES IDX 1 14
REMARK H PARENT
REMARK Flexibility Score: inf
ROOT
ATOM      1  C   UNL     1       7.391  10.298   8.730  1.00  0.00     0.000 C 
ENDROOT
BRANCH   1   2
ATOM      2  C   UNL     1       6.528  10.790   7.558  1.00  0.00     0.000 C 
BRANCH   2   3
ATOM      3  C   UNL     1       5.650  11.995   7.935  1.00  0.00     0.000 C 
BRANCH   3   4
ATOM      4  C   UNL     1       6.401  13.332   7.823  1.00  0.00     0.006 C 
BRANCH   4   5
ATOM      5  C   UNL     1       6.266  14.180   9.095  1.00  0.00     0.053 C 
BRANCH   5   6
ATOM      6  C   UNL     1       6.817  13.475  10.297  1.00  0.00     0.041 C 
ATOM      7  O   UNL     1       8.047  13.215  10.370  1.00  0.00    -0.550 OA
ATOM      8  O   UNL     1       5.977  13.134  11.349  1.00  0.00    -0.550 OA
ENDBRANCH   5   6
ENDBRANCH   4   5
ENDBRANCH   3   4
ENDBRANCH   2   3
ENDBRANCH   1   2
BRANCH   1   9
ATOM      9  C   UNL     1       8.872  10.245   8.334  1.00  0.00     0.000 C 
BRANCH   9  10
ATOM     10  C   UNL     1       9.126  11.035   7.041  1.00  0.00    -0.000 C 
BRANCH  10  11
ATOM     11  C   UNL     1       9.799  10.173   5.952  1.00  0.00    -0.000 C 
BRANCH  11  12
ATOM     12  C   UNL     1       9.577   8.662   6.140  1.00  0.00    -0.000 C 
BRANCH  12  13
ATOM     13  C   UNL     1       8.472   8.104   5.233  1.00  0.00    -0.003 C 
ATOM     14  C   UNL     1       7.338   7.498   6.055  1.00  0.00     0.004 C 
ENDBRANCH  12  13
ENDBRANCH  11  12
ENDBRANCH  10  11
ENDBRANCH   9  10
ENDBRANCH   1   9
TORSDOF 10
ENDMDL
