MODEL 1
REMARK VINA RESULT:    17.297      0.000      0.000
REMARK INTER + INTRA:          37.011
REMARK INTER:                  37.522
REMARK INTRA:                  -0.511
REMARK UNBOUND:                -0.511
REMARK SMILES CCCCCCCCCCCCCCCCCCCCCC(=O)[O-]
REMARK SMILES IDX 12 1 11 2 10 3 9 4 8 5 7 6 6 7 5 8 4 9 3 10 2 11 1 12 13 13
REMARK SMILES IDX 14 14 15 15 16 16 17 17 18 18 19 19 20 20 21 21 22 22 23 23
REMARK SMILES IDX 24 24
REMARK H PARENT
REMARK Flexibility Score: inf
ROOT
ATOM      1  C   UNL     1       1.883  -1.248  10.369  1.00  0.00     0.000 C 
ENDROOT
BRANCH   1   2
ATOM      2  C   UNL     1       2.729  -2.414   9.832  1.00  0.00     0.000 C 
BRANCH   2   3
ATOM      3  C   UNL     1       1.954  -3.744   9.796  1.00  0.00     0.000 C 
BRANCH   3   4
ATOM      4  C   UNL     1       2.790  -4.995  10.136  1.00  0.00    -0.000 C 
BRANCH   4   5
ATOM      5  C   UNL     1       2.382  -5.725  11.429  1.00  0.00    -0.000 C 
BRANCH   5   6
ATOM      6  C   UNL     1       1.344  -6.832  11.189  1.00  0.00    -0.000 C 
BRANCH   6   7
ATOM      7  C   UNL     1       1.988  -8.221  11.314  1.00  0.00    -0.000 C 
BRANCH   7   8
ATOM      8  C   UNL     1       3.503  -8.199  11.054  1.00  0.00    -0.000 C 
BRANCH   8   9
ATOM      9  C   UNL     1       4.327  -8.302  12.348  1.00  0.00    -0.000 C 
BRANCH   9  10
ATOM     10  C   UNL     1       5.069  -6.998  12.681  1.00  0.00    -0.000 C 
BRANCH  10  11
ATOM     11  C   UNL     1       6.478  -6.943  12.071  1.00  0.00    -0.003 C 
ATOM     12  C   UNL     1       7.535  -6.720  13.148  1.00  0.00     0.004 C 
ENDBRANCH  10  11
ENDBRANCH   9  10
ENDBRANCH   8   9
ENDBRANCH   7   8
ENDBRANCH   6   7
ENDBRANCH   5   6
ENDBRANCH   4   5
ENDBRANCH   3   4
ENDBRANCH   2   3
ENDBRANCH   1   2
BRANCH   1  13
ATOM     13  C   UNL     1       1.788  -0.079   9.376  1.00  0.00     0.000 C 
BRANCH  13  14
ATOM     14  C   UNL     1       1.105   1.157   9.987  1.00  0.00     0.000 C 
BRANCH  14  15
ATOM     15  C   UNL     1       2.034   2.380  10.046  1.00  0.00     0.000 C 
BRANCH  15  16
ATOM     16  C   UNL     1       2.925   2.387  11.303  1.00  0.00     0.000 C 
BRANCH  16  17
ATOM     17  C   UNL     1       4.087   3.388  11.193  1.00  0.00     0.000 C 
BRANCH  17  18
ATOM     18  C   UNL     1       3.656   4.828  11.516  1.00  0.00     0.000 C 
BRANCH  18  19
ATOM     19  C   UNL     1       4.069   5.271  12.931  1.00  0.00     0.000 C 
BRANCH  19  20
ATOM     20  C   UNL     1       3.011   6.142  13.640  1.00  0.00     0.006 C 
BRANCH  20  21
ATOM     21  C   UNL     1       3.210   6.169  15.161  1.00  0.00     0.053 C 
BRANCH  21  22
ATOM     22  C   UNL     1       4.446   6.935  15.514  1.00  0.00     0.041 C 
ATOM     23  O   UNL     1       5.491   6.324  15.863  1.00  0.00    -0.550 OA
ATOM     24  O   UNL     1       4.430   8.323  15.505  1.00  0.00    -0.550 OA
ENDBRANCH  21  22
ENDBRANCH  20  21
ENDBRANCH  19  20
ENDBRANCH  18  19
ENDBRANCH  17  18
ENDBRANCH  16  17
ENDBRANCH  15  16
ENDBRANCH  14  15
ENDBRANCH  13  14
ENDBRANCH   1  13
TORSDOF 20
ENDMDL
MODEL 2
REMARK VINA RESULT:    17.345      1.032      1.856
REMARK INTER + INTRA:          37.113
REMARK INTER:                  37.933
REMARK INTRA:                  -0.819
REMARK UNBOUND:                -0.511
REMARK SMILES CCCCCCCCCCCCCCCCCCCCCC(=O)[O-]
REMARK SMILES IDX 12 1 11 2 10 3 9 4 8 5 7 6 6 7 5 8 4 9 3 10 2 11 1 12 13 13
REMARK SMILES IDX 14 14 15 15 16 16 17 17 18 18 19 19 20 20 21 21 22 22 23 23
REMARK SMILES IDX 24 24
REMARK H PARENT
REMARK Flexibility Score: inf
ROOT
ATOM      1  C   UNL     1       0.881   0.438  10.206  1.00  0.00     0.000 C 
ENDROOT
BRANCH   1   2
ATOM      2  C   UNL     1       1.690  -0.560   9.361  1.00  0.00     0.000 C 
BRANCH   2   3
ATOM      3  C   UNL     1       2.368  -1.648  10.214  1.00  0.00     0.000 C 
BRANCH   3   4
ATOM      4  C   UNL     1       2.366  -3.060   9.592  1.00  0.00    -0.000 C 
BRANCH   4   5
ATOM      5  C   UNL     1       2.699  -4.205  10.565  1.00  0.00    -0.000 C 
BRANCH   5   6
ATOM      6  C   UNL     1       1.961  -5.509  10.229  1.00  0.00    -0.000 C 
BRANCH   6   7
ATOM      7  C   UNL     1       2.069  -6.513  11.387  1.00  0.00    -0.000 C 
BRANCH   7   8
ATOM      8  C   UNL     1       2.300  -7.954  10.903  1.00  0.00    -0.000 C 
BRANCH   8   9
ATOM      9  C   UNL     1       3.766  -8.397  11.045  1.00  0.00    -0.000 C 
BRANCH   9  10
ATOM     10  C   UNL     1       4.568  -7.490  11.992  1.00  0.00    -0.000 C 
BRANCH  10  11
ATOM     11  C   UNL     1       5.073  -8.232  13.239  1.00  0.00    -0.003 C 
ATOM     12  C   UNL     1       3.950  -9.027  13.898  1.00  0.00     0.004 C 
ENDBRANCH  10  11
ENDBRANCH   9  10
ENDBRANCH   8   9
ENDBRANCH   7   8
ENDBRANCH   6   7
ENDBRANCH   5   6
ENDBRANCH   4   5
ENDBRANCH   3   4
ENDBRANCH   2   3
ENDBRANCH   1   2
BRANCH   1  13
ATOM     13  C   UNL     1       0.058   1.411   9.346  1.00  0.00     0.000 C 
BRANCH  13  14
ATOM     14  C   UNL     1       0.853   2.672   8.964  1.00  0.00     0.000 C 
BRANCH  14  15
ATOM     15  C   UNL     1       2.236   2.728   9.634  1.00  0.00     0.000 C 
BRANCH  15  16
ATOM     16  C   UNL     1       2.841   4.144   9.628  1.00  0.00     0.000 C 
BRANCH  16  17
ATOM     17  C   UNL     1       3.808   4.374  10.800  1.00  0.00     0.000 C 
BRANCH  17  18
ATOM     18  C   UNL     1       3.546   5.702  11.528  1.00  0.00     0.000 C 
BRANCH  18  19
ATOM     19  C   UNL     1       3.949   5.659  13.013  1.00  0.00     0.000 C 
BRANCH  19  20
ATOM     20  C   UNL     1       2.882   6.248  13.960  1.00  0.00     0.006 C 
BRANCH  20  21
ATOM     21  C   UNL     1       3.327   6.207  15.428  1.00  0.00     0.053 C 
BRANCH  21  22
ATOM     22  C   UNL     1       4.553   7.041  15.628  1.00  0.00     0.041 C 
ATOM     23  O   UNL     1       4.524   8.277  15.387  1.00  0.00    -0.550 OA
ATOM     24  O   UNL     1       5.740   6.446  16.033  1.00  0.00    -0.550 OA
ENDBRANCH  21  22
ENDBRANCH  20  21
ENDBRANCH  19  20
ENDBRANCH  18  19
ENDBRANCH  17  18
ENDBRANCH  16  17
ENDBRANCH  15  16
ENDBRANCH  14  15
ENDBRANCH  13  14
ENDBRANCH   1  13
TORSDOF 20
ENDMDL
MODEL 3
REMARK VINA RESULT:    17.462      4.287      6.168
REMARK INTER + INTRA:          37.368
REMARK INTER:                  36.305
REMARK INTRA:                   1.064
REMARK UNBOUND:                -0.511
REMARK SMILES CCCCCCCCCCCCCCCCCCCCCC(=O)[O-]
REMARK SMILES IDX 12 1 11 2 10 3 9 4 8 5 7 6 6 7 5 8 4 9 3 10 2 11 1 12 13 13
REMARK SMILES IDX 14 14 15 15 16 16 17 17 18 18 19 19 20 20 21 21 22 22 23 23
REMARK SMILES IDX 24 24
REMARK H PARENT
REMARK Flexibility Score: inf
ROOT
ATOM      1  C   UNL     1      -0.293  -7.054   9.654  1.00  0.00     0.000 C 
ENDROOT
BRANCH   1   2
ATOM      2  C   UNL     1      -0.565  -7.723  11.012  1.00  0.00     0.000 C 
BRANCH   2   3
ATOM      3  C   UNL     1       0.497  -8.774  11.381  1.00  0.00     0.000 C 
BRANCH   3   4
ATOM      4  C   UNL     1       1.644  -8.928  10.360  1.00  0.00    -0.000 C 
BRANCH   4   5
ATOM      5  C   UNL     1       3.008  -8.383  10.819  1.00  0.00    -0.000 C 
BRANCH   5   6
ATOM      6  C   UNL     1       3.077  -8.140  12.333  1.00  0.00    -0.000 C 
BRANCH   6   7
ATOM      7  C   UNL     1       4.527  -8.206  12.834  1.00  0.00    -0.000 C 
BRANCH   7   8
ATOM      8  C   UNL     1       5.529  -7.616  11.828  1.00  0.00    -0.000 C 
BRANCH   8   9
ATOM      9  C   UNL     1       6.313  -6.424  12.405  1.00  0.00    -0.000 C 
BRANCH   9  10
ATOM     10  C   UNL     1       7.366  -6.855  13.438  1.00  0.00    -0.000 C 
BRANCH  10  11
ATOM     11  C   UNL     1       8.019  -5.663  14.154  1.00  0.00    -0.003 C 
ATOM     12  C   UNL     1       7.161  -5.189  15.324  1.00  0.00     0.004 C 
ENDBRANCH  10  11
ENDBRANCH   9  10
ENDBRANCH   8   9
ENDBRANCH   7   8
ENDBRANCH   6   7
ENDBRANCH   5   6
ENDBRANCH   4   5
ENDBRANCH   3   4
ENDBRANCH   2   3
ENDBRANCH   1   2
BRANCH   1  13
ATOM     13  C   UNL     1       0.703  -5.888   9.758  1.00  0.00     0.000 C 
BRANCH  13  14
ATOM     14  C   UNL     1       1.499  -5.911  11.075  1.00  0.00     0.000 C 
BRANCH  14  15
ATOM     15  C   UNL     1       2.717  -4.974  11.048  1.00  0.00     0.000 C 
BRANCH  15  16
ATOM     16  C   UNL     1       2.810  -4.159   9.745  1.00  0.00     0.000 C 
BRANCH  16  17
ATOM     17  C   UNL     1       1.867  -2.945   9.743  1.00  0.00     0.000 C 
BRANCH  17  18
ATOM     18  C   UNL     1       2.589  -1.638  10.109  1.00  0.00     0.000 C 
BRANCH  18  19
ATOM     19  C   UNL     1       1.927  -0.395   9.487  1.00  0.00     0.000 C 
BRANCH  19  20
ATOM     20  C   UNL     1       0.552  -0.056  10.101  1.00  0.00     0.006 C 
BRANCH  20  21
ATOM     21  C   UNL     1       0.357   1.456  10.279  1.00  0.00     0.053 C 
BRANCH  21  22
ATOM     22  C   UNL     1       0.045   2.103   8.967  1.00  0.00     0.041 C 
ATOM     23  O   UNL     1      -0.198   1.395   7.953  1.00  0.00    -0.550 OA
ATOM     24  O   UNL     1       0.071   3.486   8.851  1.00  0.00    -0.550 OA
ENDBRANCH  21  22
ENDBRANCH  20  21
ENDBRANCH  19  20
ENDBRANCH  18  19
ENDBRANCH  17  18
ENDBRANCH  16  17
ENDBRANCH  15  16
ENDBRANCH  14  15
ENDBRANCH  13  14
ENDBRANCH   1  13
TORSDOF 20
ENDMDL
MODEL 4
REMARK VINA RESULT:    17.498      0.755      1.695
REMARK INTER + INTRA:          37.447
REMARK INTER:                  37.719
REMARK INTRA:                  -0.272
REMARK UNBOUND:                -0.511
REMARK SMILES CCCCCCCCCCCCCCCCCCCCCC(=O)[O-]
REMARK SMILES IDX 12 1 11 2 10 3 9 4 8 5 7 6 6 7 5 8 4 9 3 10 2 11 1 12 13 13
REMARK SMILES IDX 14 14 15 15 16 16 17 17 18 18 19 19 20 20 21 21 22 22 23 23
REMARK SMILES IDX 24 24
REMARK H PARENT
REMARK Flexibility Score: inf
ROOT
ATOM      1  C   UNL     1       0.833   0.514  10.111  1.00  0.00     0.000 C 
ENDROOT
BRANCH   1   2
ATOM      2  C   UNL     1       1.885  -0.500   9.631  1.00  0.00     0.000 C 
BRANCH   2   3
ATOM      3  C   UNL     1       1.605  -1.928  10.131  1.00  0.00     0.000 C 
BRANCH   3   4
ATOM      4  C   UNL     1       2.757  -2.932   9.915  1.00  0.00    -0.000 C 
BRANCH   4   5
ATOM      5  C   UNL     1       2.320  -4.366   9.564  1.00  0.00    -0.000 C 
BRANCH   5   6
ATOM      6  C   UNL     1       2.267  -5.292  10.787  1.00  0.00    -0.000 C 
BRANCH   6   7
ATOM      7  C   UNL     1       1.224  -6.402  10.589  1.00  0.00    -0.000 C 
BRANCH   7   8
ATOM      8  C   UNL     1       1.610  -7.712  11.295  1.00  0.00    -0.000 C 
BRANCH   8   9
ATOM      9  C   UNL     1       2.728  -7.517  12.334  1.00  0.00    -0.000 C 
BRANCH   9  10
ATOM     10  C   UNL     1       4.114  -7.896  11.788  1.00  0.00    -0.000 C 
BRANCH  10  11
ATOM     11  C   UNL     1       5.251  -7.546  12.759  1.00  0.00    -0.003 C 
ATOM     12  C   UNL     1       6.392  -6.835  12.036  1.00  0.00     0.004 C 
ENDBRANCH  10  11
ENDBRANCH   9  10
ENDBRANCH   8   9
ENDBRANCH   7   8
ENDBRANCH   6   7
ENDBRANCH   5   6
ENDBRANCH   4   5
ENDBRANCH   3   4
ENDBRANCH   2   3
ENDBRANCH   1   2
BRANCH   1  13
ATOM     13  C   UNL     1       0.539   1.602   9.065  1.00  0.00     0.000 C 
BRANCH  13  14
ATOM     14  C   UNL     1       1.508   2.792   9.168  1.00  0.00     0.000 C 
BRANCH  14  15
ATOM     15  C   UNL     1       2.404   2.722  10.415  1.00  0.00     0.000 C 
BRANCH  15  16
ATOM     16  C   UNL     1       3.709   3.524  10.253  1.00  0.00     0.000 C 
BRANCH  16  17
ATOM     17  C   UNL     1       4.169   4.169  11.570  1.00  0.00     0.000 C 
BRANCH  17  18
ATOM     18  C   UNL     1       3.606   5.587  11.759  1.00  0.00     0.000 C 
BRANCH  18  19
ATOM     19  C   UNL     1       3.874   6.154  13.164  1.00  0.00     0.000 C 
BRANCH  19  20
ATOM     20  C   UNL     1       2.739   5.873  14.172  1.00  0.00     0.006 C 
BRANCH  20  21
ATOM     21  C   UNL     1       3.135   6.245  15.607  1.00  0.00     0.053 C 
BRANCH  21  22
ATOM     22  C   UNL     1       4.427   7.000  15.615  1.00  0.00     0.041 C 
ATOM     23  O   UNL     1       4.432   8.249  15.452  1.00  0.00    -0.550 OA
ATOM     24  O   UNL     1       5.629   6.318  15.753  1.00  0.00    -0.550 OA
ENDBRANCH  21  22
ENDBRANCH  20  21
ENDBRANCH  19  20
ENDBRANCH  18  19
ENDBRANCH  17  18
ENDBRANCH  16  17
ENDBRANCH  15  16
ENDBRANCH  14  15
ENDBRANCH  13  14
ENDBRANCH   1  13
TORSDOF 20
ENDMDL
MODEL 5
REMARK VINA RESULT:    17.530      4.415     11.284
REMARK INTER + INTRA:          37.515
REMARK INTER:                  37.903
REMARK INTRA:                  -0.388
REMARK UNBOUND:                -0.511
REMARK SMILES CCCCCCCCCCCCCCCCCCCCCC(=O)[O-]
REMARK SMILES IDX 12 1 11 2 10 3 9 4 8 5 7 6 6 7 5 8 4 9 3 10 2 11 1 12 13 13
REMARK SMILES IDX 14 14 15 15 16 16 17 17 18 18 19 19 20 20 21 21 22 22 23 23
REMARK SMILES IDX 24 24
REMARK H PARENT
REMARK Flexibility Score: inf
ROOT
ATOM      1  C   UNL     1       0.557   0.753  10.261  1.00  0.00     0.000 C 
ENDROOT
BRANCH   1   2
ATOM      2  C   UNL     1      -0.183   1.760   9.363  1.00  0.00     0.000 C 
BRANCH   2   3
ATOM      3  C   UNL     1       0.758   2.814   8.753  1.00  0.00     0.000 C 
BRANCH   3   4
ATOM      4  C   UNL     1       2.245   2.660   9.135  1.00  0.00    -0.000 C 
BRANCH   4   5
ATOM      5  C   UNL     1       2.884   3.896   9.794  1.00  0.00    -0.000 C 
BRANCH   5   6
ATOM      6  C   UNL     1       4.025   3.538  10.758  1.00  0.00    -0.000 C 
BRANCH   6   7
ATOM      7  C   UNL     1       4.728   4.805  11.268  1.00  0.00    -0.000 C 
BRANCH   7   8
ATOM      8  C   UNL     1       3.790   5.721  12.072  1.00  0.00    -0.000 C 
BRANCH   8   9
ATOM      9  C   UNL     1       3.844   5.441  13.583  1.00  0.00    -0.000 C 
BRANCH   9  10
ATOM     10  C   UNL     1       2.914   6.365  14.388  1.00  0.00    -0.000 C 
BRANCH  10  11
ATOM     11  C   UNL     1       3.484   6.723  15.769  1.00  0.00    -0.003 C 
ATOM     12  C   UNL     1       5.009   6.769  15.739  1.00  0.00     0.004 C 
ENDBRANCH  10  11
ENDBRANCH   9  10
ENDBRANCH   8   9
ENDBRANCH   7   8
ENDBRANCH   6   7
ENDBRANCH   5   6
ENDBRANCH   4   5
ENDBRANCH   3   4
ENDBRANCH   2   3
ENDBRANCH   1   2
BRANCH   1  13
ATOM     13  C   UNL     1       1.295  -0.328   9.455  1.00  0.00     0.000 C 
BRANCH  13  14
ATOM     14  C   UNL     1       2.382  -1.037  10.282  1.00  0.00     0.000 C 
BRANCH  14  15
ATOM     15  C   UNL     1       2.798  -2.389   9.681  1.00  0.00     0.000 C 
BRANCH  15  16
ATOM     16  C   UNL     1       1.860  -3.537  10.099  1.00  0.00     0.000 C 
BRANCH  16  17
ATOM     17  C   UNL     1       2.508  -4.919   9.920  1.00  0.00     0.000 C 
BRANCH  17  18
ATOM     18  C   UNL     1       2.616  -5.695  11.242  1.00  0.00     0.000 C 
BRANCH  18  19
ATOM     19  C   UNL     1       1.623  -6.867  11.331  1.00  0.00     0.000 C 
BRANCH  19  20
ATOM     20  C   UNL     1       2.298  -8.254  11.298  1.00  0.00     0.006 C 
BRANCH  20  21
ATOM     21  C   UNL     1       3.785  -8.164  10.933  1.00  0.00     0.053 C 
BRANCH  21  22
ATOM     22  C   UNL     1       4.612  -7.929  12.158  1.00  0.00     0.041 C 
ATOM     23  O   UNL     1       4.320  -8.505  13.240  1.00  0.00    -0.550 OA
ATOM     24  O   UNL     1       5.675  -7.037  12.118  1.00  0.00    -0.550 OA
ENDBRANCH  21  22
ENDBRANCH  20  21
ENDBRANCH  19  20
ENDBRANCH  18  19
ENDBRANCH  17  18
ENDBRANCH  16  17
ENDBRANCH  15  16
ENDBRANCH  14  15
ENDBRANCH  13  14
ENDBRANCH   1  13
TORSDOF 20
ENDMDL
MODEL 6
REMARK VINA RESULT:    17.834      4.923      9.921
REMARK INTER + INTRA:          38.175
REMARK INTER:                  38.064
REMARK INTRA:                   0.110
REMARK UNBOUND:                -0.511
REMARK SMILES CCCCCCCCCCCCCCCCCCCCCC(=O)[O-]
REMARK SMILES IDX 12 1 11 2 10 3 9 4 8 5 7 6 6 7 5 8 4 9 3 10 2 11 1 12 13 13
REMARK SMILES IDX 14 14 15 15 16 16 17 17 18 18 19 19 20 20 21 21 22 22 23 23
REMARK SMILES IDX 24 24
REMARK H PARENT
REMARK Flexibility Score: inf
ROOT
ATOM      1  C   UNL     1      -0.175  -7.458  11.904  1.00  0.00     0.000 C 
ENDROOT
BRANCH   1   2
ATOM      2  C   UNL     1       1.264  -7.421  12.446  1.00  0.00     0.000 C 
BRANCH   2   3
ATOM      3  C   UNL     1       1.816  -5.989  12.568  1.00  0.00     0.000 C 
BRANCH   3   4
ATOM      4  C   UNL     1       2.735  -5.544  11.411  1.00  0.00    -0.000 C 
BRANCH   4   5
ATOM      5  C   UNL     1       2.047  -5.417  10.039  1.00  0.00    -0.000 C 
BRANCH   5   6
ATOM      6  C   UNL     1       2.393  -4.107   9.316  1.00  0.00    -0.000 C 
BRANCH   6   7
ATOM      7  C   UNL     1       2.343  -2.916  10.285  1.00  0.00    -0.000 C 
BRANCH   7   8
ATOM      8  C   UNL     1       2.559  -1.568   9.578  1.00  0.00    -0.000 C 
BRANCH   8   9
ATOM      9  C   UNL     1       1.591  -0.479  10.074  1.00  0.00    -0.000 C 
BRANCH   9  10
ATOM     10  C   UNL     1       1.233   0.536   8.977  1.00  0.00    -0.000 C 
BRANCH  10  11
ATOM     11  C   UNL     1      -0.032   1.344   9.305  1.00  0.00    -0.003 C 
ATOM     12  C   UNL     1       0.212   2.840   9.130  1.00  0.00     0.004 C 
ENDBRANCH  10  11
ENDBRANCH   9  10
ENDBRANCH   8   9
ENDBRANCH   7   8
ENDBRANCH   6   7
ENDBRANCH   5   6
ENDBRANCH   4   5
ENDBRANCH   3   4
ENDBRANCH   2   3
ENDBRANCH   1   2
BRANCH   1  13
ATOM     13  C   UNL     1      -0.380  -8.554  10.845  1.00  0.00     0.000 C 
BRANCH  13  14
ATOM     14  C   UNL     1       0.775  -8.611   9.829  1.00  0.00     0.000 C 
BRANCH  14  15
ATOM     15  C   UNL     1       1.959  -9.458  10.324  1.00  0.00     0.000 C 
BRANCH  15  16
ATOM     16  C   UNL     1       3.300  -8.704  10.245  1.00  0.00     0.000 C 
BRANCH  16  17
ATOM     17  C   UNL     1       4.189  -8.957  11.473  1.00  0.00     0.000 C 
BRANCH  17  18
ATOM     18  C   UNL     1       4.540  -7.662  12.223  1.00  0.00     0.000 C 
BRANCH  18  19
ATOM     19  C   UNL     1       5.978  -7.186  11.951  1.00  0.00     0.000 C 
BRANCH  19  20
ATOM     20  C   UNL     1       6.788  -6.899  13.233  1.00  0.00     0.006 C 
BRANCH  20  21
ATOM     21  C   UNL     1       7.063  -5.401  13.420  1.00  0.00     0.053 C 
BRANCH  21  22
ATOM     22  C   UNL     1       7.829  -5.163  14.683  1.00  0.00     0.041 C 
ATOM     23  O   UNL     1       7.232  -4.780  15.724  1.00  0.00    -0.550 OA
ATOM     24  O   UNL     1       9.209  -5.317  14.697  1.00  0.00    -0.550 OA
ENDBRANCH  21  22
ENDBRANCH  20  21
ENDBRANCH  19  20
ENDBRANCH  18  19
ENDBRANCH  17  18
ENDBRANCH  16  17
ENDBRANCH  15  16
ENDBRANCH  14  15
ENDBRANCH  13  14
ENDBRANCH   1  13
TORSDOF 20
ENDMDL
MODEL 7
REMARK VINA RESULT:    18.168      4.851     11.557
REMARK INTER + INTRA:          38.900
REMARK INTER:                  39.828
REMARK INTRA:                  -0.928
REMARK UNBOUND:                -0.511
REMARK SMILES CCCCCCCCCCCCCCCCCCCCCC(=O)[O-]
REMARK SMILES IDX 12 1 11 2 10 3 9 4 8 5 7 6 6 7 5 8 4 9 3 10 2 11 1 12 13 13
REMARK SMILES IDX 14 14 15 15 16 16 17 17 18 18 19 19 20 20 21 21 22 22 23 23
REMARK SMILES IDX 24 24
REMARK H PARENT
REMARK Flexibility Score: inf
ROOT
ATOM      1  C   UNL     1       0.675   0.574  10.140  1.00  0.00     0.000 C 
ENDROOT
BRANCH   1   2
ATOM      2  C   UNL     1      -0.098   1.519   9.204  1.00  0.00     0.000 C 
BRANCH   2   3
ATOM      3  C   UNL     1       0.639   2.848   8.960  1.00  0.00     0.000 C 
BRANCH   3   4
ATOM      4  C   UNL     1       2.119   2.862   9.394  1.00  0.00    -0.000 C 
BRANCH   4   5
ATOM      5  C   UNL     1       2.734   4.261   9.582  1.00  0.00    -0.000 C 
BRANCH   5   6
ATOM      6  C   UNL     1       4.135   4.220  10.208  1.00  0.00    -0.000 C 
BRANCH   6   7
ATOM      7  C   UNL     1       4.050   4.215  11.742  1.00  0.00    -0.000 C 
BRANCH   7   8
ATOM      8  C   UNL     1       4.079   5.631  12.342  1.00  0.00    -0.000 C 
BRANCH   8   9
ATOM      9  C   UNL     1       2.912   5.886  13.312  1.00  0.00    -0.000 C 
BRANCH   9  10
ATOM     10  C   UNL     1       3.363   5.916  14.781  1.00  0.00    -0.000 C 
BRANCH  10  11
ATOM     11  C   UNL     1       4.190   7.165  15.123  1.00  0.00    -0.003 C 
ATOM     12  C   UNL     1       5.225   6.859  16.201  1.00  0.00     0.004 C 
ENDBRANCH  10  11
ENDBRANCH   9  10
ENDBRANCH   8   9
ENDBRANCH   7   8
ENDBRANCH   6   7
ENDBRANCH   5   6
ENDBRANCH   4   5
ENDBRANCH   3   4
ENDBRANCH   2   3
ENDBRANCH   1   2
BRANCH   1  13
ATOM     13  C   UNL     1       1.543  -0.438   9.374  1.00  0.00     0.000 C 
BRANCH  13  14
ATOM     14  C   UNL     1       2.303  -1.389  10.315  1.00  0.00     0.000 C 
BRANCH  14  15
ATOM     15  C   UNL     1       2.738  -2.689   9.620  1.00  0.00     0.000 C 
BRANCH  15  16
ATOM     16  C   UNL     1       1.910  -3.907  10.071  1.00  0.00     0.000 C 
BRANCH  16  17
ATOM     17  C   UNL     1       2.746  -5.195  10.133  1.00  0.00     0.000 C 
BRANCH  17  18
ATOM     18  C   UNL     1       2.942  -5.702  11.571  1.00  0.00     0.000 C 
BRANCH  18  19
ATOM     19  C   UNL     1       3.507  -7.132  11.628  1.00  0.00     0.000 C 
BRANCH  19  20
ATOM     20  C   UNL     1       2.468  -8.222  11.291  1.00  0.00     0.006 C 
BRANCH  20  21
ATOM     21  C   UNL     1       1.084  -7.900  11.871  1.00  0.00     0.053 C 
BRANCH  21  22
ATOM     22  C   UNL     1       0.041  -7.957  10.800  1.00  0.00     0.041 C 
ATOM     23  O   UNL     1      -0.390  -9.069  10.394  1.00  0.00    -0.550 OA
ATOM     24  O   UNL     1      -0.420  -6.785  10.216  1.00  0.00    -0.550 OA
ENDBRANCH  21  22
ENDBRANCH  20  21
ENDBRANCH  19  20
ENDBRANCH  18  19
ENDBRANCH  17  18
ENDBRANCH  16  17
ENDBRANCH  15  16
ENDBRANCH  14  15
ENDBRANCH  13  14
ENDBRANCH   1  13
TORSDOF 20
ENDMDL
MODEL 8
REMARK VINA RESULT:    18.221      3.142      3.871
REMARK INTER + INTRA:          39.014
REMARK INTER:                  40.531
REMARK INTRA:                  -1.517
REMARK UNBOUND:                -0.511
REMARK SMILES CCCCCCCCCCCCCCCCCCCCCC(=O)[O-]
REMARK SMILES IDX 12 1 11 2 10 3 9 4 8 5 7 6 6 7 5 8 4 9 3 10 2 11 1 12 13 13
REMARK SMILES IDX 14 14 15 15 16 16 17 17 18 18 19 19 20 20 21 21 22 22 23 23
REMARK SMILES IDX 24 24
REMARK H PARENT
REMARK Flexibility Score: inf
ROOT
ATOM      1  C   UNL     1       1.673   0.121  10.393  1.00  0.00     0.000 C 
ENDROOT
BRANCH   1   2
ATOM      2  C   UNL     1       2.450  -1.043   9.757  1.00  0.00     0.000 C 
BRANCH   2   3
ATOM      3  C   UNL     1       1.819  -2.415  10.060  1.00  0.00     0.000 C 
BRANCH   3   4
ATOM      4  C   UNL     1       2.735  -3.627   9.790  1.00  0.00    -0.000 C 
BRANCH   4   5
ATOM      5  C   UNL     1       2.077  -5.004   9.996  1.00  0.00    -0.000 C 
BRANCH   5   6
ATOM      6  C   UNL     1       2.412  -5.629  11.358  1.00  0.00    -0.000 C 
BRANCH   6   7
ATOM      7  C   UNL     1       1.652  -6.949  11.557  1.00  0.00    -0.000 C 
BRANCH   7   8
ATOM      8  C   UNL     1       2.316  -8.131  10.830  1.00  0.00    -0.000 C 
BRANCH   8   9
ATOM      9  C   UNL     1       3.826  -8.221  11.108  1.00  0.00    -0.000 C 
BRANCH   9  10
ATOM     10  C   UNL     1       4.141  -8.435  12.597  1.00  0.00    -0.000 C 
BRANCH  10  11
ATOM     11  C   UNL     1       5.250  -7.504  13.109  1.00  0.00    -0.003 C 
ATOM     12  C   UNL     1       5.973  -6.822  11.951  1.00  0.00     0.004 C 
ENDBRANCH  10  11
ENDBRANCH   9  10
ENDBRANCH   8   9
ENDBRANCH   7   8
ENDBRANCH   6   7
ENDBRANCH   5   6
ENDBRANCH   4   5
ENDBRANCH   3   4
ENDBRANCH   2   3
ENDBRANCH   1   2
BRANCH   1  13
ATOM     13  C   UNL     1       0.276   0.306   9.778  1.00  0.00     0.000 C 
BRANCH  13  14
ATOM     14  C   UNL     1      -0.013   1.771   9.407  1.00  0.00     0.000 C 
BRANCH  14  15
ATOM     15  C   UNL     1       1.158   2.437   8.666  1.00  0.00     0.000 C 
BRANCH  15  16
ATOM     16  C   UNL     1       1.763   3.615   9.452  1.00  0.00     0.000 C 
BRANCH  16  17
ATOM     17  C   UNL     1       3.292   3.516   9.574  1.00  0.00     0.000 C 
BRANCH  17  18
ATOM     18  C   UNL     1       3.853   4.417  10.685  1.00  0.00     0.000 C 
BRANCH  18  19
ATOM     19  C   UNL     1       5.196   3.912  11.243  1.00  0.00     0.000 C 
BRANCH  19  20
ATOM     20  C   UNL     1       5.317   2.374  11.264  1.00  0.00     0.006 C 
BRANCH  20  21
ATOM     21  C   UNL     1       6.740   1.902  10.937  1.00  0.00     0.053 C 
BRANCH  21  22
ATOM     22  C   UNL     1       6.875   0.433  11.189  1.00  0.00     0.041 C 
ATOM     23  O   UNL     1       5.968  -0.192  11.799  1.00  0.00    -0.550 OA
ATOM     24  O   UNL     1       8.026  -0.236  10.792  1.00  0.00    -0.550 OA
ENDBRANCH  21  22
ENDBRANCH  20  21
ENDBRANCH  19  20
ENDBRANCH  18  19
ENDBRANCH  17  18
ENDBRANCH  16  17
ENDBRANCH  15  16
ENDBRANCH  14  15
ENDBRANCH  13  14
ENDBRANCH   1  13
TORSDOF 20
ENDMDL
MODEL 9
REMARK VINA RESULT:    18.295      4.190     11.276
REMARK INTER + INTRA:          39.174
REMARK INTER:                  40.055
REMARK INTRA:                  -0.881
REMARK UNBOUND:                -0.511
REMARK SMILES CCCCCCCCCCCCCCCCCCCCCC(=O)[O-]
REMARK SMILES IDX 12 1 11 2 10 3 9 4 8 5 7 6 6 7 5 8 4 9 3 10 2 11 1 12 13 13
REMARK SMILES IDX 14 14 15 15 16 16 17 17 18 18 19 19 20 20 21 21 22 22 23 23
REMARK SMILES IDX 24 24
REMARK H PARENT
REMARK Flexibility Score: inf
ROOT
ATOM      1  C   UNL     1       1.674  -1.955  10.122  1.00  0.00     0.000 C 
ENDROOT
BRANCH   1   2
ATOM      2  C   UNL     1       2.182  -0.548   9.763  1.00  0.00     0.000 C 
BRANCH   2   3
ATOM      3  C   UNL     1       1.080   0.522   9.849  1.00  0.00     0.000 C 
BRANCH   3   4
ATOM      4  C   UNL     1       1.587   1.979   9.894  1.00  0.00    -0.000 C 
BRANCH   4   5
ATOM      5  C   UNL     1       2.677   2.261  10.944  1.00  0.00    -0.000 C 
BRANCH   5   6
ATOM      6  C   UNL     1       3.606   3.417  10.547  1.00  0.00    -0.000 C 
BRANCH   6   7
ATOM      7  C   UNL     1       4.049   4.213  11.784  1.00  0.00    -0.000 C 
BRANCH   7   8
ATOM      8  C   UNL     1       3.860   5.730  11.612  1.00  0.00    -0.000 C 
BRANCH   8   9
ATOM      9  C   UNL     1       3.173   6.381  12.824  1.00  0.00    -0.000 C 
BRANCH   9  10
ATOM     10  C   UNL     1       3.367   5.572  14.117  1.00  0.00    -0.000 C 
BRANCH  10  11
ATOM     11  C   UNL     1       3.492   6.463  15.362  1.00  0.00    -0.003 C 
ATOM     12  C   UNL     1       4.951   6.800  15.653  1.00  0.00     0.004 C 
ENDBRANCH  10  11
ENDBRANCH   9  10
ENDBRANCH   8   9
ENDBRANCH   7   8
ENDBRANCH   6   7
ENDBRANCH   5   6
ENDBRANCH   4   5
ENDBRANCH   3   4
ENDBRANCH   2   3
ENDBRANCH   1   2
BRANCH   1  13
ATOM     13  C   UNL     1       2.724  -3.047   9.864  1.00  0.00     0.000 C 
BRANCH  13  14
ATOM     14  C   UNL     1       2.089  -4.384   9.444  1.00  0.00     0.000 C 
BRANCH  14  15
ATOM     15  C   UNL     1       2.032  -5.402  10.595  1.00  0.00     0.000 C 
BRANCH  15  16
ATOM     16  C   UNL     1       0.870  -6.401  10.446  1.00  0.00     0.000 C 
BRANCH  16  17
ATOM     17  C   UNL     1       1.001  -7.601  11.397  1.00  0.00     0.000 C 
BRANCH  17  18
ATOM     18  C   UNL     1       2.327  -7.593  12.176  1.00  0.00     0.000 C 
BRANCH  18  19
ATOM     19  C   UNL     1       3.458  -8.329  11.438  1.00  0.00     0.000 C 
BRANCH  19  20
ATOM     20  C   UNL     1       4.794  -7.556  11.425  1.00  0.00     0.006 C 
BRANCH  20  21
ATOM     21  C   UNL     1       5.363  -7.362  12.837  1.00  0.00     0.053 C 
BRANCH  21  22
ATOM     22  C   UNL     1       6.764  -6.842  12.770  1.00  0.00     0.041 C 
ATOM     23  O   UNL     1       7.336  -6.703  11.657  1.00  0.00    -0.550 OA
ATOM     24  O   UNL     1       7.456  -6.558  13.940  1.00  0.00    -0.550 OA
ENDBRANCH  21  22
ENDBRANCH  20  21
ENDBRANCH  19  20
ENDBRANCH  18  19
ENDBRANCH  17  18
ENDBRANCH  16  17
ENDBRANCH  15  16
ENDBRANCH  14  15
ENDBRANCH  13  14
ENDBRANCH   1  13
TORSDOF 20
ENDMDL
