MODEL 1
REMARK VINA RESULT:    -5.068      0.000      0.000
REMARK INTER + INTRA:          -8.915
REMARK INTER:                  -7.735
REMARK INTRA:                  -1.180
REMARK UNBOUND:                -1.180
REMARK SMILES CC(=O)CCC=C(C)CCC=C(C)CCC=C(C)C
REMARK SMILES IDX 10 1 11 2 12 3 13 4 14 5 15 6 16 7 18 8 17 9 19 10 9 11 7 12
REMARK SMILES IDX 6 13 8 14 5 15 4 16 2 17 3 18 1 19
REMARK H PARENT
REMARK Flexibility Score: inf
ROOT
ATOM      1  C   UNL     1      10.077  29.894  12.844  1.00  0.00     0.032 C 
ENDROOT
BRANCH   1   2
ATOM      2  C   UNL     1      10.936  28.835  13.488  1.00  0.00    -0.028 C 
ATOM      3  C   UNL     1      12.232  29.004  13.837  1.00  0.00    -0.077 C 
ATOM      4  C   UNL     1      12.980  30.286  13.557  1.00  0.00     0.039 C 
BRANCH   3   5
ATOM      5  C   UNL     1      12.983  27.848  14.458  1.00  0.00     0.034 C 
BRANCH   5   6
ATOM      6  C   UNL     1      14.040  28.361  15.441  1.00  0.00     0.032 C 
BRANCH   6   7
ATOM      7  C   UNL     1      15.326  27.585  15.304  1.00  0.00    -0.028 C 
ATOM      8  C   UNL     1      16.554  29.492  14.245  1.00  0.00     0.039 C 
ATOM      9  C   UNL     1      16.470  28.086  14.788  1.00  0.00    -0.080 C 
ATOM     10  C   UNL     1      17.686  27.197  14.741  1.00  0.00     0.039 C 
ENDBRANCH   6   7
ENDBRANCH   5   6
ENDBRANCH   3   5
ENDBRANCH   1   2
BRANCH   1  11
ATOM     11  C   UNL     1       8.809  30.152  13.666  1.00  0.00     0.034 C 
BRANCH  11  12
ATOM     12  C   UNL     1       8.864  31.516  14.326  1.00  0.00    -0.077 C 
ATOM     13  C   UNL     1       8.019  31.893  15.312  1.00  0.00    -0.028 C 
ATOM     14  C   UNL     1       9.942  32.482  13.903  1.00  0.00     0.039 C 
BRANCH  13  15
ATOM     15  C   UNL     1       6.865  31.065  15.826  1.00  0.00     0.035 C 
BRANCH  15  16
ATOM     16  C   UNL     1       5.680  31.944  16.251  1.00  0.00     0.079 C 
BRANCH  16  17
ATOM     17  C   UNL     1       4.612  31.986  15.187  1.00  0.00     0.130 C 
ATOM     18  O   UNL     1       3.834  31.051  15.077  1.00  0.00    -0.300 OA
ATOM     19  C   UNL     1       4.482  33.160  14.262  1.00  0.00     0.087 C 
ENDBRANCH  16  17
ENDBRANCH  15  16
ENDBRANCH  13  15
ENDBRANCH  11  12
ENDBRANCH   1  11
TORSDOF 9
ENDMDL
MODEL 2
REMARK VINA RESULT:    -4.849     12.507     15.336
REMARK INTER + INTRA:          -8.580
REMARK INTER:                  -7.161
REMARK INTRA:                  -1.419
REMARK UNBOUND:                -1.180
REMARK SMILES CC(=O)CCC=C(C)CCC=C(C)CCC=C(C)C
REMARK SMILES IDX 10 1 11 2 12 3 13 4 14 5 15 6 16 7 18 8 17 9 19 10 9 11 7 12
REMARK SMILES IDX 6 13 8 14 5 15 4 16 2 17 3 18 1 19
REMARK H PARENT
REMARK Flexibility Score: inf
ROOT
ATOM      1  C   UNL     1      15.187  17.935  16.784  1.00  0.00     0.032 C 
ENDROOT
BRANCH   1   2
ATOM      2  C   UNL     1      14.059  16.979  16.491  1.00  0.00    -0.028 C 
ATOM      3  C   UNL     1      14.034  15.680  16.864  1.00  0.00    -0.077 C 
ATOM      4  C   UNL     1      15.193  15.027  17.580  1.00  0.00     0.039 C 
BRANCH   3   5
ATOM      5  C   UNL     1      12.845  14.827  16.485  1.00  0.00     0.034 C 
BRANCH   5   6
ATOM      6  C   UNL     1      12.388  15.150  15.059  1.00  0.00     0.032 C 
BRANCH   6   7
ATOM      7  C   UNL     1      10.894  15.354  15.006  1.00  0.00    -0.028 C 
ATOM      8  C   UNL     1      11.082  17.746  14.289  1.00  0.00     0.039 C 
ATOM      9  C   UNL     1      10.292  16.508  14.642  1.00  0.00    -0.080 C 
ATOM     10  C   UNL     1       8.787  16.554  14.610  1.00  0.00     0.039 C 
ENDBRANCH   6   7
ENDBRANCH   5   6
ENDBRANCH   3   5
ENDBRANCH   1   2
BRANCH   1  11
ATOM     11  C   UNL     1      16.076  18.135  15.551  1.00  0.00     0.034 C 
BRANCH  11  12
ATOM     12  C   UNL     1      17.539  17.951  15.908  1.00  0.00    -0.077 C 
ATOM     13  C   UNL     1      18.356  18.982  16.222  1.00  0.00    -0.028 C 
ATOM     14  C   UNL     1      18.099  16.553  15.966  1.00  0.00     0.039 C 
BRANCH  13  15
ATOM     15  C   UNL     1      17.967  20.440  16.177  1.00  0.00     0.035 C 
BRANCH  15  16
ATOM     16  C   UNL     1      17.733  21.009  17.583  1.00  0.00     0.079 C 
BRANCH  16  17
ATOM     17  C   UNL     1      19.033  21.358  18.263  1.00  0.00     0.130 C 
ATOM     18  O   UNL     1      19.227  20.997  19.414  1.00  0.00    -0.300 OA
ATOM     19  C   UNL     1      20.098  22.138  17.551  1.00  0.00     0.087 C 
ENDBRANCH  16  17
ENDBRANCH  15  16
ENDBRANCH  13  15
ENDBRANCH  11  12
ENDBRANCH   1  11
TORSDOF 9
ENDMDL
MODEL 3
REMARK VINA RESULT:    -4.845     11.510     15.145
REMARK INTER + INTRA:          -8.574
REMARK INTER:                  -6.371
REMARK INTRA:                  -2.203
REMARK UNBOUND:                -1.180
REMARK SMILES CC(=O)CCC=C(C)CCC=C(C)CCC=C(C)C
REMARK SMILES IDX 10 1 11 2 12 3 13 4 14 5 15 6 16 7 18 8 17 9 19 10 9 11 7 12
REMARK SMILES IDX 6 13 8 14 5 15 4 16 2 17 3 18 1 19
REMARK H PARENT
REMARK Flexibility Score: inf
ROOT
ATOM      1  C   UNL     1      14.436  14.187  17.066  1.00  0.00     0.032 C 
ENDROOT
BRANCH   1   2
ATOM      2  C   UNL     1      13.039  14.657  16.745  1.00  0.00    -0.028 C 
ATOM      3  C   UNL     1      12.567  14.872  15.496  1.00  0.00    -0.077 C 
ATOM      4  C   UNL     1      13.435  14.712  14.270  1.00  0.00     0.039 C 
BRANCH   3   5
ATOM      5  C   UNL     1      11.149  15.364  15.319  1.00  0.00     0.034 C 
BRANCH   5   6
ATOM      6  C   UNL     1      11.106  16.525  14.320  1.00  0.00     0.032 C 
BRANCH   6   7
ATOM      7  C   UNL     1       9.732  17.148  14.278  1.00  0.00    -0.028 C 
ATOM      8  C   UNL     1      10.580  19.446  14.793  1.00  0.00     0.039 C 
ATOM      9  C   UNL     1       9.482  18.462  14.467  1.00  0.00    -0.080 C 
ATOM     10  C   UNL     1       8.058  18.944  14.366  1.00  0.00     0.039 C 
ENDBRANCH   6   7
ENDBRANCH   5   6
ENDBRANCH   3   5
ENDBRANCH   1   2
BRANCH   1  11
ATOM     11  C   UNL     1      15.309  15.347  17.558  1.00  0.00     0.034 C 
BRANCH  11  12
ATOM     12  C   UNL     1      16.223  15.838  16.451  1.00  0.00    -0.077 C 
ATOM     13  C   UNL     1      16.231  17.119  16.016  1.00  0.00    -0.028 C 
ATOM     14  C   UNL     1      17.206  14.871  15.841  1.00  0.00     0.039 C 
BRANCH  13  15
ATOM     15  C   UNL     1      15.291  18.201  16.492  1.00  0.00     0.035 C 
BRANCH  15  16
ATOM     16  C   UNL     1      14.053  18.314  15.592  1.00  0.00     0.079 C 
BRANCH  16  17
ATOM     17  C   UNL     1      14.320  19.184  14.390  1.00  0.00     0.130 C 
ATOM     18  O   UNL     1      14.961  20.215  14.522  1.00  0.00    -0.300 OA
ATOM     19  C   UNL     1      13.815  18.805  13.028  1.00  0.00     0.087 C 
ENDBRANCH  16  17
ENDBRANCH  15  16
ENDBRANCH  13  15
ENDBRANCH  11  12
ENDBRANCH   1  11
TORSDOF 9
ENDMDL
MODEL 4
REMARK VINA RESULT:    -4.834     12.590     16.045
REMARK INTER + INTRA:          -8.557
REMARK INTER:                  -7.298
REMARK INTRA:                  -1.259
REMARK UNBOUND:                -1.180
REMARK SMILES CC(=O)CCC=C(C)CCC=C(C)CCC=C(C)C
REMARK SMILES IDX 10 1 11 2 12 3 13 4 14 5 15 6 16 7 18 8 17 9 19 10 9 11 7 12
REMARK SMILES IDX 6 13 8 14 5 15 4 16 2 17 3 18 1 19
REMARK H PARENT
REMARK Flexibility Score: inf
ROOT
ATOM      1  C   UNL     1      11.135  16.618  13.909  1.00  0.00     0.032 C 
ENDROOT
BRANCH   1   2
ATOM      2  C   UNL     1      10.192  17.752  14.223  1.00  0.00    -0.028 C 
ATOM      3  C   UNL     1       8.884  17.603  14.530  1.00  0.00    -0.077 C 
ATOM      4  C   UNL     1       8.207  16.252  14.533  1.00  0.00     0.039 C 
BRANCH   3   5
ATOM      5  C   UNL     1       8.046  18.832  14.802  1.00  0.00     0.034 C 
BRANCH   5   6
ATOM      6  C   UNL     1       7.215  18.642  16.075  1.00  0.00     0.032 C 
BRANCH   6   7
ATOM      7  C   UNL     1       5.911  19.395  15.984  1.00  0.00    -0.028 C 
ATOM      8  C   UNL     1       4.633  17.406  15.159  1.00  0.00     0.039 C 
ATOM      9  C   UNL     1       4.738  18.849  15.595  1.00  0.00    -0.080 C 
ATOM     10  C   UNL     1       3.510  19.721  15.580  1.00  0.00     0.039 C 
ENDBRANCH   6   7
ENDBRANCH   5   6
ENDBRANCH   3   5
ENDBRANCH   1   2
BRANCH   1  11
ATOM     11  C   UNL     1      12.320  16.600  14.882  1.00  0.00     0.034 C 
BRANCH  11  12
ATOM     12  C   UNL     1      12.318  15.328  15.707  1.00  0.00    -0.077 C 
ATOM     13  C   UNL     1      13.177  15.111  16.729  1.00  0.00    -0.028 C 
ATOM     14  C   UNL     1      11.279  14.275  15.414  1.00  0.00     0.039 C 
BRANCH  13  15
ATOM     15  C   UNL     1      14.297  16.041  17.131  1.00  0.00     0.035 C 
BRANCH  15  16
ATOM     16  C   UNL     1      15.633  15.298  17.263  1.00  0.00     0.079 C 
BRANCH  16  17
ATOM     17  C   UNL     1      16.615  15.730  16.204  1.00  0.00     0.130 C 
ATOM     18  O   UNL     1      17.629  16.328  16.531  1.00  0.00    -0.300 OA
ATOM     19  C   UNL     1      16.374  15.436  14.753  1.00  0.00     0.087 C 
ENDBRANCH  16  17
ENDBRANCH  15  16
ENDBRANCH  13  15
ENDBRANCH  11  12
ENDBRANCH   1  11
TORSDOF 9
ENDMDL
MODEL 5
REMARK VINA RESULT:    -4.821     11.887     15.322
REMARK INTER + INTRA:          -8.538
REMARK INTER:                  -6.663
REMARK INTRA:                  -1.874
REMARK UNBOUND:                -1.180
REMARK SMILES CC(=O)CCC=C(C)CCC=C(C)CCC=C(C)C
REMARK SMILES IDX 10 1 11 2 12 3 13 4 14 5 15 6 16 7 18 8 17 9 19 10 9 11 7 12
REMARK SMILES IDX 6 13 8 14 5 15 4 16 2 17 3 18 1 19
REMARK H PARENT
REMARK Flexibility Score: inf
ROOT
ATOM      1  C   UNL     1      14.152  14.445  14.290  1.00  0.00     0.032 C 
ENDROOT
BRANCH   1   2
ATOM      2  C   UNL     1      13.103  15.468  13.934  1.00  0.00    -0.028 C 
ATOM      3  C   UNL     1      11.880  15.547  14.505  1.00  0.00    -0.077 C 
ATOM      4  C   UNL     1      11.411  14.555  15.543  1.00  0.00     0.039 C 
BRANCH   3   5
ATOM      5  C   UNL     1      10.916  16.613  14.036  1.00  0.00     0.034 C 
BRANCH   5   6
ATOM      6  C   UNL     1       9.489  16.280  14.486  1.00  0.00     0.032 C 
BRANCH   6   7
ATOM      7  C   UNL     1       8.825  17.485  15.104  1.00  0.00    -0.028 C 
ATOM      8  C   UNL     1       6.519  16.538  14.869  1.00  0.00     0.039 C 
ATOM      9  C   UNL     1       7.494  17.607  15.303  1.00  0.00    -0.080 C 
ATOM     10  C   UNL     1       6.978  18.860  15.961  1.00  0.00     0.039 C 
ENDBRANCH   6   7
ENDBRANCH   5   6
ENDBRANCH   3   5
ENDBRANCH   1   2
BRANCH   1  11
ATOM     11  C   UNL     1      15.298  15.082  15.085  1.00  0.00     0.034 C 
BRANCH  11  12
ATOM     12  C   UNL     1      14.903  15.272  16.537  1.00  0.00    -0.077 C 
ATOM     13  C   UNL     1      14.775  16.490  17.112  1.00  0.00    -0.028 C 
ATOM     14  C   UNL     1      14.589  14.054  17.368  1.00  0.00     0.039 C 
BRANCH  13  15
ATOM     15  C   UNL     1      15.085  17.804  16.436  1.00  0.00     0.035 C 
BRANCH  15  16
ATOM     16  C   UNL     1      13.824  18.455  15.853  1.00  0.00     0.079 C 
BRANCH  16  17
ATOM     17  C   UNL     1      14.149  19.335  14.673  1.00  0.00     0.130 C 
ATOM     18  O   UNL     1      15.189  19.976  14.667  1.00  0.00    -0.300 OA
ATOM     19  C   UNL     1      13.221  19.436  13.498  1.00  0.00     0.087 C 
ENDBRANCH  16  17
ENDBRANCH  15  16
ENDBRANCH  13  15
ENDBRANCH  11  12
ENDBRANCH   1  11
TORSDOF 9
ENDMDL
MODEL 6
REMARK VINA RESULT:    -4.791      1.745      4.189
REMARK INTER + INTRA:          -8.491
REMARK INTER:                  -7.065
REMARK INTRA:                  -1.427
REMARK UNBOUND:                -1.180
REMARK SMILES CC(=O)CCC=C(C)CCC=C(C)CCC=C(C)C
REMARK SMILES IDX 10 1 11 2 12 3 13 4 14 5 15 6 16 7 18 8 17 9 19 10 9 11 7 12
REMARK SMILES IDX 6 13 8 14 5 15 4 16 2 17 3 18 1 19
REMARK H PARENT
REMARK Flexibility Score: inf
ROOT
ATOM      1  C   UNL     1       7.238  32.394  15.643  1.00  0.00     0.032 C 
ENDROOT
BRANCH   1   2
ATOM      2  C   UNL     1       7.891  31.278  14.866  1.00  0.00    -0.028 C 
ATOM      3  C   UNL     1       9.070  31.382  14.214  1.00  0.00    -0.077 C 
ATOM      4  C   UNL     1       9.842  32.680  14.149  1.00  0.00     0.039 C 
BRANCH   3   5
ATOM      5  C   UNL     1       9.600  30.187  13.454  1.00  0.00     0.034 C 
BRANCH   5   6
ATOM      6  C   UNL     1      11.126  30.257  13.343  1.00  0.00     0.032 C 
BRANCH   6   7
ATOM      7  C   UNL     1      11.771  29.097  14.062  1.00  0.00    -0.028 C 
ATOM      8  C   UNL     1      14.042  30.153  14.067  1.00  0.00     0.039 C 
ATOM      9  C   UNL     1      13.075  29.045  14.413  1.00  0.00    -0.080 C 
ATOM     10  C   UNL     1      13.571  27.831  15.154  1.00  0.00     0.039 C 
ENDBRANCH   6   7
ENDBRANCH   5   6
ENDBRANCH   3   5
ENDBRANCH   1   2
BRANCH   1  11
ATOM     11  C   UNL     1       5.869  31.964  16.182  1.00  0.00     0.034 C 
BRANCH  11  12
ATOM     12  C   UNL     1       4.788  32.184  15.141  1.00  0.00    -0.077 C 
ATOM     13  C   UNL     1       3.942  31.208  14.740  1.00  0.00    -0.028 C 
ATOM     14  C   UNL     1       4.611  33.564  14.561  1.00  0.00     0.039 C 
BRANCH  13  15
ATOM     15  C   UNL     1       4.004  29.768  15.191  1.00  0.00     0.035 C 
BRANCH  15  16
ATOM     16  C   UNL     1       4.830  28.906  14.227  1.00  0.00     0.079 C 
BRANCH  16  17
ATOM     17  C   UNL     1       6.052  28.336  14.901  1.00  0.00     0.130 C 
ATOM     18  O   UNL     1       6.217  28.512  16.099  1.00  0.00    -0.300 OA
ATOM     19  C   UNL     1       7.070  27.548  14.131  1.00  0.00     0.087 C 
ENDBRANCH  16  17
ENDBRANCH  15  16
ENDBRANCH  13  15
ENDBRANCH  11  12
ENDBRANCH   1  11
TORSDOF 9
ENDMDL
MODEL 7
REMARK VINA RESULT:    -4.777     12.054     13.353
REMARK INTER + INTRA:          -8.470
REMARK INTER:                  -7.101
REMARK INTRA:                  -1.369
REMARK UNBOUND:                -1.180
REMARK SMILES CC(=O)CCC=C(C)CCC=C(C)CCC=C(C)C
REMARK SMILES IDX 10 1 11 2 12 3 13 4 14 5 15 6 16 7 18 8 17 9 19 10 9 11 7 12
REMARK SMILES IDX 6 13 8 14 5 15 4 16 2 17 3 18 1 19
REMARK H PARENT
REMARK Flexibility Score: inf
ROOT
ATOM      1  C   UNL     1       8.933  17.452  14.474  1.00  0.00     0.032 C 
ENDROOT
BRANCH   1   2
ATOM      2  C   UNL     1       9.839  16.269  14.702  1.00  0.00    -0.028 C 
ATOM      3  C   UNL     1      11.189  16.311  14.642  1.00  0.00    -0.077 C 
ATOM      4  C   UNL     1      11.939  17.569  14.274  1.00  0.00     0.039 C 
BRANCH   3   5
ATOM      5  C   UNL     1      11.977  15.041  14.871  1.00  0.00     0.034 C 
BRANCH   5   6
ATOM      6  C   UNL     1      12.496  14.985  16.312  1.00  0.00     0.032 C 
BRANCH   6   7
ATOM      7  C   UNL     1      13.998  14.848  16.338  1.00  0.00    -0.028 C 
ATOM      8  C   UNL     1      14.370  17.248  16.944  1.00  0.00     0.039 C 
ATOM      9  C   UNL     1      14.853  15.850  16.641  1.00  0.00    -0.080 C 
ATOM     10  C   UNL     1      16.330  15.554  16.654  1.00  0.00     0.039 C 
ENDBRANCH   6   7
ENDBRANCH   5   6
ENDBRANCH   3   5
ENDBRANCH   1   2
BRANCH   1  11
ATOM     11  C   UNL     1       7.981  17.656  15.659  1.00  0.00     0.034 C 
BRANCH  11  12
ATOM     12  C   UNL     1       7.464  19.081  15.694  1.00  0.00    -0.077 C 
ATOM     13  C   UNL     1       6.147  19.386  15.713  1.00  0.00    -0.028 C 
ATOM     14  C   UNL     1       8.460  20.211  15.762  1.00  0.00     0.039 C 
BRANCH  13  15
ATOM     15  C   UNL     1       5.023  18.382  15.614  1.00  0.00     0.035 C 
BRANCH  15  16
ATOM     16  C   UNL     1       4.692  18.043  14.155  1.00  0.00     0.079 C 
BRANCH  16  17
ATOM     17  C   UNL     1       4.539  16.557  13.951  1.00  0.00     0.130 C 
ATOM     18  O   UNL     1       3.452  16.031  14.138  1.00  0.00    -0.300 OA
ATOM     19  C   UNL     1       5.698  15.708  13.519  1.00  0.00     0.087 C 
ENDBRANCH  16  17
ENDBRANCH  15  16
ENDBRANCH  13  15
ENDBRANCH  11  12
ENDBRANCH   1  11
TORSDOF 9
ENDMDL
MODEL 8
REMARK VINA RESULT:    -4.763     11.493     12.559
REMARK INTER + INTRA:          -8.449
REMARK INTER:                  -7.310
REMARK INTRA:                  -1.139
REMARK UNBOUND:                -1.180
REMARK SMILES CC(=O)CCC=C(C)CCC=C(C)CCC=C(C)C
REMARK SMILES IDX 10 1 11 2 12 3 13 4 14 5 15 6 16 7 18 8 17 9 19 10 9 11 7 12
REMARK SMILES IDX 6 13 8 14 5 15 4 16 2 17 3 18 1 19
REMARK H PARENT
REMARK Flexibility Score: inf
ROOT
ATOM      1  C   UNL     1       8.670  17.280  14.324  1.00  0.00     0.032 C 
ENDROOT
BRANCH   1   2
ATOM      2  C   UNL     1       9.718  16.213  14.519  1.00  0.00    -0.028 C 
ATOM      3  C   UNL     1      11.051  16.439  14.537  1.00  0.00    -0.077 C 
ATOM      4  C   UNL     1      11.639  17.810  14.300  1.00  0.00     0.039 C 
BRANCH   3   5
ATOM      5  C   UNL     1      11.993  15.270  14.720  1.00  0.00     0.034 C 
BRANCH   5   6
ATOM      6  C   UNL     1      12.341  15.090  16.201  1.00  0.00     0.032 C 
BRANCH   6   7
ATOM      7  C   UNL     1      13.826  14.895  16.385  1.00  0.00    -0.028 C 
ATOM      8  C   UNL     1      14.249  17.314  16.874  1.00  0.00     0.039 C 
ATOM      9  C   UNL     1      14.693  15.880  16.709  1.00  0.00    -0.080 C 
ATOM     10  C   UNL     1      16.147  15.526  16.887  1.00  0.00     0.039 C 
ENDBRANCH   6   7
ENDBRANCH   5   6
ENDBRANCH   3   5
ENDBRANCH   1   2
BRANCH   1  11
ATOM     11  C   UNL     1       7.958  17.602  15.643  1.00  0.00     0.034 C 
BRANCH  11  12
ATOM     12  C   UNL     1       7.667  19.087  15.748  1.00  0.00    -0.077 C 
ATOM     13  C   UNL     1       6.416  19.598  15.707  1.00  0.00    -0.028 C 
ATOM     14  C   UNL     1       8.819  20.037  15.959  1.00  0.00     0.039 C 
BRANCH  13  15
ATOM     15  C   UNL     1       5.160  18.794  15.466  1.00  0.00     0.035 C 
BRANCH  15  16
ATOM     16  C   UNL     1       3.928  19.466  16.086  1.00  0.00     0.079 C 
BRANCH  16  17
ATOM     17  C   UNL     1       2.984  19.978  15.028  1.00  0.00     0.130 C 
ATOM     18  O   UNL     1       3.420  20.290  13.931  1.00  0.00    -0.300 OA
ATOM     19  C   UNL     1       1.513  20.109  15.295  1.00  0.00     0.087 C 
ENDBRANCH  16  17
ENDBRANCH  15  16
ENDBRANCH  13  15
ENDBRANCH  11  12
ENDBRANCH   1  11
TORSDOF 9
ENDMDL
MODEL 9
REMARK VINA RESULT:    -4.752      2.409      4.227
REMARK INTER + INTRA:          -8.431
REMARK INTER:                  -6.039
REMARK INTRA:                  -2.393
REMARK UNBOUND:                -1.180
REMARK SMILES CC(=O)CCC=C(C)CCC=C(C)CCC=C(C)C
REMARK SMILES IDX 10 1 11 2 12 3 13 4 14 5 15 6 16 7 18 8 17 9 19 10 9 11 7 12
REMARK SMILES IDX 6 13 8 14 5 15 4 16 2 17 3 18 1 19
REMARK H PARENT
REMARK Flexibility Score: inf
ROOT
ATOM      1  C   UNL     1       6.948  31.909  12.987  1.00  0.00     0.032 C 
ENDROOT
BRANCH   1   2
ATOM      2  C   UNL     1       7.998  30.915  12.558  1.00  0.00    -0.028 C 
ATOM      3  C   UNL     1       9.244  30.840  13.078  1.00  0.00    -0.077 C 
ATOM      4  C   UNL     1       9.737  31.807  14.129  1.00  0.00     0.039 C 
BRANCH   3   5
ATOM      5  C   UNL     1      10.206  29.806  12.538  1.00  0.00     0.034 C 
BRANCH   5   6
ATOM      6  C   UNL     1      11.365  29.589  13.517  1.00  0.00     0.032 C 
BRANCH   6   7
ATOM      7  C   UNL     1      11.323  28.199  14.101  1.00  0.00    -0.028 C 
ATOM      8  C   UNL     1      13.506  28.460  15.299  1.00  0.00     0.039 C 
ATOM      9  C   UNL     1      12.267  27.685  14.920  1.00  0.00    -0.080 C 
ATOM     10  C   UNL     1      12.074  26.287  15.449  1.00  0.00     0.039 C 
ENDBRANCH   6   7
ENDBRANCH   5   6
ENDBRANCH   3   5
ENDBRANCH   1   2
BRANCH   1  11
ATOM     11  C   UNL     1       5.859  31.233  13.829  1.00  0.00     0.034 C 
BRANCH  11  12
ATOM     12  C   UNL     1       6.237  31.236  15.298  1.00  0.00    -0.077 C 
ATOM     13  C   UNL     1       6.478  30.104  15.999  1.00  0.00    -0.028 C 
ATOM     14  C   UNL     1       6.404  32.559  16.001  1.00  0.00     0.039 C 
BRANCH  13  15
ATOM     15  C   UNL     1       6.322  28.702  15.460  1.00  0.00     0.035 C 
BRANCH  15  16
ATOM     16  C   UNL     1       7.655  28.136  14.953  1.00  0.00     0.079 C 
BRANCH  16  17
ATOM     17  C   UNL     1       7.484  27.396  13.651  1.00  0.00     0.130 C 
ATOM     18  O   UNL     1       8.353  26.623  13.278  1.00  0.00    -0.300 OA
ATOM     19  C   UNL     1       6.261  27.586  12.803  1.00  0.00     0.087 C 
ENDBRANCH  16  17
ENDBRANCH  15  16
ENDBRANCH  13  15
ENDBRANCH  11  12
ENDBRANCH   1  11
TORSDOF 9
ENDMDL
