MODEL 1
REMARK VINA RESULT:    -3.577      0.000      0.000
REMARK INTER + INTRA:          -4.237
REMARK INTER:                  -4.204
REMARK INTRA:                  -0.033
REMARK UNBOUND:                -0.033
REMARK SMILES O=C([O-])CCC(=O)[O-]
REMARK SMILES IDX 4 1 2 2 1 3 3 4 5 5 6 6 7 7 8 8
REMARK H PARENT
REMARK Flexibility Score: inf
ROOT
ATOM      1  C   UNL     1      -1.340 -33.638  22.903  1.00  0.00     0.059 C 
ENDROOT
BRANCH   1   2
ATOM      2  C   UNL     1      -1.959 -32.776  23.957  1.00  0.00     0.042 C 
ATOM      3  O   UNL     1      -1.555 -32.843  25.148  1.00  0.00    -0.550 OA
ATOM      4  O   UNL     1      -2.950 -31.864  23.616  1.00  0.00    -0.550 OA
ENDBRANCH   1   2
BRANCH   1   5
ATOM      5  C   UNL     1      -2.275 -34.792  22.539  1.00  0.00     0.059 C 
BRANCH   5   6
ATOM      6  C   UNL     1      -1.728 -35.565  21.380  1.00  0.00     0.042 C 
ATOM      7  O   UNL     1      -0.501 -35.499  21.099  1.00  0.00    -0.550 OA
ATOM      8  O   UNL     1      -2.578 -36.317  20.582  1.00  0.00    -0.550 OA
ENDBRANCH   5   6
ENDBRANCH   1   5
TORSDOF 3
ENDMDL
MODEL 2
REMARK VINA RESULT:    -3.568      0.165      4.287
REMARK INTER + INTRA:          -4.226
REMARK INTER:                  -4.196
REMARK INTRA:                  -0.030
REMARK UNBOUND:                -0.033
REMARK SMILES O=C([O-])CCC(=O)[O-]
REMARK SMILES IDX 4 1 2 2 1 3 3 4 5 5 6 6 7 7 8 8
REMARK H PARENT
REMARK Flexibility Score: inf
ROOT
ATOM      1  C   UNL     1      -2.271 -34.761  22.514  1.00  0.00     0.059 C 
ENDROOT
BRANCH   1   2
ATOM      2  C   UNL     1      -1.671 -35.554  21.395  1.00  0.00     0.042 C 
ATOM      3  O   UNL     1      -2.412 -36.080  20.524  1.00  0.00    -0.550 OA
ATOM      4  O   UNL     1      -0.291 -35.670  21.289  1.00  0.00    -0.550 OA
ENDBRANCH   1   2
BRANCH   1   5
ATOM      5  C   UNL     1      -1.315 -33.652  22.957  1.00  0.00     0.059 C 
BRANCH   5   6
ATOM      6  C   UNL     1      -1.968 -32.773  23.976  1.00  0.00     0.042 C 
ATOM      7  O   UNL     1      -1.650 -32.869  25.191  1.00  0.00    -0.550 OA
ATOM      8  O   UNL     1      -2.961 -31.883  23.592  1.00  0.00    -0.550 OA
ENDBRANCH   5   6
ENDBRANCH   1   5
TORSDOF 3
ENDMDL
MODEL 3
REMARK VINA RESULT:    -3.487      2.231      3.318
REMARK INTER + INTRA:          -4.131
REMARK INTER:                  -4.026
REMARK INTRA:                  -0.105
REMARK UNBOUND:                -0.033
REMARK SMILES O=C([O-])CCC(=O)[O-]
REMARK SMILES IDX 4 1 2 2 1 3 3 4 5 5 6 6 7 7 8 8
REMARK H PARENT
REMARK Flexibility Score: inf
ROOT
ATOM      1  C   UNL     1      -1.235 -35.608  20.830  1.00  0.00     0.059 C 
ENDROOT
BRANCH   1   2
ATOM      2  C   UNL     1      -2.061 -35.222  22.016  1.00  0.00     0.042 C 
ATOM      3  O   UNL     1      -1.660 -34.322  22.800  1.00  0.00    -0.550 OA
ATOM      4  O   UNL     1      -3.295 -35.824  22.228  1.00  0.00    -0.550 OA
ENDBRANCH   1   2
BRANCH   1   5
ATOM      5  C   UNL     1      -0.065 -36.496  21.257  1.00  0.00     0.059 C 
BRANCH   5   6
ATOM      6  C   UNL     1       1.235 -35.783  21.056  1.00  0.00     0.042 C 
ATOM      7  O   UNL     1       1.827 -35.259  22.036  1.00  0.00    -0.550 OA
ATOM      8  O   UNL     1       1.767 -35.655  19.781  1.00  0.00    -0.550 OA
ENDBRANCH   5   6
ENDBRANCH   1   5
TORSDOF 3
ENDMDL
MODEL 4
REMARK VINA RESULT:    -3.456      3.362      5.712
REMARK INTER + INTRA:          -4.095
REMARK INTER:                  -4.007
REMARK INTRA:                  -0.088
REMARK UNBOUND:                -0.033
REMARK SMILES O=C([O-])CCC(=O)[O-]
REMARK SMILES IDX 4 1 2 2 1 3 3 4 5 5 6 6 7 7 8 8
REMARK H PARENT
REMARK Flexibility Score: inf
ROOT
ATOM      1  C   UNL     1      -3.947 -37.946  19.737  1.00  0.00     0.059 C 
ENDROOT
BRANCH   1   2
ATOM      2  C   UNL     1      -3.987 -37.367  18.358  1.00  0.00     0.042 C 
ATOM      3  O   UNL     1      -3.991 -38.125  17.352  1.00  0.00    -0.550 OA
ATOM      4  O   UNL     1      -4.068 -35.991  18.185  1.00  0.00    -0.550 OA
ENDBRANCH   1   2
BRANCH   1   5
ATOM      5  C   UNL     1      -2.568 -37.739  20.365  1.00  0.00     0.059 C 
BRANCH   5   6
ATOM      6  C   UNL     1      -2.541 -36.475  21.164  1.00  0.00     0.042 C 
ATOM      7  O   UNL     1      -3.411 -36.268  22.052  1.00  0.00    -0.550 OA
ATOM      8  O   UNL     1      -1.586 -35.503  20.896  1.00  0.00    -0.550 OA
ENDBRANCH   5   6
ENDBRANCH   1   5
TORSDOF 3
ENDMDL
MODEL 5
REMARK VINA RESULT:    -3.413      3.365      4.659
REMARK INTER + INTRA:          -4.044
REMARK INTER:                  -3.986
REMARK INTRA:                  -0.058
REMARK UNBOUND:                -0.033
REMARK SMILES O=C([O-])CCC(=O)[O-]
REMARK SMILES IDX 4 1 2 2 1 3 3 4 5 5 6 6 7 7 8 8
REMARK H PARENT
REMARK Flexibility Score: inf
ROOT
ATOM      1  C   UNL     1      -2.424 -37.701  20.273  1.00  0.00     0.059 C 
ENDROOT
BRANCH   1   2
ATOM      2  C   UNL     1      -2.428 -36.447  21.088  1.00  0.00     0.042 C 
ATOM      3  O   UNL     1      -3.328 -36.253  21.948  1.00  0.00    -0.550 OA
ATOM      4  O   UNL     1      -1.410 -35.514  20.933  1.00  0.00    -0.550 OA
ENDBRANCH   1   2
BRANCH   1   5
ATOM      5  C   UNL     1      -3.820 -37.980  19.713  1.00  0.00     0.059 C 
BRANCH   5   6
ATOM      6  C   UNL     1      -3.968 -37.382  18.350  1.00  0.00     0.042 C 
ATOM      7  O   UNL     1      -4.000 -38.125  17.333  1.00  0.00    -0.550 OA
ATOM      8  O   UNL     1      -4.020 -36.003  18.198  1.00  0.00    -0.550 OA
ENDBRANCH   5   6
ENDBRANCH   1   5
TORSDOF 3
ENDMDL
MODEL 6
REMARK VINA RESULT:    -3.395      3.080      4.046
REMARK INTER + INTRA:          -4.024
REMARK INTER:                  -3.996
REMARK INTRA:                  -0.028
REMARK UNBOUND:                -0.033
REMARK SMILES O=C([O-])CCC(=O)[O-]
REMARK SMILES IDX 4 1 2 2 1 3 3 4 5 5 6 6 7 7 8 8
REMARK H PARENT
REMARK Flexibility Score: inf
ROOT
ATOM      1  C   UNL     1      -1.170 -35.487  21.249  1.00  0.00     0.059 C 
ENDROOT
BRANCH   1   2
ATOM      2  C   UNL     1      -2.528 -36.099  21.111  1.00  0.00     0.042 C 
ATOM      3  O   UNL     1      -3.323 -36.103  22.087  1.00  0.00    -0.550 OA
ATOM      4  O   UNL     1      -2.934 -36.621  19.889  1.00  0.00    -0.550 OA
ENDBRANCH   1   2
BRANCH   1   5
ATOM      5  C   UNL     1      -0.084 -36.546  21.053  1.00  0.00     0.059 C 
BRANCH   5   6
ATOM      6  C   UNL     1       1.248 -35.898  20.843  1.00  0.00     0.042 C 
ATOM      7  O   UNL     1       1.925 -35.507  21.831  1.00  0.00    -0.550 OA
ATOM      8  O   UNL     1       1.720 -35.681  19.556  1.00  0.00    -0.550 OA
ENDBRANCH   5   6
ENDBRANCH   1   5
TORSDOF 3
ENDMDL
MODEL 7
REMARK VINA RESULT:    -3.339      3.121      4.274
REMARK INTER + INTRA:          -3.958
REMARK INTER:                  -3.929
REMARK INTRA:                  -0.029
REMARK UNBOUND:                -0.033
REMARK SMILES O=C([O-])CCC(=O)[O-]
REMARK SMILES IDX 4 1 2 2 1 3 3 4 5 5 6 6 7 7 8 8
REMARK H PARENT
REMARK Flexibility Score: inf
ROOT
ATOM      1  C   UNL     1      -0.036 -36.550  21.007  1.00  0.00     0.059 C 
ENDROOT
BRANCH   1   2
ATOM      2  C   UNL     1       1.294 -35.902  20.782  1.00  0.00     0.042 C 
ATOM      3  O   UNL     1       2.007 -35.564  21.763  1.00  0.00    -0.550 OA
ATOM      4  O   UNL     1       1.765 -35.716  19.489  1.00  0.00    -0.550 OA
ENDBRANCH   1   2
BRANCH   1   5
ATOM      5  C   UNL     1      -1.139 -35.493  21.091  1.00  0.00     0.059 C 
BRANCH   5   6
ATOM      6  C   UNL     1      -2.488 -36.137  21.028  1.00  0.00     0.042 C 
ATOM      7  O   UNL     1      -2.886 -36.667  19.957  1.00  0.00    -0.550 OA
ATOM      8  O   UNL     1      -3.324 -36.108  22.135  1.00  0.00    -0.550 OA
ENDBRANCH   5   6
ENDBRANCH   1   5
TORSDOF 3
ENDMDL
MODEL 8
REMARK VINA RESULT:    -3.129      4.749      5.754
REMARK INTER + INTRA:          -3.710
REMARK INTER:                  -3.598
REMARK INTRA:                  -0.112
REMARK UNBOUND:                -0.033
REMARK SMILES O=C([O-])CCC(=O)[O-]
REMARK SMILES IDX 4 1 2 2 1 3 3 4 5 5 6 6 7 7 8 8
REMARK H PARENT
REMARK Flexibility Score: inf
ROOT
ATOM      1  C   UNL     1       3.383 -36.186  20.510  1.00  0.00     0.059 C 
ENDROOT
BRANCH   1   2
ATOM      2  C   UNL     1       2.576 -35.631  21.641  1.00  0.00     0.042 C 
ATOM      3  O   UNL     1       3.150 -35.194  22.673  1.00  0.00    -0.550 OA
ATOM      4  O   UNL     1       1.193 -35.553  21.535  1.00  0.00    -0.550 OA
ENDBRANCH   1   2
BRANCH   1   5
ATOM      5  C   UNL     1       2.753 -35.810  19.168  1.00  0.00     0.059 C 
BRANCH   5   6
ATOM      6  C   UNL     1       2.464 -37.037  18.362  1.00  0.00     0.042 C 
ATOM      7  O   UNL     1       1.668 -37.909  18.800  1.00  0.00    -0.550 OA
ATOM      8  O   UNL     1       3.111 -37.241  17.150  1.00  0.00    -0.550 OA
ENDBRANCH   5   6
ENDBRANCH   1   5
TORSDOF 3
ENDMDL
MODEL 9
REMARK VINA RESULT:    -3.075      3.762      5.490
REMARK INTER + INTRA:          -3.648
REMARK INTER:                  -3.559
REMARK INTRA:                  -0.089
REMARK UNBOUND:                -0.033
REMARK SMILES O=C([O-])CCC(=O)[O-]
REMARK SMILES IDX 4 1 2 2 1 3 3 4 5 5 6 6 7 7 8 8
REMARK H PARENT
REMARK Flexibility Score: inf
ROOT
ATOM      1  C   UNL     1       1.578 -35.879  20.494  1.00  0.00     0.059 C 
ENDROOT
BRANCH   1   2
ATOM      2  C   UNL     1       0.240 -36.238  21.059  1.00  0.00     0.042 C 
ATOM      3  O   UNL     1      -0.489 -35.350  21.576  1.00  0.00    -0.550 OA
ATOM      4  O   UNL     1      -0.223 -37.545  20.972  1.00  0.00    -0.550 OA
ENDBRANCH   1   2
BRANCH   1   5
ATOM      5  C   UNL     1       2.691 -36.602  21.254  1.00  0.00     0.059 C 
BRANCH   5   6
ATOM      6  C   UNL     1       3.469 -35.635  22.090  1.00  0.00     0.042 C 
ATOM      7  O   UNL     1       2.866 -34.804  22.820  1.00  0.00    -0.550 OA
ATOM      8  O   UNL     1       4.855 -35.620  22.027  1.00  0.00    -0.550 OA
ENDBRANCH   5   6
ENDBRANCH   1   5
TORSDOF 3
ENDMDL
