MODEL 1
REMARK VINA RESULT:    -4.468      0.000      0.000
REMARK INTER + INTRA:          -6.473
REMARK INTER:                  -6.035
REMARK INTRA:                  -0.438
REMARK UNBOUND:                -0.438
REMARK SMILES CCCCCCCC(=O)[O-]
REMARK SMILES IDX 5 1 6 2 7 3 8 4 9 5 10 6 4 7 3 8 2 9 1 10
REMARK H PARENT
REMARK Flexibility Score: inf
ROOT
ATOM      1  C   UNL     1      42.917  39.095  15.066  1.00  0.00     0.000 C 
ENDROOT
BRANCH   1   2
ATOM      2  C   UNL     1      42.405  40.534  15.195  1.00  0.00     0.006 C 
BRANCH   2   3
ATOM      3  C   UNL     1      40.969  40.561  15.730  1.00  0.00     0.053 C 
BRANCH   3   4
ATOM      4  C   UNL     1      40.945  41.066  17.137  1.00  0.00     0.041 C 
ATOM      5  O   UNL     1      41.461  40.388  18.063  1.00  0.00    -0.550 OA
ATOM      6  O   UNL     1      40.393  42.310  17.420  1.00  0.00    -0.550 OA
ENDBRANCH   3   4
ENDBRANCH   2   3
ENDBRANCH   1   2
BRANCH   1   7
ATOM      7  C   UNL     1      42.655  38.542  13.658  1.00  0.00     0.000 C 
BRANCH   7   8
ATOM      8  C   UNL     1      42.024  37.137  13.672  1.00  0.00    -0.000 C 
BRANCH   8   9
ATOM      9  C   UNL     1      40.523  37.100  13.334  1.00  0.00    -0.003 C 
ATOM     10  C   UNL     1      39.983  38.448  12.858  1.00  0.00     0.004 C 
ENDBRANCH   8   9
ENDBRANCH   7   8
ENDBRANCH   1   7
TORSDOF 6
ENDMDL
MODEL 2
REMARK VINA RESULT:    -4.431      1.369      2.384
REMARK INTER + INTRA:          -6.423
REMARK INTER:                  -6.115
REMARK INTRA:                  -0.308
REMARK UNBOUND:                -0.438
REMARK SMILES CCCCCCCC(=O)[O-]
REMARK SMILES IDX 5 1 6 2 7 3 8 4 9 5 10 6 4 7 3 8 2 9 1 10
REMARK H PARENT
REMARK Flexibility Score: inf
ROOT
ATOM      1  C   UNL     1      40.931  40.759  15.403  1.00  0.00     0.000 C 
ENDROOT
BRANCH   1   2
ATOM      2  C   UNL     1      40.639  40.874  16.903  1.00  0.00     0.006 C 
BRANCH   2   3
ATOM      3  C   UNL     1      41.882  40.535  17.734  1.00  0.00     0.053 C 
BRANCH   3   4
ATOM      4  C   UNL     1      41.671  40.907  19.167  1.00  0.00     0.041 C 
ATOM      5  O   UNL     1      41.241  42.051  19.469  1.00  0.00    -0.550 OA
ATOM      6  O   UNL     1      41.903  39.972  20.169  1.00  0.00    -0.550 OA
ENDBRANCH   3   4
ENDBRANCH   2   3
ENDBRANCH   1   2
BRANCH   1   7
ATOM      7  C   UNL     1      42.345  40.212  15.158  1.00  0.00     0.000 C 
BRANCH   7   8
ATOM      8  C   UNL     1      42.355  38.939  14.292  1.00  0.00    -0.000 C 
BRANCH   8   9
ATOM      9  C   UNL     1      40.991  38.557  13.690  1.00  0.00    -0.003 C 
ATOM     10  C   UNL     1      40.900  37.081  13.303  1.00  0.00     0.004 C 
ENDBRANCH   8   9
ENDBRANCH   7   8
ENDBRANCH   1   7
TORSDOF 6
ENDMDL
MODEL 3
REMARK VINA RESULT:    -4.427      3.035      5.347
REMARK INTER + INTRA:          -6.418
REMARK INTER:                  -6.242
REMARK INTRA:                  -0.176
REMARK UNBOUND:                -0.438
REMARK SMILES CCCCCCCC(=O)[O-]
REMARK SMILES IDX 5 1 6 2 7 3 8 4 9 5 10 6 4 7 3 8 2 9 1 10
REMARK H PARENT
REMARK Flexibility Score: inf
ROOT
ATOM      1  C   UNL     1      41.621  40.573  16.150  1.00  0.00     0.000 C 
ENDROOT
BRANCH   1   2
ATOM      2  C   UNL     1      40.837  40.218  14.881  1.00  0.00     0.006 C 
BRANCH   2   3
ATOM      3  C   UNL     1      41.496  39.053  14.134  1.00  0.00     0.053 C 
BRANCH   3   4
ATOM      4  C   UNL     1      40.491  38.337  13.289  1.00  0.00     0.041 C 
ATOM      5  O   UNL     1      40.464  37.079  13.265  1.00  0.00    -0.550 OA
ATOM      6  O   UNL     1      39.551  39.060  12.565  1.00  0.00    -0.550 OA
ENDBRANCH   3   4
ENDBRANCH   2   3
ENDBRANCH   1   2
BRANCH   1   7
ATOM      7  C   UNL     1      40.672  40.844  17.325  1.00  0.00     0.000 C 
BRANCH   7   8
ATOM      8  C   UNL     1      41.213  41.906  18.301  1.00  0.00    -0.000 C 
BRANCH   8   9
ATOM      9  C   UNL     1      42.294  41.399  19.272  1.00  0.00    -0.003 C 
ATOM     10  C   UNL     1      41.932  40.068  19.929  1.00  0.00     0.004 C 
ENDBRANCH   8   9
ENDBRANCH   7   8
ENDBRANCH   1   7
TORSDOF 6
ENDMDL
MODEL 4
REMARK VINA RESULT:    -4.256      2.857      5.389
REMARK INTER + INTRA:          -6.186
REMARK INTER:                  -5.922
REMARK INTRA:                  -0.264
REMARK UNBOUND:                -0.438
REMARK SMILES CCCCCCCC(=O)[O-]
REMARK SMILES IDX 5 1 6 2 7 3 8 4 9 5 10 6 4 7 3 8 2 9 1 10
REMARK H PARENT
REMARK Flexibility Score: inf
ROOT
ATOM      1  C   UNL     1      40.621  40.862  16.560  1.00  0.00     0.000 C 
ENDROOT
BRANCH   1   2
ATOM      2  C   UNL     1      40.941  40.384  15.138  1.00  0.00     0.006 C 
BRANCH   2   3
ATOM      3  C   UNL     1      42.362  39.816  15.055  1.00  0.00     0.053 C 
BRANCH   3   4
ATOM      4  C   UNL     1      42.432  38.730  14.030  1.00  0.00     0.041 C 
ATOM      5  O   UNL     1      41.377  38.205  13.589  1.00  0.00    -0.550 OA
ATOM      6  O   UNL     1      43.663  38.328  13.525  1.00  0.00    -0.550 OA
ENDBRANCH   3   4
ENDBRANCH   2   3
ENDBRANCH   1   2
BRANCH   1   7
ATOM      7  C   UNL     1      41.803  40.602  17.506  1.00  0.00     0.000 C 
BRANCH   7   8
ATOM      8  C   UNL     1      42.166  41.828  18.363  1.00  0.00    -0.000 C 
BRANCH   8   9
ATOM      9  C   UNL     1      42.130  41.587  19.883  1.00  0.00    -0.003 C 
ATOM     10  C   UNL     1      41.968  40.113  20.252  1.00  0.00     0.004 C 
ENDBRANCH   8   9
ENDBRANCH   7   8
ENDBRANCH   1   7
TORSDOF 6
ENDMDL
MODEL 5
REMARK VINA RESULT:    -4.205      9.582     10.321
REMARK INTER + INTRA:          -6.117
REMARK INTER:                  -5.897
REMARK INTRA:                  -0.221
REMARK UNBOUND:                -0.438
REMARK SMILES CCCCCCCC(=O)[O-]
REMARK SMILES IDX 5 1 6 2 7 3 8 4 9 5 10 6 4 7 3 8 2 9 1 10
REMARK H PARENT
REMARK Flexibility Score: inf
ROOT
ATOM      1  C   UNL     1      38.255  30.237  14.604  1.00  0.00     0.000 C 
ENDROOT
BRANCH   1   2
ATOM      2  C   UNL     1      37.445  31.075  13.608  1.00  0.00     0.006 C 
BRANCH   2   3
ATOM      3  C   UNL     1      36.255  31.751  14.297  1.00  0.00     0.053 C 
BRANCH   3   4
ATOM      4  C   UNL     1      35.010  31.569  13.488  1.00  0.00     0.041 C 
ATOM      5  O   UNL     1      34.622  30.414  13.173  1.00  0.00    -0.550 OA
ATOM      6  O   UNL     1      34.250  32.674  13.124  1.00  0.00    -0.550 OA
ENDBRANCH   3   4
ENDBRANCH   2   3
ENDBRANCH   1   2
BRANCH   1   7
ATOM      7  C   UNL     1      39.502  29.642  13.936  1.00  0.00     0.000 C 
BRANCH   7   8
ATOM      8  C   UNL     1      40.727  29.614  14.869  1.00  0.00    -0.000 C 
BRANCH   8   9
ATOM      9  C   UNL     1      40.605  30.500  16.121  1.00  0.00    -0.003 C 
ATOM     10  C   UNL     1      41.732  30.272  17.128  1.00  0.00     0.004 C 
ENDBRANCH   8   9
ENDBRANCH   7   8
ENDBRANCH   1   7
TORSDOF 6
ENDMDL
MODEL 6
REMARK VINA RESULT:    -4.192      2.710      4.935
REMARK INTER + INTRA:          -6.100
REMARK INTER:                  -5.762
REMARK INTRA:                  -0.338
REMARK UNBOUND:                -0.438
REMARK SMILES CCCCCCCC(=O)[O-]
REMARK SMILES IDX 5 1 6 2 7 3 8 4 9 5 10 6 4 7 3 8 2 9 1 10
REMARK H PARENT
REMARK Flexibility Score: inf
ROOT
ATOM      1  C   UNL     1      42.410  40.632  15.438  1.00  0.00     0.000 C 
ENDROOT
BRANCH   1   2
ATOM      2  C   UNL     1      42.968  39.217  15.248  1.00  0.00     0.006 C 
BRANCH   2   3
ATOM      3  C   UNL     1      42.962  38.817  13.768  1.00  0.00     0.053 C 
BRANCH   3   4
ATOM      4  C   UNL     1      41.986  37.710  13.529  1.00  0.00     0.041 C 
ATOM      5  O   UNL     1      42.387  36.520  13.436  1.00  0.00    -0.550 OA
ATOM      6  O   UNL     1      40.626  37.985  13.456  1.00  0.00    -0.550 OA
ENDBRANCH   3   4
ENDBRANCH   2   3
ENDBRANCH   1   2
BRANCH   1   7
ATOM      7  C   UNL     1      40.909  40.593  15.760  1.00  0.00     0.000 C 
BRANCH   7   8
ATOM      8  C   UNL     1      40.587  41.093  17.180  1.00  0.00    -0.000 C 
BRANCH   8   9
ATOM      9  C   UNL     1      41.797  41.172  18.127  1.00  0.00    -0.003 C 
ATOM     10  C   UNL     1      41.681  40.232  19.326  1.00  0.00     0.004 C 
ENDBRANCH   8   9
ENDBRANCH   7   8
ENDBRANCH   1   7
TORSDOF 6
ENDMDL
MODEL 7
REMARK VINA RESULT:    -3.952      9.382      9.973
REMARK INTER + INTRA:          -5.775
REMARK INTER:                  -5.584
REMARK INTRA:                  -0.192
REMARK UNBOUND:                -0.438
REMARK SMILES CCCCCCCC(=O)[O-]
REMARK SMILES IDX 5 1 6 2 7 3 8 4 9 5 10 6 4 7 3 8 2 9 1 10
REMARK H PARENT
REMARK Flexibility Score: inf
ROOT
ATOM      1  C   UNL     1      38.822  29.783  14.156  1.00  0.00     0.000 C 
ENDROOT
BRANCH   1   2
ATOM      2  C   UNL     1      40.270  29.775  14.662  1.00  0.00     0.006 C 
BRANCH   2   3
ATOM      3  C   UNL     1      40.394  30.535  15.987  1.00  0.00     0.053 C 
BRANCH   3   4
ATOM      4  C   UNL     1      41.760  30.353  16.569  1.00  0.00     0.041 C 
ATOM      5  O   UNL     1      41.901  29.819  17.699  1.00  0.00    -0.550 OA
ATOM      6  O   UNL     1      42.882  30.729  15.840  1.00  0.00    -0.550 OA
ENDBRANCH   3   4
ENDBRANCH   2   3
ENDBRANCH   1   2
BRANCH   1   7
ATOM      7  C   UNL     1      38.001  30.874  14.858  1.00  0.00     0.000 C 
BRANCH   7   8
ATOM      8  C   UNL     1      36.489  30.578  14.860  1.00  0.00    -0.000 C 
BRANCH   8   9
ATOM      9  C   UNL     1      35.638  31.561  14.038  1.00  0.00    -0.003 C 
ATOM     10  C   UNL     1      34.646  30.863  13.109  1.00  0.00     0.004 C 
ENDBRANCH   8   9
ENDBRANCH   7   8
ENDBRANCH   1   7
TORSDOF 6
ENDMDL
MODEL 8
REMARK VINA RESULT:    -3.926      1.532      2.394
REMARK INTER + INTRA:          -5.740
REMARK INTER:                  -5.425
REMARK INTRA:                  -0.315
REMARK UNBOUND:                -0.438
REMARK SMILES CCCCCCCC(=O)[O-]
REMARK SMILES IDX 5 1 6 2 7 3 8 4 9 5 10 6 4 7 3 8 2 9 1 10
REMARK H PARENT
REMARK Flexibility Score: inf
ROOT
ATOM      1  C   UNL     1      41.943  40.294  16.495  1.00  0.00     0.000 C 
ENDROOT
BRANCH   1   2
ATOM      2  C   UNL     1      40.631  40.901  17.007  1.00  0.00     0.006 C 
BRANCH   2   3
ATOM      3  C   UNL     1      40.901  42.102  17.921  1.00  0.00     0.053 C 
BRANCH   3   4
ATOM      4  C   UNL     1      41.294  43.297  17.112  1.00  0.00     0.041 C 
ATOM      5  O   UNL     1      42.441  43.800  17.240  1.00  0.00    -0.550 OA
ATOM      6  O   UNL     1      40.411  43.826  16.179  1.00  0.00    -0.550 OA
ENDBRANCH   3   4
ENDBRANCH   2   3
ENDBRANCH   1   2
BRANCH   1   7
ATOM      7  C   UNL     1      41.985  40.293  14.960  1.00  0.00     0.000 C 
BRANCH   7   8
ATOM      8  C   UNL     1      42.993  39.279  14.388  1.00  0.00    -0.000 C 
BRANCH   8   9
ATOM      9  C   UNL     1      42.367  37.976  13.858  1.00  0.00    -0.003 C 
ATOM     10  C   UNL     1      40.920  38.150  13.399  1.00  0.00     0.004 C 
ENDBRANCH   8   9
ENDBRANCH   7   8
ENDBRANCH   1   7
TORSDOF 6
ENDMDL
MODEL 9
REMARK VINA RESULT:    -3.911      3.285      4.703
REMARK INTER + INTRA:          -5.720
REMARK INTER:                  -5.474
REMARK INTRA:                  -0.247
REMARK UNBOUND:                -0.438
REMARK SMILES CCCCCCCC(=O)[O-]
REMARK SMILES IDX 5 1 6 2 7 3 8 4 9 5 10 6 4 7 3 8 2 9 1 10
REMARK H PARENT
REMARK Flexibility Score: inf
ROOT
ATOM      1  C   UNL     1      42.169  40.906  17.438  1.00  0.00     0.000 C 
ENDROOT
BRANCH   1   2
ATOM      2  C   UNL     1      41.336  40.439  18.637  1.00  0.00     0.006 C 
BRANCH   2   3
ATOM      3  C   UNL     1      42.131  40.565  19.942  1.00  0.00     0.053 C 
BRANCH   3   4
ATOM      4  C   UNL     1      42.166  41.989  20.398  1.00  0.00     0.041 C 
ATOM      5  O   UNL     1      41.182  42.483  21.006  1.00  0.00    -0.550 OA
ATOM      6  O   UNL     1      43.305  42.757  20.193  1.00  0.00    -0.550 OA
ENDBRANCH   3   4
ENDBRANCH   2   3
ENDBRANCH   1   2
BRANCH   1   7
ATOM      7  C   UNL     1      41.390  40.733  16.126  1.00  0.00     0.000 C 
BRANCH   7   8
ATOM      8  C   UNL     1      41.009  42.075  15.473  1.00  0.00    -0.000 C 
BRANCH   8   9
ATOM      9  C   UNL     1      40.788  43.234  16.461  1.00  0.00    -0.003 C 
ATOM     10  C   UNL     1      41.215  44.589  15.900  1.00  0.00     0.004 C 
ENDBRANCH   8   9
ENDBRANCH   7   8
ENDBRANCH   1   7
TORSDOF 6
ENDMDL
