MODEL 1
REMARK VINA RESULT:    -4.289      0.000      0.000
REMARK INTER + INTRA:         -13.863
REMARK INTER:                  -9.806
REMARK INTRA:                  -4.057
REMARK UNBOUND:                -4.057
REMARK SMILES CCCCCCCCCCCCCCCCCCCCCCCC(=O)[O-]
REMARK SMILES IDX 13 1 14 2 15 3 16 4 17 5 18 6 19 7 20 8 21 9 22 10 23 11
REMARK SMILES IDX 24 12 25 13 26 14 12 15 11 16 10 17 9 18 8 19 7 20 6 21 5 22
REMARK SMILES IDX 4 23 3 24 2 25 1 26
REMARK H PARENT
REMARK Flexibility Score: inf
ROOT
ATOM      1  C   UNL     1      28.012   2.983   9.842  1.00  0.00     0.000 C 
ENDROOT
BRANCH   1   2
ATOM      2  C   UNL     1      28.046   3.932  11.050  1.00  0.00     0.000 C 
BRANCH   2   3
ATOM      3  C   UNL     1      27.532   5.347  10.723  1.00  0.00     0.000 C 
BRANCH   3   4
ATOM      4  C   UNL     1      25.998   5.506  10.707  1.00  0.00     0.000 C 
BRANCH   4   5
ATOM      5  C   UNL     1      25.523   6.702   9.867  1.00  0.00     0.000 C 
BRANCH   5   6
ATOM      6  C   UNL     1      26.619   7.231   8.922  1.00  0.00     0.000 C 
BRANCH   6   7
ATOM      7  C   UNL     1      26.097   7.754   7.573  1.00  0.00     0.000 C 
BRANCH   7   8
ATOM      8  C   UNL     1      26.247   6.722   6.442  1.00  0.00     0.000 C 
BRANCH   8   9
ATOM      9  C   UNL     1      24.925   6.012   6.096  1.00  0.00     0.000 C 
BRANCH   9  10
ATOM     10  C   UNL     1      23.700   6.477   6.908  1.00  0.00     0.006 C 
BRANCH  10  11
ATOM     11  C   UNL     1      22.408   6.518   6.080  1.00  0.00     0.053 C 
BRANCH  11  12
ATOM     12  C   UNL     1      21.469   5.440   6.521  1.00  0.00     0.041 C 
ATOM     13  O   UNL     1      20.225   5.609   6.433  1.00  0.00    -0.550 OA
ATOM     14  O   UNL     1      21.968   4.266   7.072  1.00  0.00    -0.550 OA
ENDBRANCH  11  12
ENDBRANCH  10  11
ENDBRANCH   9  10
ENDBRANCH   8   9
ENDBRANCH   7   8
ENDBRANCH   6   7
ENDBRANCH   5   6
ENDBRANCH   4   5
ENDBRANCH   3   4
ENDBRANCH   2   3
ENDBRANCH   1   2
BRANCH   1  15
ATOM     15  C   UNL     1      28.051   3.726   8.494  1.00  0.00     0.000 C 
BRANCH  15  16
ATOM     16  C   UNL     1      26.989   3.246   7.483  1.00  0.00     0.000 C 
BRANCH  16  17
ATOM     17  C   UNL     1      25.663   2.871   8.167  1.00  0.00     0.000 C 
BRANCH  17  18
ATOM     18  C   UNL     1      24.777   1.963   7.295  1.00  0.00    -0.000 C 
BRANCH  18  19
ATOM     19  C   UNL     1      24.650   2.400   5.820  1.00  0.00    -0.000 C 
BRANCH  19  20
ATOM     20  C   UNL     1      24.919   1.292   4.780  1.00  0.00    -0.000 C 
BRANCH  20  21
ATOM     21  C   UNL     1      26.339   0.700   4.819  1.00  0.00    -0.000 C 
BRANCH  21  22
ATOM     22  C   UNL     1      26.340  -0.827   5.003  1.00  0.00    -0.000 C 
BRANCH  22  23
ATOM     23  C   UNL     1      27.211  -1.274   6.197  1.00  0.00    -0.000 C 
BRANCH  23  24
ATOM     24  C   UNL     1      26.455  -1.316   7.538  1.00  0.00    -0.000 C 
BRANCH  24  25
ATOM     25  C   UNL     1      27.176  -0.551   8.656  1.00  0.00    -0.003 C 
ATOM     26  C   UNL     1      28.587  -0.153   8.231  1.00  0.00     0.004 C 
ENDBRANCH  24  25
ENDBRANCH  23  24
ENDBRANCH  22  23
ENDBRANCH  21  22
ENDBRANCH  20  21
ENDBRANCH  19  20
ENDBRANCH  18  19
ENDBRANCH  17  18
ENDBRANCH  16  17
ENDBRANCH  15  16
ENDBRANCH   1  15
TORSDOF 22
ENDMDL
MODEL 2
REMARK VINA RESULT:    -4.248      2.457      6.641
REMARK INTER + INTRA:         -13.769
REMARK INTER:                  -9.770
REMARK INTRA:                  -3.999
REMARK UNBOUND:                -4.057
REMARK SMILES CCCCCCCCCCCCCCCCCCCCCCCC(=O)[O-]
REMARK SMILES IDX 13 1 14 2 15 3 16 4 17 5 18 6 19 7 20 8 21 9 22 10 23 11
REMARK SMILES IDX 24 12 25 13 26 14 12 15 11 16 10 17 9 18 8 19 7 20 6 21 5 22
REMARK SMILES IDX 4 23 3 24 2 25 1 26
REMARK H PARENT
REMARK Flexibility Score: inf
ROOT
ATOM      1  C   UNL     1      26.101   3.672   9.053  1.00  0.00     0.000 C 
ENDROOT
BRANCH   1   2
ATOM      2  C   UNL     1      26.874   3.597   7.728  1.00  0.00     0.000 C 
BRANCH   2   3
ATOM      3  C   UNL     1      27.995   2.541   7.740  1.00  0.00     0.000 C 
BRANCH   3   4
ATOM      4  C   UNL     1      27.862   1.446   8.817  1.00  0.00     0.000 C 
BRANCH   4   5
ATOM      5  C   UNL     1      28.569   0.136   8.438  1.00  0.00     0.000 C 
BRANCH   5   6
ATOM      6  C   UNL     1      27.577  -0.986   8.077  1.00  0.00     0.000 C 
BRANCH   6   7
ATOM      7  C   UNL     1      26.112  -0.676   8.429  1.00  0.00     0.000 C 
BRANCH   7   8
ATOM      8  C   UNL     1      25.205  -0.625   7.187  1.00  0.00     0.000 C 
BRANCH   8   9
ATOM      9  C   UNL     1      24.579   0.763   6.956  1.00  0.00     0.000 C 
BRANCH   9  10
ATOM     10  C   UNL     1      24.865   1.389   5.577  1.00  0.00     0.006 C 
BRANCH  10  11
ATOM     11  C   UNL     1      26.238   1.004   5.012  1.00  0.00     0.053 C 
BRANCH  11  12
ATOM     12  C   UNL     1      26.085   0.267   3.718  1.00  0.00     0.041 C 
ATOM     13  O   UNL     1      26.083   0.896   2.628  1.00  0.00    -0.550 OA
ATOM     14  O   UNL     1      25.897  -1.110   3.721  1.00  0.00    -0.550 OA
ENDBRANCH  11  12
ENDBRANCH  10  11
ENDBRANCH   9  10
ENDBRANCH   8   9
ENDBRANCH   7   8
ENDBRANCH   6   7
ENDBRANCH   5   6
ENDBRANCH   4   5
ENDBRANCH   3   4
ENDBRANCH   2   3
ENDBRANCH   1   2
BRANCH   1  15
ATOM     15  C   UNL     1      26.594   4.805   9.972  1.00  0.00     0.000 C 
BRANCH  15  16
ATOM     16  C   UNL     1      27.259   5.977   9.221  1.00  0.00     0.000 C 
BRANCH  16  17
ATOM     17  C   UNL     1      26.391   7.248   9.241  1.00  0.00     0.000 C 
BRANCH  17  18
ATOM     18  C   UNL     1      26.291   7.924   7.862  1.00  0.00    -0.000 C 
BRANCH  18  19
ATOM     19  C   UNL     1      26.210   6.953   6.665  1.00  0.00    -0.000 C 
BRANCH  19  20
ATOM     20  C   UNL     1      24.801   6.763   6.066  1.00  0.00    -0.000 C 
BRANCH  20  21
ATOM     21  C   UNL     1      23.990   5.603   6.674  1.00  0.00    -0.000 C 
BRANCH  21  22
ATOM     22  C   UNL     1      22.642   6.062   7.255  1.00  0.00    -0.000 C 
BRANCH  22  23
ATOM     23  C   UNL     1      22.804   6.792   8.606  1.00  0.00    -0.000 C 
BRANCH  23  24
ATOM     24  C   UNL     1      22.400   5.943   9.825  1.00  0.00    -0.000 C 
BRANCH  24  25
ATOM     25  C   UNL     1      23.442   5.977  10.951  1.00  0.00    -0.003 C 
ATOM     26  C   UNL     1      22.966   6.838  12.118  1.00  0.00     0.004 C 
ENDBRANCH  24  25
ENDBRANCH  23  24
ENDBRANCH  22  23
ENDBRANCH  21  22
ENDBRANCH  20  21
ENDBRANCH  19  20
ENDBRANCH  18  19
ENDBRANCH  17  18
ENDBRANCH  16  17
ENDBRANCH  15  16
ENDBRANCH   1  15
TORSDOF 22
ENDMDL
MODEL 3
REMARK VINA RESULT:    -4.240      2.318      6.344
REMARK INTER + INTRA:         -13.749
REMARK INTER:                  -9.839
REMARK INTRA:                  -3.911
REMARK UNBOUND:                -4.057
REMARK SMILES CCCCCCCCCCCCCCCCCCCCCCCC(=O)[O-]
REMARK SMILES IDX 13 1 14 2 15 3 16 4 17 5 18 6 19 7 20 8 21 9 22 10 23 11
REMARK SMILES IDX 24 12 25 13 26 14 12 15 11 16 10 17 9 18 8 19 7 20 6 21 5 22
REMARK SMILES IDX 4 23 3 24 2 25 1 26
REMARK H PARENT
REMARK Flexibility Score: inf
ROOT
ATOM      1  C   UNL     1      26.457   2.884   7.452  1.00  0.00     0.000 C 
ENDROOT
BRANCH   1   2
ATOM      2  C   UNL     1      27.853   2.301   7.722  1.00  0.00     0.000 C 
BRANCH   2   3
ATOM      3  C   UNL     1      28.038   1.820   9.173  1.00  0.00     0.000 C 
BRANCH   3   4
ATOM      4  C   UNL     1      28.603   0.395   9.331  1.00  0.00     0.000 C 
BRANCH   4   5
ATOM      5  C   UNL     1      28.271  -0.523   8.143  1.00  0.00     0.000 C 
BRANCH   5   6
ATOM      6  C   UNL     1      26.985  -1.339   8.372  1.00  0.00     0.000 C 
BRANCH   6   7
ATOM      7  C   UNL     1      25.804  -0.928   7.476  1.00  0.00     0.000 C 
BRANCH   7   8
ATOM      8  C   UNL     1      26.217  -0.738   6.006  1.00  0.00     0.000 C 
BRANCH   8   9
ATOM      9  C   UNL     1      25.437   0.389   5.303  1.00  0.00     0.000 C 
BRANCH   9  10
ATOM     10  C   UNL     1      26.137   1.004   4.076  1.00  0.00     0.006 C 
BRANCH  10  11
ATOM     11  C   UNL     1      26.156   0.068   2.860  1.00  0.00     0.053 C 
BRANCH  11  12
ATOM     12  C   UNL     1      24.973   0.326   1.981  1.00  0.00     0.041 C 
ATOM     13  O   UNL     1      25.126   0.469   0.740  1.00  0.00    -0.550 OA
ATOM     14  O   UNL     1      23.707   0.456   2.539  1.00  0.00    -0.550 OA
ENDBRANCH  11  12
ENDBRANCH  10  11
ENDBRANCH   9  10
ENDBRANCH   8   9
ENDBRANCH   7   8
ENDBRANCH   6   7
ENDBRANCH   5   6
ENDBRANCH   4   5
ENDBRANCH   3   4
ENDBRANCH   2   3
ENDBRANCH   1   2
BRANCH   1  15
ATOM     15  C   UNL     1      25.410   2.439   8.489  1.00  0.00     0.000 C 
BRANCH  15  16
ATOM     16  C   UNL     1      23.972   2.889   8.161  1.00  0.00     0.000 C 
BRANCH  16  17
ATOM     17  C   UNL     1      23.849   3.446   6.731  1.00  0.00     0.000 C 
BRANCH  17  18
ATOM     18  C   UNL     1      22.832   4.597   6.624  1.00  0.00    -0.000 C 
BRANCH  18  19
ATOM     19  C   UNL     1      23.403   6.000   6.915  1.00  0.00    -0.000 C 
BRANCH  19  20
ATOM     20  C   UNL     1      24.679   6.366   6.129  1.00  0.00    -0.000 C 
BRANCH  20  21
ATOM     21  C   UNL     1      25.909   6.680   7.000  1.00  0.00    -0.000 C 
BRANCH  21  22
ATOM     22  C   UNL     1      25.698   6.313   8.478  1.00  0.00    -0.000 C 
BRANCH  22  23
ATOM     23  C   UNL     1      26.866   6.782   9.372  1.00  0.00    -0.000 C 
BRANCH  23  24
ATOM     24  C   UNL     1      27.895   5.679   9.682  1.00  0.00    -0.000 C 
BRANCH  24  25
ATOM     25  C   UNL     1      27.665   5.012  11.045  1.00  0.00    -0.003 C 
ATOM     26  C   UNL     1      28.983   4.554  11.665  1.00  0.00     0.004 C 
ENDBRANCH  24  25
ENDBRANCH  23  24
ENDBRANCH  22  23
ENDBRANCH  21  22
ENDBRANCH  20  21
ENDBRANCH  19  20
ENDBRANCH  18  19
ENDBRANCH  17  18
ENDBRANCH  16  17
ENDBRANCH  15  16
ENDBRANCH   1  15
TORSDOF 22
ENDMDL
MODEL 4
REMARK VINA RESULT:    -4.238      1.985      6.632
REMARK INTER + INTRA:         -13.746
REMARK INTER:                  -9.757
REMARK INTRA:                  -3.989
REMARK UNBOUND:                -4.057
REMARK SMILES CCCCCCCCCCCCCCCCCCCCCCCC(=O)[O-]
REMARK SMILES IDX 13 1 14 2 15 3 16 4 17 5 18 6 19 7 20 8 21 9 22 10 23 11
REMARK SMILES IDX 24 12 25 13 26 14 12 15 11 16 10 17 9 18 8 19 7 20 6 21 5 22
REMARK SMILES IDX 4 23 3 24 2 25 1 26
REMARK H PARENT
REMARK Flexibility Score: inf
ROOT
ATOM      1  C   UNL     1      25.119   1.931   7.851  1.00  0.00     0.000 C 
ENDROOT
BRANCH   1   2
ATOM      2  C   UNL     1      26.138   2.865   7.181  1.00  0.00     0.000 C 
BRANCH   2   3
ATOM      3  C   UNL     1      27.600   2.475   7.471  1.00  0.00     0.000 C 
BRANCH   3   4
ATOM      4  C   UNL     1      27.839   1.758   8.815  1.00  0.00     0.000 C 
BRANCH   4   5
ATOM      5  C   UNL     1      28.618   0.441   8.667  1.00  0.00     0.000 C 
BRANCH   5   6
ATOM      6  C   UNL     1      28.016  -0.697   9.513  1.00  0.00     0.000 C 
BRANCH   6   7
ATOM      7  C   UNL     1      27.392  -1.838   8.691  1.00  0.00     0.000 C 
BRANCH   7   8
ATOM      8  C   UNL     1      27.493  -1.597   7.175  1.00  0.00     0.000 C 
BRANCH   8   9
ATOM      9  C   UNL     1      26.312  -2.197   6.390  1.00  0.00     0.000 C 
BRANCH   9  10
ATOM     10  C   UNL     1      25.562  -1.208   5.478  1.00  0.00     0.006 C 
BRANCH  10  11
ATOM     11  C   UNL     1      26.459  -0.088   4.935  1.00  0.00     0.053 C 
BRANCH  11  12
ATOM     12  C   UNL     1      25.709   0.755   3.951  1.00  0.00     0.041 C 
ATOM     13  O   UNL     1      24.666   1.364   4.305  1.00  0.00    -0.550 OA
ATOM     14  O   UNL     1      26.135   0.827   2.631  1.00  0.00    -0.550 OA
ENDBRANCH  11  12
ENDBRANCH  10  11
ENDBRANCH   9  10
ENDBRANCH   8   9
ENDBRANCH   7   8
ENDBRANCH   6   7
ENDBRANCH   5   6
ENDBRANCH   4   5
ENDBRANCH   3   4
ENDBRANCH   2   3
ENDBRANCH   1   2
BRANCH   1  15
ATOM     15  C   UNL     1      23.687   2.496   7.838  1.00  0.00     0.000 C 
BRANCH  15  16
ATOM     16  C   UNL     1      23.356   3.335   6.586  1.00  0.00     0.000 C 
BRANCH  16  17
ATOM     17  C   UNL     1      22.680   4.671   6.944  1.00  0.00     0.000 C 
BRANCH  17  18
ATOM     18  C   UNL     1      23.681   5.734   7.432  1.00  0.00    -0.000 C 
BRANCH  18  19
ATOM     19  C   UNL     1      24.529   6.389   6.321  1.00  0.00    -0.000 C 
BRANCH  19  20
ATOM     20  C   UNL     1      26.043   6.460   6.605  1.00  0.00    -0.000 C 
BRANCH  20  21
ATOM     21  C   UNL     1      26.489   7.675   7.439  1.00  0.00    -0.000 C 
BRANCH  21  22
ATOM     22  C   UNL     1      26.430   7.409   8.952  1.00  0.00    -0.000 C 
BRANCH  22  23
ATOM     23  C   UNL     1      27.339   6.235   9.378  1.00  0.00    -0.000 C 
BRANCH  23  24
ATOM     24  C   UNL     1      26.581   5.070  10.041  1.00  0.00    -0.000 C 
BRANCH  24  25
ATOM     25  C   UNL     1      25.352   5.530  10.836  1.00  0.00    -0.003 C 
ATOM     26  C   UNL     1      24.275   4.449  10.863  1.00  0.00     0.004 C 
ENDBRANCH  24  25
ENDBRANCH  23  24
ENDBRANCH  22  23
ENDBRANCH  21  22
ENDBRANCH  20  21
ENDBRANCH  19  20
ENDBRANCH  18  19
ENDBRANCH  17  18
ENDBRANCH  16  17
ENDBRANCH  15  16
ENDBRANCH   1  15
TORSDOF 22
ENDMDL
MODEL 5
REMARK VINA RESULT:    -4.229      2.888      7.020
REMARK INTER + INTRA:         -13.724
REMARK INTER:                  -9.571
REMARK INTRA:                  -4.153
REMARK UNBOUND:                -4.057
REMARK SMILES CCCCCCCCCCCCCCCCCCCCCCCC(=O)[O-]
REMARK SMILES IDX 13 1 14 2 15 3 16 4 17 5 18 6 19 7 20 8 21 9 22 10 23 11
REMARK SMILES IDX 24 12 25 13 26 14 12 15 11 16 10 17 9 18 8 19 7 20 6 21 5 22
REMARK SMILES IDX 4 23 3 24 2 25 1 26
REMARK H PARENT
REMARK Flexibility Score: inf
ROOT
ATOM      1  C   UNL     1      22.198   2.904   8.479  1.00  0.00     0.000 C 
ENDROOT
BRANCH   1   2
ATOM      2  C   UNL     1      23.514   2.166   8.190  1.00  0.00     0.000 C 
BRANCH   2   3
ATOM      3  C   UNL     1      23.322   0.897   7.337  1.00  0.00     0.000 C 
BRANCH   3   4
ATOM      4  C   UNL     1      24.529   0.496   6.466  1.00  0.00     0.000 C 
BRANCH   4   5
ATOM      5  C   UNL     1      25.008   1.626   5.540  1.00  0.00     0.000 C 
BRANCH   5   6
ATOM      6  C   UNL     1      26.489   1.983   5.764  1.00  0.00     0.000 C 
BRANCH   6   7
ATOM      7  C   UNL     1      26.722   3.134   6.759  1.00  0.00     0.000 C 
BRANCH   7   8
ATOM      8  C   UNL     1      27.888   2.853   7.723  1.00  0.00     0.000 C 
BRANCH   8   9
ATOM      9  C   UNL     1      27.569   1.745   8.745  1.00  0.00     0.000 C 
BRANCH   9  10
ATOM     10  C   UNL     1      28.347   0.429   8.548  1.00  0.00     0.006 C 
BRANCH  10  11
ATOM     11  C   UNL     1      27.524  -0.817   8.902  1.00  0.00     0.053 C 
BRANCH  11  12
ATOM     12  C   UNL     1      27.775  -1.910   7.910  1.00  0.00     0.041 C 
ATOM     13  O   UNL     1      28.152  -3.045   8.302  1.00  0.00    -0.550 OA
ATOM     14  O   UNL     1      27.638  -1.659   6.551  1.00  0.00    -0.550 OA
ENDBRANCH  11  12
ENDBRANCH  10  11
ENDBRANCH   9  10
ENDBRANCH   8   9
ENDBRANCH   7   8
ENDBRANCH   6   7
ENDBRANCH   5   6
ENDBRANCH   4   5
ENDBRANCH   3   4
ENDBRANCH   2   3
ENDBRANCH   1   2
BRANCH   1  15
ATOM     15  C   UNL     1      22.067   4.224   7.697  1.00  0.00     0.000 C 
BRANCH  15  16
ATOM     16  C   UNL     1      23.337   4.619   6.915  1.00  0.00     0.000 C 
BRANCH  16  17
ATOM     17  C   UNL     1      23.642   6.124   7.024  1.00  0.00     0.000 C 
BRANCH  17  18
ATOM     18  C   UNL     1      24.753   6.578   6.061  1.00  0.00    -0.000 C 
BRANCH  18  19
ATOM     19  C   UNL     1      26.178   6.556   6.653  1.00  0.00    -0.000 C 
BRANCH  19  20
ATOM     20  C   UNL     1      26.491   7.685   7.657  1.00  0.00    -0.000 C 
BRANCH  20  21
ATOM     21  C   UNL     1      26.273   7.315   9.135  1.00  0.00    -0.000 C 
BRANCH  21  22
ATOM     22  C   UNL     1      27.356   6.367   9.676  1.00  0.00    -0.000 C 
BRANCH  22  23
ATOM     23  C   UNL     1      26.763   5.218  10.519  1.00  0.00    -0.000 C 
BRANCH  23  24
ATOM     24  C   UNL     1      25.477   4.612   9.928  1.00  0.00    -0.000 C 
BRANCH  24  25
ATOM     25  C   UNL     1      24.316   4.573  10.932  1.00  0.00    -0.003 C 
ATOM     26  C   UNL     1      24.213   5.884  11.707  1.00  0.00     0.004 C 
ENDBRANCH  24  25
ENDBRANCH  23  24
ENDBRANCH  22  23
ENDBRANCH  21  22
ENDBRANCH  20  21
ENDBRANCH  19  20
ENDBRANCH  18  19
ENDBRANCH  17  18
ENDBRANCH  16  17
ENDBRANCH  15  16
ENDBRANCH   1  15
TORSDOF 22
ENDMDL
MODEL 6
REMARK VINA RESULT:    -4.228      1.615      3.558
REMARK INTER + INTRA:         -13.723
REMARK INTER:                 -10.004
REMARK INTRA:                  -3.719
REMARK UNBOUND:                -4.057
REMARK SMILES CCCCCCCCCCCCCCCCCCCCCCCC(=O)[O-]
REMARK SMILES IDX 13 1 14 2 15 3 16 4 17 5 18 6 19 7 20 8 21 9 22 10 23 11
REMARK SMILES IDX 24 12 25 13 26 14 12 15 11 16 10 17 9 18 8 19 7 20 6 21 5 22
REMARK SMILES IDX 4 23 3 24 2 25 1 26
REMARK H PARENT
REMARK Flexibility Score: inf
ROOT
ATOM      1  C   UNL     1      27.741   6.005  10.066  1.00  0.00     0.000 C 
ENDROOT
BRANCH   1   2
ATOM      2  C   UNL     1      26.288   5.557  10.286  1.00  0.00     0.000 C 
BRANCH   2   3
ATOM      3  C   UNL     1      25.257   6.509   9.649  1.00  0.00     0.000 C 
BRANCH   3   4
ATOM      4  C   UNL     1      25.811   7.871   9.188  1.00  0.00     0.000 C 
BRANCH   4   5
ATOM      5  C   UNL     1      25.613   8.127   7.685  1.00  0.00     0.000 C 
BRANCH   5   6
ATOM      6  C   UNL     1      25.231   6.849   6.915  1.00  0.00     0.000 C 
BRANCH   6   7
ATOM      7  C   UNL     1      26.430   6.041   6.389  1.00  0.00     0.000 C 
BRANCH   7   8
ATOM      8  C   UNL     1      26.280   4.531   6.643  1.00  0.00     0.000 C 
BRANCH   8   9
ATOM      9  C   UNL     1      24.810   4.078   6.724  1.00  0.00     0.000 C 
BRANCH   9  10
ATOM     10  C   UNL     1      24.598   2.556   6.832  1.00  0.00     0.006 C 
BRANCH  10  11
ATOM     11  C   UNL     1      24.431   2.071   8.279  1.00  0.00     0.053 C 
BRANCH  11  12
ATOM     12  C   UNL     1      23.302   2.793   8.946  1.00  0.00     0.041 C 
ATOM     13  O   UNL     1      23.513   3.482   9.978  1.00  0.00    -0.550 OA
ATOM     14  O   UNL     1      22.008   2.665   8.455  1.00  0.00    -0.550 OA
ENDBRANCH  11  12
ENDBRANCH  10  11
ENDBRANCH   9  10
ENDBRANCH   8   9
ENDBRANCH   7   8
ENDBRANCH   6   7
ENDBRANCH   5   6
ENDBRANCH   4   5
ENDBRANCH   3   4
ENDBRANCH   2   3
ENDBRANCH   1   2
BRANCH   1  15
ATOM     15  C   UNL     1      28.734   4.829  10.039  1.00  0.00     0.000 C 
BRANCH  15  16
ATOM     16  C   UNL     1      28.487   3.774  11.137  1.00  0.00     0.000 C 
BRANCH  16  17
ATOM     17  C   UNL     1      28.253   2.370  10.552  1.00  0.00     0.000 C 
BRANCH  17  18
ATOM     18  C   UNL     1      27.847   2.402   9.068  1.00  0.00    -0.000 C 
BRANCH  18  19
ATOM     19  C   UNL     1      28.136   1.103   8.285  1.00  0.00    -0.000 C 
BRANCH  19  20
ATOM     20  C   UNL     1      28.220  -0.176   9.142  1.00  0.00    -0.000 C 
BRANCH  20  21
ATOM     21  C   UNL     1      27.835  -1.474   8.409  1.00  0.00    -0.000 C 
BRANCH  21  22
ATOM     22  C   UNL     1      27.441  -1.231   6.942  1.00  0.00    -0.000 C 
BRANCH  22  23
ATOM     23  C   UNL     1      25.911  -1.241   6.736  1.00  0.00    -0.000 C 
BRANCH  23  24
ATOM     24  C   UNL     1      25.464  -0.708   5.362  1.00  0.00    -0.000 C 
BRANCH  24  25
ATOM     25  C   UNL     1      26.485   0.247   4.729  1.00  0.00    -0.003 C 
ATOM     26  C   UNL     1      25.980   0.791   3.396  1.00  0.00     0.004 C 
ENDBRANCH  24  25
ENDBRANCH  23  24
ENDBRANCH  22  23
ENDBRANCH  21  22
ENDBRANCH  20  21
ENDBRANCH  19  20
ENDBRANCH  18  19
ENDBRANCH  17  18
ENDBRANCH  16  17
ENDBRANCH  15  16
ENDBRANCH   1  15
TORSDOF 22
ENDMDL
MODEL 7
REMARK VINA RESULT:    -4.215      2.284      6.737
REMARK INTER + INTRA:         -13.692
REMARK INTER:                 -10.298
REMARK INTRA:                  -3.395
REMARK UNBOUND:                -4.057
REMARK SMILES CCCCCCCCCCCCCCCCCCCCCCCC(=O)[O-]
REMARK SMILES IDX 13 1 14 2 15 3 16 4 17 5 18 6 19 7 20 8 21 9 22 10 23 11
REMARK SMILES IDX 24 12 25 13 26 14 12 15 11 16 10 17 9 18 8 19 7 20 6 21 5 22
REMARK SMILES IDX 4 23 3 24 2 25 1 26
REMARK H PARENT
REMARK Flexibility Score: inf
ROOT
ATOM      1  C   UNL     1      25.005   5.199   6.773  1.00  0.00     0.000 C 
ENDROOT
BRANCH   1   2
ATOM      2  C   UNL     1      25.547   3.826   6.347  1.00  0.00     0.000 C 
BRANCH   2   3
ATOM      3  C   UNL     1      26.012   2.963   7.535  1.00  0.00     0.000 C 
BRANCH   3   4
ATOM      4  C   UNL     1      27.459   2.438   7.445  1.00  0.00     0.000 C 
BRANCH   4   5
ATOM      5  C   UNL     1      27.912   1.694   8.712  1.00  0.00     0.000 C 
BRANCH   5   6
ATOM      6  C   UNL     1      28.116   0.187   8.468  1.00  0.00     0.000 C 
BRANCH   6   7
ATOM      7  C   UNL     1      26.941  -0.508   7.758  1.00  0.00     0.000 C 
BRANCH   7   8
ATOM      8  C   UNL     1      27.408  -1.500   6.679  1.00  0.00     0.000 C 
BRANCH   8   9
ATOM      9  C   UNL     1      26.914  -1.130   5.268  1.00  0.00     0.000 C 
BRANCH   9  10
ATOM     10  C   UNL     1      26.194   0.227   5.160  1.00  0.00     0.006 C 
BRANCH  10  11
ATOM     11  C   UNL     1      26.329   0.875   3.776  1.00  0.00     0.053 C 
BRANCH  11  12
ATOM     12  C   UNL     1      25.194   0.463   2.891  1.00  0.00     0.041 C 
ATOM     13  O   UNL     1      24.010   0.515   3.315  1.00  0.00    -0.550 OA
ATOM     14  O   UNL     1      25.449  -0.024   1.615  1.00  0.00    -0.550 OA
ENDBRANCH  11  12
ENDBRANCH  10  11
ENDBRANCH   9  10
ENDBRANCH   8   9
ENDBRANCH   7   8
ENDBRANCH   6   7
ENDBRANCH   5   6
ENDBRANCH   4   5
ENDBRANCH   3   4
ENDBRANCH   2   3
ENDBRANCH   1   2
BRANCH   1  15
ATOM     15  C   UNL     1      26.110   6.263   6.915  1.00  0.00     0.000 C 
BRANCH  15  16
ATOM     16  C   UNL     1      25.578   7.695   7.129  1.00  0.00     0.000 C 
BRANCH  16  17
ATOM     17  C   UNL     1      26.031   8.288   8.475  1.00  0.00     0.000 C 
BRANCH  17  18
ATOM     18  C   UNL     1      24.851   8.712   9.368  1.00  0.00    -0.000 C 
BRANCH  18  19
ATOM     19  C   UNL     1      23.641   7.754   9.346  1.00  0.00    -0.000 C 
BRANCH  19  20
ATOM     20  C   UNL     1      23.331   7.055  10.686  1.00  0.00    -0.000 C 
BRANCH  20  21
ATOM     21  C   UNL     1      24.488   6.218  11.262  1.00  0.00    -0.000 C 
BRANCH  21  22
ATOM     22  C   UNL     1      24.864   5.028  10.364  1.00  0.00    -0.000 C 
BRANCH  22  23
ATOM     23  C   UNL     1      26.302   4.530  10.621  1.00  0.00    -0.000 C 
BRANCH  23  24
ATOM     24  C   UNL     1      27.379   5.614  10.434  1.00  0.00    -0.000 C 
BRANCH  24  25
ATOM     25  C   UNL     1      28.716   5.251  11.095  1.00  0.00    -0.003 C 
ATOM     26  C   UNL     1      28.735   3.790  11.535  1.00  0.00     0.004 C 
ENDBRANCH  24  25
ENDBRANCH  23  24
ENDBRANCH  22  23
ENDBRANCH  21  22
ENDBRANCH  20  21
ENDBRANCH  19  20
ENDBRANCH  18  19
ENDBRANCH  17  18
ENDBRANCH  16  17
ENDBRANCH  15  16
ENDBRANCH   1  15
TORSDOF 22
ENDMDL
MODEL 8
REMARK VINA RESULT:    -4.214      1.832      6.024
REMARK INTER + INTRA:         -13.692
REMARK INTER:                  -9.526
REMARK INTRA:                  -4.166
REMARK UNBOUND:                -4.057
REMARK SMILES CCCCCCCCCCCCCCCCCCCCCCCC(=O)[O-]
REMARK SMILES IDX 13 1 14 2 15 3 16 4 17 5 18 6 19 7 20 8 21 9 22 10 23 11
REMARK SMILES IDX 24 12 25 13 26 14 12 15 11 16 10 17 9 18 8 19 7 20 6 21 5 22
REMARK SMILES IDX 4 23 3 24 2 25 1 26
REMARK H PARENT
REMARK Flexibility Score: inf
ROOT
ATOM      1  C   UNL     1      27.712   3.559   8.892  1.00  0.00     0.000 C 
ENDROOT
BRANCH   1   2
ATOM      2  C   UNL     1      27.742   2.023   8.847  1.00  0.00     0.000 C 
BRANCH   2   3
ATOM      3  C   UNL     1      27.240   1.446   7.509  1.00  0.00     0.000 C 
BRANCH   3   4
ATOM      4  C   UNL     1      26.838   2.490   6.448  1.00  0.00     0.000 C 
BRANCH   4   5
ATOM      5  C   UNL     1      26.204   1.864   5.195  1.00  0.00     0.000 C 
BRANCH   5   6
ATOM      6  C   UNL     1      24.704   1.568   5.380  1.00  0.00     0.000 C 
BRANCH   6   7
ATOM      7  C   UNL     1      23.991   2.495   6.380  1.00  0.00     0.000 C 
BRANCH   7   8
ATOM      8  C   UNL     1      23.129   1.719   7.391  1.00  0.00     0.000 C 
BRANCH   8   9
ATOM      9  C   UNL     1      23.177   2.320   8.808  1.00  0.00     0.000 C 
BRANCH   9  10
ATOM     10  C   UNL     1      23.952   3.646   8.932  1.00  0.00     0.006 C 
BRANCH  10  11
ATOM     11  C   UNL     1      24.339   3.987  10.377  1.00  0.00     0.053 C 
BRANCH  11  12
ATOM     12  C   UNL     1      23.678   5.258  10.811  1.00  0.00     0.041 C 
ATOM     13  O   UNL     1      22.642   5.665  10.224  1.00  0.00    -0.550 OA
ATOM     14  O   UNL     1      24.235   6.018  11.832  1.00  0.00    -0.550 OA
ENDBRANCH  11  12
ENDBRANCH  10  11
ENDBRANCH   9  10
ENDBRANCH   8   9
ENDBRANCH   7   8
ENDBRANCH   6   7
ENDBRANCH   5   6
ENDBRANCH   4   5
ENDBRANCH   3   4
ENDBRANCH   2   3
ENDBRANCH   1   2
BRANCH   1  15
ATOM     15  C   UNL     1      27.994   4.123  10.296  1.00  0.00     0.000 C 
BRANCH  15  16
ATOM     16  C   UNL     1      27.625   5.612  10.459  1.00  0.00     0.000 C 
BRANCH  16  17
ATOM     17  C   UNL     1      27.143   6.239   9.139  1.00  0.00     0.000 C 
BRANCH  17  18
ATOM     18  C   UNL     1      26.253   7.477   9.356  1.00  0.00    -0.000 C 
BRANCH  18  19
ATOM     19  C   UNL     1      25.906   8.263   8.074  1.00  0.00    -0.000 C 
BRANCH  19  20
ATOM     20  C   UNL     1      26.413   7.633   6.759  1.00  0.00    -0.000 C 
BRANCH  20  21
ATOM     21  C   UNL     1      25.308   7.219   5.772  1.00  0.00    -0.000 C 
BRANCH  21  22
ATOM     22  C   UNL     1      24.484   6.020   6.273  1.00  0.00    -0.000 C 
BRANCH  22  23
ATOM     23  C   UNL     1      23.146   6.454   6.911  1.00  0.00    -0.000 C 
BRANCH  23  24
ATOM     24  C   UNL     1      21.948   6.396   5.945  1.00  0.00    -0.000 C 
BRANCH  24  25
ATOM     25  C   UNL     1      21.166   5.079   6.039  1.00  0.00    -0.003 C 
ATOM     26  C   UNL     1      20.561   4.894   7.428  1.00  0.00     0.004 C 
ENDBRANCH  24  25
ENDBRANCH  23  24
ENDBRANCH  22  23
ENDBRANCH  21  22
ENDBRANCH  20  21
ENDBRANCH  19  20
ENDBRANCH  18  19
ENDBRANCH  17  18
ENDBRANCH  16  17
ENDBRANCH  15  16
ENDBRANCH   1  15
TORSDOF 22
ENDMDL
MODEL 9
REMARK VINA RESULT:    -4.212      2.229      6.063
REMARK INTER + INTRA:         -13.687
REMARK INTER:                  -9.360
REMARK INTRA:                  -4.327
REMARK UNBOUND:                -4.057
REMARK SMILES CCCCCCCCCCCCCCCCCCCCCCCC(=O)[O-]
REMARK SMILES IDX 13 1 14 2 15 3 16 4 17 5 18 6 19 7 20 8 21 9 22 10 23 11
REMARK SMILES IDX 24 12 25 13 26 14 12 15 11 16 10 17 9 18 8 19 7 20 6 21 5 22
REMARK SMILES IDX 4 23 3 24 2 25 1 26
REMARK H PARENT
REMARK Flexibility Score: inf
ROOT
ATOM      1  C   UNL     1      25.954   8.154   8.243  1.00  0.00     0.000 C 
ENDROOT
BRANCH   1   2
ATOM      2  C   UNL     1      26.025   7.342   9.546  1.00  0.00     0.000 C 
BRANCH   2   3
ATOM      3  C   UNL     1      27.195   6.340   9.571  1.00  0.00     0.000 C 
BRANCH   3   4
ATOM      4  C   UNL     1      27.162   5.313  10.721  1.00  0.00     0.000 C 
BRANCH   4   5
ATOM      5  C   UNL     1      27.574   3.899  10.281  1.00  0.00     0.000 C 
BRANCH   5   6
ATOM      6  C   UNL     1      27.784   3.794   8.758  1.00  0.00     0.000 C 
BRANCH   6   7
ATOM      7  C   UNL     1      27.835   2.353   8.222  1.00  0.00     0.000 C 
BRANCH   7   8
ATOM      8  C   UNL     1      27.293   2.238   6.786  1.00  0.00     0.000 C 
BRANCH   8   9
ATOM      9  C   UNL     1      26.271   1.099   6.619  1.00  0.00     0.000 C 
BRANCH   9  10
ATOM     10  C   UNL     1      26.445   0.243   5.350  1.00  0.00     0.006 C 
BRANCH  10  11
ATOM     11  C   UNL     1      26.148   1.013   4.056  1.00  0.00     0.053 C 
BRANCH  11  12
ATOM     12  C   UNL     1      24.781   0.677   3.548  1.00  0.00     0.041 C 
ATOM     13  O   UNL     1      23.761   1.071   4.170  1.00  0.00    -0.550 OA
ATOM     14  O   UNL     1      24.636  -0.111   2.413  1.00  0.00    -0.550 OA
ENDBRANCH  11  12
ENDBRANCH  10  11
ENDBRANCH   9  10
ENDBRANCH   8   9
ENDBRANCH   7   8
ENDBRANCH   6   7
ENDBRANCH   5   6
ENDBRANCH   4   5
ENDBRANCH   3   4
ENDBRANCH   2   3
ENDBRANCH   1   2
BRANCH   1  15
ATOM     15  C   UNL     1      26.543   7.403   7.035  1.00  0.00     0.000 C 
BRANCH  15  16
ATOM     16  C   UNL     1      25.568   7.265   5.848  1.00  0.00     0.000 C 
BRANCH  16  17
ATOM     17  C   UNL     1      24.414   6.292   6.153  1.00  0.00     0.000 C 
BRANCH  17  18
ATOM     18  C   UNL     1      24.907   4.919   6.645  1.00  0.00    -0.000 C 
BRANCH  18  19
ATOM     19  C   UNL     1      23.793   3.884   6.912  1.00  0.00    -0.000 C 
BRANCH  19  20
ATOM     20  C   UNL     1      23.760   3.308   8.342  1.00  0.00    -0.000 C 
BRANCH  20  21
ATOM     21  C   UNL     1      23.858   4.356   9.465  1.00  0.00    -0.000 C 
BRANCH  21  22
ATOM     22  C   UNL     1      22.516   5.053   9.746  1.00  0.00    -0.000 C 
BRANCH  22  23
ATOM     23  C   UNL     1      22.465   6.483   9.167  1.00  0.00    -0.000 C 
BRANCH  23  24
ATOM     24  C   UNL     1      21.165   6.800   8.405  1.00  0.00    -0.000 C 
BRANCH  24  25
ATOM     25  C   UNL     1      20.587   5.580   7.673  1.00  0.00    -0.003 C 
ATOM     26  C   UNL     1      20.727   5.727   6.160  1.00  0.00     0.004 C 
ENDBRANCH  24  25
ENDBRANCH  23  24
ENDBRANCH  22  23
ENDBRANCH  21  22
ENDBRANCH  20  21
ENDBRANCH  19  20
ENDBRANCH  18  19
ENDBRANCH  17  18
ENDBRANCH  16  17
ENDBRANCH  15  16
ENDBRANCH   1  15
TORSDOF 22
ENDMDL
