MODEL 1
REMARK VINA RESULT:    -2.701      0.000      0.000
REMARK INTER + INTRA:          -5.535
REMARK INTER:                  -5.070
REMARK INTRA:                  -0.465
REMARK UNBOUND:                -0.465
REMARK SMILES CCCCCCCCC=CCCCCCCCC(=O)[O-]
REMARK SMILES IDX 10 1 9 2 11 3 12 4 13 5 14 6 15 7 16 8 17 9 18 10 19 11
REMARK SMILES IDX 20 12 8 13 7 14 6 15 5 16 4 17 3 18 2 19 1 20
REMARK H PARENT
REMARK Flexibility Score: inf
ROOT
ATOM      1  C   UNL     1      41.463  13.323 -36.530  1.00  0.00    -0.031 C 
ATOM      2  C   UNL     1      40.483  13.803 -35.751  1.00  0.00    -0.031 C 
ENDROOT
BRANCH   1   3
ATOM      3  C   UNL     1      42.808  12.981 -35.948  1.00  0.00     0.027 C 
BRANCH   3   4
ATOM      4  C   UNL     1      42.707  11.783 -34.992  1.00  0.00     0.004 C 
BRANCH   4   5
ATOM      5  C   UNL     1      43.466  12.013 -33.674  1.00  0.00     0.000 C 
BRANCH   5   6
ATOM      6  C   UNL     1      44.885  12.558 -33.894  1.00  0.00     0.000 C 
BRANCH   6   7
ATOM      7  C   UNL     1      45.544  12.923 -32.559  1.00  0.00     0.000 C 
BRANCH   7   8
ATOM      8  C   UNL     1      46.762  12.028 -32.282  1.00  0.00     0.006 C 
BRANCH   8   9
ATOM      9  C   UNL     1      46.467  10.954 -31.227  1.00  0.00     0.053 C 
BRANCH   9  10
ATOM     10  C   UNL     1      46.337  11.545 -29.856  1.00  0.00     0.041 C 
ATOM     11  O   UNL     1      47.091  11.160 -28.926  1.00  0.00    -0.550 OA
ATOM     12  O   UNL     1      45.403  12.546 -29.617  1.00  0.00    -0.550 OA
ENDBRANCH   9  10
ENDBRANCH   8   9
ENDBRANCH   7   8
ENDBRANCH   6   7
ENDBRANCH   5   6
ENDBRANCH   4   5
ENDBRANCH   3   4
ENDBRANCH   1   3
BRANCH   2  13
ATOM     13  C   UNL     1      39.134  14.165 -36.313  1.00  0.00     0.027 C 
BRANCH  13  14
ATOM     14  C   UNL     1      38.145  14.619 -35.226  1.00  0.00     0.004 C 
BRANCH  14  15
ATOM     15  C   UNL     1      37.117  13.546 -34.820  1.00  0.00     0.000 C 
BRANCH  15  16
ATOM     16  C   UNL     1      37.435  12.900 -33.463  1.00  0.00     0.000 C 
BRANCH  16  17
ATOM     17  C   UNL     1      36.876  13.747 -32.309  1.00  0.00    -0.000 C 
BRANCH  17  18
ATOM     18  C   UNL     1      37.259  13.197 -30.923  1.00  0.00    -0.000 C 
BRANCH  18  19
ATOM     19  C   UNL     1      37.175  14.219 -29.776  1.00  0.00    -0.003 C 
ATOM     20  C   UNL     1      37.973  15.494 -30.051  1.00  0.00     0.004 C 
ENDBRANCH  18  19
ENDBRANCH  17  18
ENDBRANCH  16  17
ENDBRANCH  15  16
ENDBRANCH  14  15
ENDBRANCH  13  14
ENDBRANCH   2  13
TORSDOF 15
ENDMDL
MODEL 2
REMARK VINA RESULT:    -2.281      1.180      1.916
REMARK INTER + INTRA:          -4.747
REMARK INTER:                  -3.765
REMARK INTRA:                  -0.982
REMARK UNBOUND:                -0.465
REMARK SMILES CCCCCCCCC=CCCCCCCCC(=O)[O-]
REMARK SMILES IDX 10 1 9 2 11 3 12 4 13 5 14 6 15 7 16 8 17 9 18 10 19 11
REMARK SMILES IDX 20 12 8 13 7 14 6 15 5 16 4 17 3 18 2 19 1 20
REMARK H PARENT
REMARK Flexibility Score: inf
ROOT
ATOM      1  C   UNL     1      39.911  14.470 -35.435  1.00  0.00    -0.031 C 
ATOM      2  C   UNL     1      39.155  13.852 -36.354  1.00  0.00    -0.031 C 
ENDROOT
BRANCH   1   3
ATOM      3  C   UNL     1      41.398  14.241 -35.385  1.00  0.00     0.027 C 
BRANCH   3   4
ATOM      4  C   UNL     1      41.820  13.135 -36.364  1.00  0.00     0.004 C 
BRANCH   4   5
ATOM      5  C   UNL     1      42.306  11.865 -35.647  1.00  0.00     0.000 C 
BRANCH   5   6
ATOM      6  C   UNL     1      43.830  11.840 -35.453  1.00  0.00     0.000 C 
BRANCH   6   7
ATOM      7  C   UNL     1      44.199  12.102 -33.988  1.00  0.00     0.000 C 
BRANCH   7   8
ATOM      8  C   UNL     1      45.590  12.746 -33.877  1.00  0.00     0.006 C 
BRANCH   8   9
ATOM      9  C   UNL     1      45.879  13.263 -32.462  1.00  0.00     0.053 C 
BRANCH   9  10
ATOM     10  C   UNL     1      45.828  12.160 -31.448  1.00  0.00     0.041 C 
ATOM     11  O   UNL     1      46.686  11.240 -31.468  1.00  0.00    -0.550 OA
ATOM     12  O   UNL     1      44.849  12.168 -30.462  1.00  0.00    -0.550 OA
ENDBRANCH   9  10
ENDBRANCH   8   9
ENDBRANCH   7   8
ENDBRANCH   6   7
ENDBRANCH   5   6
ENDBRANCH   4   5
ENDBRANCH   3   4
ENDBRANCH   1   3
BRANCH   2  13
ATOM     13  C   UNL     1      37.665  14.054 -36.415  1.00  0.00     0.027 C 
BRANCH  13  14
ATOM     14  C   UNL     1      36.881  12.771 -36.090  1.00  0.00     0.004 C 
BRANCH  14  15
ATOM     15  C   UNL     1      36.875  12.397 -34.596  1.00  0.00     0.000 C 
BRANCH  15  16
ATOM     16  C   UNL     1      36.875  13.626 -33.675  1.00  0.00     0.000 C 
BRANCH  16  17
ATOM     17  C   UNL     1      36.924  13.203 -32.198  1.00  0.00    -0.000 C 
BRANCH  17  18
ATOM     18  C   UNL     1      37.314  14.358 -31.257  1.00  0.00    -0.000 C 
BRANCH  18  19
ATOM     19  C   UNL     1      36.939  14.144 -29.781  1.00  0.00    -0.003 C 
ATOM     20  C   UNL     1      36.980  12.675 -29.360  1.00  0.00     0.004 C 
ENDBRANCH  18  19
ENDBRANCH  17  18
ENDBRANCH  16  17
ENDBRANCH  15  16
ENDBRANCH  14  15
ENDBRANCH  13  14
ENDBRANCH   2  13
TORSDOF 15
ENDMDL
MODEL 3
REMARK VINA RESULT:    -1.311     19.448     22.079
REMARK INTER + INTRA:          -2.926
REMARK INTER:                  -1.816
REMARK INTRA:                  -1.110
REMARK UNBOUND:                -0.465
REMARK SMILES CCCCCCCCC=CCCCCCCCC(=O)[O-]
REMARK SMILES IDX 10 1 9 2 11 3 12 4 13 5 14 6 15 7 16 8 17 9 18 10 19 11
REMARK SMILES IDX 20 12 8 13 7 14 6 15 5 16 4 17 3 18 2 19 1 20
REMARK H PARENT
REMARK Flexibility Score: inf
ROOT
ATOM      1  C   UNL     1      55.978  27.178 -34.480  1.00  0.00    -0.031 C 
ATOM      2  C   UNL     1      56.543  28.318 -34.901  1.00  0.00    -0.031 C 
ENDROOT
BRANCH   1   3
ATOM      3  C   UNL     1      56.610  25.848 -34.790  1.00  0.00     0.027 C 
BRANCH   3   4
ATOM      4  C   UNL     1      55.662  24.962 -35.612  1.00  0.00     0.004 C 
BRANCH   4   5
ATOM      5  C   UNL     1      54.617  25.778 -36.391  1.00  0.00     0.000 C 
BRANCH   5   6
ATOM      6  C   UNL     1      55.128  26.239 -37.764  1.00  0.00     0.000 C 
BRANCH   6   7
ATOM      7  C   UNL     1      53.959  26.612 -38.685  1.00  0.00     0.000 C 
BRANCH   7   8
ATOM      8  C   UNL     1      53.794  28.137 -38.775  1.00  0.00     0.006 C 
BRANCH   8   9
ATOM      9  C   UNL     1      55.117  28.880 -38.553  1.00  0.00     0.053 C 
BRANCH   9  10
ATOM     10  C   UNL     1      54.899  30.228 -37.937  1.00  0.00     0.041 C 
ATOM     11  O   UNL     1      53.736  30.699 -37.838  1.00  0.00    -0.550 OA
ATOM     12  O   UNL     1      55.979  30.950 -37.443  1.00  0.00    -0.550 OA
ENDBRANCH   9  10
ENDBRANCH   8   9
ENDBRANCH   7   8
ENDBRANCH   6   7
ENDBRANCH   5   6
ENDBRANCH   4   5
ENDBRANCH   3   4
ENDBRANCH   1   3
BRANCH   2  13
ATOM     13  C   UNL     1      55.922  29.659 -34.616  1.00  0.00     0.027 C 
BRANCH  13  14
ATOM     14  C   UNL     1      56.969  30.733 -34.275  1.00  0.00     0.004 C 
BRANCH  14  15
ATOM     15  C   UNL     1      57.011  31.125 -32.786  1.00  0.00     0.000 C 
BRANCH  15  16
ATOM     16  C   UNL     1      57.125  29.909 -31.855  1.00  0.00     0.000 C 
BRANCH  16  17
ATOM     17  C   UNL     1      56.034  29.944 -30.773  1.00  0.00    -0.000 C 
BRANCH  17  18
ATOM     18  C   UNL     1      56.083  28.726 -29.833  1.00  0.00    -0.000 C 
BRANCH  18  19
ATOM     19  C   UNL     1      56.710  28.997 -28.454  1.00  0.00    -0.003 C 
ATOM     20  C   UNL     1      56.887  30.487 -28.160  1.00  0.00     0.004 C 
ENDBRANCH  18  19
ENDBRANCH  17  18
ENDBRANCH  16  17
ENDBRANCH  15  16
ENDBRANCH  14  15
ENDBRANCH  13  14
ENDBRANCH   2  13
TORSDOF 15
ENDMDL
MODEL 4
REMARK VINA RESULT:    -1.171      2.568      4.854
REMARK INTER + INTRA:          -2.662
REMARK INTER:                  -2.084
REMARK INTRA:                  -0.578
REMARK UNBOUND:                -0.465
REMARK SMILES CCCCCCCCC=CCCCCCCCC(=O)[O-]
REMARK SMILES IDX 10 1 9 2 11 3 12 4 13 5 14 6 15 7 16 8 17 9 18 10 19 11
REMARK SMILES IDX 20 12 8 13 7 14 6 15 5 16 4 17 3 18 2 19 1 20
REMARK H PARENT
REMARK Flexibility Score: inf
ROOT
ATOM      1  C   UNL     1      44.657  12.000 -33.328  1.00  0.00    -0.031 C 
ATOM      2  C   UNL     1      43.902  12.657 -34.219  1.00  0.00    -0.031 C 
ENDROOT
BRANCH   1   3
ATOM      3  C   UNL     1      45.158  12.691 -32.088  1.00  0.00     0.027 C 
BRANCH   3   4
ATOM      4  C   UNL     1      46.448  12.036 -31.573  1.00  0.00     0.004 C 
BRANCH   4   5
ATOM      5  C   UNL     1      46.192  11.043 -30.428  1.00  0.00     0.000 C 
BRANCH   5   6
ATOM      6  C   UNL     1      46.597  11.603 -29.056  1.00  0.00     0.000 C 
BRANCH   6   7
ATOM      7  C   UNL     1      45.854  10.877 -27.928  1.00  0.00     0.000 C 
BRANCH   7   8
ATOM      8  C   UNL     1      45.030  11.864 -27.086  1.00  0.00     0.006 C 
BRANCH   8   9
ATOM      9  C   UNL     1      44.709  11.312 -25.692  1.00  0.00     0.053 C 
BRANCH   9  10
ATOM     10  C   UNL     1      44.433  12.411 -24.711  1.00  0.00     0.041 C 
ATOM     11  O   UNL     1      45.249  12.652 -23.783  1.00  0.00    -0.550 OA
ATOM     12  O   UNL     1      43.290  13.189 -24.843  1.00  0.00    -0.550 OA
ENDBRANCH   9  10
ENDBRANCH   8   9
ENDBRANCH   7   8
ENDBRANCH   6   7
ENDBRANCH   5   6
ENDBRANCH   4   5
ENDBRANCH   3   4
ENDBRANCH   1   3
BRANCH   2  13
ATOM     13  C   UNL     1      43.400  11.992 -35.472  1.00  0.00     0.027 C 
BRANCH  13  14
ATOM     14  C   UNL     1      41.921  12.304 -35.755  1.00  0.00     0.004 C 
BRANCH  14  15
ATOM     15  C   UNL     1      41.678  13.680 -36.401  1.00  0.00     0.000 C 
BRANCH  15  16
ATOM     16  C   UNL     1      40.554  14.470 -35.713  1.00  0.00     0.000 C 
BRANCH  16  17
ATOM     17  C   UNL     1      39.202  13.759 -35.883  1.00  0.00    -0.000 C 
BRANCH  17  18
ATOM     18  C   UNL     1      38.041  14.511 -35.206  1.00  0.00    -0.000 C 
BRANCH  18  19
ATOM     19  C   UNL     1      36.972  13.608 -34.567  1.00  0.00    -0.003 C 
ATOM     20  C   UNL     1      37.270  13.268 -33.107  1.00  0.00     0.004 C 
ENDBRANCH  18  19
ENDBRANCH  17  18
ENDBRANCH  16  17
ENDBRANCH  15  16
ENDBRANCH  14  15
ENDBRANCH  13  14
ENDBRANCH   2  13
TORSDOF 15
ENDMDL
MODEL 5
REMARK VINA RESULT:    -1.107      4.123      8.312
REMARK INTER + INTRA:          -2.542
REMARK INTER:                  -1.750
REMARK INTRA:                  -0.793
REMARK UNBOUND:                -0.465
REMARK SMILES CCCCCCCCC=CCCCCCCCC(=O)[O-]
REMARK SMILES IDX 10 1 9 2 11 3 12 4 13 5 14 6 15 7 16 8 17 9 18 10 19 11
REMARK SMILES IDX 20 12 8 13 7 14 6 15 5 16 4 17 3 18 2 19 1 20
REMARK H PARENT
REMARK Flexibility Score: inf
ROOT
ATOM      1  C   UNL     1      44.789  12.183 -32.530  1.00  0.00    -0.031 C 
ATOM      2  C   UNL     1      46.076  12.551 -32.465  1.00  0.00    -0.031 C 
ENDROOT
BRANCH   1   3
ATOM      3  C   UNL     1      43.928  12.605 -33.690  1.00  0.00     0.027 C 
BRANCH   3   4
ATOM      4  C   UNL     1      43.998  11.580 -34.832  1.00  0.00     0.004 C 
BRANCH   4   5
ATOM      5  C   UNL     1      43.301  12.071 -36.111  1.00  0.00     0.000 C 
BRANCH   5   6
ATOM      6  C   UNL     1      41.832  12.452 -35.877  1.00  0.00     0.000 C 
BRANCH   6   7
ATOM      7  C   UNL     1      41.526  13.836 -36.463  1.00  0.00     0.000 C 
BRANCH   7   8
ATOM      8  C   UNL     1      40.373  14.513 -35.706  1.00  0.00     0.006 C 
BRANCH   8   9
ATOM      9  C   UNL     1      39.365  13.497 -35.153  1.00  0.00     0.053 C 
BRANCH   9  10
ATOM     10  C   UNL     1      37.952  13.953 -35.354  1.00  0.00     0.041 C 
ATOM     11  O   UNL     1      37.320  13.620 -36.390  1.00  0.00    -0.550 OA
ATOM     12  O   UNL     1      37.324  14.720 -34.380  1.00  0.00    -0.550 OA
ENDBRANCH   9  10
ENDBRANCH   8   9
ENDBRANCH   7   8
ENDBRANCH   6   7
ENDBRANCH   5   6
ENDBRANCH   4   5
ENDBRANCH   3   4
ENDBRANCH   1   3
BRANCH   2  13
ATOM     13  C   UNL     1      46.953  12.153 -31.308  1.00  0.00     0.027 C 
BRANCH  13  14
ATOM     14  C   UNL     1      46.430  10.908 -30.571  1.00  0.00     0.004 C 
BRANCH  14  15
ATOM     15  C   UNL     1      46.673  10.926 -29.050  1.00  0.00     0.000 C 
BRANCH  15  16
ATOM     16  C   UNL     1      45.457  11.432 -28.260  1.00  0.00     0.000 C 
BRANCH  16  17
ATOM     17  C   UNL     1      45.516  10.957 -26.800  1.00  0.00    -0.000 C 
BRANCH  17  18
ATOM     18  C   UNL     1      44.321  11.446 -25.962  1.00  0.00    -0.000 C 
BRANCH  18  19
ATOM     19  C   UNL     1      44.693  12.320 -24.752  1.00  0.00    -0.003 C 
ATOM     20  C   UNL     1      43.706  13.462 -24.512  1.00  0.00     0.004 C 
ENDBRANCH  18  19
ENDBRANCH  17  18
ENDBRANCH  16  17
ENDBRANCH  15  16
ENDBRANCH  14  15
ENDBRANCH  13  14
ENDBRANCH   2  13
TORSDOF 15
ENDMDL
MODEL 6
REMARK VINA RESULT:    -0.907     18.981     21.330
REMARK INTER + INTRA:          -2.166
REMARK INTER:                  -0.892
REMARK INTRA:                  -1.274
REMARK UNBOUND:                -0.465
REMARK SMILES CCCCCCCCC=CCCCCCCCC(=O)[O-]
REMARK SMILES IDX 10 1 9 2 11 3 12 4 13 5 14 6 15 7 16 8 17 9 18 10 19 11
REMARK SMILES IDX 20 12 8 13 7 14 6 15 5 16 4 17 3 18 2 19 1 20
REMARK H PARENT
REMARK Flexibility Score: inf
ROOT
ATOM      1  C   UNL     1      53.862  29.651 -38.358  1.00  0.00    -0.031 C 
ATOM      2  C   UNL     1      54.664  28.580 -38.284  1.00  0.00    -0.031 C 
ENDROOT
BRANCH   1   3
ATOM      3  C   UNL     1      54.251  30.948 -37.700  1.00  0.00     0.027 C 
BRANCH   3   4
ATOM      4  C   UNL     1      55.666  30.866 -37.110  1.00  0.00     0.004 C 
BRANCH   4   5
ATOM      5  C   UNL     1      55.691  31.125 -35.594  1.00  0.00     0.000 C 
BRANCH   5   6
ATOM      6  C   UNL     1      57.107  31.047 -35.003  1.00  0.00     0.000 C 
BRANCH   6   7
ATOM      7  C   UNL     1      57.064  31.105 -33.471  1.00  0.00     0.000 C 
BRANCH   7   8
ATOM      8  C   UNL     1      56.828  29.710 -32.873  1.00  0.00     0.006 C 
BRANCH   8   9
ATOM      9  C   UNL     1      55.729  29.714 -31.803  1.00  0.00     0.053 C 
BRANCH   9  10
ATOM     10  C   UNL     1      56.302  29.710 -30.419  1.00  0.00     0.041 C 
ATOM     11  O   UNL     1      56.271  30.753 -29.717  1.00  0.00    -0.550 OA
ATOM     12  O   UNL     1      56.842  28.542 -29.895  1.00  0.00    -0.550 OA
ENDBRANCH   9  10
ENDBRANCH   8   9
ENDBRANCH   7   8
ENDBRANCH   6   7
ENDBRANCH   5   6
ENDBRANCH   4   5
ENDBRANCH   3   4
ENDBRANCH   1   3
BRANCH   2  13
ATOM     13  C   UNL     1      54.291  27.269 -38.922  1.00  0.00     0.027 C 
BRANCH  13  14
ATOM     14  C   UNL     1      54.214  26.118 -37.905  1.00  0.00     0.004 C 
BRANCH  14  15
ATOM     15  C   UNL     1      54.900  24.819 -38.366  1.00  0.00     0.000 C 
BRANCH  15  16
ATOM     16  C   UNL     1      55.098  23.812 -37.224  1.00  0.00     0.000 C 
BRANCH  16  17
ATOM     17  C   UNL     1      54.516  24.355 -35.909  1.00  0.00    -0.000 C 
BRANCH  17  18
ATOM     18  C   UNL     1      55.600  24.840 -34.929  1.00  0.00    -0.000 C 
BRANCH  18  19
ATOM     19  C   UNL     1      56.290  26.156 -35.328  1.00  0.00    -0.003 C 
ATOM     20  C   UNL     1      55.567  27.395 -34.800  1.00  0.00     0.004 C 
ENDBRANCH  18  19
ENDBRANCH  17  18
ENDBRANCH  16  17
ENDBRANCH  15  16
ENDBRANCH  14  15
ENDBRANCH  13  14
ENDBRANCH   2  13
TORSDOF 15
ENDMDL
MODEL 7
REMARK VINA RESULT:    -0.733      4.423      8.959
REMARK INTER + INTRA:          -1.840
REMARK INTER:                  -1.389
REMARK INTRA:                  -0.452
REMARK UNBOUND:                -0.465
REMARK SMILES CCCCCCCCC=CCCCCCCCC(=O)[O-]
REMARK SMILES IDX 10 1 9 2 11 3 12 4 13 5 14 6 15 7 16 8 17 9 18 10 19 11
REMARK SMILES IDX 20 12 8 13 7 14 6 15 5 16 4 17 3 18 2 19 1 20
REMARK H PARENT
REMARK Flexibility Score: inf
ROOT
ATOM      1  C   UNL     1      45.913  12.382 -31.112  1.00  0.00    -0.031 C 
ATOM      2  C   UNL     1      46.527  11.240 -30.773  1.00  0.00    -0.031 C 
ENDROOT
BRANCH   1   3
ATOM      3  C   UNL     1      45.664  12.721 -32.557  1.00  0.00     0.027 C 
BRANCH   3   4
ATOM      4  C   UNL     1      44.220  12.392 -32.961  1.00  0.00     0.004 C 
BRANCH   4   5
ATOM      5  C   UNL     1      44.077  12.102 -34.464  1.00  0.00     0.000 C 
BRANCH   5   6
ATOM      6  C   UNL     1      42.615  11.911 -34.896  1.00  0.00     0.000 C 
BRANCH   6   7
ATOM      7  C   UNL     1      42.315  12.703 -36.174  1.00  0.00     0.000 C 
BRANCH   7   8
ATOM      8  C   UNL     1      40.802  12.782 -36.431  1.00  0.00     0.006 C 
BRANCH   8   9
ATOM      9  C   UNL     1      40.160  13.999 -35.755  1.00  0.00     0.053 C 
BRANCH   9  10
ATOM     10  C   UNL     1      38.664  13.941 -35.813  1.00  0.00     0.041 C 
ATOM     11  O   UNL     1      37.982  14.104 -34.768  1.00  0.00    -0.550 OA
ATOM     12  O   UNL     1      38.023  13.738 -37.029  1.00  0.00    -0.550 OA
ENDBRANCH   9  10
ENDBRANCH   8   9
ENDBRANCH   7   8
ENDBRANCH   6   7
ENDBRANCH   5   6
ENDBRANCH   4   5
ENDBRANCH   3   4
ENDBRANCH   1   3
BRANCH   2  13
ATOM     13  C   UNL     1      46.799  10.885 -29.336  1.00  0.00     0.027 C 
BRANCH  13  14
ATOM     14  C   UNL     1      45.540  10.980 -28.456  1.00  0.00     0.004 C 
BRANCH  14  15
ATOM     15  C   UNL     1      45.819  11.374 -26.994  1.00  0.00     0.000 C 
BRANCH  15  16
ATOM     16  C   UNL     1      44.598  11.180 -26.083  1.00  0.00     0.000 C 
BRANCH  16  17
ATOM     17  C   UNL     1      44.292  12.465 -25.297  1.00  0.00    -0.000 C 
BRANCH  17  18
ATOM     18  C   UNL     1      44.809  12.418 -23.847  1.00  0.00    -0.000 C 
BRANCH  18  19
ATOM     19  C   UNL     1      46.054  11.540 -23.632  1.00  0.00    -0.003 C 
ATOM     20  C   UNL     1      46.849  11.924 -22.384  1.00  0.00     0.004 C 
ENDBRANCH  18  19
ENDBRANCH  17  18
ENDBRANCH  16  17
ENDBRANCH  15  16
ENDBRANCH  14  15
ENDBRANCH  13  14
ENDBRANCH   2  13
TORSDOF 15
ENDMDL
