MODEL 1
REMARK VINA RESULT:    -4.995      0.000      0.000
REMARK INTER + INTRA:         -12.037
REMARK INTER:                  -9.375
REMARK INTRA:                  -2.662
REMARK UNBOUND:                -2.662
REMARK SMILES CCCCCCCCC=CCCCCCCCC(=O)[O-]
REMARK SMILES IDX 10 1 9 2 11 3 12 4 13 5 14 6 15 7 16 8 17 9 18 10 19 11
REMARK SMILES IDX 20 12 8 13 7 14 6 15 5 16 4 17 3 18 2 19 1 20
REMARK H PARENT
REMARK Flexibility Score: inf
ROOT
ATOM      1  C   UNL     1      37.319  17.429  33.758  1.00  0.00    -0.031 C 
ATOM      2  C   UNL     1      37.819  16.407  33.049  1.00  0.00    -0.031 C 
ENDROOT
BRANCH   1   3
ATOM      3  C   UNL     1      35.841  17.711  33.759  1.00  0.00     0.027 C 
BRANCH   3   4
ATOM      4  C   UNL     1      35.137  16.977  32.610  1.00  0.00     0.004 C 
BRANCH   4   5
ATOM      5  C   UNL     1      34.297  17.920  31.733  1.00  0.00     0.000 C 
BRANCH   5   6
ATOM      6  C   UNL     1      34.009  17.331  30.340  1.00  0.00     0.000 C 
BRANCH   6   7
ATOM      7  C   UNL     1      34.455  15.865  30.214  1.00  0.00     0.000 C 
BRANCH   7   8
ATOM      8  C   UNL     1      34.994  15.530  28.813  1.00  0.00     0.006 C 
BRANCH   8   9
ATOM      9  C   UNL     1      33.889  15.549  27.747  1.00  0.00     0.053 C 
BRANCH   9  10
ATOM     10  C   UNL     1      34.183  16.532  26.655  1.00  0.00     0.041 C 
ATOM     11  O   UNL     1      35.118  17.366  26.789  1.00  0.00    -0.550 OA
ATOM     12  O   UNL     1      33.407  16.545  25.503  1.00  0.00    -0.550 OA
ENDBRANCH   9  10
ENDBRANCH   8   9
ENDBRANCH   7   8
ENDBRANCH   6   7
ENDBRANCH   5   6
ENDBRANCH   4   5
ENDBRANCH   3   4
ENDBRANCH   1   3
BRANCH   2  13
ATOM     13  C   UNL     1      39.295  16.107  33.030  1.00  0.00     0.027 C 
BRANCH  13  14
ATOM     14  C   UNL     1      40.115  17.121  33.846  1.00  0.00     0.004 C 
BRANCH  14  15
ATOM     15  C   UNL     1      40.742  18.252  33.008  1.00  0.00     0.000 C 
BRANCH  15  16
ATOM     16  C   UNL     1      40.953  17.854  31.538  1.00  0.00     0.000 C 
BRANCH  16  17
ATOM     17  C   UNL     1      40.166  18.748  30.566  1.00  0.00    -0.000 C 
BRANCH  17  18
ATOM     18  C   UNL     1      39.086  19.587  31.272  1.00  0.00    -0.000 C 
BRANCH  18  19
ATOM     19  C   UNL     1      37.672  19.282  30.752  1.00  0.00    -0.003 C 
ATOM     20  C   UNL     1      37.669  18.258  29.618  1.00  0.00     0.004 C 
ENDBRANCH  18  19
ENDBRANCH  17  18
ENDBRANCH  16  17
ENDBRANCH  15  16
ENDBRANCH  14  15
ENDBRANCH  13  14
ENDBRANCH   2  13
TORSDOF 15
ENDMDL
MODEL 2
REMARK VINA RESULT:    -4.866      2.999      6.915
REMARK INTER + INTRA:         -11.795
REMARK INTER:                  -9.237
REMARK INTRA:                  -2.559
REMARK UNBOUND:                -2.662
REMARK SMILES CCCCCCCCC=CCCCCCCCC(=O)[O-]
REMARK SMILES IDX 10 1 9 2 11 3 12 4 13 5 14 6 15 7 16 8 17 9 18 10 19 11
REMARK SMILES IDX 20 12 8 13 7 14 6 15 5 16 4 17 3 18 2 19 1 20
REMARK H PARENT
REMARK Flexibility Score: inf
ROOT
ATOM      1  C   UNL     1      37.786  16.066  27.961  1.00  0.00    -0.031 C 
ATOM      2  C   UNL     1      37.341  17.312  28.177  1.00  0.00    -0.031 C 
ENDROOT
BRANCH   1   3
ATOM      3  C   UNL     1      39.064  15.588  28.596  1.00  0.00     0.027 C 
BRANCH   3   4
ATOM      4  C   UNL     1      39.345  16.336  29.906  1.00  0.00     0.004 C 
BRANCH   4   5
ATOM      5  C   UNL     1      40.589  17.235  29.818  1.00  0.00     0.000 C 
BRANCH   5   6
ATOM      6  C   UNL     1      40.391  18.588  30.525  1.00  0.00     0.000 C 
BRANCH   6   7
ATOM      7  C   UNL     1      38.908  18.943  30.716  1.00  0.00     0.000 C 
BRANCH   7   8
ATOM      8  C   UNL     1      38.696  20.047  31.767  1.00  0.00     0.006 C 
BRANCH   8   9
ATOM      9  C   UNL     1      38.964  19.546  33.194  1.00  0.00     0.053 C 
BRANCH   9  10
ATOM     10  C   UNL     1      38.183  18.306  33.506  1.00  0.00     0.041 C 
ATOM     11  O   UNL     1      36.952  18.382  33.761  1.00  0.00    -0.550 OA
ATOM     12  O   UNL     1      38.821  17.073  33.545  1.00  0.00    -0.550 OA
ENDBRANCH   9  10
ENDBRANCH   8   9
ENDBRANCH   7   8
ENDBRANCH   6   7
ENDBRANCH   5   6
ENDBRANCH   4   5
ENDBRANCH   3   4
ENDBRANCH   1   3
BRANCH   2  13
ATOM     13  C   UNL     1      36.067  17.815  27.550  1.00  0.00     0.027 C 
BRANCH  13  14
ATOM     14  C   UNL     1      35.259  16.694  26.873  1.00  0.00     0.004 C 
BRANCH  14  15
ATOM     15  C   UNL     1      33.814  16.554  27.389  1.00  0.00     0.000 C 
BRANCH  15  16
ATOM     16  C   UNL     1      33.593  15.261  28.192  1.00  0.00     0.000 C 
BRANCH  16  17
ATOM     17  C   UNL     1      33.577  15.504  29.709  1.00  0.00    -0.000 C 
BRANCH  17  18
ATOM     18  C   UNL     1      34.973  15.383  30.346  1.00  0.00    -0.000 C 
BRANCH  18  19
ATOM     19  C   UNL     1      35.349  16.618  31.179  1.00  0.00    -0.003 C 
ATOM     20  C   UNL     1      34.411  17.799  30.938  1.00  0.00     0.004 C 
ENDBRANCH  18  19
ENDBRANCH  17  18
ENDBRANCH  16  17
ENDBRANCH  15  16
ENDBRANCH  14  15
ENDBRANCH  13  14
ENDBRANCH   2  13
TORSDOF 15
ENDMDL
MODEL 3
REMARK VINA RESULT:    -4.859      1.362      2.092
REMARK INTER + INTRA:         -11.781
REMARK INTER:                  -9.444
REMARK INTRA:                  -2.337
REMARK UNBOUND:                -2.662
REMARK SMILES CCCCCCCCC=CCCCCCCCC(=O)[O-]
REMARK SMILES IDX 10 1 9 2 11 3 12 4 13 5 14 6 15 7 16 8 17 9 18 10 19 11
REMARK SMILES IDX 20 12 8 13 7 14 6 15 5 16 4 17 3 18 2 19 1 20
REMARK H PARENT
REMARK Flexibility Score: inf
ROOT
ATOM      1  C   UNL     1      37.209  18.280  32.754  1.00  0.00    -0.031 C 
ATOM      2  C   UNL     1      38.339  18.582  33.408  1.00  0.00    -0.031 C 
ENDROOT
BRANCH   1   3
ATOM      3  C   UNL     1      36.194  17.353  33.366  1.00  0.00     0.027 C 
BRANCH   3   4
ATOM      4  C   UNL     1      35.238  16.798  32.302  1.00  0.00     0.004 C 
BRANCH   4   5
ATOM      5  C   UNL     1      34.635  17.900  31.416  1.00  0.00     0.000 C 
BRANCH   5   6
ATOM      6  C   UNL     1      33.790  17.333  30.261  1.00  0.00     0.000 C 
BRANCH   6   7
ATOM      7  C   UNL     1      34.170  15.887  29.906  1.00  0.00     0.000 C 
BRANCH   7   8
ATOM      8  C   UNL     1      33.243  15.279  28.838  1.00  0.00     0.006 C 
BRANCH   8   9
ATOM      9  C   UNL     1      33.966  15.058  27.502  1.00  0.00     0.053 C 
BRANCH   9  10
ATOM     10  C   UNL     1      33.165  15.568  26.343  1.00  0.00     0.041 C 
ATOM     11  O   UNL     1      33.426  16.692  25.839  1.00  0.00    -0.550 OA
ATOM     12  O   UNL     1      32.112  14.814  25.839  1.00  0.00    -0.550 OA
ENDBRANCH   9  10
ENDBRANCH   8   9
ENDBRANCH   7   8
ENDBRANCH   6   7
ENDBRANCH   5   6
ENDBRANCH   4   5
ENDBRANCH   3   4
ENDBRANCH   1   3
BRANCH   2  13
ATOM     13  C   UNL     1      39.372  19.504  32.814  1.00  0.00     0.027 C 
BRANCH  13  14
ATOM     14  C   UNL     1      39.333  19.523  31.276  1.00  0.00     0.004 C 
BRANCH  14  15
ATOM     15  C   UNL     1      40.383  18.618  30.604  1.00  0.00     0.000 C 
BRANCH  15  16
ATOM     16  C   UNL     1      39.940  17.147  30.531  1.00  0.00     0.000 C 
BRANCH  16  17
ATOM     17  C   UNL     1      39.265  16.799  29.195  1.00  0.00    -0.000 C 
BRANCH  17  18
ATOM     18  C   UNL     1      37.731  16.918  29.255  1.00  0.00    -0.000 C 
BRANCH  18  19
ATOM     19  C   UNL     1      37.218  18.224  28.628  1.00  0.00    -0.003 C 
ATOM     20  C   UNL     1      36.198  17.983  27.517  1.00  0.00     0.004 C 
ENDBRANCH  18  19
ENDBRANCH  17  18
ENDBRANCH  16  17
ENDBRANCH  15  16
ENDBRANCH  14  15
ENDBRANCH  13  14
ENDBRANCH   2  13
TORSDOF 15
ENDMDL
MODEL 4
REMARK VINA RESULT:    -4.809      2.828      6.818
REMARK INTER + INTRA:         -11.688
REMARK INTER:                  -9.335
REMARK INTRA:                  -2.353
REMARK UNBOUND:                -2.662
REMARK SMILES CCCCCCCCC=CCCCCCCCC(=O)[O-]
REMARK SMILES IDX 10 1 9 2 11 3 12 4 13 5 14 6 15 7 16 8 17 9 18 10 19 11
REMARK SMILES IDX 20 12 8 13 7 14 6 15 5 16 4 17 3 18 2 19 1 20
REMARK H PARENT
REMARK Flexibility Score: inf
ROOT
ATOM      1  C   UNL     1      36.943  16.841  28.174  1.00  0.00    -0.031 C 
ATOM      2  C   UNL     1      36.013  17.635  27.624  1.00  0.00    -0.031 C 
ENDROOT
BRANCH   1   3
ATOM      3  C   UNL     1      38.034  17.419  29.034  1.00  0.00     0.027 C 
BRANCH   3   4
ATOM      4  C   UNL     1      37.473  18.457  30.016  1.00  0.00     0.004 C 
BRANCH   4   5
ATOM      5  C   UNL     1      38.576  19.164  30.821  1.00  0.00     0.000 C 
BRANCH   5   6
ATOM      6  C   UNL     1      38.350  19.069  32.341  1.00  0.00     0.000 C 
BRANCH   6   7
ATOM      7  C   UNL     1      39.657  19.182  33.140  1.00  0.00     0.000 C 
BRANCH   7   8
ATOM      8  C   UNL     1      40.806  18.375  32.511  1.00  0.00     0.006 C 
BRANCH   8   9
ATOM      9  C   UNL     1      40.911  16.961  33.100  1.00  0.00     0.053 C 
BRANCH   9  10
ATOM     10  C   UNL     1      40.198  15.950  32.256  1.00  0.00     0.041 C 
ATOM     11  O   UNL     1      39.023  15.602  32.544  1.00  0.00    -0.550 OA
ATOM     12  O   UNL     1      40.842  15.372  31.169  1.00  0.00    -0.550 OA
ENDBRANCH   9  10
ENDBRANCH   8   9
ENDBRANCH   7   8
ENDBRANCH   6   7
ENDBRANCH   5   6
ENDBRANCH   4   5
ENDBRANCH   3   4
ENDBRANCH   1   3
BRANCH   2  13
ATOM     13  C   UNL     1      34.914  17.079  26.757  1.00  0.00     0.027 C 
BRANCH  13  14
ATOM     14  C   UNL     1      34.436  15.693  27.224  1.00  0.00     0.004 C 
BRANCH  14  15
ATOM     15  C   UNL     1      33.417  15.729  28.378  1.00  0.00     0.000 C 
BRANCH  15  16
ATOM     16  C   UNL     1      33.900  14.963  29.621  1.00  0.00     0.000 C 
BRANCH  16  17
ATOM     17  C   UNL     1      34.525  15.888  30.678  1.00  0.00    -0.000 C 
BRANCH  17  18
ATOM     18  C   UNL     1      33.980  17.326  30.608  1.00  0.00    -0.000 C 
BRANCH  18  19
ATOM     19  C   UNL     1      34.240  18.116  31.899  1.00  0.00    -0.003 C 
ATOM     20  C   UNL     1      35.084  17.338  32.907  1.00  0.00     0.004 C 
ENDBRANCH  18  19
ENDBRANCH  17  18
ENDBRANCH  16  17
ENDBRANCH  15  16
ENDBRANCH  14  15
ENDBRANCH  13  14
ENDBRANCH   2  13
TORSDOF 15
ENDMDL
MODEL 5
REMARK VINA RESULT:    -4.804      2.407      5.669
REMARK INTER + INTRA:         -11.677
REMARK INTER:                  -8.848
REMARK INTRA:                  -2.830
REMARK UNBOUND:                -2.662
REMARK SMILES CCCCCCCCC=CCCCCCCCC(=O)[O-]
REMARK SMILES IDX 10 1 9 2 11 3 12 4 13 5 14 6 15 7 16 8 17 9 18 10 19 11
REMARK SMILES IDX 20 12 8 13 7 14 6 15 5 16 4 17 3 18 2 19 1 20
REMARK H PARENT
REMARK Flexibility Score: inf
ROOT
ATOM      1  C   UNL     1      38.614  19.002  30.946  1.00  0.00    -0.031 C 
ATOM      2  C   UNL     1      37.384  18.975  30.415  1.00  0.00    -0.031 C 
ENDROOT
BRANCH   1   3
ATOM      3  C   UNL     1      38.878  19.742  32.230  1.00  0.00     0.027 C 
BRANCH   3   4
ATOM      4  C   UNL     1      39.707  18.889  33.200  1.00  0.00     0.004 C 
BRANCH   4   5
ATOM      5  C   UNL     1      39.791  17.416  32.768  1.00  0.00     0.000 C 
BRANCH   5   6
ATOM      6  C   UNL     1      38.765  16.529  33.496  1.00  0.00     0.000 C 
BRANCH   6   7
ATOM      7  C   UNL     1      37.940  15.664  32.529  1.00  0.00     0.000 C 
BRANCH   7   8
ATOM      8  C   UNL     1      36.470  16.111  32.444  1.00  0.00     0.006 C 
BRANCH   8   9
ATOM      9  C   UNL     1      36.135  17.197  33.477  1.00  0.00     0.053 C 
BRANCH   9  10
ATOM     10  C   UNL     1      34.764  17.764  33.265  1.00  0.00     0.041 C 
ATOM     11  O   UNL     1      34.302  17.883  32.100  1.00  0.00    -0.550 OA
ATOM     12  O   UNL     1      34.010  18.186  34.353  1.00  0.00    -0.550 OA
ENDBRANCH   9  10
ENDBRANCH   8   9
ENDBRANCH   7   8
ENDBRANCH   6   7
ENDBRANCH   5   6
ENDBRANCH   4   5
ENDBRANCH   3   4
ENDBRANCH   1   3
BRANCH   2  13
ATOM     13  C   UNL     1      37.095  18.244  29.130  1.00  0.00     0.027 C 
BRANCH  13  14
ATOM     14  C   UNL     1      37.804  16.880  29.053  1.00  0.00     0.004 C 
BRANCH  14  15
ATOM     15  C   UNL     1      37.160  15.884  28.070  1.00  0.00     0.000 C 
BRANCH  15  16
ATOM     16  C   UNL     1      36.673  14.600  28.760  1.00  0.00     0.000 C 
BRANCH  16  17
ATOM     17  C   UNL     1      35.173  14.344  28.542  1.00  0.00    -0.000 C 
BRANCH  17  18
ATOM     18  C   UNL     1      34.295  15.006  29.619  1.00  0.00    -0.000 C 
BRANCH  18  19
ATOM     19  C   UNL     1      33.631  16.299  29.123  1.00  0.00    -0.003 C 
ATOM     20  C   UNL     1      33.375  16.291  27.617  1.00  0.00     0.004 C 
ENDBRANCH  18  19
ENDBRANCH  17  18
ENDBRANCH  16  17
ENDBRANCH  15  16
ENDBRANCH  14  15
ENDBRANCH  13  14
ENDBRANCH   2  13
TORSDOF 15
ENDMDL
MODEL 6
REMARK VINA RESULT:    -4.803      1.290      3.629
REMARK INTER + INTRA:         -11.676
REMARK INTER:                  -8.917
REMARK INTRA:                  -2.760
REMARK UNBOUND:                -2.662
REMARK SMILES CCCCCCCCC=CCCCCCCCC(=O)[O-]
REMARK SMILES IDX 10 1 9 2 11 3 12 4 13 5 14 6 15 7 16 8 17 9 18 10 19 11
REMARK SMILES IDX 20 12 8 13 7 14 6 15 5 16 4 17 3 18 2 19 1 20
REMARK H PARENT
REMARK Flexibility Score: inf
ROOT
ATOM      1  C   UNL     1      37.288  17.957  29.294  1.00  0.00    -0.031 C 
ATOM      2  C   UNL     1      38.179  18.349  30.216  1.00  0.00    -0.031 C 
ENDROOT
BRANCH   1   3
ATOM      3  C   UNL     1      37.573  16.774  28.408  1.00  0.00     0.027 C 
BRANCH   3   4
ATOM      4  C   UNL     1      37.329  15.454  29.151  1.00  0.00     0.004 C 
BRANCH   4   5
ATOM      5  C   UNL     1      36.576  14.424  28.294  1.00  0.00     0.000 C 
BRANCH   5   6
ATOM      6  C   UNL     1      35.365  13.818  29.026  1.00  0.00     0.000 C 
BRANCH   6   7
ATOM      7  C   UNL     1      34.501  14.884  29.720  1.00  0.00     0.000 C 
BRANCH   7   8
ATOM      8  C   UNL     1      33.269  15.279  28.887  1.00  0.00     0.006 C 
BRANCH   8   9
ATOM      9  C   UNL     1      33.450  16.639  28.196  1.00  0.00     0.053 C 
BRANCH   9  10
ATOM     10  C   UNL     1      33.853  16.486  26.761  1.00  0.00     0.041 C 
ATOM     11  O   UNL     1      34.829  17.140  26.305  1.00  0.00    -0.550 OA
ATOM     12  O   UNL     1      33.135  15.645  25.921  1.00  0.00    -0.550 OA
ENDBRANCH   9  10
ENDBRANCH   8   9
ENDBRANCH   7   8
ENDBRANCH   6   7
ENDBRANCH   5   6
ENDBRANCH   4   5
ENDBRANCH   3   4
ENDBRANCH   1   3
BRANCH   2  13
ATOM     13  C   UNL     1      37.918  19.531  31.112  1.00  0.00     0.027 C 
BRANCH  13  14
ATOM     14  C   UNL     1      38.387  19.292  32.558  1.00  0.00     0.004 C 
BRANCH  14  15
ATOM     15  C   UNL     1      38.746  17.828  32.875  1.00  0.00     0.000 C 
BRANCH  15  16
ATOM     16  C   UNL     1      37.581  17.055  33.515  1.00  0.00     0.000 C 
BRANCH  16  17
ATOM     17  C   UNL     1      36.621  17.971  34.291  1.00  0.00    -0.000 C 
BRANCH  17  18
ATOM     18  C   UNL     1      35.162  17.840  33.819  1.00  0.00    -0.000 C 
BRANCH  18  19
ATOM     19  C   UNL     1      35.054  17.271  32.396  1.00  0.00    -0.003 C 
ATOM     20  C   UNL     1      34.287  18.192  31.449  1.00  0.00     0.004 C 
ENDBRANCH  18  19
ENDBRANCH  17  18
ENDBRANCH  16  17
ENDBRANCH  15  16
ENDBRANCH  14  15
ENDBRANCH  13  14
ENDBRANCH   2  13
TORSDOF 15
ENDMDL
MODEL 7
REMARK VINA RESULT:    -4.754      1.229      2.482
REMARK INTER + INTRA:         -11.585
REMARK INTER:                  -8.913
REMARK INTRA:                  -2.672
REMARK UNBOUND:                -2.662
REMARK SMILES CCCCCCCCC=CCCCCCCCC(=O)[O-]
REMARK SMILES IDX 10 1 9 2 11 3 12 4 13 5 14 6 15 7 16 8 17 9 18 10 19 11
REMARK SMILES IDX 20 12 8 13 7 14 6 15 5 16 4 17 3 18 2 19 1 20
REMARK H PARENT
REMARK Flexibility Score: inf
ROOT
ATOM      1  C   UNL     1      36.762  18.033  33.222  1.00  0.00    -0.031 C 
ATOM      2  C   UNL     1      37.656  18.845  33.804  1.00  0.00    -0.031 C 
ENDROOT
BRANCH   1   3
ATOM      3  C   UNL     1      35.436  17.757  33.877  1.00  0.00     0.027 C 
BRANCH   3   4
ATOM      4  C   UNL     1      34.286  17.863  32.866  1.00  0.00     0.004 C 
BRANCH   4   5
ATOM      5  C   UNL     1      34.783  18.059  31.424  1.00  0.00     0.000 C 
BRANCH   5   6
ATOM      6  C   UNL     1      33.876  17.371  30.388  1.00  0.00     0.000 C 
BRANCH   6   7
ATOM      7  C   UNL     1      34.267  15.906  30.140  1.00  0.00     0.000 C 
BRANCH   7   8
ATOM      8  C   UNL     1      33.423  15.249  29.034  1.00  0.00     0.006 C 
BRANCH   8   9
ATOM      9  C   UNL     1      34.220  15.048  27.738  1.00  0.00     0.053 C 
BRANCH   9  10
ATOM     10  C   UNL     1      34.433  16.339  27.007  1.00  0.00     0.041 C 
ATOM     11  O   UNL     1      33.496  16.847  26.337  1.00  0.00    -0.550 OA
ATOM     12  O   UNL     1      35.673  16.964  27.044  1.00  0.00    -0.550 OA
ENDBRANCH   9  10
ENDBRANCH   8   9
ENDBRANCH   7   8
ENDBRANCH   6   7
ENDBRANCH   5   6
ENDBRANCH   4   5
ENDBRANCH   3   4
ENDBRANCH   1   3
BRANCH   2  13
ATOM     13  C   UNL     1      38.990  19.134  33.170  1.00  0.00     0.027 C 
BRANCH  13  14
ATOM     14  C   UNL     1      38.858  19.707  31.748  1.00  0.00     0.004 C 
BRANCH  14  15
ATOM     15  C   UNL     1      39.350  18.763  30.634  1.00  0.00     0.000 C 
BRANCH  15  16
ATOM     16  C   UNL     1      38.205  18.234  29.755  1.00  0.00     0.000 C 
BRANCH  16  17
ATOM     17  C   UNL     1      37.919  16.743  29.992  1.00  0.00    -0.000 C 
BRANCH  17  18
ATOM     18  C   UNL     1      39.078  16.020  30.700  1.00  0.00    -0.000 C 
BRANCH  18  19
ATOM     19  C   UNL     1      38.613  15.237  31.938  1.00  0.00    -0.003 C 
ATOM     20  C   UNL     1      37.205  14.668  31.782  1.00  0.00     0.004 C 
ENDBRANCH  18  19
ENDBRANCH  17  18
ENDBRANCH  16  17
ENDBRANCH  15  16
ENDBRANCH  14  15
ENDBRANCH  13  14
ENDBRANCH   2  13
TORSDOF 15
ENDMDL
MODEL 8
REMARK VINA RESULT:    -4.753      1.918      3.327
REMARK INTER + INTRA:         -11.582
REMARK INTER:                  -8.632
REMARK INTRA:                  -2.950
REMARK UNBOUND:                -2.662
REMARK SMILES CCCCCCCCC=CCCCCCCCC(=O)[O-]
REMARK SMILES IDX 10 1 9 2 11 3 12 4 13 5 14 6 15 7 16 8 17 9 18 10 19 11
REMARK SMILES IDX 20 12 8 13 7 14 6 15 5 16 4 17 3 18 2 19 1 20
REMARK H PARENT
REMARK Flexibility Score: inf
ROOT
ATOM      1  C   UNL     1      38.385  17.269  29.767  1.00  0.00    -0.031 C 
ATOM      2  C   UNL     1      39.695  17.501  29.929  1.00  0.00    -0.031 C 
ENDROOT
BRANCH   1   3
ATOM      3  C   UNL     1      37.664  17.767  28.544  1.00  0.00     0.027 C 
BRANCH   3   4
ATOM      4  C   UNL     1      36.143  17.742  28.749  1.00  0.00     0.004 C 
BRANCH   4   5
ATOM      5  C   UNL     1      35.740  17.997  30.211  1.00  0.00     0.000 C 
BRANCH   5   6
ATOM      6  C   UNL     1      34.378  17.372  30.565  1.00  0.00     0.000 C 
BRANCH   6   7
ATOM      7  C   UNL     1      33.775  16.570  29.401  1.00  0.00     0.000 C 
BRANCH   7   8
ATOM      8  C   UNL     1      33.577  15.084  29.749  1.00  0.00     0.006 C 
BRANCH   8   9
ATOM      9  C   UNL     1      34.899  14.392  30.108  1.00  0.00     0.053 C 
BRANCH   9  10
ATOM     10  C   UNL     1      35.733  14.116  28.894  1.00  0.00     0.041 C 
ATOM     11  O   UNL     1      36.988  14.201  28.956  1.00  0.00    -0.550 OA
ATOM     12  O   UNL     1      35.122  13.793  27.689  1.00  0.00    -0.550 OA
ENDBRANCH   9  10
ENDBRANCH   8   9
ENDBRANCH   7   8
ENDBRANCH   6   7
ENDBRANCH   5   6
ENDBRANCH   4   5
ENDBRANCH   3   4
ENDBRANCH   1   3
BRANCH   2  13
ATOM     13  C   UNL     1      40.438  17.015  31.146  1.00  0.00     0.027 C 
BRANCH  13  14
ATOM     14  C   UNL     1      41.061  18.165  31.957  1.00  0.00     0.004 C 
BRANCH  14  15
ATOM     15  C   UNL     1      40.298  18.517  33.248  1.00  0.00     0.000 C 
BRANCH  15  16
ATOM     16  C   UNL     1      39.122  19.476  33.000  1.00  0.00     0.000 C 
BRANCH  16  17
ATOM     17  C   UNL     1      37.757  18.804  33.218  1.00  0.00    -0.000 C 
BRANCH  17  18
ATOM     18  C   UNL     1      37.879  17.382  33.794  1.00  0.00    -0.000 C 
BRANCH  18  19
ATOM     19  C   UNL     1      36.875  16.405  33.163  1.00  0.00    -0.003 C 
ATOM     20  C   UNL     1      37.541  15.135  32.636  1.00  0.00     0.004 C 
ENDBRANCH  18  19
ENDBRANCH  17  18
ENDBRANCH  16  17
ENDBRANCH  15  16
ENDBRANCH  14  15
ENDBRANCH  13  14
ENDBRANCH   2  13
TORSDOF 15
ENDMDL
MODEL 9
REMARK VINA RESULT:    -4.694      1.373      2.863
REMARK INTER + INTRA:         -11.471
REMARK INTER:                  -8.356
REMARK INTRA:                  -3.115
REMARK UNBOUND:                -2.662
REMARK SMILES CCCCCCCCC=CCCCCCCCC(=O)[O-]
REMARK SMILES IDX 10 1 9 2 11 3 12 4 13 5 14 6 15 7 16 8 17 9 18 10 19 11
REMARK SMILES IDX 20 12 8 13 7 14 6 15 5 16 4 17 3 18 2 19 1 20
REMARK H PARENT
REMARK Flexibility Score: inf
ROOT
ATOM      1  C   UNL     1      36.868  17.826  30.674  1.00  0.00    -0.031 C 
ATOM      2  C   UNL     1      37.663  17.894  29.597  1.00  0.00    -0.031 C 
ENDROOT
BRANCH   1   3
ATOM      3  C   UNL     1      35.411  18.189  30.575  1.00  0.00     0.027 C 
BRANCH   3   4
ATOM      4  C   UNL     1      34.523  17.080  31.156  1.00  0.00     0.004 C 
BRANCH   4   5
ATOM      5  C   UNL     1      35.288  15.765  31.375  1.00  0.00     0.000 C 
BRANCH   5   6
ATOM      6  C   UNL     1      34.909  14.683  30.347  1.00  0.00     0.000 C 
BRANCH   6   7
ATOM      7  C   UNL     1      36.082  14.301  29.432  1.00  0.00     0.000 C 
BRANCH   7   8
ATOM      8  C   UNL     1      36.033  15.025  28.075  1.00  0.00     0.006 C 
BRANCH   8   9
ATOM      9  C   UNL     1      34.633  15.572  27.761  1.00  0.00     0.053 C 
BRANCH   9  10
ATOM     10  C   UNL     1      34.680  16.683  26.758  1.00  0.00     0.041 C 
ATOM     11  O   UNL     1      35.506  17.624  26.894  1.00  0.00    -0.550 OA
ATOM     12  O   UNL     1      33.791  16.696  25.690  1.00  0.00    -0.550 OA
ENDBRANCH   9  10
ENDBRANCH   8   9
ENDBRANCH   7   8
ENDBRANCH   6   7
ENDBRANCH   5   6
ENDBRANCH   4   5
ENDBRANCH   3   4
ENDBRANCH   1   3
BRANCH   2  13
ATOM     13  C   UNL     1      39.125  17.538  29.673  1.00  0.00     0.027 C 
BRANCH  13  14
ATOM     14  C   UNL     1      39.359  16.026  29.834  1.00  0.00     0.004 C 
BRANCH  14  15
ATOM     15  C   UNL     1      39.996  15.621  31.176  1.00  0.00     0.000 C 
BRANCH  15  16
ATOM     16  C   UNL     1      38.962  15.470  32.303  1.00  0.00     0.000 C 
BRANCH  16  17
ATOM     17  C   UNL     1      39.070  16.584  33.358  1.00  0.00    -0.000 C 
BRANCH  17  18
ATOM     18  C   UNL     1      40.432  17.300  33.329  1.00  0.00    -0.000 C 
BRANCH  18  19
ATOM     19  C   UNL     1      40.308  18.784  32.952  1.00  0.00    -0.003 C 
ATOM     20  C   UNL     1      38.895  19.328  33.158  1.00  0.00     0.004 C 
ENDBRANCH  18  19
ENDBRANCH  17  18
ENDBRANCH  16  17
ENDBRANCH  15  16
ENDBRANCH  14  15
ENDBRANCH  13  14
ENDBRANCH   2  13
TORSDOF 15
ENDMDL
