MODEL 1
REMARK VINA RESULT:    -2.967      0.000      0.000
REMARK INTER + INTRA:          -3.351
REMARK INTER:                  -3.314
REMARK INTRA:                  -0.037
REMARK UNBOUND:                -0.037
REMARK SMILES CCCC(=O)[O-]
REMARK SMILES IDX 3 1 4 2 5 3 6 4 2 5 1 6
REMARK H PARENT
REMARK Flexibility Score: inf
ROOT
ATOM      1  C   UNL     1      34.539  24.013 219.010  1.00  0.00     0.052 C 
ENDROOT
BRANCH   1   2
ATOM      2  C   UNL     1      34.009  23.821 220.399  1.00  0.00     0.041 C 
ATOM      3  O   UNL     1      32.768  23.758 220.600  1.00  0.00    -0.550 OA
ATOM      4  O   UNL     1      34.886  23.748 221.474  1.00  0.00    -0.550 OA
ENDBRANCH   1   2
BRANCH   1   5
ATOM      5  C   UNL     1      36.042  24.318 219.012  1.00  0.00     0.003 C 
ATOM      6  C   UNL     1      36.866  23.189 218.393  1.00  0.00     0.004 C 
ENDBRANCH   1   5
TORSDOF 2
ENDMDL
MODEL 2
REMARK VINA RESULT:    -2.962      1.927      2.148
REMARK INTER + INTRA:          -3.345
REMARK INTER:                  -3.329
REMARK INTRA:                  -0.016
REMARK UNBOUND:                -0.037
REMARK SMILES CCCC(=O)[O-]
REMARK SMILES IDX 3 1 4 2 5 3 6 4 2 5 1 6
REMARK H PARENT
REMARK Flexibility Score: inf
ROOT
ATOM      1  C   UNL     1      35.788  24.186 220.462  1.00  0.00     0.052 C 
ENDROOT
BRANCH   1   2
ATOM      2  C   UNL     1      35.663  23.633 221.849  1.00  0.00     0.041 C 
ATOM      3  O   UNL     1      36.045  22.459 222.099  1.00  0.00    -0.550 OA
ATOM      4  O   UNL     1      35.094  24.402 222.856  1.00  0.00    -0.550 OA
ENDBRANCH   1   2
BRANCH   1   5
ATOM      5  C   UNL     1      36.834  23.423 219.638  1.00  0.00     0.003 C 
ATOM      6  C   UNL     1      36.535  23.462 218.139  1.00  0.00     0.004 C 
ENDBRANCH   1   5
TORSDOF 2
ENDMDL
MODEL 3
REMARK VINA RESULT:    -2.939      1.896      2.098
REMARK INTER + INTRA:          -3.319
REMARK INTER:                  -3.310
REMARK INTRA:                  -0.010
REMARK UNBOUND:                -0.037
REMARK SMILES CCCC(=O)[O-]
REMARK SMILES IDX 3 1 4 2 5 3 6 4 2 5 1 6
REMARK H PARENT
REMARK Flexibility Score: inf
ROOT
ATOM      1  C   UNL     1      35.600  24.002 220.538  1.00  0.00     0.052 C 
ENDROOT
BRANCH   1   2
ATOM      2  C   UNL     1      35.633  23.616 221.985  1.00  0.00     0.041 C 
ATOM      3  O   UNL     1      35.181  24.401 222.860  1.00  0.00    -0.550 OA
ATOM      4  O   UNL     1      36.194  22.405 222.370  1.00  0.00    -0.550 OA
ENDBRANCH   1   2
BRANCH   1   5
ATOM      5  C   UNL     1      36.815  23.456 219.776  1.00  0.00     0.003 C 
ATOM      6  C   UNL     1      36.620  23.501 218.261  1.00  0.00     0.004 C 
ENDBRANCH   1   5
TORSDOF 2
ENDMDL
MODEL 4
REMARK VINA RESULT:    -2.810      2.359      3.172
REMARK INTER + INTRA:          -3.176
REMARK INTER:                  -3.164
REMARK INTRA:                  -0.012
REMARK UNBOUND:                -0.037
REMARK SMILES CCCC(=O)[O-]
REMARK SMILES IDX 3 1 4 2 5 3 6 4 2 5 1 6
REMARK H PARENT
REMARK Flexibility Score: inf
ROOT
ATOM      1  C   UNL     1      36.108  24.133 220.415  1.00  0.00     0.052 C 
ENDROOT
BRANCH   1   2
ATOM      2  C   UNL     1      35.600  23.969 219.015  1.00  0.00     0.041 C 
ATOM      3  O   UNL     1      34.384  24.168 218.755  1.00  0.00    -0.550 OA
ATOM      4  O   UNL     1      36.463  23.563 218.004  1.00  0.00    -0.550 OA
ENDBRANCH   1   2
BRANCH   1   5
ATOM      5  C   UNL     1      34.993  23.939 221.451  1.00  0.00     0.003 C 
ATOM      6  C   UNL     1      35.389  24.451 222.835  1.00  0.00     0.004 C 
ENDBRANCH   1   5
TORSDOF 2
ENDMDL
MODEL 5
REMARK VINA RESULT:    -2.706      2.113      2.868
REMARK INTER + INTRA:          -3.060
REMARK INTER:                  -3.051
REMARK INTRA:                  -0.009
REMARK UNBOUND:                -0.037
REMARK SMILES CCCC(=O)[O-]
REMARK SMILES IDX 3 1 4 2 5 3 6 4 2 5 1 6
REMARK H PARENT
REMARK Flexibility Score: inf
ROOT
ATOM      1  C   UNL     1      35.889  24.342 220.795  1.00  0.00     0.052 C 
ENDROOT
BRANCH   1   2
ATOM      2  C   UNL     1      36.777  23.328 221.450  1.00  0.00     0.041 C 
ATOM      3  O   UNL     1      36.289  22.473 222.236  1.00  0.00    -0.550 OA
ATOM      4  O   UNL     1      38.147  23.350 221.220  1.00  0.00    -0.550 OA
ENDBRANCH   1   2
BRANCH   1   5
ATOM      5  C   UNL     1      35.779  24.108 219.282  1.00  0.00     0.003 C 
ATOM      6  C   UNL     1      34.332  24.136 218.792  1.00  0.00     0.004 C 
ENDBRANCH   1   5
TORSDOF 2
ENDMDL
MODEL 6
REMARK VINA RESULT:    -2.690      2.576      3.636
REMARK INTER + INTRA:          -3.041
REMARK INTER:                  -3.012
REMARK INTRA:                  -0.029
REMARK UNBOUND:                -0.037
REMARK SMILES CCCC(=O)[O-]
REMARK SMILES IDX 3 1 4 2 5 3 6 4 2 5 1 6
REMARK H PARENT
REMARK Flexibility Score: inf
ROOT
ATOM      1  C   UNL     1      35.551  24.203 220.134  1.00  0.00     0.052 C 
ENDROOT
BRANCH   1   2
ATOM      2  C   UNL     1      36.562  23.564 219.232  1.00  0.00     0.041 C 
ATOM      3  O   UNL     1      37.693  23.237 219.679  1.00  0.00    -0.550 OA
ATOM      4  O   UNL     1      36.266  23.360 217.889  1.00  0.00    -0.550 OA
ENDBRANCH   1   2
BRANCH   1   5
ATOM      5  C   UNL     1      35.446  23.472 221.479  1.00  0.00     0.003 C 
ATOM      6  C   UNL     1      35.520  24.428 222.669  1.00  0.00     0.004 C 
ENDBRANCH   1   5
TORSDOF 2
ENDMDL
MODEL 7
REMARK VINA RESULT:    -2.623      2.200      2.521
REMARK INTER + INTRA:          -2.967
REMARK INTER:                  -2.940
REMARK INTRA:                  -0.027
REMARK UNBOUND:                -0.037
REMARK SMILES CCCC(=O)[O-]
REMARK SMILES IDX 3 1 4 2 5 3 6 4 2 5 1 6
REMARK H PARENT
REMARK Flexibility Score: inf
ROOT
ATOM      1  C   UNL     1      35.143  23.988 221.781  1.00  0.00     0.052 C 
ENDROOT
BRANCH   1   2
ATOM      2  C   UNL     1      34.325  23.921 220.527  1.00  0.00     0.041 C 
ATOM      3  O   UNL     1      33.085  23.713 220.591  1.00  0.00    -0.550 OA
ATOM      4  O   UNL     1      34.940  24.053 219.288  1.00  0.00    -0.550 OA
ENDBRANCH   1   2
BRANCH   1   5
ATOM      5  C   UNL     1      36.078  22.779 221.916  1.00  0.00     0.003 C 
ATOM      6  C   UNL     1      37.539  23.189 222.098  1.00  0.00     0.004 C 
ENDBRANCH   1   5
TORSDOF 2
ENDMDL
MODEL 8
REMARK VINA RESULT:    -2.582      1.926      2.428
REMARK INTER + INTRA:          -2.921
REMARK INTER:                  -2.886
REMARK INTRA:                  -0.035
REMARK UNBOUND:                -0.037
REMARK SMILES CCCC(=O)[O-]
REMARK SMILES IDX 3 1 4 2 5 3 6 4 2 5 1 6
REMARK H PARENT
REMARK Flexibility Score: inf
ROOT
ATOM      1  C   UNL     1      36.228  22.899 221.766  1.00  0.00     0.052 C 
ENDROOT
BRANCH   1   2
ATOM      2  C   UNL     1      35.122  23.884 221.997  1.00  0.00     0.041 C 
ATOM      3  O   UNL     1      35.176  24.679 222.972  1.00  0.00    -0.550 OA
ATOM      4  O   UNL     1      34.017  23.900 221.154  1.00  0.00    -0.550 OA
ENDBRANCH   1   2
BRANCH   1   5
ATOM      5  C   UNL     1      37.322  23.475 220.857  1.00  0.00     0.003 C 
ATOM      6  C   UNL     1      36.981  23.336 219.374  1.00  0.00     0.004 C 
ENDBRANCH   1   5
TORSDOF 2
ENDMDL
MODEL 9
REMARK VINA RESULT:    -2.460      3.133      3.757
REMARK INTER + INTRA:          -2.785
REMARK INTER:                  -2.717
REMARK INTRA:                  -0.068
REMARK UNBOUND:                -0.037
REMARK SMILES CCCC(=O)[O-]
REMARK SMILES IDX 3 1 4 2 5 3 6 4 2 5 1 6
REMARK H PARENT
REMARK Flexibility Score: inf
ROOT
ATOM      1  C   UNL     1      35.322  24.666 223.066  1.00  0.00     0.052 C 
ENDROOT
BRANCH   1   2
ATOM      2  C   UNL     1      35.588  23.695 221.955  1.00  0.00     0.041 C 
ATOM      3  O   UNL     1      35.278  23.988 220.771  1.00  0.00    -0.550 OA
ATOM      4  O   UNL     1      36.147  22.454 222.234  1.00  0.00    -0.550 OA
ENDBRANCH   1   2
BRANCH   1   5
ATOM      5  C   UNL     1      36.612  25.061 223.796  1.00  0.00     0.003 C 
ATOM      6  C   UNL     1      37.547  25.894 222.920  1.00  0.00     0.004 C 
ENDBRANCH   1   5
TORSDOF 2
ENDMDL
